MODEL 1
REMARK VINA RESULT:     -11.9      0.000      0.000
REMARK SMILES O=C(OCCOC(=O)[C@H]1CCCC[N@H+]1Cc1ccc([N+](=O)[O-])o1)c1ccc(-c2c3nc(c(-c4c(F)c(F)c(F)c(F)c4F)c4ccc([nH]4)c(-c4c(F)c(F)c(F)c(F)c4F)c4nc(c(-c5c(F)c(F)c(F)c(F)c5F)c5ccc2[nH]5)C=C4)C=C3)cc1
REMARK SMILES IDX 5 1 4 2 3 3 2 4 1 5 24 6 25 7 86 8 26 9 85 10 27 11 28 12
REMARK SMILES IDX 29 13 79 14 30 15 84 16 78 17 80 18 31 19 83 20 77 21 76 22
REMARK SMILES IDX 32 24 64 25 44 26 63 27 45 28 48 29 62 30 81 31 46 32 47 33
REMARK SMILES IDX 61 35 82 36 49 37 33 38 34 39 42 40 35 41 36 42 40 43 43 44
REMARK SMILES IDX 37 45 38 46 41 47 39 48 65 49 66 50 74 51 67 52 68 53 72 54
REMARK SMILES IDX 75 55 69 56 70 57 73 58 71 59 50 60 51 61 59 62 52 63 53 64
REMARK SMILES IDX 57 65 60 66 54 67 55 68 58 69 56 70 6 71 7 72 8 73 9 74
REMARK SMILES IDX 10 75 14 76 11 77 13 78 12 80 15 81 16 82 17 83 23 84 18 85
REMARK SMILES IDX 19 86 20 87 21 88 22 89
REMARK H PARENT 80 23 48 34 14 79
REMARK Flexibility Score: inf
ROOT
ATOM      1  C   UNL A   1      32.218  28.978  25.433  1.00  0.00     0.274 C 
ENDROOT
BRANCH   1   2
ATOM      2  C   UNL A   1      31.798  30.448  25.569  1.00  0.00     0.275 C 
BRANCH   2   3
ATOM      3  O   UNL A   1      31.776  30.825  26.944  1.00  0.00    -0.458 OA
BRANCH   3   4
ATOM      4  C   UNL A   1      32.645  31.730  27.433  1.00  0.00     0.338 C 
ATOM      5  O   UNL A   1      32.479  32.930  27.244  1.00  0.00    -0.246 OA
BRANCH   4   6
ATOM      6  C   UNL A   1      33.963  31.273  27.947  1.00  0.00     0.060 A 
ATOM      7  C   UNL A   1      34.616  29.625  27.973  1.00  0.00     0.016 A 
ATOM      8  C   UNL A   1      35.134  32.556  28.084  1.00  0.00     0.016 A 
ATOM      9  C   UNL A   1      36.567  29.420  28.033  1.00  0.00     0.010 A 
ATOM     10  C   UNL A   1      36.845  32.322  28.175  1.00  0.00     0.010 A 
ATOM     11  C   UNL A   1      37.617  30.796  28.224  1.00  0.00    -0.014 A 
BRANCH  11  12
ATOM     12  C   UNL A   1      38.863  30.473  29.040  1.00  0.00     0.031 A 
ATOM     13  C   UNL A   1      38.914  30.819  30.531  1.00  0.00     0.074 A 
ATOM     14  C   UNL A   1      39.704  29.518  28.566  1.00  0.00     0.049 A 
ATOM     15  N   UNL A   1      39.725  30.356  31.458  1.00  0.00    -0.248 NA
ATOM     16  C   UNL A   1      37.912  31.747  31.087  1.00  0.00     0.031 C 
ATOM     17  C   UNL A   1      39.679  28.966  27.204  1.00  0.00     0.029 A 
ATOM     18  N   UNL A   1      40.641  28.730  29.199  1.00  0.00    -0.354 N 
ATOM     19  C   UNL A   1      39.328  30.951  32.654  1.00  0.00     0.074 A 
ATOM     20  C   UNL A   1      38.159  31.731  32.383  1.00  0.00     0.031 C 
ATOM     21  C   UNL A   1      40.395  27.832  27.167  1.00  0.00     0.029 A 
ATOM     22  C   UNL A   1      41.140  27.710  28.411  1.00  0.00     0.049 A 
ATOM     23  H   UNL A   1      40.930  28.880  30.128  1.00  0.00     0.167 HD
ATOM     24  C   UNL A   1      39.929  30.936  33.865  1.00  0.00     0.037 A 
ATOM     25  C   UNL A   1      42.145  26.831  28.622  1.00  0.00     0.037 A 
ATOM     26  C   UNL A   1      41.156  30.249  34.123  1.00  0.00     0.049 A 
ATOM     27  C   UNL A   1      42.906  26.964  29.916  1.00  0.00     0.074 A 
ATOM     28  C   UNL A   1      41.963  30.314  35.242  1.00  0.00     0.029 A 
ATOM     29  N   UNL A   1      41.768  29.395  33.222  1.00  0.00    -0.354 N 
ATOM     30  N   UNL A   1      42.599  27.653  30.989  1.00  0.00    -0.248 NA
ATOM     31  C   UNL A   1      44.196  26.266  30.001  1.00  0.00     0.031 C 
ATOM     32  C   UNL A   1      43.115  29.573  34.977  1.00  0.00     0.029 A 
ATOM     33  C   UNL A   1      42.977  28.971  33.735  1.00  0.00     0.049 A 
ATOM     34  H   UNL A   1      41.398  29.130  32.349  1.00  0.00     0.167 HD
ATOM     35  C   UNL A   1      43.668  27.499  31.860  1.00  0.00     0.074 A 
ATOM     36  C   UNL A   1      44.600  26.596  31.219  1.00  0.00     0.031 C 
ATOM     37  C   UNL A   1      43.882  28.078  33.065  1.00  0.00     0.037 A 
BRANCH  24  38
ATOM     38  C   UNL A   1      39.388  31.859  34.921  1.00  0.00     0.064 A 
ATOM     39  C   UNL A   1      39.641  33.237  34.938  1.00  0.00     0.173 A 
ATOM     40  C   UNL A   1      38.591  31.324  35.947  1.00  0.00     0.173 A 
ATOM     41  F   UNL A   1      40.437  33.790  34.010  1.00  0.00    -0.203 F 
ATOM     42  C   UNL A   1      39.109  34.047  35.942  1.00  0.00     0.198 A 
ATOM     43  C   UNL A   1      38.042  32.139  36.932  1.00  0.00     0.198 A 
ATOM     44  F   UNL A   1      38.344  30.006  35.991  1.00  0.00    -0.203 F 
ATOM     45  F   UNL A   1      39.389  35.357  35.964  1.00  0.00    -0.200 F 
ATOM     46  C   UNL A   1      38.301  33.498  36.930  1.00  0.00     0.200 A 
ATOM     47  F   UNL A   1      37.267  31.602  37.885  1.00  0.00    -0.200 F 
ATOM     48  F   UNL A   1      37.784  34.281  37.887  1.00  0.00    -0.200 F 
ENDBRANCH  24  38
BRANCH  25  49
ATOM     49  C   UNL A   1      42.630  25.915  27.538  1.00  0.00     0.064 A 
ATOM     50  C   UNL A   1      42.189  24.587  27.422  1.00  0.00     0.173 A 
ATOM     51  C   UNL A   1      43.626  26.327  26.630  1.00  0.00     0.173 A 
ATOM     52  F   UNL A   1      41.280  24.104  28.282  1.00  0.00    -0.203 F 
ATOM     53  C   UNL A   1      42.725  23.721  26.462  1.00  0.00     0.198 A 
ATOM     54  C   UNL A   1      44.112  25.484  25.634  1.00  0.00     0.198 A 
ATOM     55  F   UNL A   1      44.140  27.564  26.706  1.00  0.00    -0.203 F 
ATOM     56  F   UNL A   1      42.341  22.436  26.432  1.00  0.00    -0.200 F 
ATOM     57  C   UNL A   1      43.674  24.174  25.560  1.00  0.00     0.200 A 
ATOM     58  F   UNL A   1      45.015  25.943  24.757  1.00  0.00    -0.200 F 
ATOM     59  F   UNL A   1      44.180  23.349  24.634  1.00  0.00    -0.200 F 
ENDBRANCH  25  49
BRANCH  37  60
ATOM     60  C   UNL A   1      45.164  27.752  33.763  1.00  0.00     0.064 A 
ATOM     61  C   UNL A   1      45.273  26.643  34.613  1.00  0.00     0.173 A 
ATOM     62  C   UNL A   1      46.308  28.529  33.533  1.00  0.00     0.173 A 
ATOM     63  F   UNL A   1      44.202  25.875  34.865  1.00  0.00    -0.203 F 
ATOM     64  C   UNL A   1      46.479  26.343  35.237  1.00  0.00     0.198 A 
ATOM     65  C   UNL A   1      47.520  28.203  34.128  1.00  0.00     0.198 A 
ATOM     66  F   UNL A   1      46.254  29.590  32.714  1.00  0.00    -0.203 F 
ATOM     67  F   UNL A   1      46.550  25.310  36.088  1.00  0.00    -0.200 F 
ATOM     68  C   UNL A   1      47.602  27.117  34.988  1.00  0.00     0.200 A 
ATOM     69  F   UNL A   1      48.610  28.939  33.869  1.00  0.00    -0.200 F 
ATOM     70  F   UNL A   1      48.766  26.821  35.583  1.00  0.00    -0.200 F 
ENDBRANCH  37  60
ENDBRANCH  11  12
ENDBRANCH   4   6
ENDBRANCH   3   4
ENDBRANCH   2   3
ENDBRANCH   1   2
BRANCH   1  71
ATOM     71  O   UNL A   1      31.526  28.088  26.338  1.00  0.00    -0.458 OA
BRANCH  71  72
ATOM     72  C   UNL A   1      31.358  26.745  26.086  1.00  0.00     0.365 C 
ATOM     73  O   UNL A   1      30.470  26.061  26.570  1.00  0.00    -0.245 OA
BRANCH  72  74
ATOM     74  C   UNL A   1      32.397  26.246  24.959  1.00  0.00     0.295 C 
ATOM     75  C   UNL A   1      33.755  25.091  25.745  1.00  0.00     0.078 C 
ATOM     76  N   UNL A   1      31.554  25.676  23.680  1.00  0.00    -0.317 N 
ATOM     77  C   UNL A   1      33.323  22.920  25.571  1.00  0.00     0.013 C 
ATOM     78  C   UNL A   1      30.984  24.119  23.522  1.00  0.00     0.263 C 
ATOM     79  H   UNL A   1      32.260  24.983  23.430  1.00  0.00     0.349 HD
ATOM     80  C   UNL A   1      31.835  22.589  24.300  1.00  0.00     0.062 C 
BRANCH  76  81
ATOM     81  C   UNL A   1      31.124  26.704  22.740  1.00  0.00     0.339 C 
BRANCH  81  82
ATOM     82  C   UNL A   1      29.836  27.286  23.168  1.00  0.00     0.165 A 
ATOM     83  C   UNL A   1      28.682  26.757  23.724  1.00  0.00     0.059 A 
ATOM     84  O   UNL A   1      29.630  28.571  22.772  1.00  0.00    -0.400 OA
ATOM     85  C   UNL A   1      27.661  27.717  23.481  1.00  0.00     0.134 A 
ATOM     86  C   UNL A   1      28.304  28.793  22.920  1.00  0.00     0.433 A 
BRANCH  86  87
ATOM     87  N   UNL A   1      27.834  29.992  22.318  1.00  0.00     0.102 N 
ATOM     88  O   UNL A   1      27.272  30.815  23.049  1.00  0.00    -0.256 OA
ATOM     89  O   UNL A   1      28.052  30.118  21.106  1.00  0.00    -0.256 OA
ENDBRANCH  86  87
ENDBRANCH  81  82
ENDBRANCH  76  81
ENDBRANCH  72  74
ENDBRANCH  71  72
ENDBRANCH   1  71
TORSDOF 14
ENDMDL
MODEL 2
REMARK VINA RESULT:     -11.5      6.251     11.635
REMARK SMILES O=C(OCCOC(=O)[C@H]1CCCC[N@H+]1Cc1ccc([N+](=O)[O-])o1)c1ccc(-c2c3nc(c(-c4c(F)c(F)c(F)c(F)c4F)c4ccc([nH]4)c(-c4c(F)c(F)c(F)c(F)c4F)c4nc(c(-c5c(F)c(F)c(F)c(F)c5F)c5ccc2[nH]5)C=C4)C=C3)cc1
REMARK SMILES IDX 5 1 4 2 3 3 2 4 1 5 24 6 25 7 86 8 26 9 85 10 27 11 28 12
REMARK SMILES IDX 29 13 79 14 30 15 84 16 78 17 80 18 31 19 83 20 77 21 76 22
REMARK SMILES IDX 32 24 64 25 44 26 63 27 45 28 48 29 62 30 81 31 46 32 47 33
REMARK SMILES IDX 61 35 82 36 49 37 33 38 34 39 42 40 35 41 36 42 40 43 43 44
REMARK SMILES IDX 37 45 38 46 41 47 39 48 65 49 66 50 74 51 67 52 68 53 72 54
REMARK SMILES IDX 75 55 69 56 70 57 73 58 71 59 50 60 51 61 59 62 52 63 53 64
REMARK SMILES IDX 57 65 60 66 54 67 55 68 58 69 56 70 6 71 7 72 8 73 9 74
REMARK SMILES IDX 10 75 14 76 11 77 13 78 12 80 15 81 16 82 17 83 23 84 18 85
REMARK SMILES IDX 19 86 20 87 21 88 22 89
REMARK H PARENT 80 23 48 34 14 79
REMARK Flexibility Score: inf
ROOT
ATOM      1  C   UNL A   1      50.174  25.773  32.416  1.00  0.00     0.274 C 
ENDROOT
BRANCH   1   2
ATOM      2  C   UNL A   1      49.199  24.812  33.110  1.00  0.00     0.275 C 
BRANCH   2   3
ATOM      3  O   UNL A   1      49.479  24.757  34.508  1.00  0.00    -0.458 OA
BRANCH   3   4
ATOM      4  C   UNL A   1      48.586  25.192  35.415  1.00  0.00     0.338 C 
ATOM      5  O   UNL A   1      48.766  25.013  36.615  1.00  0.00    -0.246 OA
BRANCH   4   6
ATOM      6  C   UNL A   1      47.238  25.627  34.963  1.00  0.00     0.060 A 
ATOM      7  C   UNL A   1      45.683  24.817  35.223  1.00  0.00     0.016 A 
ATOM      8  C   UNL A   1      47.154  27.322  34.567  1.00  0.00     0.016 A 
ATOM      9  C   UNL A   1      44.059  25.918  35.157  1.00  0.00     0.010 A 
ATOM     10  C   UNL A   1      45.692  28.241  34.481  1.00  0.00     0.010 A 
ATOM     11  C   UNL A   1      44.122  27.596  34.693  1.00  0.00    -0.014 A 
BRANCH  11  12
ATOM     12  C   UNL A   1      42.884  28.036  33.921  1.00  0.00     0.031 A 
ATOM     13  C   UNL A   1      41.999  29.161  34.469  1.00  0.00     0.074 A 
ATOM     14  C   UNL A   1      42.826  27.752  32.595  1.00  0.00     0.049 A 
ATOM     15  N   UNL A   1      41.107  29.890  33.834  1.00  0.00    -0.248 NA
ATOM     16  C   UNL A   1      42.156  29.578  35.874  1.00  0.00     0.031 C 
ATOM     17  C   UNL A   1      43.711  26.814  31.890  1.00  0.00     0.029 A 
ATOM     18  N   UNL A   1      42.102  28.321  31.569  1.00  0.00    -0.354 N 
ATOM     19  C   UNL A   1      40.615  30.801  34.768  1.00  0.00     0.074 A 
ATOM     20  C   UNL A   1      41.354  30.620  35.981  1.00  0.00     0.031 C 
ATOM     21  C   UNL A   1      43.616  27.016  30.567  1.00  0.00     0.029 A 
ATOM     22  C   UNL A   1      42.488  27.900  30.310  1.00  0.00     0.049 A 
ATOM     23  H   UNL A   1      41.375  28.967  31.719  1.00  0.00     0.167 HD
ATOM     24  C   UNL A   1      39.575  31.659  34.670  1.00  0.00     0.037 A 
ATOM     25  C   UNL A   1      41.947  28.122  29.093  1.00  0.00     0.037 A 
ATOM     26  C   UNL A   1      38.761  31.774  33.500  1.00  0.00     0.049 A 
ATOM     27  C   UNL A   1      40.682  28.941  29.047  1.00  0.00     0.074 A 
ATOM     28  C   UNL A   1      37.570  32.455  33.341  1.00  0.00     0.029 A 
ATOM     29  N   UNL A   1      39.045  31.153  32.296  1.00  0.00    -0.354 N 
ATOM     30  N   UNL A   1      40.142  29.680  29.986  1.00  0.00    -0.248 NA
ATOM     31  C   UNL A   1      39.905  28.892  27.801  1.00  0.00     0.031 C 
ATOM     32  C   UNL A   1      37.084  32.166  32.065  1.00  0.00     0.029 A 
ATOM     33  C   UNL A   1      38.020  31.386  31.402  1.00  0.00     0.049 A 
ATOM     34  H   UNL A   1      39.855  30.627  32.106  1.00  0.00     0.167 HD
ATOM     35  C   UNL A   1      38.950  30.154  29.459  1.00  0.00     0.074 A 
ATOM     36  C   UNL A   1      38.879  29.677  28.093  1.00  0.00     0.031 C 
ATOM     37  C   UNL A   1      37.981  30.888  30.055  1.00  0.00     0.037 A 
BRANCH  24  38
ATOM     38  C   UNL A   1      39.134  32.362  35.923  1.00  0.00     0.064 A 
ATOM     39  C   UNL A   1      39.550  33.657  36.262  1.00  0.00     0.173 A 
ATOM     40  C   UNL A   1      38.265  31.698  36.806  1.00  0.00     0.173 A 
ATOM     41  F   UNL A   1      40.418  34.315  35.480  1.00  0.00    -0.203 F 
ATOM     42  C   UNL A   1      39.105  34.263  37.438  1.00  0.00     0.198 A 
ATOM     43  C   UNL A   1      37.805  32.315  37.964  1.00  0.00     0.198 A 
ATOM     44  F   UNL A   1      37.863  30.446  36.540  1.00  0.00    -0.203 F 
ATOM     45  F   UNL A   1      39.538  35.488  37.765  1.00  0.00    -0.200 F 
ATOM     46  C   UNL A   1      38.225  33.596  38.280  1.00  0.00     0.200 A 
ATOM     47  F   UNL A   1      36.959  31.664  38.774  1.00  0.00    -0.200 F 
ATOM     48  F   UNL A   1      37.791  34.185  39.403  1.00  0.00    -0.200 F 
ENDBRANCH  24  38
BRANCH  25  49
ATOM     49  C   UNL A   1      42.443  27.409  27.869  1.00  0.00     0.064 A 
ATOM     50  C   UNL A   1      41.963  26.146  27.486  1.00  0.00     0.173 A 
ATOM     51  C   UNL A   1      43.487  27.946  27.089  1.00  0.00     0.173 A 
ATOM     52  F   UNL A   1      41.006  25.545  28.209  1.00  0.00    -0.203 F 
ATOM     53  C   UNL A   1      42.507  25.458  26.397  1.00  0.00     0.198 A 
ATOM     54  C   UNL A   1      43.984  27.289  25.967  1.00  0.00     0.198 A 
ATOM     55  F   UNL A   1      44.039  29.124  27.418  1.00  0.00    -0.203 F 
ATOM     56  F   UNL A   1      42.082  24.219  26.109  1.00  0.00    -0.200 F 
ATOM     57  C   UNL A   1      43.505  26.036  25.629  1.00  0.00     0.200 A 
ATOM     58  F   UNL A   1      44.936  27.869  25.224  1.00  0.00    -0.200 F 
ATOM     59  F   UNL A   1      44.020  25.382  24.579  1.00  0.00    -0.200 F 
ENDBRANCH  25  49
BRANCH  37  60
ATOM     60  C   UNL A   1      36.771  31.217  29.239  1.00  0.00     0.064 A 
ATOM     61  C   UNL A   1      36.566  32.503  28.719  1.00  0.00     0.173 A 
ATOM     62  C   UNL A   1      35.837  30.219  28.930  1.00  0.00     0.173 A 
ATOM     63  F   UNL A   1      37.433  33.490  28.994  1.00  0.00    -0.203 F 
ATOM     64  C   UNL A   1      35.447  32.785  27.944  1.00  0.00     0.198 A 
ATOM     65  C   UNL A   1      34.740  30.496  28.124  1.00  0.00     0.198 A 
ATOM     66  F   UNL A   1      36.002  28.970  29.392  1.00  0.00    -0.203 F 
ATOM     67  F   UNL A   1      35.241  34.034  27.502  1.00  0.00    -0.200 F 
ATOM     68  C   UNL A   1      34.540  31.781  27.641  1.00  0.00     0.200 A 
ATOM     69  F   UNL A   1      33.877  29.520  27.813  1.00  0.00    -0.200 F 
ATOM     70  F   UNL A   1      33.466  32.053  26.887  1.00  0.00    -0.200 F 
ENDBRANCH  37  60
ENDBRANCH  11  12
ENDBRANCH   4   6
ENDBRANCH   3   4
ENDBRANCH   2   3
ENDBRANCH   1   2
BRANCH   1  71
ATOM     71  O   UNL A   1      49.526  26.879  31.749  1.00  0.00    -0.458 OA
BRANCH  71  72
ATOM     72  C   UNL A   1      49.451  26.988  30.378  1.00  0.00     0.365 C 
ATOM     73  O   UNL A   1      50.423  27.049  29.640  1.00  0.00    -0.245 OA
BRANCH  72  74
ATOM     74  C   UNL A   1      47.921  26.873  29.883  1.00  0.00     0.295 C 
ATOM     75  C   UNL A   1      46.906  28.442  30.433  1.00  0.00     0.078 C 
ATOM     76  N   UNL A   1      47.909  26.468  28.299  1.00  0.00    -0.317 N 
ATOM     77  C   UNL A   1      46.747  30.020  28.878  1.00  0.00     0.013 C 
ATOM     78  C   UNL A   1      48.001  27.545  27.032  1.00  0.00     0.263 C 
ATOM     79  H   UNL A   1      47.045  26.974  28.101  1.00  0.00     0.349 HD
ATOM     80  C   UNL A   1      47.337  29.340  27.109  1.00  0.00     0.062 C 
BRANCH  76  81
ATOM     81  C   UNL A   1      48.034  25.038  28.046  1.00  0.00     0.339 C 
BRANCH  81  82
ATOM     82  C   UNL A   1      46.712  24.451  27.749  1.00  0.00     0.165 A 
ATOM     83  C   UNL A   1      45.569  24.231  28.501  1.00  0.00     0.059 A 
ATOM     84  O   UNL A   1      46.628  23.807  26.553  1.00  0.00    -0.400 OA
ATOM     85  C   UNL A   1      44.828  23.242  27.798  1.00  0.00     0.134 A 
ATOM     86  C   UNL A   1      45.514  23.044  26.624  1.00  0.00     0.433 A 
BRANCH  86  87
ATOM     87  N   UNL A   1      45.381  22.092  25.578  1.00  0.00     0.102 N 
ATOM     88  O   UNL A   1      44.542  22.323  24.699  1.00  0.00    -0.256 OA
ATOM     89  O   UNL A   1      46.141  21.116  25.626  1.00  0.00    -0.256 OA
ENDBRANCH  86  87
ENDBRANCH  81  82
ENDBRANCH  76  81
ENDBRANCH  72  74
ENDBRANCH  71  72
ENDBRANCH   1  71
TORSDOF 14
ENDMDL
MODEL 3
REMARK VINA RESULT:     -11.4      6.250     11.661
REMARK SMILES O=C(OCCOC(=O)[C@H]1CCCC[N@H+]1Cc1ccc([N+](=O)[O-])o1)c1ccc(-c2c3nc(c(-c4c(F)c(F)c(F)c(F)c4F)c4ccc([nH]4)c(-c4c(F)c(F)c(F)c(F)c4F)c4nc(c(-c5c(F)c(F)c(F)c(F)c5F)c5ccc2[nH]5)C=C4)C=C3)cc1
REMARK SMILES IDX 5 1 4 2 3 3 2 4 1 5 24 6 25 7 86 8 26 9 85 10 27 11 28 12
REMARK SMILES IDX 29 13 79 14 30 15 84 16 78 17 80 18 31 19 83 20 77 21 76 22
REMARK SMILES IDX 32 24 64 25 44 26 63 27 45 28 48 29 62 30 81 31 46 32 47 33
REMARK SMILES IDX 61 35 82 36 49 37 33 38 34 39 42 40 35 41 36 42 40 43 43 44
REMARK SMILES IDX 37 45 38 46 41 47 39 48 65 49 66 50 74 51 67 52 68 53 72 54
REMARK SMILES IDX 75 55 69 56 70 57 73 58 71 59 50 60 51 61 59 62 52 63 53 64
REMARK SMILES IDX 57 65 60 66 54 67 55 68 58 69 56 70 6 71 7 72 8 73 9 74
REMARK SMILES IDX 10 75 14 76 11 77 13 78 12 80 15 81 16 82 17 83 23 84 18 85
REMARK SMILES IDX 19 86 20 87 21 88 22 89
REMARK H PARENT 80 23 48 34 14 79
REMARK Flexibility Score: inf
ROOT
ATOM      1  C   UNL A   1      50.285  25.817  32.441  1.00  0.00     0.274 C 
ENDROOT
BRANCH   1   2
ATOM      2  C   UNL A   1      49.271  24.910  33.150  1.00  0.00     0.275 C 
BRANCH   2   3
ATOM      3  O   UNL A   1      49.549  24.865  34.548  1.00  0.00    -0.458 OA
BRANCH   3   4
ATOM      4  C   UNL A   1      48.608  25.184  35.457  1.00  0.00     0.338 C 
ATOM      5  O   UNL A   1      48.748  24.892  36.640  1.00  0.00    -0.246 OA
BRANCH   4   6
ATOM      6  C   UNL A   1      47.265  25.620  34.994  1.00  0.00     0.060 A 
ATOM      7  C   UNL A   1      45.712  24.791  35.202  1.00  0.00     0.016 A 
ATOM      8  C   UNL A   1      47.173  27.326  34.648  1.00  0.00     0.016 A 
ATOM      9  C   UNL A   1      44.081  25.880  35.140  1.00  0.00     0.010 A 
ATOM     10  C   UNL A   1      45.705  28.236  34.563  1.00  0.00     0.010 A 
ATOM     11  C   UNL A   1      44.137  27.571  34.728  1.00  0.00    -0.014 A 
BRANCH  11  12
ATOM     12  C   UNL A   1      42.909  28.025  33.948  1.00  0.00     0.031 A 
ATOM     13  C   UNL A   1      42.059  29.190  34.465  1.00  0.00     0.074 A 
ATOM     14  C   UNL A   1      42.837  27.704  32.630  1.00  0.00     0.049 A 
ATOM     15  N   UNL A   1      41.186  29.927  33.813  1.00  0.00    -0.248 NA
ATOM     16  C   UNL A   1      42.234  29.643  35.858  1.00  0.00     0.031 C 
ATOM     17  C   UNL A   1      43.692  26.721  31.950  1.00  0.00     0.029 A 
ATOM     18  N   UNL A   1      42.126  28.264  31.591  1.00  0.00    -0.354 N 
ATOM     19  C   UNL A   1      40.724  30.878  34.722  1.00  0.00     0.074 A 
ATOM     20  C   UNL A   1      41.462  30.710  35.937  1.00  0.00     0.031 C 
ATOM     21  C   UNL A   1      43.597  26.888  30.622  1.00  0.00     0.029 A 
ATOM     22  C   UNL A   1      42.494  27.797  30.344  1.00  0.00     0.049 A 
ATOM     23  H   UNL A   1      41.419  28.935  31.725  1.00  0.00     0.167 HD
ATOM     24  C   UNL A   1      39.709  31.762  34.603  1.00  0.00     0.037 A 
ATOM     25  C   UNL A   1      41.954  27.999  29.122  1.00  0.00     0.037 A 
ATOM     26  C   UNL A   1      38.894  31.867  33.433  1.00  0.00     0.049 A 
ATOM     27  C   UNL A   1      40.714  28.852  29.057  1.00  0.00     0.074 A 
ATOM     28  C   UNL A   1      37.723  32.578  33.258  1.00  0.00     0.029 A 
ATOM     29  N   UNL A   1      39.155  31.204  32.246  1.00  0.00    -0.354 N 
ATOM     30  N   UNL A   1      40.199  29.633  29.976  1.00  0.00    -0.248 NA
ATOM     31  C   UNL A   1      39.930  28.790  27.816  1.00  0.00     0.031 C 
ATOM     32  C   UNL A   1      37.222  32.266  31.992  1.00  0.00     0.029 A 
ATOM     33  C   UNL A   1      38.133  31.441  31.349  1.00  0.00     0.049 A 
ATOM     34  H   UNL A   1      39.948  30.649  32.069  1.00  0.00     0.167 HD
ATOM     35  C   UNL A   1      39.019  30.127  29.439  1.00  0.00     0.074 A 
ATOM     36  C   UNL A   1      38.929  29.612  28.089  1.00  0.00     0.031 C 
ATOM     37  C   UNL A   1      38.074  30.905  30.017  1.00  0.00     0.037 A 
BRANCH  24  38
ATOM     38  C   UNL A   1      39.294  32.514  35.836  1.00  0.00     0.064 A 
ATOM     39  C   UNL A   1      38.440  31.978  36.809  1.00  0.00     0.173 A 
ATOM     40  C   UNL A   1      39.776  33.819  36.032  1.00  0.00     0.173 A 
ATOM     41  F   UNL A   1      37.911  30.756  36.646  1.00  0.00    -0.203 F 
ATOM     42  C   UNL A   1      38.090  32.721  37.938  1.00  0.00     0.198 A 
ATOM     43  C   UNL A   1      39.445  34.547  37.170  1.00  0.00     0.198 A 
ATOM     44  F   UNL A   1      40.573  34.387  35.114  1.00  0.00    -0.203 F 
ATOM     45  F   UNL A   1      37.245  32.207  38.842  1.00  0.00    -0.200 F 
ATOM     46  C   UNL A   1      38.602  33.999  38.121  1.00  0.00     0.200 A 
ATOM     47  F   UNL A   1      39.940  35.781  37.339  1.00  0.00    -0.200 F 
ATOM     48  F   UNL A   1      38.273  34.705  39.211  1.00  0.00    -0.200 F 
ENDBRANCH  24  38
BRANCH  25  49
ATOM     49  C   UNL A   1      42.425  27.237  27.917  1.00  0.00     0.064 A 
ATOM     50  C   UNL A   1      43.336  27.776  26.995  1.00  0.00     0.173 A 
ATOM     51  C   UNL A   1      41.899  25.965  27.612  1.00  0.00     0.173 A 
ATOM     52  F   UNL A   1      43.841  29.003  27.189  1.00  0.00    -0.203 F 
ATOM     53  C   UNL A   1      43.688  27.086  25.830  1.00  0.00     0.198 A 
ATOM     54  C   UNL A   1      42.300  25.253  26.484  1.00  0.00     0.198 A 
ATOM     55  F   UNL A   1      40.983  25.402  28.413  1.00  0.00    -0.203 F 
ATOM     56  F   UNL A   1      44.497  27.664  24.930  1.00  0.00    -0.200 F 
ATOM     57  C   UNL A   1      43.182  25.820  25.583  1.00  0.00     0.200 A 
ATOM     58  F   UNL A   1      41.816  24.022  26.269  1.00  0.00    -0.200 F 
ATOM     59  F   UNL A   1      43.527  25.155  24.472  1.00  0.00    -0.200 F 
ENDBRANCH  25  49
BRANCH  37  60
ATOM     60  C   UNL A   1      36.870  31.245  29.196  1.00  0.00     0.064 A 
ATOM     61  C   UNL A   1      35.859  30.305  28.957  1.00  0.00     0.173 A 
ATOM     62  C   UNL A   1      36.706  32.543  28.691  1.00  0.00     0.173 A 
ATOM     63  F   UNL A   1      35.978  29.050  29.417  1.00  0.00    -0.203 F 
ATOM     64  C   UNL A   1      34.737  30.645  28.209  1.00  0.00     0.198 A 
ATOM     65  C   UNL A   1      35.566  32.888  27.977  1.00  0.00     0.198 A 
ATOM     66  F   UNL A   1      37.642  33.478  28.910  1.00  0.00    -0.203 F 
ATOM     67  F   UNL A   1      33.806  29.717  27.945  1.00  0.00    -0.200 F 
ATOM     68  C   UNL A   1      34.588  31.937  27.727  1.00  0.00     0.200 A 
ATOM     69  F   UNL A   1      35.413  34.142  27.531  1.00  0.00    -0.200 F 
ATOM     70  F   UNL A   1      33.502  32.265  27.014  1.00  0.00    -0.200 F 
ENDBRANCH  37  60
ENDBRANCH  11  12
ENDBRANCH   4   6
ENDBRANCH   3   4
ENDBRANCH   2   3
ENDBRANCH   1   2
BRANCH   1  71
ATOM     71  O   UNL A   1      49.699  27.002  31.857  1.00  0.00    -0.458 OA
BRANCH  71  72
ATOM     72  C   UNL A   1      49.423  27.117  30.513  1.00  0.00     0.365 C 
ATOM     73  O   UNL A   1      50.273  27.235  29.645  1.00  0.00    -0.245 OA
BRANCH  72  74
ATOM     74  C   UNL A   1      47.845  26.926  30.241  1.00  0.00     0.295 C 
ATOM     75  C   UNL A   1      46.846  28.458  30.910  1.00  0.00     0.078 C 
ATOM     76  N   UNL A   1      47.629  26.492  28.680  1.00  0.00    -0.317 N 
ATOM     77  C   UNL A   1      46.396  29.999  29.375  1.00  0.00     0.013 C 
ATOM     78  C   UNL A   1      47.492  27.549  27.399  1.00  0.00     0.263 C 
ATOM     79  H   UNL A   1      46.723  26.955  28.600  1.00  0.00     0.349 HD
ATOM     80  C   UNL A   1      46.762  29.313  27.549  1.00  0.00     0.062 C 
BRANCH  76  81
ATOM     81  C   UNL A   1      47.783  25.064  28.428  1.00  0.00     0.339 C 
BRANCH  81  82
ATOM     82  C   UNL A   1      46.485  24.463  28.063  1.00  0.00     0.165 A 
ATOM     83  C   UNL A   1      45.308  24.226  28.757  1.00  0.00     0.059 A 
ATOM     84  O   UNL A   1      46.468  23.823  26.863  1.00  0.00    -0.400 OA
ATOM     85  C   UNL A   1      44.615  23.232  28.014  1.00  0.00     0.134 A 
ATOM     86  C   UNL A   1      45.361  23.047  26.875  1.00  0.00     0.433 A 
BRANCH  86  87
ATOM     87  N   UNL A   1      45.292  22.098  25.820  1.00  0.00     0.102 N 
ATOM     88  O   UNL A   1      46.267  21.355  25.656  1.00  0.00    -0.256 OA
ATOM     89  O   UNL A   1      44.240  22.081  25.167  1.00  0.00    -0.256 OA
ENDBRANCH  86  87
ENDBRANCH  81  82
ENDBRANCH  76  81
ENDBRANCH  72  74
ENDBRANCH  71  72
ENDBRANCH   1  71
TORSDOF 14
ENDMDL
