MODEL 1
REMARK VINA RESULT:     -12.6      0.000      0.000
REMARK SMILES O=C(C[C@H]1C[C@H]2CC[C@@H](C1)N2C(=O)NCc1ncn[nH]1)OCCOC(=O)c1ccc(-c2c3nc(c(-c4c(F)c(F)c(F)c(F)c4F)c4ccc([nH]4)c(-c4c(F)c(F)c(F)c(F)c4F)c4nc(c(-c5c(F)c(F)c(F)c(F)c5F)c5ccc2[nH]5)C=C4)C=C3)cc1
REMARK SMILES IDX 22 1 21 2 2 3 1 4 3 5 4 6 5 7 10 8 6 9 9 10 7 11 11 12 8 13
REMARK SMILES IDX 12 14 13 15 14 16 15 18 16 19 17 20 20 21 18 22 19 23 23 25
REMARK SMILES IDX 24 26 25 27 26 28 27 29 28 30 89 31 29 32 88 33 30 34 31 35
REMARK SMILES IDX 32 36 82 37 33 38 87 39 81 40 83 41 34 42 86 43 80 44 79 45
REMARK SMILES IDX 35 47 67 48 47 49 66 50 48 51 51 52 65 53 84 54 49 55 50 56
REMARK SMILES IDX 64 58 85 59 52 60 36 61 37 62 45 63 38 64 39 65 43 66 46 67
REMARK SMILES IDX 40 68 41 69 44 70 42 71 68 72 69 73 77 74 70 75 71 76 75 77
REMARK SMILES IDX 78 78 72 79 73 80 76 81 74 82 53 83 54 84 62 85 55 86 56 87
REMARK SMILES IDX 60 88 63 89 57 90 58 91 61 92 59 93
REMARK H PARENT 14 17 20 24 83 46 51 57
REMARK Flexibility Score: inf
ROOT
ATOM      1  C   UNL A   1      35.711  20.865  25.375  1.00  0.00     0.274 C 
ENDROOT
BRANCH   1   2
ATOM      2  O   UNL A   1      34.688  19.993  24.857  1.00  0.00    -0.462 OA
BRANCH   2   3
ATOM      3  C   UNL A   1      33.386  20.315  24.718  1.00  0.00     0.306 C 
ATOM      4  O   UNL A   1      32.544  19.431  24.578  1.00  0.00    -0.252 OA
BRANCH   3   5
ATOM      5  C   UNL A   1      32.974  21.769  24.725  1.00  0.00     0.126 C 
BRANCH   5   6
ATOM      6  C   UNL A   1      33.084  22.524  23.391  1.00  0.00     0.004 C 
ATOM      7  C   UNL A   1      31.815  23.403  23.180  1.00  0.00     0.029 C 
ATOM      8  C   UNL A   1      34.377  23.347  23.178  1.00  0.00     0.029 C 
ATOM      9  C   UNL A   1      31.978  24.871  23.631  1.00  0.00     0.087 C 
ATOM     10  C   UNL A   1      34.287  24.806  23.656  1.00  0.00     0.087 C 
ATOM     11  C   UNL A   1      32.360  25.029  25.100  1.00  0.00     0.027 C 
ATOM     12  N   UNL A   1      33.153  25.412  22.966  1.00  0.00    -0.319 N 
ATOM     13  C   UNL A   1      33.885  24.924  25.130  1.00  0.00     0.027 C 
BRANCH  12  14
ATOM     14  C   UNL A   1      33.006  26.237  21.908  1.00  0.00     0.318 C 
ATOM     15  O   UNL A   1      33.278  25.868  20.762  1.00  0.00    -0.249 OA
ATOM     16  N   UNL A   1      32.584  27.503  22.005  1.00  0.00    -0.331 N 
ATOM     17  H   UNL A   1      32.564  27.953  21.130  1.00  0.00     0.165 HD
BRANCH  16  18
ATOM     18  C   UNL A   1      32.150  28.374  23.074  1.00  0.00     0.194 C 
BRANCH  18  19
ATOM     19  C   UNL A   1      30.878  29.058  22.729  1.00  0.00     0.143 A 
ATOM     20  N   UNL A   1      29.723  28.971  23.359  1.00  0.00    -0.218 NA
ATOM     21  N   UNL A   1      30.713  29.852  21.627  1.00  0.00    -0.262 N 
ATOM     22  C   UNL A   1      28.884  29.723  22.587  1.00  0.00     0.246 A 
ATOM     23  N   UNL A   1      29.449  30.287  21.519  1.00  0.00    -0.162 NA
ATOM     24  H   UNL A   1      31.433  30.075  20.994  1.00  0.00     0.192 HD
ENDBRANCH  18  19
ENDBRANCH  16  18
ENDBRANCH  12  14
ENDBRANCH   5   6
ENDBRANCH   3   5
ENDBRANCH   2   3
ENDBRANCH   1   2
BRANCH   1  25
ATOM     25  C   UNL A   1      37.115  20.376  25.002  1.00  0.00     0.275 C 
BRANCH  25  26
ATOM     26  O   UNL A   1      38.100  21.421  25.164  1.00  0.00    -0.458 OA
BRANCH  26  27
ATOM     27  C   UNL A   1      39.148  21.140  25.979  1.00  0.00     0.338 C 
ATOM     28  O   UNL A   1      39.668  20.049  26.135  1.00  0.00    -0.246 OA
BRANCH  27  29
ATOM     29  C   UNL A   1      39.693  22.391  26.572  1.00  0.00     0.060 A 
ATOM     30  C   UNL A   1      39.172  23.612  26.123  1.00  0.00     0.016 A 
ATOM     31  C   UNL A   1      40.691  22.390  27.555  1.00  0.00     0.016 A 
ATOM     32  C   UNL A   1      39.659  24.820  26.633  1.00  0.00     0.010 A 
ATOM     33  C   UNL A   1      41.186  23.602  28.059  1.00  0.00     0.010 A 
ATOM     34  C   UNL A   1      40.688  24.828  27.589  1.00  0.00    -0.014 A 
BRANCH  34  35
ATOM     35  C   UNL A   1      41.301  26.125  27.984  1.00  0.00     0.031 A 
ATOM     36  C   UNL A   1      42.704  26.432  27.552  1.00  0.00     0.074 A 
ATOM     37  C   UNL A   1      40.610  27.052  28.673  1.00  0.00     0.049 A 
ATOM     38  N   UNL A   1      43.392  27.535  27.696  1.00  0.00    -0.248 NA
ATOM     39  C   UNL A   1      43.438  25.340  26.896  1.00  0.00     0.031 C 
ATOM     40  C   UNL A   1      39.277  26.856  29.221  1.00  0.00     0.029 A 
ATOM     41  N   UNL A   1      40.917  28.348  29.009  1.00  0.00    -0.354 N 
ATOM     42  C   UNL A   1      44.641  27.271  27.154  1.00  0.00     0.074 A 
ATOM     43  C   UNL A   1      44.622  25.898  26.695  1.00  0.00     0.031 C 
ATOM     44  C   UNL A   1      38.834  28.010  29.745  1.00  0.00     0.029 A 
ATOM     45  C   UNL A   1      39.885  29.019  29.626  1.00  0.00     0.049 A 
ATOM     46  H   UNL A   1      41.794  28.758  28.827  1.00  0.00     0.167 HD
ATOM     47  C   UNL A   1      45.708  28.099  27.052  1.00  0.00     0.037 A 
ATOM     48  C   UNL A   1      39.802  30.296  30.051  1.00  0.00     0.037 A 
ATOM     49  C   UNL A   1      45.744  29.455  27.532  1.00  0.00     0.049 A 
ATOM     50  C   UNL A   1      40.999  31.200  29.902  1.00  0.00     0.074 A 
ATOM     51  C   UNL A   1      46.791  30.360  27.488  1.00  0.00     0.029 A 
ATOM     52  N   UNL A   1      44.685  30.102  28.152  1.00  0.00    -0.354 N 
ATOM     53  N   UNL A   1      42.163  30.951  29.353  1.00  0.00    -0.248 NA
ATOM     54  C   UNL A   1      40.877  32.558  30.454  1.00  0.00     0.031 C 
ATOM     55  C   UNL A   1      46.378  31.542  28.111  1.00  0.00     0.029 A 
ATOM     56  C   UNL A   1      45.059  31.390  28.504  1.00  0.00     0.049 A 
ATOM     57  H   UNL A   1      43.799  29.706  28.318  1.00  0.00     0.167 HD
ATOM     58  C   UNL A   1      42.909  32.112  29.497  1.00  0.00     0.074 A 
ATOM     59  C   UNL A   1      42.052  33.085  30.143  1.00  0.00     0.031 C 
ATOM     60  C   UNL A   1      44.197  32.347  29.149  1.00  0.00     0.037 A 
BRANCH  47  61
ATOM     61  C   UNL A   1      46.942  27.542  26.413  1.00  0.00     0.064 A 
ATOM     62  C   UNL A   1      47.952  26.940  27.178  1.00  0.00     0.173 A 
ATOM     63  C   UNL A   1      47.106  27.587  25.020  1.00  0.00     0.173 A 
ATOM     64  F   UNL A   1      47.848  26.892  28.514  1.00  0.00    -0.203 F 
ATOM     65  C   UNL A   1      49.091  26.418  26.572  1.00  0.00     0.198 A 
ATOM     66  C   UNL A   1      48.235  27.042  24.417  1.00  0.00     0.198 A 
ATOM     67  F   UNL A   1      46.168  28.155  24.247  1.00  0.00    -0.203 F 
ATOM     68  F   UNL A   1      50.063  25.883  27.325  1.00  0.00    -0.200 F 
ATOM     69  C   UNL A   1      49.228  26.463  25.193  1.00  0.00     0.200 A 
ATOM     70  F   UNL A   1      48.363  27.080  23.083  1.00  0.00    -0.200 F 
ATOM     71  F   UNL A   1      50.324  25.955  24.610  1.00  0.00    -0.200 F 
ENDBRANCH  47  61
BRANCH  48  72
ATOM     72  C   UNL A   1      38.552  30.810  30.678  1.00  0.00     0.064 A 
ATOM     73  C   UNL A   1      38.386  30.794  32.072  1.00  0.00     0.173 A 
ATOM     74  C   UNL A   1      37.478  31.264  29.901  1.00  0.00     0.173 A 
ATOM     75  F   UNL A   1      39.371  30.336  32.859  1.00  0.00    -0.203 F 
ATOM     76  C   UNL A   1      37.183  31.185  32.659  1.00  0.00     0.198 A 
ATOM     77  C   UNL A   1      36.288  31.686  30.492  1.00  0.00     0.198 A 
ATOM     78  F   UNL A   1      37.579  31.291  28.564  1.00  0.00    -0.203 F 
ATOM     79  F   UNL A   1      37.029  31.093  33.987  1.00  0.00    -0.200 F 
ATOM     80  C   UNL A   1      36.137  31.635  31.869  1.00  0.00     0.200 A 
ATOM     81  F   UNL A   1      35.280  32.124  29.725  1.00  0.00    -0.200 F 
ATOM     82  F   UNL A   1      34.978  31.999  32.434  1.00  0.00    -0.200 F 
ENDBRANCH  48  72
BRANCH  60  83
ATOM     83  C   UNL A   1      44.754  33.708  29.454  1.00  0.00     0.064 A 
ATOM     84  C   UNL A   1      44.661  34.761  28.531  1.00  0.00     0.173 A 
ATOM     85  C   UNL A   1      45.366  33.969  30.689  1.00  0.00     0.173 A 
ATOM     86  F   UNL A   1      44.098  34.559  27.330  1.00  0.00    -0.203 F 
ATOM     87  C   UNL A   1      45.190  36.016  28.822  1.00  0.00     0.198 A 
ATOM     88  C   UNL A   1      45.868  35.233  30.987  1.00  0.00     0.198 A 
ATOM     89  F   UNL A   1      45.474  32.999  31.609  1.00  0.00    -0.203 F 
ATOM     90  F   UNL A   1      45.136  36.992  27.904  1.00  0.00    -0.200 F 
ATOM     91  C   UNL A   1      45.787  36.253  30.050  1.00  0.00     0.200 A 
ATOM     92  F   UNL A   1      46.436  35.463  32.179  1.00  0.00    -0.200 F 
ATOM     93  F   UNL A   1      46.294  37.461  30.329  1.00  0.00    -0.200 F 
ENDBRANCH  60  83
ENDBRANCH  34  35
ENDBRANCH  27  29
ENDBRANCH  26  27
ENDBRANCH  25  26
ENDBRANCH   1  25
TORSDOF 15
ENDMDL
MODEL 2
REMARK VINA RESULT:     -12.5      0.187      1.602
REMARK SMILES O=C(C[C@H]1C[C@H]2CC[C@@H](C1)N2C(=O)NCc1ncn[nH]1)OCCOC(=O)c1ccc(-c2c3nc(c(-c4c(F)c(F)c(F)c(F)c4F)c4ccc([nH]4)c(-c4c(F)c(F)c(F)c(F)c4F)c4nc(c(-c5c(F)c(F)c(F)c(F)c5F)c5ccc2[nH]5)C=C4)C=C3)cc1
REMARK SMILES IDX 22 1 21 2 2 3 1 4 3 5 4 6 5 7 10 8 6 9 9 10 7 11 11 12 8 13
REMARK SMILES IDX 12 14 13 15 14 16 15 18 16 19 17 20 20 21 18 22 19 23 23 25
REMARK SMILES IDX 24 26 25 27 26 28 27 29 28 30 89 31 29 32 88 33 30 34 31 35
REMARK SMILES IDX 32 36 82 37 33 38 87 39 81 40 83 41 34 42 86 43 80 44 79 45
REMARK SMILES IDX 35 47 67 48 47 49 66 50 48 51 51 52 65 53 84 54 49 55 50 56
REMARK SMILES IDX 64 58 85 59 52 60 36 61 37 62 45 63 38 64 39 65 43 66 46 67
REMARK SMILES IDX 40 68 41 69 44 70 42 71 68 72 69 73 77 74 70 75 71 76 75 77
REMARK SMILES IDX 78 78 72 79 73 80 76 81 74 82 53 83 54 84 62 85 55 86 56 87
REMARK SMILES IDX 60 88 63 89 57 90 58 91 61 92 59 93
REMARK H PARENT 14 17 20 24 83 46 51 57
REMARK Flexibility Score: inf
ROOT
ATOM      1  C   UNL A   1      35.742  20.928  25.179  1.00  0.00     0.274 C 
ENDROOT
BRANCH   1   2
ATOM      2  O   UNL A   1      34.695  19.991  24.861  1.00  0.00    -0.462 OA
BRANCH   2   3
ATOM      3  C   UNL A   1      33.416  20.315  24.586  1.00  0.00     0.306 C 
ATOM      4  O   UNL A   1      32.606  19.437  24.292  1.00  0.00    -0.252 OA
BRANCH   3   5
ATOM      5  C   UNL A   1      32.988  21.764  24.632  1.00  0.00     0.126 C 
BRANCH   5   6
ATOM      6  C   UNL A   1      33.036  22.540  23.305  1.00  0.00     0.004 C 
ATOM      7  C   UNL A   1      31.810  23.495  23.212  1.00  0.00     0.029 C 
ATOM      8  C   UNL A   1      34.355  23.291  23.002  1.00  0.00     0.029 C 
ATOM      9  C   UNL A   1      32.096  24.941  23.674  1.00  0.00     0.087 C 
ATOM     10  C   UNL A   1      34.391  24.741  23.511  1.00  0.00     0.087 C 
ATOM     11  C   UNL A   1      32.602  25.046  25.110  1.00  0.00     0.027 C 
ATOM     12  N   UNL A   1      33.244  25.427  22.925  1.00  0.00    -0.319 N 
ATOM     13  C   UNL A   1      34.116  24.851  25.015  1.00  0.00     0.027 C 
BRANCH  12  14
ATOM     14  C   UNL A   1      33.063  26.281  21.896  1.00  0.00     0.318 C 
ATOM     15  O   UNL A   1      33.277  25.939  20.729  1.00  0.00    -0.249 OA
ATOM     16  N   UNL A   1      32.666  27.551  22.045  1.00  0.00    -0.331 N 
ATOM     17  H   UNL A   1      32.614  28.024  21.183  1.00  0.00     0.165 HD
BRANCH  16  18
ATOM     18  C   UNL A   1      32.296  28.400  23.154  1.00  0.00     0.194 C 
BRANCH  18  19
ATOM     19  C   UNL A   1      31.060  29.168  22.855  1.00  0.00     0.143 A 
ATOM     20  N   UNL A   1      30.047  29.404  23.665  1.00  0.00    -0.218 NA
ATOM     21  N   UNL A   1      30.769  29.698  21.629  1.00  0.00    -0.262 N 
ATOM     22  C   UNL A   1      29.158  30.073  22.872  1.00  0.00     0.246 A 
ATOM     23  N   UNL A   1      29.561  30.281  21.618  1.00  0.00    -0.162 NA
ATOM     24  H   UNL A   1      31.372  29.657  20.852  1.00  0.00     0.192 HD
ENDBRANCH  18  19
ENDBRANCH  16  18
ENDBRANCH  12  14
ENDBRANCH   5   6
ENDBRANCH   3   5
ENDBRANCH   2   3
ENDBRANCH   1   2
BRANCH   1  25
ATOM     25  C   UNL A   1      37.132  20.309  24.996  1.00  0.00     0.275 C 
BRANCH  25  26
ATOM     26  O   UNL A   1      38.173  21.306  25.098  1.00  0.00    -0.458 OA
BRANCH  26  27
ATOM     27  C   UNL A   1      39.195  21.025  25.946  1.00  0.00     0.338 C 
ATOM     28  O   UNL A   1      39.702  19.932  26.127  1.00  0.00    -0.246 OA
BRANCH  27  29
ATOM     29  C   UNL A   1      39.731  22.278  26.544  1.00  0.00     0.060 A 
ATOM     30  C   UNL A   1      39.191  23.496  26.110  1.00  0.00     0.016 A 
ATOM     31  C   UNL A   1      40.741  22.281  27.515  1.00  0.00     0.016 A 
ATOM     32  C   UNL A   1      39.669  24.706  26.625  1.00  0.00     0.010 A 
ATOM     33  C   UNL A   1      41.227  23.495  28.024  1.00  0.00     0.010 A 
ATOM     34  C   UNL A   1      40.708  24.718  27.570  1.00  0.00    -0.014 A 
BRANCH  34  35
ATOM     35  C   UNL A   1      41.310  26.020  27.969  1.00  0.00     0.031 A 
ATOM     36  C   UNL A   1      42.697  26.355  27.506  1.00  0.00     0.074 A 
ATOM     37  C   UNL A   1      40.622  26.924  28.689  1.00  0.00     0.049 A 
ATOM     38  N   UNL A   1      43.371  27.467  27.650  1.00  0.00    -0.248 NA
ATOM     39  C   UNL A   1      43.431  25.285  26.816  1.00  0.00     0.031 C 
ATOM     40  C   UNL A   1      39.307  26.698  29.267  1.00  0.00     0.029 A 
ATOM     41  N   UNL A   1      40.917  28.220  29.037  1.00  0.00    -0.354 N 
ATOM     42  C   UNL A   1      44.609  27.233  27.072  1.00  0.00     0.074 A 
ATOM     43  C   UNL A   1      44.601  25.866  26.593  1.00  0.00     0.031 C 
ATOM     44  C   UNL A   1      38.859  27.837  29.819  1.00  0.00     0.029 A 
ATOM     45  C   UNL A   1      39.890  28.865  29.689  1.00  0.00     0.049 A 
ATOM     46  H   UNL A   1      41.782  28.648  28.839  1.00  0.00     0.167 HD
ATOM     47  C   UNL A   1      45.660  28.079  26.956  1.00  0.00     0.037 A 
ATOM     48  C   UNL A   1      39.797  30.134  30.136  1.00  0.00     0.037 A 
ATOM     49  C   UNL A   1      45.686  29.429  27.456  1.00  0.00     0.049 A 
ATOM     50  C   UNL A   1      40.975  31.059  29.970  1.00  0.00     0.074 A 
ATOM     51  C   UNL A   1      46.717  30.351  27.398  1.00  0.00     0.029 A 
ATOM     52  N   UNL A   1      44.633  30.049  28.111  1.00  0.00    -0.354 N 
ATOM     53  N   UNL A   1      42.129  30.838  29.388  1.00  0.00    -0.248 NA
ATOM     54  C   UNL A   1      40.845  32.407  30.546  1.00  0.00     0.031 C 
ATOM     55  C   UNL A   1      46.301  31.517  28.049  1.00  0.00     0.029 A 
ATOM     56  C   UNL A   1      44.995  31.337  28.473  1.00  0.00     0.049 A 
ATOM     57  H   UNL A   1      43.758  29.636  28.294  1.00  0.00     0.167 HD
ATOM     58  C   UNL A   1      42.860  32.009  29.531  1.00  0.00     0.074 A 
ATOM     59  C   UNL A   1      42.004  32.958  30.213  1.00  0.00     0.031 C 
ATOM     60  C   UNL A   1      44.135  32.270  29.154  1.00  0.00     0.037 A 
BRANCH  47  61
ATOM     61  C   UNL A   1      46.886  27.552  26.278  1.00  0.00     0.064 A 
ATOM     62  C   UNL A   1      47.921  26.948  27.007  1.00  0.00     0.173 A 
ATOM     63  C   UNL A   1      47.018  27.628  24.883  1.00  0.00     0.173 A 
ATOM     64  F   UNL A   1      47.848  26.871  28.344  1.00  0.00    -0.203 F 
ATOM     65  C   UNL A   1      49.052  26.454  26.364  1.00  0.00     0.198 A 
ATOM     66  C   UNL A   1      48.140  27.111  24.242  1.00  0.00     0.198 A 
ATOM     67  F   UNL A   1      46.055  28.200  24.143  1.00  0.00    -0.203 F 
ATOM     68  F   UNL A   1      50.048  25.917  27.083  1.00  0.00    -0.200 F 
ATOM     69  C   UNL A   1      49.157  26.529  24.984  1.00  0.00     0.200 A 
ATOM     70  F   UNL A   1      48.237  27.179  22.907  1.00  0.00    -0.200 F 
ATOM     71  F   UNL A   1      50.246  26.048  24.366  1.00  0.00    -0.200 F 
ENDBRANCH  47  61
BRANCH  48  72
ATOM     72  C   UNL A   1      38.556  30.618  30.802  1.00  0.00     0.064 A 
ATOM     73  C   UNL A   1      37.479  31.111  30.050  1.00  0.00     0.173 A 
ATOM     74  C   UNL A   1      38.445  30.660  32.199  1.00  0.00     0.173 A 
ATOM     75  F   UNL A   1      37.548  31.125  28.710  1.00  0.00    -0.203 F 
ATOM     76  C   UNL A   1      36.354  31.653  30.670  1.00  0.00     0.198 A 
ATOM     77  C   UNL A   1      37.306  31.172  32.817  1.00  0.00     0.198 A 
ATOM     78  F   UNL A   1      39.449  30.211  32.967  1.00  0.00    -0.203 F 
ATOM     79  F   UNL A   1      35.371  32.179  29.926  1.00  0.00    -0.200 F 
ATOM     80  C   UNL A   1      36.267  31.679  32.053  1.00  0.00     0.200 A 
ATOM     81  F   UNL A   1      37.224  31.192  34.155  1.00  0.00    -0.200 F 
ATOM     82  F   UNL A   1      35.190  32.211  32.648  1.00  0.00    -0.200 F 
ENDBRANCH  48  72
BRANCH  60  83
ATOM     83  C   UNL A   1      44.677  33.635  29.465  1.00  0.00     0.064 A 
ATOM     84  C   UNL A   1      45.365  33.895  30.660  1.00  0.00     0.173 A 
ATOM     85  C   UNL A   1      44.526  34.690  28.552  1.00  0.00     0.173 A 
ATOM     86  F   UNL A   1      45.524  32.925  31.573  1.00  0.00    -0.203 F 
ATOM     87  C   UNL A   1      45.856  35.168  30.942  1.00  0.00     0.198 A 
ATOM     88  C   UNL A   1      45.041  35.954  28.825  1.00  0.00     0.198 A 
ATOM     89  F   UNL A   1      43.881  34.493  27.392  1.00  0.00    -0.203 F 
ATOM     90  F   UNL A   1      46.464  35.406  32.112  1.00  0.00    -0.200 F 
ATOM     91  C   UNL A   1      45.698  36.195  30.023  1.00  0.00     0.200 A 
ATOM     92  F   UNL A   1      44.898  36.942  27.931  1.00  0.00    -0.200 F 
ATOM     93  F   UNL A   1      46.171  37.418  30.295  1.00  0.00    -0.200 F 
ENDBRANCH  60  83
ENDBRANCH  34  35
ENDBRANCH  27  29
ENDBRANCH  26  27
ENDBRANCH  25  26
ENDBRANCH   1  25
TORSDOF 15
ENDMDL
MODEL 3
REMARK VINA RESULT:     -12.5      0.457      1.660
REMARK SMILES O=C(C[C@H]1C[C@H]2CC[C@@H](C1)N2C(=O)NCc1ncn[nH]1)OCCOC(=O)c1ccc(-c2c3nc(c(-c4c(F)c(F)c(F)c(F)c4F)c4ccc([nH]4)c(-c4c(F)c(F)c(F)c(F)c4F)c4nc(c(-c5c(F)c(F)c(F)c(F)c5F)c5ccc2[nH]5)C=C4)C=C3)cc1
REMARK SMILES IDX 22 1 21 2 2 3 1 4 3 5 4 6 5 7 10 8 6 9 9 10 7 11 11 12 8 13
REMARK SMILES IDX 12 14 13 15 14 16 15 18 16 19 17 20 20 21 18 22 19 23 23 25
REMARK SMILES IDX 24 26 25 27 26 28 27 29 28 30 89 31 29 32 88 33 30 34 31 35
REMARK SMILES IDX 32 36 82 37 33 38 87 39 81 40 83 41 34 42 86 43 80 44 79 45
REMARK SMILES IDX 35 47 67 48 47 49 66 50 48 51 51 52 65 53 84 54 49 55 50 56
REMARK SMILES IDX 64 58 85 59 52 60 36 61 37 62 45 63 38 64 39 65 43 66 46 67
REMARK SMILES IDX 40 68 41 69 44 70 42 71 68 72 69 73 77 74 70 75 71 76 75 77
REMARK SMILES IDX 78 78 72 79 73 80 76 81 74 82 53 83 54 84 62 85 55 86 56 87
REMARK SMILES IDX 60 88 63 89 57 90 58 91 61 92 59 93
REMARK H PARENT 14 17 20 24 83 46 51 57
REMARK Flexibility Score: inf
ROOT
ATOM      1  C   UNL A   1      36.398  19.566  25.000  1.00  0.00     0.274 C 
ENDROOT
BRANCH   1   2
ATOM      2  O   UNL A   1      35.483  20.669  24.858  1.00  0.00    -0.462 OA
BRANCH   2   3
ATOM      3  C   UNL A   1      34.138  20.573  24.877  1.00  0.00     0.306 C 
ATOM      4  O   UNL A   1      33.600  19.486  25.078  1.00  0.00    -0.252 OA
BRANCH   3   5
ATOM      5  C   UNL A   1      33.300  21.808  24.642  1.00  0.00     0.126 C 
BRANCH   5   6
ATOM      6  C   UNL A   1      33.708  22.704  23.461  1.00  0.00     0.004 C 
ATOM      7  C   UNL A   1      32.444  23.102  22.643  1.00  0.00     0.029 C 
ATOM      8  C   UNL A   1      34.562  23.947  23.812  1.00  0.00     0.029 C 
ATOM      9  C   UNL A   1      31.843  24.471  23.030  1.00  0.00     0.087 C 
ATOM     10  C   UNL A   1      33.745  25.215  24.109  1.00  0.00     0.087 C 
ATOM     11  C   UNL A   1      31.444  24.580  24.500  1.00  0.00     0.027 C 
ATOM     12  N   UNL A   1      32.903  25.462  22.943  1.00  0.00    -0.319 N 
ATOM     13  C   UNL A   1      32.718  25.012  25.228  1.00  0.00     0.027 C 
BRANCH  12  14
ATOM     14  C   UNL A   1      32.953  26.301  21.887  1.00  0.00     0.318 C 
ATOM     15  O   UNL A   1      33.356  25.923  20.783  1.00  0.00    -0.249 OA
ATOM     16  N   UNL A   1      32.602  27.591  21.945  1.00  0.00    -0.331 N 
ATOM     17  H   UNL A   1      32.729  28.047  21.081  1.00  0.00     0.165 HD
BRANCH  16  18
ATOM     18  C   UNL A   1      32.081  28.482  22.958  1.00  0.00     0.194 C 
BRANCH  18  19
ATOM     19  C   UNL A   1      30.763  29.038  22.560  1.00  0.00     0.143 A 
ATOM     20  N   UNL A   1      29.574  28.680  23.003  1.00  0.00    -0.218 NA
ATOM     21  N   UNL A   1      30.597  29.992  21.594  1.00  0.00    -0.262 N 
ATOM     22  C   UNL A   1      28.717  29.440  22.260  1.00  0.00     0.246 A 
ATOM     23  N   UNL A   1      29.300  30.264  21.388  1.00  0.00    -0.162 NA
ATOM     24  H   UNL A   1      31.338  30.424  21.111  1.00  0.00     0.192 HD
ENDBRANCH  18  19
ENDBRANCH  16  18
ENDBRANCH  12  14
ENDBRANCH   5   6
ENDBRANCH   3   5
ENDBRANCH   2   3
ENDBRANCH   1   2
BRANCH   1  25
ATOM     25  C   UNL A   1      37.845  19.990  24.720  1.00  0.00     0.275 C 
BRANCH  25  26
ATOM     26  O   UNL A   1      38.275  21.033  25.622  1.00  0.00    -0.458 OA
BRANCH  26  27
ATOM     27  C   UNL A   1      39.474  20.848  26.229  1.00  0.00     0.338 C 
ATOM     28  O   UNL A   1      40.129  19.821  26.234  1.00  0.00    -0.246 OA
BRANCH  27  29
ATOM     29  C   UNL A   1      39.976  22.133  26.788  1.00  0.00     0.060 A 
ATOM     30  C   UNL A   1      39.460  23.324  26.261  1.00  0.00     0.016 A 
ATOM     31  C   UNL A   1      40.931  22.191  27.811  1.00  0.00     0.016 A 
ATOM     32  C   UNL A   1      39.908  24.561  26.737  1.00  0.00     0.010 A 
ATOM     33  C   UNL A   1      41.387  23.432  28.281  1.00  0.00     0.010 A 
ATOM     34  C   UNL A   1      40.893  24.627  27.735  1.00  0.00    -0.014 A 
BRANCH  34  35
ATOM     35  C   UNL A   1      41.471  25.950  28.097  1.00  0.00     0.031 A 
ATOM     36  C   UNL A   1      42.834  26.316  27.587  1.00  0.00     0.074 A 
ATOM     37  C   UNL A   1      40.781  26.847  28.825  1.00  0.00     0.049 A 
ATOM     38  N   UNL A   1      43.482  27.448  27.694  1.00  0.00    -0.248 NA
ATOM     39  C   UNL A   1      43.576  25.256  26.890  1.00  0.00     0.031 C 
ATOM     40  C   UNL A   1      39.491  26.594  29.446  1.00  0.00     0.029 A 
ATOM     41  N   UNL A   1      41.051  28.156  29.144  1.00  0.00    -0.354 N 
ATOM     42  C   UNL A   1      44.708  27.237  27.082  1.00  0.00     0.074 A 
ATOM     43  C   UNL A   1      44.723  25.864  26.623  1.00  0.00     0.031 C 
ATOM     44  C   UNL A   1      39.029  27.730  29.995  1.00  0.00     0.029 A 
ATOM     45  C   UNL A   1      40.028  28.782  29.819  1.00  0.00     0.049 A 
ATOM     46  H   UNL A   1      41.898  28.603  28.914  1.00  0.00     0.167 HD
ATOM     47  C   UNL A   1      45.731  28.110  26.922  1.00  0.00     0.037 A 
ATOM     48  C   UNL A   1      39.913  30.055  30.250  1.00  0.00     0.037 A 
ATOM     49  C   UNL A   1      45.735  29.467  27.401  1.00  0.00     0.049 A 
ATOM     50  C   UNL A   1      41.061  31.009  30.035  1.00  0.00     0.074 A 
ATOM     51  C   UNL A   1      46.739  30.415  27.299  1.00  0.00     0.029 A 
ATOM     52  N   UNL A   1      44.687  30.069  28.080  1.00  0.00    -0.354 N 
ATOM     53  N   UNL A   1      42.202  30.809  29.421  1.00  0.00    -0.248 NA
ATOM     54  C   UNL A   1      40.912  32.361  30.595  1.00  0.00     0.031 C 
ATOM     55  C   UNL A   1      46.311  31.579  27.946  1.00  0.00     0.029 A 
ATOM     56  C   UNL A   1      45.024  31.372  28.412  1.00  0.00     0.049 A 
ATOM     57  H   UNL A   1      43.829  29.635  28.295  1.00  0.00     0.167 HD
ATOM     58  C   UNL A   1      42.904  32.002  29.525  1.00  0.00     0.074 A 
ATOM     59  C   UNL A   1      42.044  32.938  30.219  1.00  0.00     0.031 C 
ATOM     60  C   UNL A   1      44.160  32.292  29.105  1.00  0.00     0.037 A 
BRANCH  47  61
ATOM     61  C   UNL A   1      46.950  27.605  26.214  1.00  0.00     0.064 A 
ATOM     62  C   UNL A   1      47.059  27.663  24.817  1.00  0.00     0.173 A 
ATOM     63  C   UNL A   1      48.031  27.081  26.940  1.00  0.00     0.173 A 
ATOM     64  F   UNL A   1      46.043  28.136  24.080  1.00  0.00    -0.203 F 
ATOM     65  C   UNL A   1      48.201  27.198  24.171  1.00  0.00     0.198 A 
ATOM     66  C   UNL A   1      49.180  26.640  26.291  1.00  0.00     0.198 A 
ATOM     67  F   UNL A   1      47.972  27.003  28.278  1.00  0.00    -0.203 F 
ATOM     68  F   UNL A   1      48.268  27.225  22.832  1.00  0.00    -0.200 F 
ATOM     69  C   UNL A   1      49.262  26.695  24.908  1.00  0.00     0.200 A 
ATOM     70  F   UNL A   1      50.208  26.161  27.005  1.00  0.00    -0.200 F 
ATOM     71  F   UNL A   1      50.363  26.253  24.283  1.00  0.00    -0.200 F 
ENDBRANCH  47  61
BRANCH  48  72
ATOM     72  C   UNL A   1      38.680  30.515  30.947  1.00  0.00     0.064 A 
ATOM     73  C   UNL A   1      37.570  30.974  30.221  1.00  0.00     0.173 A 
ATOM     74  C   UNL A   1      38.609  30.570  32.346  1.00  0.00     0.173 A 
ATOM     75  F   UNL A   1      37.601  30.976  28.880  1.00  0.00    -0.203 F 
ATOM     76  C   UNL A   1      36.450  31.495  30.868  1.00  0.00     0.198 A 
ATOM     77  C   UNL A   1      37.475  31.060  32.991  1.00  0.00     0.198 A 
ATOM     78  F   UNL A   1      39.645  30.154  33.089  1.00  0.00    -0.203 F 
ATOM     79  F   UNL A   1      35.434  31.990  30.148  1.00  0.00    -0.200 F 
ATOM     80  C   UNL A   1      36.403  31.534  32.252  1.00  0.00     0.200 A 
ATOM     81  F   UNL A   1      37.431  31.093  34.330  1.00  0.00    -0.200 F 
ATOM     82  F   UNL A   1      35.331  32.046  32.873  1.00  0.00    -0.200 F 
ENDBRANCH  48  72
BRANCH  60  83
ATOM     83  C   UNL A   1      44.674  33.675  29.380  1.00  0.00     0.064 A 
ATOM     84  C   UNL A   1      44.460  34.729  28.479  1.00  0.00     0.173 A 
ATOM     85  C   UNL A   1      45.367  33.957  30.567  1.00  0.00     0.173 A 
ATOM     86  F   UNL A   1      43.815  34.508  27.323  1.00  0.00    -0.203 F 
ATOM     87  C   UNL A   1      44.949  36.006  28.741  1.00  0.00     0.198 A 
ATOM     88  C   UNL A   1      45.831  35.242  30.838  1.00  0.00     0.198 A 
ATOM     89  F   UNL A   1      45.593  32.986  31.465  1.00  0.00    -0.203 F 
ATOM     90  F   UNL A   1      44.779  36.984  27.841  1.00  0.00    -0.200 F 
ATOM     91  C   UNL A   1      45.629  36.263  29.922  1.00  0.00     0.200 A 
ATOM     92  F   UNL A   1      46.479  35.490  31.985  1.00  0.00    -0.200 F 
ATOM     93  F   UNL A   1      46.099  37.492  30.172  1.00  0.00    -0.200 F 
ENDBRANCH  60  83
ENDBRANCH  34  35
ENDBRANCH  27  29
ENDBRANCH  26  27
ENDBRANCH  25  26
ENDBRANCH   1  25
TORSDOF 15
ENDMDL
