MODEL 1
REMARK VINA RESULT:     -11.7      0.000      0.000
REMARK SMILES CC[C@H]1CCC[C@H](O[C@@H]2CC[C@]([NH2+]C(C)C)(C(=O)OCCOC(=O)c3ccc(-c4c5nc(c(-c6c(F)c(F)c(F)c(F)c6F)c6ccc([nH]6)c(-c6c(F)c(F)c(F)c(F)c6F)c6nc(c(-c7c(F)c(F)c(F)c(F)c7F)c7ccc4[nH]7)C=C6)C=C5)cc3)C2)C1
REMARK SMILES IDX 20 1 19 2 17 3 18 4 12 5 9 6 10 7 88 8 11 9 8 10 7 11 3 12
REMARK SMILES IDX 4 13 89 14 5 15 6 16 2 17 1 18 13 19 14 22 15 23 16 24 21 25
REMARK SMILES IDX 22 26 23 27 24 28 25 29 26 30 87 31 27 32 86 33 28 34 29 35
REMARK SMILES IDX 30 36 80 37 31 38 85 39 79 40 81 41 32 42 84 43 78 44 77 45
REMARK SMILES IDX 33 47 65 48 45 49 64 50 46 51 49 52 63 53 82 54 47 55 48 56
REMARK SMILES IDX 62 58 83 59 50 60 34 61 35 62 43 63 36 64 37 65 41 66 44 67
REMARK SMILES IDX 38 68 39 69 42 70 40 71 66 72 67 73 75 74 68 75 69 76 73 77
REMARK SMILES IDX 76 78 70 79 71 80 74 81 72 82 51 83 52 84 60 85 53 86 54 87
REMARK SMILES IDX 58 88 61 89 55 90 56 91 59 92 57 93
REMARK H PARENT 13 20 13 21 81 46 49 57
REMARK Flexibility Score: inf
ROOT
ATOM      1  C   UNL A   1      38.210  20.804  25.417  1.00  0.00     0.274 C 
ENDROOT
BRANCH   1   2
ATOM      2  O   UNL A   1      36.883  20.328  25.109  1.00  0.00    -0.457 OA
BRANCH   2   3
ATOM      3  C   UNL A   1      35.977  21.242  24.656  1.00  0.00     0.368 C 
ATOM      4  O   UNL A   1      36.262  22.186  23.929  1.00  0.00    -0.245 OA
BRANCH   3   5
ATOM      5  C   UNL A   1      34.566  20.985  25.253  1.00  0.00     0.197 C 
ATOM      6  C   UNL A   1      32.312  21.866  25.519  1.00  0.00     0.125 C 
ATOM      7  C   UNL A   1      33.019  22.119  26.853  1.00  0.00     0.039 C 
ATOM      8  C   UNL A   1      33.445  21.732  24.497  1.00  0.00     0.113 C 
ATOM      9  C   UNL A   1      34.473  21.673  26.645  1.00  0.00     0.084 C 
BRANCH   6  10
ATOM     10  O   UNL A   1      31.181  22.687  25.258  1.00  0.00    -0.375 OA
BRANCH  10  11
ATOM     11  C   UNL A   1      31.250  24.071  24.906  1.00  0.00     0.118 C 
ATOM     12  C   UNL A   1      30.482  26.451  25.717  1.00  0.00    -0.009 C 
ATOM     13  C   UNL A   1      29.826  26.545  24.345  1.00  0.00     0.004 C 
ATOM     14  C   UNL A   1      30.816  24.988  26.068  1.00  0.00     0.035 C 
ATOM     15  C   UNL A   1      30.636  25.868  23.251  1.00  0.00     0.003 C 
ATOM     16  C   UNL A   1      30.663  24.378  23.531  1.00  0.00     0.032 C 
BRANCH  12  17
ATOM     17  C   UNL A   1      31.672  27.413  25.868  1.00  0.00     0.000 C 
ATOM     18  C   UNL A   1      31.419  28.768  25.205  1.00  0.00     0.004 C 
ENDBRANCH  12  17
ENDBRANCH  10  11
ENDBRANCH   6  10
BRANCH   5  19
ATOM     19  N   UNL A   1      34.273  19.541  25.473  1.00  0.00    -0.330 N 
ATOM     20  H   UNL A   1      33.519  19.490  26.159  1.00  0.00     0.347 HD
ATOM     21  H   UNL A   1      35.171  19.148  25.755  1.00  0.00     0.347 HD
BRANCH  19  22
ATOM     22  C   UNL A   1      33.871  18.719  24.331  1.00  0.00     0.176 C 
ATOM     23  C   UNL A   1      34.792  17.494  24.310  1.00  0.00     0.075 C 
ATOM     24  C   UNL A   1      32.417  18.254  24.414  1.00  0.00     0.075 C 
ENDBRANCH  19  22
ENDBRANCH   5  19
ENDBRANCH   3   5
ENDBRANCH   2   3
ENDBRANCH   1   2
BRANCH   1  25
ATOM     25  C   UNL A   1      39.215  19.656  25.360  1.00  0.00     0.275 C 
BRANCH  25  26
ATOM     26  O   UNL A   1      40.082  19.733  26.503  1.00  0.00    -0.458 OA
BRANCH  26  27
ATOM     27  C   UNL A   1      41.396  19.651  26.213  1.00  0.00     0.338 C 
ATOM     28  O   UNL A   1      41.994  18.737  25.674  1.00  0.00    -0.246 OA
BRANCH  27  29
ATOM     29  C   UNL A   1      42.021  20.943  26.503  1.00  0.00     0.060 A 
ATOM     30  C   UNL A   1      42.167  21.301  27.844  1.00  0.00     0.016 A 
ATOM     31  C   UNL A   1      42.270  21.861  25.483  1.00  0.00     0.016 A 
ATOM     32  C   UNL A   1      42.492  22.612  28.172  1.00  0.00     0.010 A 
ATOM     33  C   UNL A   1      42.665  23.160  25.817  1.00  0.00     0.010 A 
ATOM     34  C   UNL A   1      42.752  23.554  27.163  1.00  0.00    -0.014 A 
BRANCH  34  35
ATOM     35  C   UNL A   1      43.184  24.923  27.535  1.00  0.00     0.031 A 
ATOM     36  C   UNL A   1      42.212  25.965  28.009  1.00  0.00     0.074 A 
ATOM     37  C   UNL A   1      44.497  25.209  27.464  1.00  0.00     0.049 A 
ATOM     38  N   UNL A   1      42.445  27.196  28.391  1.00  0.00    -0.248 NA
ATOM     39  C   UNL A   1      40.801  25.576  28.109  1.00  0.00     0.031 C 
ATOM     40  C   UNL A   1      45.548  24.266  27.072  1.00  0.00     0.029 A 
ATOM     41  N   UNL A   1      45.168  26.382  27.692  1.00  0.00    -0.354 N 
ATOM     42  C   UNL A   1      41.233  27.687  28.859  1.00  0.00     0.074 A 
ATOM     43  C   UNL A   1      40.250  26.643  28.669  1.00  0.00     0.031 C 
ATOM     44  C   UNL A   1      46.723  24.905  27.052  1.00  0.00     0.029 A 
ATOM     45  C   UNL A   1      46.494  26.313  27.347  1.00  0.00     0.049 A 
ATOM     46  H   UNL A   1      44.744  27.188  28.065  1.00  0.00     0.167 HD
ATOM     47  C   UNL A   1      40.969  28.902  29.395  1.00  0.00     0.037 A 
ATOM     48  C   UNL A   1      47.403  27.291  27.191  1.00  0.00     0.037 A 
ATOM     49  C   UNL A   1      41.917  29.980  29.443  1.00  0.00     0.049 A 
ATOM     50  C   UNL A   1      47.004  28.705  27.480  1.00  0.00     0.074 A 
ATOM     51  C   UNL A   1      41.756  31.262  29.937  1.00  0.00     0.029 A 
ATOM     52  N   UNL A   1      43.197  29.913  28.914  1.00  0.00    -0.354 N 
ATOM     53  N   UNL A   1      45.874  29.154  27.968  1.00  0.00    -0.248 NA
ATOM     54  C   UNL A   1      47.989  29.748  27.172  1.00  0.00     0.031 C 
ATOM     55  C   UNL A   1      42.913  31.994  29.633  1.00  0.00     0.029 A 
ATOM     56  C   UNL A   1      43.807  31.153  28.990  1.00  0.00     0.049 A 
ATOM     57  H   UNL A   1      43.611  29.101  28.540  1.00  0.00     0.167 HD
ATOM     58  C   UNL A   1      46.006  30.533  28.024  1.00  0.00     0.074 A 
ATOM     59  C   UNL A   1      47.334  30.844  27.532  1.00  0.00     0.031 C 
ATOM     60  C   UNL A   1      45.107  31.453  28.450  1.00  0.00     0.037 A 
BRANCH  47  61
ATOM     61  C   UNL A   1      39.593  29.141  29.935  1.00  0.00     0.064 A 
ATOM     62  C   UNL A   1      39.292  28.890  31.282  1.00  0.00     0.173 A 
ATOM     63  C   UNL A   1      38.586  29.681  29.124  1.00  0.00     0.173 A 
ATOM     64  F   UNL A   1      40.221  28.366  32.096  1.00  0.00    -0.203 F 
ATOM     65  C   UNL A   1      38.029  29.172  31.798  1.00  0.00     0.198 A 
ATOM     66  C   UNL A   1      37.326  29.970  29.645  1.00  0.00     0.198 A 
ATOM     67  F   UNL A   1      38.826  29.934  27.829  1.00  0.00    -0.203 F 
ATOM     68  F   UNL A   1      37.758  28.916  33.086  1.00  0.00    -0.200 F 
ATOM     69  C   UNL A   1      37.050  29.716  30.981  1.00  0.00     0.200 A 
ATOM     70  F   UNL A   1      36.380  30.495  28.854  1.00  0.00    -0.200 F 
ATOM     71  F   UNL A   1      35.836  29.992  31.479  1.00  0.00    -0.200 F 
ENDBRANCH  47  61
BRANCH  48  72
ATOM     72  C   UNL A   1      48.722  26.947  26.609  1.00  0.00     0.064 A 
ATOM     73  C   UNL A   1      49.758  26.432  27.393  1.00  0.00     0.173 A 
ATOM     74  C   UNL A   1      48.939  27.064  25.225  1.00  0.00     0.173 A 
ATOM     75  F   UNL A   1      49.603  26.324  28.721  1.00  0.00    -0.203 F 
ATOM     76  C   UNL A   1      50.961  26.032  26.812  1.00  0.00     0.198 A 
ATOM     77  C   UNL A   1      50.128  26.639  24.643  1.00  0.00     0.198 A 
ATOM     78  F   UNL A   1      47.972  27.555  24.433  1.00  0.00    -0.203 F 
ATOM     79  F   UNL A   1      51.946  25.552  27.583  1.00  0.00    -0.200 F 
ATOM     80  C   UNL A   1      51.139  26.123  25.439  1.00  0.00     0.200 A 
ATOM     81  F   UNL A   1      50.287  26.714  23.315  1.00  0.00    -0.200 F 
ATOM     82  F   UNL A   1      52.285  25.712  24.880  1.00  0.00    -0.200 F 
ENDBRANCH  48  72
BRANCH  60  83
ATOM     83  C   UNL A   1      45.520  32.888  28.367  1.00  0.00     0.064 A 
ATOM     84  C   UNL A   1      45.157  33.681  27.268  1.00  0.00     0.173 A 
ATOM     85  C   UNL A   1      46.263  33.482  29.395  1.00  0.00     0.173 A 
ATOM     86  F   UNL A   1      44.462  33.148  26.251  1.00  0.00    -0.203 F 
ATOM     87  C   UNL A   1      45.538  35.017  27.198  1.00  0.00     0.198 A 
ATOM     88  C   UNL A   1      46.624  34.823  29.331  1.00  0.00     0.198 A 
ATOM     89  F   UNL A   1      46.633  32.762  30.465  1.00  0.00    -0.203 F 
ATOM     90  F   UNL A   1      45.214  35.747  26.122  1.00  0.00    -0.200 F 
ATOM     91  C   UNL A   1      46.266  35.588  28.230  1.00  0.00     0.200 A 
ATOM     92  F   UNL A   1      47.323  35.378  30.332  1.00  0.00    -0.200 F 
ATOM     93  F   UNL A   1      46.632  36.875  28.161  1.00  0.00    -0.200 F 
ENDBRANCH  60  83
ENDBRANCH  34  35
ENDBRANCH  27  29
ENDBRANCH  26  27
ENDBRANCH  25  26
ENDBRANCH   1  25
TORSDOF 16
ENDMDL
MODEL 2
REMARK VINA RESULT:     -11.6      5.513     11.218
REMARK SMILES CC[C@H]1CCC[C@H](O[C@@H]2CC[C@]([NH2+]C(C)C)(C(=O)OCCOC(=O)c3ccc(-c4c5nc(c(-c6c(F)c(F)c(F)c(F)c6F)c6ccc([nH]6)c(-c6c(F)c(F)c(F)c(F)c6F)c6nc(c(-c7c(F)c(F)c(F)c(F)c7F)c7ccc4[nH]7)C=C6)C=C5)cc3)C2)C1
REMARK SMILES IDX 20 1 19 2 17 3 18 4 12 5 9 6 10 7 88 8 11 9 8 10 7 11 3 12
REMARK SMILES IDX 4 13 89 14 5 15 6 16 2 17 1 18 13 19 14 22 15 23 16 24 21 25
REMARK SMILES IDX 22 26 23 27 24 28 25 29 26 30 87 31 27 32 86 33 28 34 29 35
REMARK SMILES IDX 30 36 80 37 31 38 85 39 79 40 81 41 32 42 84 43 78 44 77 45
REMARK SMILES IDX 33 47 65 48 45 49 64 50 46 51 49 52 63 53 82 54 47 55 48 56
REMARK SMILES IDX 62 58 83 59 50 60 34 61 35 62 43 63 36 64 37 65 41 66 44 67
REMARK SMILES IDX 38 68 39 69 42 70 40 71 66 72 67 73 75 74 68 75 69 76 73 77
REMARK SMILES IDX 76 78 70 79 71 80 74 81 72 82 51 83 52 84 60 85 53 86 54 87
REMARK SMILES IDX 58 88 61 89 55 90 56 91 59 92 57 93
REMARK H PARENT 13 20 13 21 81 46 49 57
REMARK Flexibility Score: inf
ROOT
ATOM      1  C   UNL A   1      32.638  31.701  27.278  1.00  0.00     0.274 C 
ENDROOT
BRANCH   1   2
ATOM      2  O   UNL A   1      31.838  30.990  26.309  1.00  0.00    -0.457 OA
BRANCH   2   3
ATOM      3  C   UNL A   1      31.789  29.630  26.412  1.00  0.00     0.368 C 
ATOM      4  O   UNL A   1      31.679  29.027  27.473  1.00  0.00    -0.245 OA
BRANCH   3   5
ATOM      5  C   UNL A   1      31.982  28.951  25.030  1.00  0.00     0.197 C 
ATOM      6  C   UNL A   1      32.415  26.853  23.870  1.00  0.00     0.125 C 
ATOM      7  C   UNL A   1      33.746  27.609  23.878  1.00  0.00     0.039 C 
ATOM      8  C   UNL A   1      31.624  27.448  25.040  1.00  0.00     0.113 C 
ATOM      9  C   UNL A   1      33.503  28.875  24.712  1.00  0.00     0.084 C 
BRANCH   6  10
ATOM     10  O   UNL A   1      32.508  25.447  23.687  1.00  0.00    -0.375 OA
BRANCH  10  11
ATOM     11  C   UNL A   1      33.414  24.597  24.394  1.00  0.00     0.118 C 
ATOM     12  C   UNL A   1      34.447  22.179  24.343  1.00  0.00    -0.009 C 
ATOM     13  C   UNL A   1      33.868  22.062  25.747  1.00  0.00     0.004 C 
ATOM     14  C   UNL A   1      33.796  23.346  23.575  1.00  0.00     0.035 C 
ATOM     15  C   UNL A   1      33.932  23.364  26.528  1.00  0.00     0.003 C 
ATOM     16  C   UNL A   1      33.023  24.371  25.851  1.00  0.00     0.032 C 
BRANCH  12  17
ATOM     17  C   UNL A   1      35.984  22.217  24.341  1.00  0.00     0.000 C 
ATOM     18  C   UNL A   1      36.551  22.953  23.125  1.00  0.00     0.004 C 
ENDBRANCH  12  17
ENDBRANCH  10  11
ENDBRANCH   6  10
BRANCH   5  19
ATOM     19  N   UNL A   1      31.351  29.703  23.909  1.00  0.00    -0.330 N 
ATOM     20  H   UNL A   1      31.793  29.382  23.047  1.00  0.00     0.347 HD
ATOM     21  H   UNL A   1      31.497  30.682  24.158  1.00  0.00     0.347 HD
BRANCH  19  22
ATOM     22  C   UNL A   1      29.904  29.600  23.714  1.00  0.00     0.176 C 
ATOM     23  C   UNL A   1      29.339  31.024  23.772  1.00  0.00     0.075 C 
ATOM     24  C   UNL A   1      29.528  28.963  22.376  1.00  0.00     0.075 C 
ENDBRANCH  19  22
ENDBRANCH   5  19
ENDBRANCH   3   5
ENDBRANCH   2   3
ENDBRANCH   1   2
BRANCH   1  25
ATOM     25  C   UNL A   1      32.483  33.209  27.095  1.00  0.00     0.275 C 
BRANCH  25  26
ATOM     26  O   UNL A   1      32.179  33.808  28.365  1.00  0.00    -0.458 OA
BRANCH  26  27
ATOM     27  C   UNL A   1      32.973  34.848  28.694  1.00  0.00     0.338 C 
ATOM     28  O   UNL A   1      32.755  36.037  28.554  1.00  0.00    -0.246 OA
BRANCH  27  29
ATOM     29  C   UNL A   1      34.131  34.337  29.430  1.00  0.00     0.060 A 
ATOM     30  C   UNL A   1      35.387  34.489  28.841  1.00  0.00     0.016 A 
ATOM     31  C   UNL A   1      33.963  33.553  30.572  1.00  0.00     0.016 A 
ATOM     32  C   UNL A   1      36.474  33.789  29.352  1.00  0.00     0.010 A 
ATOM     33  C   UNL A   1      35.073  32.907  31.124  1.00  0.00     0.010 A 
ATOM     34  C   UNL A   1      36.331  32.997  30.503  1.00  0.00    -0.014 A 
BRANCH  34  35
ATOM     35  C   UNL A   1      37.521  32.330  31.083  1.00  0.00     0.031 A 
ATOM     36  C   UNL A   1      38.168  31.142  30.431  1.00  0.00     0.074 A 
ATOM     37  C   UNL A   1      38.039  32.841  32.216  1.00  0.00     0.049 A 
ATOM     38  N   UNL A   1      39.227  30.469  30.808  1.00  0.00    -0.248 NA
ATOM     39  C   UNL A   1      37.585  30.662  29.172  1.00  0.00     0.031 C 
ATOM     40  C   UNL A   1      37.536  34.026  32.916  1.00  0.00     0.029 A 
ATOM     41  N   UNL A   1      39.084  32.412  32.993  1.00  0.00    -0.354 N 
ATOM     42  C   UNL A   1      39.483  29.558  29.791  1.00  0.00     0.074 A 
ATOM     43  C   UNL A   1      38.443  29.724  28.800  1.00  0.00     0.031 C 
ATOM     44  C   UNL A   1      38.247  34.208  34.034  1.00  0.00     0.029 A 
ATOM     45  C   UNL A   1      39.195  33.109  34.168  1.00  0.00     0.049 A 
ATOM     46  H   UNL A   1      39.691  31.682  32.733  1.00  0.00     0.167 HD
ATOM     47  C   UNL A   1      40.495  28.664  29.700  1.00  0.00     0.037 A 
ATOM     48  C   UNL A   1      39.911  32.840  35.274  1.00  0.00     0.037 A 
ATOM     49  C   UNL A   1      41.436  28.406  30.755  1.00  0.00     0.049 A 
ATOM     50  C   UNL A   1      40.803  31.638  35.284  1.00  0.00     0.074 A 
ATOM     51  C   UNL A   1      42.486  27.507  30.787  1.00  0.00     0.029 A 
ATOM     52  N   UNL A   1      41.392  29.017  31.999  1.00  0.00    -0.354 N 
ATOM     53  N   UNL A   1      41.077  30.812  34.305  1.00  0.00    -0.248 NA
ATOM     54  C   UNL A   1      41.463  31.314  36.554  1.00  0.00     0.031 C 
ATOM     55  C   UNL A   1      43.026  27.516  32.081  1.00  0.00     0.029 A 
ATOM     56  C   UNL A   1      42.340  28.453  32.836  1.00  0.00     0.049 A 
ATOM     57  H   UNL A   1      40.778  29.745  32.250  1.00  0.00     0.167 HD
ATOM     58  C   UNL A   1      41.938  29.865  34.836  1.00  0.00     0.074 A 
ATOM     59  C   UNL A   1      42.152  30.228  36.224  1.00  0.00     0.031 C 
ATOM     60  C   UNL A   1      42.502  28.795  34.225  1.00  0.00     0.037 A 
BRANCH  47  61
ATOM     61  C   UNL A   1      40.614  27.872  28.434  1.00  0.00     0.064 A 
ATOM     62  C   UNL A   1      41.375  28.346  27.355  1.00  0.00     0.173 A 
ATOM     63  C   UNL A   1      40.018  26.609  28.318  1.00  0.00     0.173 A 
ATOM     64  F   UNL A   1      41.957  29.553  27.416  1.00  0.00    -0.203 F 
ATOM     65  C   UNL A   1      41.535  27.580  26.202  1.00  0.00     0.198 A 
ATOM     66  C   UNL A   1      40.187  25.842  27.167  1.00  0.00     0.198 A 
ATOM     67  F   UNL A   1      39.278  26.117  29.322  1.00  0.00    -0.203 F 
ATOM     68  F   UNL A   1      42.258  28.054  25.177  1.00  0.00    -0.200 F 
ATOM     69  C   UNL A   1      40.946  26.328  26.111  1.00  0.00     0.200 A 
ATOM     70  F   UNL A   1      39.617  24.633  27.079  1.00  0.00    -0.200 F 
ATOM     71  F   UNL A   1      41.105  25.589  25.004  1.00  0.00    -0.200 F 
ENDBRANCH  47  61
BRANCH  48  72
ATOM     72  C   UNL A   1      39.683  33.664  36.484  1.00  0.00     0.064 A 
ATOM     73  C   UNL A   1      38.784  33.272  37.480  1.00  0.00     0.173 A 
ATOM     74  C   UNL A   1      40.428  34.838  36.694  1.00  0.00     0.173 A 
ATOM     75  F   UNL A   1      38.036  32.171  37.313  1.00  0.00    -0.203 F 
ATOM     76  C   UNL A   1      38.649  34.016  38.652  1.00  0.00     0.198 A 
ATOM     77  C   UNL A   1      40.312  35.563  37.874  1.00  0.00     0.198 A 
ATOM     78  F   UNL A   1      41.301  35.254  35.763  1.00  0.00    -0.203 F 
ATOM     79  F   UNL A   1      37.773  33.630  39.589  1.00  0.00    -0.200 F 
ATOM     80  C   UNL A   1      39.421  35.151  38.853  1.00  0.00     0.200 A 
ATOM     81  F   UNL A   1      41.073  36.649  38.069  1.00  0.00    -0.200 F 
ATOM     82  F   UNL A   1      39.308  35.849  39.991  1.00  0.00    -0.200 F 
ENDBRANCH  48  72
BRANCH  60  83
ATOM     83  C   UNL A   1      43.376  27.920  35.067  1.00  0.00     0.064 A 
ATOM     84  C   UNL A   1      44.721  28.246  35.292  1.00  0.00     0.173 A 
ATOM     85  C   UNL A   1      42.865  26.762  35.668  1.00  0.00     0.173 A 
ATOM     86  F   UNL A   1      45.257  29.334  34.719  1.00  0.00    -0.203 F 
ATOM     87  C   UNL A   1      45.528  27.432  36.080  1.00  0.00     0.198 A 
ATOM     88  C   UNL A   1      43.669  25.962  36.473  1.00  0.00     0.198 A 
ATOM     89  F   UNL A   1      41.584  26.412  35.481  1.00  0.00    -0.203 F 
ATOM     90  F   UNL A   1      46.822  27.740  36.252  1.00  0.00    -0.200 F 
ATOM     91  C   UNL A   1      45.002  26.295  36.674  1.00  0.00     0.200 A 
ATOM     92  F   UNL A   1      43.158  24.867  37.053  1.00  0.00    -0.200 F 
ATOM     93  F   UNL A   1      45.781  25.513  37.434  1.00  0.00    -0.200 F 
ENDBRANCH  60  83
ENDBRANCH  34  35
ENDBRANCH  27  29
ENDBRANCH  26  27
ENDBRANCH  25  26
ENDBRANCH   1  25
TORSDOF 16
ENDMDL
MODEL 3
REMARK VINA RESULT:     -11.5      4.720     10.379
REMARK SMILES CC[C@H]1CCC[C@H](O[C@@H]2CC[C@]([NH2+]C(C)C)(C(=O)OCCOC(=O)c3ccc(-c4c5nc(c(-c6c(F)c(F)c(F)c(F)c6F)c6ccc([nH]6)c(-c6c(F)c(F)c(F)c(F)c6F)c6nc(c(-c7c(F)c(F)c(F)c(F)c7F)c7ccc4[nH]7)C=C6)C=C5)cc3)C2)C1
REMARK SMILES IDX 20 1 19 2 17 3 18 4 12 5 9 6 10 7 88 8 11 9 8 10 7 11 3 12
REMARK SMILES IDX 4 13 89 14 5 15 6 16 2 17 1 18 13 19 14 22 15 23 16 24 21 25
REMARK SMILES IDX 22 26 23 27 24 28 25 29 26 30 87 31 27 32 86 33 28 34 29 35
REMARK SMILES IDX 30 36 80 37 31 38 85 39 79 40 81 41 32 42 84 43 78 44 77 45
REMARK SMILES IDX 33 47 65 48 45 49 64 50 46 51 49 52 63 53 82 54 47 55 48 56
REMARK SMILES IDX 62 58 83 59 50 60 34 61 35 62 43 63 36 64 37 65 41 66 44 67
REMARK SMILES IDX 38 68 39 69 42 70 40 71 66 72 67 73 75 74 68 75 69 76 73 77
REMARK SMILES IDX 76 78 70 79 71 80 74 81 72 82 51 83 52 84 60 85 53 86 54 87
REMARK SMILES IDX 58 88 61 89 55 90 56 91 59 92 57 93
REMARK H PARENT 13 20 13 21 81 46 49 57
REMARK Flexibility Score: inf
ROOT
ATOM      1  C   UNL A   1      31.400  30.057  24.951  1.00  0.00     0.274 C 
ENDROOT
BRANCH   1   2
ATOM      2  O   UNL A   1      32.160  28.939  24.444  1.00  0.00    -0.457 OA
BRANCH   2   3
ATOM      3  C   UNL A   1      31.721  28.353  23.292  1.00  0.00     0.368 C 
ATOM      4  O   UNL A   1      31.163  28.958  22.385  1.00  0.00    -0.245 OA
BRANCH   3   5
ATOM      5  C   UNL A   1      31.937  26.815  23.322  1.00  0.00     0.197 C 
ATOM      6  C   UNL A   1      33.519  25.005  22.932  1.00  0.00     0.125 C 
ATOM      7  C   UNL A   1      32.599  25.026  21.709  1.00  0.00     0.039 C 
ATOM      8  C   UNL A   1      33.416  26.416  23.520  1.00  0.00     0.113 C 
ATOM      9  C   UNL A   1      31.680  26.241  21.899  1.00  0.00     0.084 C 
BRANCH   6  10
ATOM     10  O   UNL A   1      34.782  24.380  22.740  1.00  0.00    -0.375 OA
BRANCH  10  11
ATOM     11  C   UNL A   1      35.129  23.087  23.241  1.00  0.00     0.118 C 
ATOM     12  C   UNL A   1      34.555  21.394  25.170  1.00  0.00    -0.009 C 
ATOM     13  C   UNL A   1      36.042  21.478  25.487  1.00  0.00     0.004 C 
ATOM     14  C   UNL A   1      34.113  22.576  24.284  1.00  0.00     0.035 C 
ATOM     15  C   UNL A   1      36.908  21.613  24.245  1.00  0.00     0.003 C 
ATOM     16  C   UNL A   1      36.607  22.951  23.597  1.00  0.00     0.032 C 
BRANCH  12  17
ATOM     17  C   UNL A   1      34.146  20.018  24.616  1.00  0.00     0.000 C 
ATOM     18  C   UNL A   1      32.632  19.804  24.638  1.00  0.00     0.004 C 
ENDBRANCH  12  17
ENDBRANCH  10  11
ENDBRANCH   6  10
BRANCH   5  19
ATOM     19  N   UNL A   1      31.004  26.106  24.241  1.00  0.00    -0.330 N 
ATOM     20  H   UNL A   1      30.661  25.283  23.744  1.00  0.00     0.347 HD
ATOM     21  H   UNL A   1      30.310  26.814  24.480  1.00  0.00     0.347 HD
BRANCH  19  22
ATOM     22  C   UNL A   1      31.501  25.647  25.539  1.00  0.00     0.176 C 
ATOM     23  C   UNL A   1      31.057  26.678  26.582  1.00  0.00     0.075 C 
ATOM     24  C   UNL A   1      30.963  24.271  25.930  1.00  0.00     0.075 C 
ENDBRANCH  19  22
ENDBRANCH   5  19
ENDBRANCH   3   5
ENDBRANCH   2   3
ENDBRANCH   1   2
BRANCH   1  25
ATOM     25  C   UNL A   1      31.800  30.364  26.392  1.00  0.00     0.275 C 
BRANCH  25  26
ATOM     26  O   UNL A   1      33.233  30.441  26.475  1.00  0.00    -0.458 OA
BRANCH  26  27
ATOM     27  C   UNL A   1      33.692  31.439  27.257  1.00  0.00     0.338 C 
ATOM     28  O   UNL A   1      33.116  32.455  27.600  1.00  0.00    -0.246 OA
BRANCH  27  29
ATOM     29  C   UNL A   1      34.994  31.046  27.801  1.00  0.00     0.060 A 
ATOM     30  C   UNL A   1      35.123  29.743  28.284  1.00  0.00     0.016 A 
ATOM     31  C   UNL A   1      35.995  31.994  28.012  1.00  0.00     0.016 A 
ATOM     32  C   UNL A   1      36.230  29.404  29.054  1.00  0.00     0.010 A 
ATOM     33  C   UNL A   1      37.140  31.627  28.727  1.00  0.00     0.010 A 
ATOM     34  C   UNL A   1      37.253  30.339  29.277  1.00  0.00    -0.014 A 
BRANCH  34  35
ATOM     35  C   UNL A   1      38.467  29.929  30.025  1.00  0.00     0.031 A 
ATOM     36  C   UNL A   1      39.416  28.891  29.497  1.00  0.00     0.074 A 
ATOM     37  C   UNL A   1      38.720  30.540  31.197  1.00  0.00     0.049 A 
ATOM     38  N   UNL A   1      40.529  28.448  30.027  1.00  0.00    -0.248 NA
ATOM     39  C   UNL A   1      39.109  28.298  28.191  1.00  0.00     0.031 C 
ATOM     40  C   UNL A   1      37.905  31.603  31.790  1.00  0.00     0.029 A 
ATOM     41  N   UNL A   1      39.718  30.334  32.113  1.00  0.00    -0.354 N 
ATOM     42  C   UNL A   1      41.091  27.601  29.080  1.00  0.00     0.074 A 
ATOM     43  C   UNL A   1      40.178  27.548  27.961  1.00  0.00     0.031 C 
ATOM     44  C   UNL A   1      38.413  31.931  32.983  1.00  0.00     0.029 A 
ATOM     45  C   UNL A   1      39.535  31.046  33.271  1.00  0.00     0.049 A 
ATOM     46  H   UNL A   1      40.487  29.739  31.956  1.00  0.00     0.167 HD
ATOM     47  C   UNL A   1      42.264  26.928  29.146  1.00  0.00     0.037 A 
ATOM     48  C   UNL A   1      40.139  30.932  34.466  1.00  0.00     0.037 A 
ATOM     49  C   UNL A   1      43.091  26.871  30.320  1.00  0.00     0.049 A 
ATOM     50  C   UNL A   1      41.243  29.935  34.628  1.00  0.00     0.074 A 
ATOM     51  C   UNL A   1      44.286  26.201  30.514  1.00  0.00     0.029 A 
ATOM     52  N   UNL A   1      42.765  27.467  31.529  1.00  0.00    -0.354 N 
ATOM     53  N   UNL A   1      41.801  29.175  33.718  1.00  0.00    -0.248 NA
ATOM     54  C   UNL A   1      41.783  29.757  35.981  1.00  0.00     0.031 C 
ATOM     55  C   UNL A   1      44.640  26.326  31.864  1.00  0.00     0.029 A 
ATOM     56  C   UNL A   1      43.688  27.110  32.496  1.00  0.00     0.049 A 
ATOM     57  H   UNL A   1      41.991  28.058  31.676  1.00  0.00     0.167 HD
ATOM     58  C   UNL A   1      42.757  28.423  34.384  1.00  0.00     0.074 A 
ATOM     59  C   UNL A   1      42.711  28.830  35.775  1.00  0.00     0.031 C 
ATOM     60  C   UNL A   1      43.597  27.485  33.883  1.00  0.00     0.037 A 
BRANCH  47  61
ATOM     61  C   UNL A   1      42.702  26.170  27.932  1.00  0.00     0.064 A 
ATOM     62  C   UNL A   1      43.571  26.747  26.994  1.00  0.00     0.173 A 
ATOM     63  C   UNL A   1      42.303  24.841  27.731  1.00  0.00     0.173 A 
ATOM     64  F   UNL A   1      43.974  28.018  27.139  1.00  0.00    -0.203 F 
ATOM     65  C   UNL A   1      44.027  26.018  25.897  1.00  0.00     0.198 A 
ATOM     66  C   UNL A   1      42.767  24.113  26.638  1.00  0.00     0.198 A 
ATOM     67  F   UNL A   1      41.469  24.249  28.598  1.00  0.00    -0.203 F 
ATOM     68  F   UNL A   1      44.850  26.590  25.007  1.00  0.00    -0.200 F 
ATOM     69  C   UNL A   1      43.629  24.701  25.723  1.00  0.00     0.200 A 
ATOM     70  F   UNL A   1      42.381  22.840  26.470  1.00  0.00    -0.200 F 
ATOM     71  F   UNL A   1      44.071  23.999  24.671  1.00  0.00    -0.200 F 
ENDBRANCH  47  61
BRANCH  48  72
ATOM     72  C   UNL A   1      39.596  31.701  35.611  1.00  0.00     0.064 A 
ATOM     73  C   UNL A   1      38.532  31.219  36.379  1.00  0.00     0.173 A 
ATOM     74  C   UNL A   1      40.193  32.913  35.999  1.00  0.00     0.173 A 
ATOM     75  F   UNL A   1      37.918  30.079  36.032  1.00  0.00    -0.203 F 
ATOM     76  C   UNL A   1      38.093  31.914  37.505  1.00  0.00     0.198 A 
ATOM     77  C   UNL A   1      39.773  33.591  37.138  1.00  0.00     0.198 A 
ATOM     78  F   UNL A   1      41.217  33.414  35.290  1.00  0.00    -0.203 F 
ATOM     79  F   UNL A   1      37.064  31.443  38.220  1.00  0.00    -0.200 F 
ATOM     80  C   UNL A   1      38.722  33.091  37.890  1.00  0.00     0.200 A 
ATOM     81  F   UNL A   1      40.395  34.716  37.513  1.00  0.00    -0.200 F 
ATOM     82  F   UNL A   1      38.315  33.742  38.988  1.00  0.00    -0.200 F 
ENDBRANCH  48  72
BRANCH  60  83
ATOM     83  C   UNL A   1      44.510  26.808  34.856  1.00  0.00     0.064 A 
ATOM     84  C   UNL A   1      44.180  25.562  35.408  1.00  0.00     0.173 A 
ATOM     85  C   UNL A   1      45.727  27.396  35.225  1.00  0.00     0.173 A 
ATOM     86  F   UNL A   1      43.015  24.973  35.098  1.00  0.00    -0.203 F 
ATOM     87  C   UNL A   1      45.035  24.934  36.308  1.00  0.00     0.198 A 
ATOM     88  C   UNL A   1      46.589  26.755  36.109  1.00  0.00     0.198 A 
ATOM     89  F   UNL A   1      46.083  28.587  34.722  1.00  0.00    -0.203 F 
ATOM     90  F   UNL A   1      44.684  23.761  36.854  1.00  0.00    -0.200 F 
ATOM     91  C   UNL A   1      46.239  25.527  36.654  1.00  0.00     0.200 A 
ATOM     92  F   UNL A   1      47.756  27.325  36.438  1.00  0.00    -0.200 F 
ATOM     93  F   UNL A   1      47.062  24.920  37.520  1.00  0.00    -0.200 F 
ENDBRANCH  60  83
ENDBRANCH  34  35
ENDBRANCH  27  29
ENDBRANCH  26  27
ENDBRANCH  25  26
ENDBRANCH   1  25
TORSDOF 16
ENDMDL
