MODEL 1
REMARK VINA RESULT:     -12.8      0.000      0.000
REMARK SMILES O=C(OCCOC(=O)[C@H]1[C@H]2CC[C@H](CC2)[C@@H]1C(=O)Nc1ccc(Cc2ccncc2)cc1)c1ccc(-c2c3nc(c(-c4c(F)c(F)c(F)c(F)c4F)c4ccc([nH]4)c(-c4c(F)c(F)c(F)c(F)c4F)c4nc(c(-c5c(F)c(F)c(F)c(F)c5F)c5ccc2[nH]5)C=C4)C=C3)cc1
REMARK SMILES IDX 5 1 4 2 3 3 2 4 1 5 33 6 34 7 95 8 35 9 94 10 36 11 37 12
REMARK SMILES IDX 38 13 88 14 39 15 93 16 87 17 89 18 40 19 92 20 86 21 85 22
REMARK SMILES IDX 41 24 73 25 53 26 72 27 54 28 57 29 71 30 90 31 55 32 56 33
REMARK SMILES IDX 70 35 91 36 58 37 42 38 43 39 51 40 44 41 45 42 49 43 52 44
REMARK SMILES IDX 46 45 47 46 50 47 48 48 74 49 75 50 83 51 76 52 77 53 81 54
REMARK SMILES IDX 84 55 78 56 79 57 82 58 80 59 59 60 60 61 68 62 61 63 62 64
REMARK SMILES IDX 66 65 69 66 63 67 64 68 67 69 65 70 6 71 7 72 8 73 9 74
REMARK SMILES IDX 10 75 16 76 15 77 11 78 13 79 14 80 12 81 17 82 18 83 19 84
REMARK SMILES IDX 20 86 21 87 32 88 22 89 31 90 23 91 24 92 25 93 26 94 30 95
REMARK SMILES IDX 27 96 29 97 28 98
REMARK H PARENT 89 23 57 34 19 85
REMARK Flexibility Score: inf
ROOT
ATOM      1  C   UNL A   1      32.454  30.820  26.720  1.00  0.00     0.274 C 
ENDROOT
BRANCH   1   2
ATOM      2  C   UNL A   1      31.635  32.100  26.876  1.00  0.00     0.275 C 
BRANCH   2   3
ATOM      3  O   UNL A   1      32.434  33.294  27.006  1.00  0.00    -0.458 OA
BRANCH   3   4
ATOM      4  C   UNL A   1      33.236  33.748  28.000  1.00  0.00     0.338 C 
ATOM      5  O   UNL A   1      32.917  34.809  28.539  1.00  0.00    -0.246 OA
BRANCH   4   6
ATOM      6  C   UNL A   1      34.515  33.101  28.483  1.00  0.00     0.060 A 
ATOM      7  C   UNL A   1      35.825  33.453  28.139  1.00  0.00     0.016 A 
ATOM      8  C   UNL A   1      34.368  32.085  29.456  1.00  0.00     0.016 A 
ATOM      9  C   UNL A   1      36.940  32.902  28.819  1.00  0.00     0.010 A 
ATOM     10  C   UNL A   1      35.476  31.536  30.134  1.00  0.00     0.010 A 
ATOM     11  C   UNL A   1      36.782  31.965  29.851  1.00  0.00    -0.014 A 
BRANCH  11  12
ATOM     12  C   UNL A   1      37.972  31.298  30.484  1.00  0.00     0.031 A 
ATOM     13  C   UNL A   1      38.302  31.712  31.869  1.00  0.00     0.074 A 
ATOM     14  C   UNL A   1      38.761  30.369  29.899  1.00  0.00     0.049 A 
ATOM     15  N   UNL A   1      39.242  31.256  32.648  1.00  0.00    -0.248 NA
ATOM     16  C   UNL A   1      37.487  32.792  32.446  1.00  0.00     0.031 C 
ATOM     17  C   UNL A   1      38.600  29.953  28.537  1.00  0.00     0.029 A 
ATOM     18  N   UNL A   1      39.850  29.621  30.290  1.00  0.00    -0.354 N 
ATOM     19  C   UNL A   1      39.105  31.964  33.823  1.00  0.00     0.074 A 
ATOM     20  C   UNL A   1      38.064  32.948  33.622  1.00  0.00     0.031 C 
ATOM     21  C   UNL A   1      39.492  29.033  28.169  1.00  0.00     0.029 A 
ATOM     22  C   UNL A   1      40.356  28.796  29.294  1.00  0.00     0.049 A 
ATOM     23  H   UNL A   1      40.235  29.668  31.195  1.00  0.00     0.167 HD
ATOM     24  C   UNL A   1      39.771  31.771  34.979  1.00  0.00     0.037 A 
ATOM     25  C   UNL A   1      41.403  27.951  29.252  1.00  0.00     0.037 A 
ATOM     26  C   UNL A   1      40.855  30.844  35.127  1.00  0.00     0.049 A 
ATOM     27  C   UNL A   1      42.189  27.826  30.513  1.00  0.00     0.074 A 
ATOM     28  C   UNL A   1      41.627  30.593  36.243  1.00  0.00     0.029 A 
ATOM     29  N   UNL A   1      41.348  30.034  34.106  1.00  0.00    -0.354 N 
ATOM     30  N   UNL A   1      41.996  28.455  31.645  1.00  0.00    -0.248 NA
ATOM     31  C   UNL A   1      43.318  26.893  30.513  1.00  0.00     0.031 C 
ATOM     32  C   UNL A   1      42.618  29.672  35.885  1.00  0.00     0.029 A 
ATOM     33  C   UNL A   1      42.428  29.296  34.564  1.00  0.00     0.049 A 
ATOM     34  H   UNL A   1      40.983  29.992  33.192  1.00  0.00     0.167 HD
ATOM     35  C   UNL A   1      42.959  27.981  32.508  1.00  0.00     0.074 A 
ATOM     36  C   UNL A   1      43.728  26.994  31.770  1.00  0.00     0.031 C 
ATOM     37  C   UNL A   1      43.179  28.331  33.797  1.00  0.00     0.037 A 
BRANCH  24  38
ATOM     38  C   UNL A   1      39.322  32.632  36.115  1.00  0.00     0.064 A 
ATOM     39  C   UNL A   1      39.950  33.863  36.382  1.00  0.00     0.173 A 
ATOM     40  C   UNL A   1      38.379  32.158  37.032  1.00  0.00     0.173 A 
ATOM     41  F   UNL A   1      40.901  34.330  35.558  1.00  0.00    -0.203 F 
ATOM     42  C   UNL A   1      39.685  34.557  37.557  1.00  0.00     0.198 A 
ATOM     43  C   UNL A   1      38.094  32.871  38.191  1.00  0.00     0.198 A 
ATOM     44  F   UNL A   1      37.778  30.975  36.834  1.00  0.00    -0.203 F 
ATOM     45  F   UNL A   1      40.372  35.671  37.844  1.00  0.00    -0.200 F 
ATOM     46  C   UNL A   1      38.759  34.060  38.461  1.00  0.00     0.200 A 
ATOM     47  F   UNL A   1      37.206  32.388  39.070  1.00  0.00    -0.200 F 
ATOM     48  F   UNL A   1      38.529  34.711  39.609  1.00  0.00    -0.200 F 
ENDBRANCH  24  38
BRANCH  25  49
ATOM     49  C   UNL A   1      41.750  27.170  28.021  1.00  0.00     0.064 A 
ATOM     50  C   UNL A   1      41.197  25.903  27.779  1.00  0.00     0.173 A 
ATOM     51  C   UNL A   1      42.645  27.667  27.058  1.00  0.00     0.173 A 
ATOM     52  F   UNL A   1      40.342  25.367  28.663  1.00  0.00    -0.203 F 
ATOM     53  C   UNL A   1      41.543  25.158  26.648  1.00  0.00     0.198 A 
ATOM     54  C   UNL A   1      42.967  26.935  25.912  1.00  0.00     0.198 A 
ATOM     55  F   UNL A   1      43.201  28.878  27.218  1.00  0.00    -0.203 F 
ATOM     56  F   UNL A   1      41.030  23.932  26.473  1.00  0.00    -0.200 F 
ATOM     57  C   UNL A   1      42.424  25.677  25.714  1.00  0.00     0.200 A 
ATOM     58  F   UNL A   1      43.803  27.452  25.000  1.00  0.00    -0.200 F 
ATOM     59  F   UNL A   1      42.752  24.964  24.627  1.00  0.00    -0.200 F 
ENDBRANCH  25  49
BRANCH  37  60
ATOM     60  C   UNL A   1      44.277  27.593  34.489  1.00  0.00     0.064 A 
ATOM     61  C   UNL A   1      45.591  28.079  34.516  1.00  0.00     0.173 A 
ATOM     62  C   UNL A   1      44.000  26.380  35.132  1.00  0.00     0.173 A 
ATOM     63  F   UNL A   1      45.905  29.219  33.880  1.00  0.00    -0.203 F 
ATOM     64  C   UNL A   1      46.599  27.359  35.147  1.00  0.00     0.198 A 
ATOM     65  C   UNL A   1      45.002  25.682  35.793  1.00  0.00     0.198 A 
ATOM     66  F   UNL A   1      42.757  25.874  35.119  1.00  0.00    -0.203 F 
ATOM     67  F   UNL A   1      47.862  27.806  35.109  1.00  0.00    -0.200 F 
ATOM     68  C   UNL A   1      46.302  26.168  35.793  1.00  0.00     0.200 A 
ATOM     69  F   UNL A   1      44.712  24.536  36.424  1.00  0.00    -0.200 F 
ATOM     70  F   UNL A   1      47.272  25.478  36.406  1.00  0.00    -0.200 F 
ENDBRANCH  37  60
ENDBRANCH  11  12
ENDBRANCH   4   6
ENDBRANCH   3   4
ENDBRANCH   2   3
ENDBRANCH   1   2
BRANCH   1  71
ATOM     71  O   UNL A   1      31.611  29.683  26.910  1.00  0.00    -0.462 OA
BRANCH  71  72
ATOM     72  C   UNL A   1      31.967  28.496  26.338  1.00  0.00     0.310 C 
ATOM     73  O   UNL A   1      32.771  27.709  26.803  1.00  0.00    -0.252 OA
BRANCH  72  74
ATOM     74  C   UNL A   1      31.239  28.306  25.001  1.00  0.00     0.115 C 
ATOM     75  C   UNL A   1      31.915  29.086  23.870  1.00  0.00     0.004 C 
ATOM     76  C   UNL A   1      31.269  26.838  24.536  1.00  0.00     0.096 C 
ATOM     77  C   UNL A   1      33.361  28.516  23.710  1.00  0.00     0.005 C 
ATOM     78  C   UNL A   1      30.964  28.951  22.655  1.00  0.00     0.005 C 
ATOM     79  C   UNL A   1      31.840  26.670  23.079  1.00  0.00     0.002 C 
ATOM     80  C   UNL A   1      33.304  27.122  23.109  1.00  0.00     0.005 C 
ATOM     81  C   UNL A   1      31.049  27.542  22.096  1.00  0.00     0.005 C 
BRANCH  76  82
ATOM     82  C   UNL A   1      29.904  26.158  24.585  1.00  0.00     0.228 C 
ATOM     83  O   UNL A   1      28.869  26.729  24.243  1.00  0.00    -0.274 OA
ATOM     84  N   UNL A   1      29.903  24.801  24.816  1.00  0.00    -0.326 N 
ATOM     85  H   UNL A   1      29.066  24.308  24.655  1.00  0.00     0.169 HD
BRANCH  84  86
ATOM     86  C   UNL A   1      31.011  24.075  25.267  1.00  0.00     0.041 A 
ATOM     87  C   UNL A   1      31.367  24.165  26.608  1.00  0.00     0.026 A 
ATOM     88  C   UNL A   1      31.653  23.162  24.424  1.00  0.00     0.026 A 
ATOM     89  C   UNL A   1      32.287  23.257  27.125  1.00  0.00     0.006 A 
ATOM     90  C   UNL A   1      32.565  22.253  24.938  1.00  0.00     0.006 A 
ATOM     91  C   UNL A   1      32.895  22.297  26.295  1.00  0.00    -0.043 A 
BRANCH  91  92
ATOM     92  C   UNL A   1      34.042  21.456  26.804  1.00  0.00     0.071 C 
BRANCH  92  93
ATOM     93  C   UNL A   1      35.309  21.850  26.082  1.00  0.00    -0.041 A 
ATOM     94  C   UNL A   1      36.043  20.888  25.376  1.00  0.00     0.024 A 
ATOM     95  C   UNL A   1      35.852  23.129  26.220  1.00  0.00     0.024 A 
ATOM     96  C   UNL A   1      37.282  21.233  24.871  1.00  0.00     0.111 A 
ATOM     97  C   UNL A   1      37.094  23.381  25.660  1.00  0.00     0.111 A 
ATOM     98  N   UNL A   1      37.824  22.461  24.992  1.00  0.00    -0.265 NA
ENDBRANCH  92  93
ENDBRANCH  91  92
ENDBRANCH  84  86
ENDBRANCH  76  82
ENDBRANCH  72  74
ENDBRANCH  71  72
ENDBRANCH   1  71
TORSDOF 15
ENDMDL
MODEL 2
REMARK VINA RESULT:     -12.7      1.719      2.337
REMARK SMILES O=C(OCCOC(=O)[C@H]1[C@H]2CC[C@H](CC2)[C@@H]1C(=O)Nc1ccc(Cc2ccncc2)cc1)c1ccc(-c2c3nc(c(-c4c(F)c(F)c(F)c(F)c4F)c4ccc([nH]4)c(-c4c(F)c(F)c(F)c(F)c4F)c4nc(c(-c5c(F)c(F)c(F)c(F)c5F)c5ccc2[nH]5)C=C4)C=C3)cc1
REMARK SMILES IDX 5 1 4 2 3 3 2 4 1 5 33 6 34 7 95 8 35 9 94 10 36 11 37 12
REMARK SMILES IDX 38 13 88 14 39 15 93 16 87 17 89 18 40 19 92 20 86 21 85 22
REMARK SMILES IDX 41 24 73 25 53 26 72 27 54 28 57 29 71 30 90 31 55 32 56 33
REMARK SMILES IDX 70 35 91 36 58 37 42 38 43 39 51 40 44 41 45 42 49 43 52 44
REMARK SMILES IDX 46 45 47 46 50 47 48 48 74 49 75 50 83 51 76 52 77 53 81 54
REMARK SMILES IDX 84 55 78 56 79 57 82 58 80 59 59 60 60 61 68 62 61 63 62 64
REMARK SMILES IDX 66 65 69 66 63 67 64 68 67 69 65 70 6 71 7 72 8 73 9 74
REMARK SMILES IDX 10 75 16 76 15 77 11 78 13 79 14 80 12 81 17 82 18 83 19 84
REMARK SMILES IDX 20 86 21 87 32 88 22 89 31 90 23 91 24 92 25 93 26 94 30 95
REMARK SMILES IDX 27 96 29 97 28 98
REMARK H PARENT 89 23 57 34 19 85
REMARK Flexibility Score: inf
ROOT
ATOM      1  C   UNL A   1      31.790  28.864  27.256  1.00  0.00     0.274 C 
ENDROOT
BRANCH   1   2
ATOM      2  C   UNL A   1      31.668  30.323  26.824  1.00  0.00     0.275 C 
BRANCH   2   3
ATOM      3  O   UNL A   1      32.935  30.976  26.601  1.00  0.00    -0.458 OA
BRANCH   3   4
ATOM      4  C   UNL A   1      33.707  31.758  27.394  1.00  0.00     0.338 C 
ATOM      5  O   UNL A   1      33.297  32.895  27.631  1.00  0.00    -0.246 OA
BRANCH   4   6
ATOM      6  C   UNL A   1      35.051  31.386  27.980  1.00  0.00     0.060 A 
ATOM      7  C   UNL A   1      36.183  32.202  28.089  1.00  0.00     0.016 A 
ATOM      8  C   UNL A   1      35.141  30.099  28.560  1.00  0.00     0.016 A 
ATOM      9  C   UNL A   1      37.313  31.799  28.844  1.00  0.00     0.010 A 
ATOM     10  C   UNL A   1      36.264  29.697  29.312  1.00  0.00     0.010 A 
ATOM     11  C   UNL A   1      37.357  30.559  29.498  1.00  0.00    -0.014 A 
BRANCH  11  12
ATOM     12  C   UNL A   1      38.604  30.091  30.196  1.00  0.00     0.031 A 
ATOM     13  C   UNL A   1      38.843  30.633  31.556  1.00  0.00     0.074 A 
ATOM     14  C   UNL A   1      39.519  29.234  29.688  1.00  0.00     0.049 A 
ATOM     15  N   UNL A   1      39.811  30.350  32.380  1.00  0.00    -0.248 NA
ATOM     16  C   UNL A   1      37.883  31.634  32.043  1.00  0.00     0.031 C 
ATOM     17  C   UNL A   1      39.446  28.714  28.355  1.00  0.00     0.029 A 
ATOM     18  N   UNL A   1      40.682  28.658  30.148  1.00  0.00    -0.354 N 
ATOM     19  C   UNL A   1      39.556  31.110  33.501  1.00  0.00     0.074 A 
ATOM     20  C   UNL A   1      38.405  31.938  33.217  1.00  0.00     0.031 C 
ATOM     21  C   UNL A   1      40.456  27.893  28.066  1.00  0.00     0.029 A 
ATOM     22  C   UNL A   1      41.314  27.841  29.220  1.00  0.00     0.049 A 
ATOM     23  H   UNL A   1      41.034  28.812  31.055  1.00  0.00     0.167 HD
ATOM     24  C   UNL A   1      40.210  31.078  34.680  1.00  0.00     0.037 A 
ATOM     25  C   UNL A   1      42.460  27.135  29.254  1.00  0.00     0.037 A 
ATOM     26  C   UNL A   1      41.398  30.308  34.910  1.00  0.00     0.049 A 
ATOM     27  C   UNL A   1      43.222  27.193  30.534  1.00  0.00     0.074 A 
ATOM     28  C   UNL A   1      42.166  30.230  36.053  1.00  0.00     0.029 A 
ATOM     29  N   UNL A   1      42.015  29.503  33.954  1.00  0.00    -0.354 N 
ATOM     30  N   UNL A   1      42.921  27.864  31.618  1.00  0.00    -0.248 NA
ATOM     31  C   UNL A   1      44.459  26.413  30.617  1.00  0.00     0.031 C 
ATOM     32  C   UNL A   1      43.274  29.421  35.776  1.00  0.00     0.029 A 
ATOM     33  C   UNL A   1      43.167  28.939  34.480  1.00  0.00     0.049 A 
ATOM     34  H   UNL A   1      41.682  29.356  33.039  1.00  0.00     0.167 HD
ATOM     35  C   UNL A   1      43.913  27.573  32.527  1.00  0.00     0.074 A 
ATOM     36  C   UNL A   1      44.819  26.646  31.871  1.00  0.00     0.031 C 
ATOM     37  C   UNL A   1      44.053  28.030  33.794  1.00  0.00     0.037 A 
BRANCH  24  38
ATOM     38  C   UNL A   1      39.626  31.947  35.747  1.00  0.00     0.064 A 
ATOM     39  C   UNL A   1      40.210  33.185  36.071  1.00  0.00     0.173 A 
ATOM     40  C   UNL A   1      38.587  31.473  36.554  1.00  0.00     0.173 A 
ATOM     41  F   UNL A   1      41.246  33.652  35.357  1.00  0.00    -0.203 F 
ATOM     42  C   UNL A   1      39.807  33.888  37.201  1.00  0.00     0.198 A 
ATOM     43  C   UNL A   1      38.165  32.196  37.665  1.00  0.00     0.198 A 
ATOM     44  F   UNL A   1      38.022  30.284  36.301  1.00  0.00    -0.203 F 
ATOM     45  F   UNL A   1      40.448  35.012  37.553  1.00  0.00    -0.200 F 
ATOM     46  C   UNL A   1      38.786  33.393  37.997  1.00  0.00     0.200 A 
ATOM     47  F   UNL A   1      37.185  31.714  38.441  1.00  0.00    -0.200 F 
ATOM     48  F   UNL A   1      38.420  34.054  39.104  1.00  0.00    -0.200 F 
ENDBRANCH  24  38
BRANCH  25  49
ATOM     49  C   UNL A   1      42.934  26.327  28.085  1.00  0.00     0.064 A 
ATOM     50  C   UNL A   1      43.807  26.869  27.128  1.00  0.00     0.173 A 
ATOM     51  C   UNL A   1      42.525  24.997  27.890  1.00  0.00     0.173 A 
ATOM     52  F   UNL A   1      44.230  28.136  27.250  1.00  0.00    -0.203 F 
ATOM     53  C   UNL A   1      44.227  26.130  26.019  1.00  0.00     0.198 A 
ATOM     54  C   UNL A   1      42.970  24.247  26.797  1.00  0.00     0.198 A 
ATOM     55  F   UNL A   1      41.703  24.411  28.773  1.00  0.00    -0.203 F 
ATOM     56  F   UNL A   1      45.024  26.694  25.101  1.00  0.00    -0.200 F 
ATOM     57  C   UNL A   1      43.811  24.818  25.857  1.00  0.00     0.200 A 
ATOM     58  F   UNL A   1      42.582  22.971  26.658  1.00  0.00    -0.200 F 
ATOM     59  F   UNL A   1      44.218  24.107  24.795  1.00  0.00    -0.200 F 
ENDBRANCH  25  49
BRANCH  37  60
ATOM     60  C   UNL A   1      45.217  27.485  34.553  1.00  0.00     0.064 A 
ATOM     61  C   UNL A   1      46.465  28.122  34.551  1.00  0.00     0.173 A 
ATOM     62  C   UNL A   1      45.071  26.303  35.292  1.00  0.00     0.173 A 
ATOM     63  F   UNL A   1      46.656  29.235  33.826  1.00  0.00    -0.203 F 
ATOM     64  C   UNL A   1      47.538  27.577  35.248  1.00  0.00     0.198 A 
ATOM     65  C   UNL A   1      46.135  25.784  36.017  1.00  0.00     0.198 A 
ATOM     66  F   UNL A   1      43.895  25.657  35.310  1.00  0.00    -0.203 F 
ATOM     67  F   UNL A   1      48.741  28.164  35.183  1.00  0.00    -0.200 F 
ATOM     68  C   UNL A   1      47.369  26.416  35.987  1.00  0.00     0.200 A 
ATOM     69  F   UNL A   1      45.968  24.666  36.738  1.00  0.00    -0.200 F 
ATOM     70  F   UNL A   1      48.402  25.897  36.664  1.00  0.00    -0.200 F 
ENDBRANCH  37  60
ENDBRANCH  11  12
ENDBRANCH   4   6
ENDBRANCH   3   4
ENDBRANCH   2   3
ENDBRANCH   1   2
BRANCH   1  71
ATOM     71  O   UNL A   1      33.012  28.316  26.764  1.00  0.00    -0.462 OA
BRANCH  71  72
ATOM     72  C   UNL A   1      32.971  27.162  26.035  1.00  0.00     0.310 C 
ATOM     73  O   UNL A   1      33.651  26.175  26.250  1.00  0.00    -0.252 OA
BRANCH  72  74
ATOM     74  C   UNL A   1      31.972  27.294  24.878  1.00  0.00     0.115 C 
ATOM     75  C   UNL A   1      32.492  28.229  23.783  1.00  0.00     0.004 C 
ATOM     76  C   UNL A   1      31.740  25.948  24.166  1.00  0.00     0.096 C 
ATOM     77  C   UNL A   1      33.801  27.596  23.213  1.00  0.00     0.005 C 
ATOM     78  C   UNL A   1      31.307  28.407  22.802  1.00  0.00     0.005 C 
ATOM     79  C   UNL A   1      31.984  26.029  22.613  1.00  0.00     0.002 C 
ATOM     80  C   UNL A   1      33.467  26.356  22.402  1.00  0.00     0.005 C 
ATOM     81  C   UNL A   1      31.116  27.134  21.998  1.00  0.00     0.005 C 
BRANCH  76  82
ATOM     82  C   UNL A   1      30.344  25.375  24.391  1.00  0.00     0.228 C 
ATOM     83  O   UNL A   1      29.332  26.072  24.363  1.00  0.00    -0.274 OA
ATOM     84  N   UNL A   1      30.240  24.002  24.407  1.00  0.00    -0.326 N 
ATOM     85  H   UNL A   1      29.339  23.609  24.349  1.00  0.00     0.169 HD
BRANCH  84  86
ATOM     86  C   UNL A   1      31.329  23.128  24.502  1.00  0.00     0.041 A 
ATOM     87  C   UNL A   1      31.775  22.754  25.765  1.00  0.00     0.026 A 
ATOM     88  C   UNL A   1      31.858  22.525  23.356  1.00  0.00     0.026 A 
ATOM     89  C   UNL A   1      32.670  21.692  25.877  1.00  0.00     0.006 A 
ATOM     90  C   UNL A   1      32.744  21.465  23.467  1.00  0.00     0.006 A 
ATOM     91  C   UNL A   1      33.163  21.043  24.731  1.00  0.00    -0.043 A 
BRANCH  91  92
ATOM     92  C   UNL A   1      34.287  20.039  24.840  1.00  0.00     0.071 C 
BRANCH  92  93
ATOM     93  C   UNL A   1      33.725  18.643  24.704  1.00  0.00    -0.041 A 
ATOM     94  C   UNL A   1      32.864  18.135  25.684  1.00  0.00     0.024 A 
ATOM     95  C   UNL A   1      34.158  17.785  23.691  1.00  0.00     0.024 A 
ATOM     96  C   UNL A   1      32.502  16.802  25.629  1.00  0.00     0.111 A 
ATOM     97  C   UNL A   1      33.723  16.469  23.712  1.00  0.00     0.111 A 
ATOM     98  N   UNL A   1      32.908  15.957  24.660  1.00  0.00    -0.265 NA
ENDBRANCH  92  93
ENDBRANCH  91  92
ENDBRANCH  84  86
ENDBRANCH  76  82
ENDBRANCH  72  74
ENDBRANCH  71  72
ENDBRANCH   1  71
TORSDOF 15
ENDMDL
MODEL 3
REMARK VINA RESULT:     -12.6      4.448     10.209
REMARK SMILES O=C(OCCOC(=O)[C@H]1[C@H]2CC[C@H](CC2)[C@@H]1C(=O)Nc1ccc(Cc2ccncc2)cc1)c1ccc(-c2c3nc(c(-c4c(F)c(F)c(F)c(F)c4F)c4ccc([nH]4)c(-c4c(F)c(F)c(F)c(F)c4F)c4nc(c(-c5c(F)c(F)c(F)c(F)c5F)c5ccc2[nH]5)C=C4)C=C3)cc1
REMARK SMILES IDX 5 1 4 2 3 3 2 4 1 5 33 6 34 7 95 8 35 9 94 10 36 11 37 12
REMARK SMILES IDX 38 13 88 14 39 15 93 16 87 17 89 18 40 19 92 20 86 21 85 22
REMARK SMILES IDX 41 24 73 25 53 26 72 27 54 28 57 29 71 30 90 31 55 32 56 33
REMARK SMILES IDX 70 35 91 36 58 37 42 38 43 39 51 40 44 41 45 42 49 43 52 44
REMARK SMILES IDX 46 45 47 46 50 47 48 48 74 49 75 50 83 51 76 52 77 53 81 54
REMARK SMILES IDX 84 55 78 56 79 57 82 58 80 59 59 60 60 61 68 62 61 63 62 64
REMARK SMILES IDX 66 65 69 66 63 67 64 68 67 69 65 70 6 71 7 72 8 73 9 74
REMARK SMILES IDX 10 75 16 76 15 77 11 78 13 79 14 80 12 81 17 82 18 83 19 84
REMARK SMILES IDX 20 86 21 87 32 88 22 89 31 90 23 91 24 92 25 93 26 94 30 95
REMARK SMILES IDX 27 96 29 97 28 98
REMARK H PARENT 89 23 57 34 19 85
REMARK Flexibility Score: inf
ROOT
ATOM      1  C   UNL A   1      36.834  22.328  23.901  1.00  0.00     0.274 C 
ENDROOT
BRANCH   1   2
ATOM      2  C   UNL A   1      37.352  21.036  24.527  1.00  0.00     0.275 C 
BRANCH   2   3
ATOM      3  O   UNL A   1      37.930  21.210  25.838  1.00  0.00    -0.458 OA
BRANCH   3   4
ATOM      4  C   UNL A   1      39.211  21.359  26.254  1.00  0.00     0.338 C 
ATOM      5  O   UNL A   1      39.933  20.362  26.214  1.00  0.00    -0.246 OA
BRANCH   4   6
ATOM      6  C   UNL A   1      39.830  22.622  26.808  1.00  0.00     0.060 A 
ATOM      7  C   UNL A   1      40.830  22.719  27.784  1.00  0.00     0.016 A 
ATOM      8  C   UNL A   1      39.412  23.834  26.210  1.00  0.00     0.016 A 
ATOM      9  C   UNL A   1      41.467  23.952  28.067  1.00  0.00     0.010 A 
ATOM     10  C   UNL A   1      40.046  25.062  26.489  1.00  0.00     0.010 A 
ATOM     11  C   UNL A   1      41.113  25.134  27.399  1.00  0.00    -0.014 A 
BRANCH  11  12
ATOM     12  C   UNL A   1      41.712  26.457  27.789  1.00  0.00     0.031 A 
ATOM     13  C   UNL A   1      43.115  26.696  27.374  1.00  0.00     0.074 A 
ATOM     14  C   UNL A   1      41.085  27.432  28.486  1.00  0.00     0.049 A 
ATOM     15  N   UNL A   1      43.837  27.767  27.543  1.00  0.00    -0.248 NA
ATOM     16  C   UNL A   1      43.801  25.583  26.701  1.00  0.00     0.031 C 
ATOM     17  C   UNL A   1      39.763  27.285  29.019  1.00  0.00     0.029 A 
ATOM     18  N   UNL A   1      41.417  28.699  28.913  1.00  0.00    -0.354 N 
ATOM     19  C   UNL A   1      45.052  27.472  26.962  1.00  0.00     0.074 A 
ATOM     20  C   UNL A   1      45.006  26.093  26.527  1.00  0.00     0.031 C 
ATOM     21  C   UNL A   1      39.348  28.368  29.676  1.00  0.00     0.029 A 
ATOM     22  C   UNL A   1      40.421  29.326  29.649  1.00  0.00     0.049 A 
ATOM     23  H   UNL A   1      42.284  29.122  28.714  1.00  0.00     0.167 HD
ATOM     24  C   UNL A   1      46.096  28.304  26.774  1.00  0.00     0.037 A 
ATOM     25  C   UNL A   1      40.354  30.523  30.263  1.00  0.00     0.037 A 
ATOM     26  C   UNL A   1      46.147  29.643  27.287  1.00  0.00     0.049 A 
ATOM     27  C   UNL A   1      41.559  31.391  30.129  1.00  0.00     0.074 A 
ATOM     28  C   UNL A   1      47.170  30.564  27.190  1.00  0.00     0.029 A 
ATOM     29  N   UNL A   1      45.134  30.243  28.032  1.00  0.00    -0.354 N 
ATOM     30  N   UNL A   1      42.679  31.119  29.506  1.00  0.00    -0.248 NA
ATOM     31  C   UNL A   1      41.510  32.712  30.758  1.00  0.00     0.031 C 
ATOM     32  C   UNL A   1      46.800  31.700  27.918  1.00  0.00     0.029 A 
ATOM     33  C   UNL A   1      45.519  31.519  28.417  1.00  0.00     0.049 A 
ATOM     34  H   UNL A   1      44.271  29.824  28.253  1.00  0.00     0.167 HD
ATOM     35  C   UNL A   1      43.466  32.241  29.641  1.00  0.00     0.074 A 
ATOM     36  C   UNL A   1      42.685  33.208  30.394  1.00  0.00     0.031 C 
ATOM     37  C   UNL A   1      44.720  32.450  29.177  1.00  0.00     0.037 A 
BRANCH  24  38
ATOM     38  C   UNL A   1      47.240  27.718  26.013  1.00  0.00     0.064 A 
ATOM     39  C   UNL A   1      48.403  27.283  26.675  1.00  0.00     0.173 A 
ATOM     40  C   UNL A   1      47.244  27.740  24.614  1.00  0.00     0.173 A 
ATOM     41  F   UNL A   1      48.463  27.297  28.015  1.00  0.00    -0.203 F 
ATOM     42  C   UNL A   1      49.545  26.944  25.958  1.00  0.00     0.198 A 
ATOM     43  C   UNL A   1      48.378  27.370  23.902  1.00  0.00     0.198 A 
ATOM     44  F   UNL A   1      46.168  28.176  23.942  1.00  0.00    -0.203 F 
ATOM     45  F   UNL A   1      50.675  26.636  26.610  1.00  0.00    -0.200 F 
ATOM     46  C   UNL A   1      49.533  26.989  24.574  1.00  0.00     0.200 A 
ATOM     47  F   UNL A   1      48.371  27.422  22.563  1.00  0.00    -0.200 F 
ATOM     48  F   UNL A   1      50.644  26.695  23.884  1.00  0.00    -0.200 F 
ENDBRANCH  24  38
BRANCH  25  49
ATOM     49  C   UNL A   1      39.140  30.965  31.020  1.00  0.00     0.064 A 
ATOM     50  C   UNL A   1      38.072  31.611  30.378  1.00  0.00     0.173 A 
ATOM     51  C   UNL A   1      39.015  30.757  32.405  1.00  0.00     0.173 A 
ATOM     52  F   UNL A   1      38.131  31.847  29.059  1.00  0.00    -0.203 F 
ATOM     53  C   UNL A   1      36.952  32.054  31.086  1.00  0.00     0.198 A 
ATOM     54  C   UNL A   1      37.881  31.172  33.108  1.00  0.00     0.198 A 
ATOM     55  F   UNL A   1      39.991  30.133  33.081  1.00  0.00    -0.203 F 
ATOM     56  F   UNL A   1      35.972  32.709  30.447  1.00  0.00    -0.200 F 
ATOM     57  C   UNL A   1      36.855  31.829  32.450  1.00  0.00     0.200 A 
ATOM     58  F   UNL A   1      37.783  30.932  34.424  1.00  0.00    -0.200 F 
ATOM     59  F   UNL A   1      35.778  32.250  33.128  1.00  0.00    -0.200 F 
ENDBRANCH  25  49
BRANCH  37  60
ATOM     60  C   UNL A   1      45.292  33.802  29.444  1.00  0.00     0.064 A 
ATOM     61  C   UNL A   1      46.046  34.073  30.594  1.00  0.00     0.173 A 
ATOM     62  C   UNL A   1      45.076  34.840  28.528  1.00  0.00     0.173 A 
ATOM     63  F   UNL A   1      46.244  33.116  31.514  1.00  0.00    -0.203 F 
ATOM     64  C   UNL A   1      46.546  35.349  30.829  1.00  0.00     0.198 A 
ATOM     65  C   UNL A   1      45.609  36.103  28.748  1.00  0.00     0.198 A 
ATOM     66  F   UNL A   1      44.349  34.626  27.420  1.00  0.00    -0.203 F 
ATOM     67  F   UNL A   1      47.210  35.606  31.964  1.00  0.00    -0.200 F 
ATOM     68  C   UNL A   1      46.336  36.358  29.901  1.00  0.00     0.200 A 
ATOM     69  F   UNL A   1      45.412  37.076  27.847  1.00  0.00    -0.200 F 
ATOM     70  F   UNL A   1      46.823  37.586  30.125  1.00  0.00    -0.200 F 
ENDBRANCH  37  60
ENDBRANCH  11  12
ENDBRANCH   4   6
ENDBRANCH   3   4
ENDBRANCH   2   3
ENDBRANCH   1   2
BRANCH   1  71
ATOM     71  O   UNL A   1      36.450  23.241  24.928  1.00  0.00    -0.462 OA
BRANCH  71  72
ATOM     72  C   UNL A   1      35.215  23.821  24.868  1.00  0.00     0.310 C 
ATOM     73  O   UNL A   1      34.999  25.015  24.957  1.00  0.00    -0.252 OA
BRANCH  72  74
ATOM     74  C   UNL A   1      34.128  22.750  24.708  1.00  0.00     0.115 C 
ATOM     75  C   UNL A   1      33.951  21.926  25.987  1.00  0.00     0.004 C 
ATOM     76  C   UNL A   1      32.744  23.374  24.450  1.00  0.00     0.096 C 
ATOM     77  C   UNL A   1      33.493  22.906  27.114  1.00  0.00     0.005 C 
ATOM     78  C   UNL A   1      32.977  20.784  25.605  1.00  0.00     0.005 C 
ATOM     79  C   UNL A   1      31.649  22.874  25.465  1.00  0.00     0.002 C 
ATOM     80  C   UNL A   1      32.065  23.358  26.859  1.00  0.00     0.005 C 
ATOM     81  C   UNL A   1      31.574  21.342  25.450  1.00  0.00     0.005 C 
BRANCH  76  82
ATOM     82  C   UNL A   1      32.220  23.127  23.039  1.00  0.00     0.228 C 
ATOM     83  O   UNL A   1      32.323  22.037  22.478  1.00  0.00    -0.274 OA
ATOM     84  N   UNL A   1      31.425  24.113  22.498  1.00  0.00    -0.326 N 
ATOM     85  H   UNL A   1      30.916  23.897  21.683  1.00  0.00     0.169 HD
BRANCH  84  86
ATOM     86  C   UNL A   1      31.294  25.402  23.027  1.00  0.00     0.041 A 
ATOM     87  C   UNL A   1      32.243  26.361  22.689  1.00  0.00     0.026 A 
ATOM     88  C   UNL A   1      30.155  25.758  23.755  1.00  0.00     0.026 A 
ATOM     89  C   UNL A   1      31.986  27.698  22.985  1.00  0.00     0.006 A 
ATOM     90  C   UNL A   1      29.895  27.089  24.045  1.00  0.00     0.006 A 
ATOM     91  C   UNL A   1      30.813  28.071  23.666  1.00  0.00    -0.043 A 
BRANCH  91  92
ATOM     92  C   UNL A   1      30.635  29.484  24.171  1.00  0.00     0.071 C 
BRANCH  92  93
ATOM     93  C   UNL A   1      29.600  30.190  23.326  1.00  0.00    -0.041 A 
ATOM     94  C   UNL A   1      29.515  29.924  21.954  1.00  0.00     0.024 A 
ATOM     95  C   UNL A   1      28.813  31.215  23.855  1.00  0.00     0.024 A 
ATOM     96  C   UNL A   1      28.682  30.704  21.174  1.00  0.00     0.111 A 
ATOM     97  C   UNL A   1      27.994  31.927  22.993  1.00  0.00     0.111 A 
ATOM     98  N   UNL A   1      27.913  31.697  21.663  1.00  0.00    -0.265 NA
ENDBRANCH  92  93
ENDBRANCH  91  92
ENDBRANCH  84  86
ENDBRANCH  76  82
ENDBRANCH  72  74
ENDBRANCH  71  72
ENDBRANCH   1  71
TORSDOF 15
ENDMDL
