MODEL 1
REMARK VINA RESULT:     -13.8      0.000      0.000
REMARK SMILES Cc1cccc(NC(=O)C[C@@H]2CCCCO2)c1C(=O)OCCOC(=O)c1ccc(-c2c3nc(c(-c4c(F)c(F)c(F)c(F)c4F)c4ccc([nH]4)c(-c4c(F)c(F)c(F)c(F)c4F)c4nc(c(-c5c(F)c(F)c(F)c(F)c5F)c5ccc2[nH]5)C=C4)C=C3)cc1
REMARK SMILES IDX 21 1 20 2 18 3 19 4 17 5 1 6 2 7 3 8 4 9 6 10 5 11 7 12 8 13
REMARK SMILES IDX 9 15 10 16 11 17 12 18 16 19 13 20 15 21 14 22 22 23 23 24
REMARK SMILES IDX 24 25 25 26 26 27 27 28 88 29 28 30 87 31 29 32 30 33 31 34
REMARK SMILES IDX 81 35 32 36 86 37 80 38 82 39 33 40 85 41 79 42 78 43 34 45
REMARK SMILES IDX 66 46 46 47 65 48 47 49 50 50 64 51 83 52 48 53 49 54 63 56
REMARK SMILES IDX 84 57 51 58 35 59 36 60 44 61 37 62 38 63 42 64 45 65 39 66
REMARK SMILES IDX 40 67 43 68 41 69 67 70 68 71 76 72 69 73 70 74 74 75 77 76
REMARK SMILES IDX 71 77 72 78 75 79 73 80 52 81 53 82 61 83 54 84 55 85 59 86
REMARK SMILES IDX 62 87 56 88 57 89 60 90 58 91
REMARK H PARENT 7 14 82 44 50 55
REMARK Flexibility Score: inf
ROOT
ATOM      1  C   UNL A   1      33.440  28.575  27.297  1.00  0.00     0.275 C 
ENDROOT
BRANCH   1   2
ATOM      2  O   UNL A   1      32.951  27.399  26.594  1.00  0.00    -0.458 OA
BRANCH   2   3
ATOM      3  C   UNL A   1      31.593  27.345  26.609  1.00  0.00     0.340 C 
ATOM      4  O   UNL A   1      30.923  27.472  27.628  1.00  0.00    -0.246 OA
BRANCH   3   5
ATOM      5  C   UNL A   1      30.863  26.908  25.393  1.00  0.00     0.086 A 
ATOM      6  C   UNL A   1      31.280  29.277  24.474  1.00  0.00     0.045 C 
ATOM      7  C   UNL A   1      31.004  27.804  24.296  1.00  0.00    -0.034 A 
ATOM      8  C   UNL A   1      30.888  27.322  22.987  1.00  0.00     0.004 A 
ATOM      9  C   UNL A   1      30.798  25.958  22.761  1.00  0.00     0.002 A 
ATOM     10  C   UNL A   1      30.542  25.548  25.152  1.00  0.00     0.056 A 
ATOM     11  C   UNL A   1      30.674  25.082  23.838  1.00  0.00     0.027 A 
BRANCH  10  12
ATOM     12  N   UNL A   1      30.019  24.723  26.178  1.00  0.00    -0.325 N 
ATOM     13  C   UNL A   1      30.399  23.523  26.734  1.00  0.00     0.227 C 
ATOM     14  H   UNL A   1      29.200  25.090  26.583  1.00  0.00     0.169 HD
ATOM     15  O   UNL A   1      29.759  23.137  27.718  1.00  0.00    -0.275 OA
BRANCH  13  16
ATOM     16  C   UNL A   1      31.489  22.617  26.184  1.00  0.00     0.132 C 
BRANCH  16  17
ATOM     17  C   UNL A   1      32.864  22.854  26.837  1.00  0.00     0.127 C 
ATOM     18  C   UNL A   1      33.671  23.960  26.140  1.00  0.00     0.033 C 
ATOM     19  O   UNL A   1      33.686  21.685  26.916  1.00  0.00    -0.378 OA
ATOM     20  C   UNL A   1      34.152  23.531  24.755  1.00  0.00     0.005 C 
ATOM     21  C   UNL A   1      34.120  21.165  25.668  1.00  0.00     0.160 C 
ATOM     22  C   UNL A   1      34.851  22.177  24.805  1.00  0.00     0.029 C 
ENDBRANCH  16  17
ENDBRANCH  13  16
ENDBRANCH  10  12
ENDBRANCH   3   5
ENDBRANCH   2   3
ENDBRANCH   1   2
BRANCH   1  23
ATOM     23  C   UNL A   1      34.922  28.933  27.082  1.00  0.00     0.275 C 
BRANCH  23  24
ATOM     24  O   UNL A   1      35.348  30.303  27.242  1.00  0.00    -0.458 OA
BRANCH  24  25
ATOM     25  C   UNL A   1      35.854  30.661  28.435  1.00  0.00     0.338 C 
ATOM     26  O   UNL A   1      35.289  31.380  29.253  1.00  0.00    -0.246 OA
BRANCH  25  27
ATOM     27  C   UNL A   1      37.130  29.961  28.670  1.00  0.00     0.060 A 
ATOM     28  C   UNL A   1      37.199  29.050  29.731  1.00  0.00     0.016 A 
ATOM     29  C   UNL A   1      38.134  30.022  27.700  1.00  0.00     0.016 A 
ATOM     30  C   UNL A   1      38.196  28.088  29.755  1.00  0.00     0.010 A 
ATOM     31  C   UNL A   1      39.095  29.042  27.685  1.00  0.00     0.010 A 
ATOM     32  C   UNL A   1      39.127  28.091  28.718  1.00  0.00    -0.014 A 
BRANCH  32  33
ATOM     33  C   UNL A   1      40.398  27.406  28.831  1.00  0.00     0.031 A 
ATOM     34  C   UNL A   1      40.575  25.983  28.501  1.00  0.00     0.074 A 
ATOM     35  C   UNL A   1      41.359  28.306  29.131  1.00  0.00     0.049 A 
ATOM     36  N   UNL A   1      41.588  25.284  28.876  1.00  0.00    -0.248 NA
ATOM     37  C   UNL A   1      39.596  25.176  27.780  1.00  0.00     0.031 C 
ATOM     38  C   UNL A   1      42.802  28.251  29.040  1.00  0.00     0.029 A 
ATOM     39  N   UNL A   1      41.104  29.535  29.776  1.00  0.00    -0.354 N 
ATOM     40  C   UNL A   1      41.557  24.085  28.186  1.00  0.00     0.074 A 
ATOM     41  C   UNL A   1      40.227  24.004  27.650  1.00  0.00     0.031 C 
ATOM     42  C   UNL A   1      43.308  29.207  29.847  1.00  0.00     0.029 A 
ATOM     43  C   UNL A   1      42.195  29.779  30.603  1.00  0.00     0.049 A 
ATOM     44  H   UNL A   1      40.310  30.107  29.662  1.00  0.00     0.167 HD
ATOM     45  C   UNL A   1      42.735  23.417  28.010  1.00  0.00     0.037 A 
ATOM     46  C   UNL A   1      42.006  29.652  31.952  1.00  0.00     0.037 A 
ATOM     47  C   UNL A   1      43.776  24.103  28.771  1.00  0.00     0.049 A 
ATOM     48  C   UNL A   1      42.818  28.500  32.483  1.00  0.00     0.074 A 
ATOM     49  C   UNL A   1      44.655  25.109  28.404  1.00  0.00     0.029 A 
ATOM     50  N   UNL A   1      43.702  24.119  30.158  1.00  0.00    -0.354 N 
ATOM     51  N   UNL A   1      43.027  27.385  31.836  1.00  0.00    -0.248 NA
ATOM     52  C   UNL A   1      43.511  28.569  33.761  1.00  0.00     0.031 C 
ATOM     53  C   UNL A   1      45.023  25.806  29.584  1.00  0.00     0.029 A 
ATOM     54  C   UNL A   1      44.387  25.210  30.662  1.00  0.00     0.049 A 
ATOM     55  H   UNL A   1      43.229  23.450  30.705  1.00  0.00     0.167 HD
ATOM     56  C   UNL A   1      43.929  26.635  32.541  1.00  0.00     0.074 A 
ATOM     57  C   UNL A   1      44.182  27.406  33.747  1.00  0.00     0.031 C 
ATOM     58  C   UNL A   1      44.442  25.454  32.090  1.00  0.00     0.037 A 
BRANCH  45  59
ATOM     59  C   UNL A   1      43.049  22.391  26.933  1.00  0.00     0.064 A 
ATOM     60  C   UNL A   1      42.422  21.120  26.973  1.00  0.00     0.173 A 
ATOM     61  C   UNL A   1      43.986  22.537  25.892  1.00  0.00     0.173 A 
ATOM     62  F   UNL A   1      41.450  20.848  27.854  1.00  0.00    -0.203 F 
ATOM     63  C   UNL A   1      42.767  20.072  26.115  1.00  0.00     0.198 A 
ATOM     64  C   UNL A   1      44.344  21.480  25.041  1.00  0.00     0.198 A 
ATOM     65  F   UNL A   1      44.566  23.710  25.623  1.00  0.00    -0.203 F 
ATOM     66  F   UNL A   1      42.151  18.886  26.230  1.00  0.00    -0.200 F 
ATOM     67  C   UNL A   1      43.745  20.245  25.160  1.00  0.00     0.200 A 
ATOM     68  F   UNL A   1      45.280  21.675  24.100  1.00  0.00    -0.200 F 
ATOM     69  F   UNL A   1      44.091  19.236  24.348  1.00  0.00    -0.200 F 
ENDBRANCH  45  59
BRANCH  46  70
ATOM     70  C   UNL A   1      40.639  30.024  32.449  1.00  0.00     0.064 A 
ATOM     71  C   UNL A   1      40.209  31.366  32.333  1.00  0.00     0.173 A 
ATOM     72  C   UNL A   1      39.663  29.082  32.801  1.00  0.00     0.173 A 
ATOM     73  F   UNL A   1      41.090  32.328  32.012  1.00  0.00    -0.203 F 
ATOM     74  C   UNL A   1      38.867  31.726  32.463  1.00  0.00     0.198 A 
ATOM     75  C   UNL A   1      38.318  29.449  32.949  1.00  0.00     0.198 A 
ATOM     76  F   UNL A   1      39.981  27.787  32.932  1.00  0.00    -0.203 F 
ATOM     77  F   UNL A   1      38.490  32.993  32.236  1.00  0.00    -0.200 F 
ATOM     78  C   UNL A   1      37.920  30.765  32.762  1.00  0.00     0.200 A 
ATOM     79  F   UNL A   1      37.396  28.505  33.195  1.00  0.00    -0.200 F 
ATOM     80  F   UNL A   1      36.626  31.101  32.822  1.00  0.00    -0.200 F 
ENDBRANCH  46  70
BRANCH  58  81
ATOM     81  C   UNL A   1      45.158  24.459  32.960  1.00  0.00     0.064 A 
ATOM     82  C   UNL A   1      46.451  24.674  33.460  1.00  0.00     0.173 A 
ATOM     83  C   UNL A   1      44.485  23.319  33.457  1.00  0.00     0.173 A 
ATOM     84  F   UNL A   1      47.130  25.796  33.184  1.00  0.00    -0.203 F 
ATOM     85  C   UNL A   1      47.066  23.763  34.316  1.00  0.00     0.198 A 
ATOM     86  C   UNL A   1      45.074  22.453  34.373  1.00  0.00     0.198 A 
ATOM     87  F   UNL A   1      43.226  23.028  33.098  1.00  0.00    -0.203 F 
ATOM     88  F   UNL A   1      48.329  23.978  34.711  1.00  0.00    -0.200 F 
ATOM     89  C   UNL A   1      46.375  22.660  34.781  1.00  0.00     0.200 A 
ATOM     90  F   UNL A   1      44.364  21.434  34.874  1.00  0.00    -0.200 F 
ATOM     91  F   UNL A   1      46.954  21.813  35.641  1.00  0.00    -0.200 F 
ENDBRANCH  58  81
ENDBRANCH  32  33
ENDBRANCH  25  27
ENDBRANCH  24  25
ENDBRANCH  23  24
ENDBRANCH   1  23
TORSDOF 14
ENDMDL
MODEL 2
REMARK VINA RESULT:     -13.5      3.969     10.187
REMARK SMILES Cc1cccc(NC(=O)C[C@@H]2CCCCO2)c1C(=O)OCCOC(=O)c1ccc(-c2c3nc(c(-c4c(F)c(F)c(F)c(F)c4F)c4ccc([nH]4)c(-c4c(F)c(F)c(F)c(F)c4F)c4nc(c(-c5c(F)c(F)c(F)c(F)c5F)c5ccc2[nH]5)C=C4)C=C3)cc1
REMARK SMILES IDX 21 1 20 2 18 3 19 4 17 5 1 6 2 7 3 8 4 9 6 10 5 11 7 12 8 13
REMARK SMILES IDX 9 15 10 16 11 17 12 18 16 19 13 20 15 21 14 22 22 23 23 24
REMARK SMILES IDX 24 25 25 26 26 27 27 28 88 29 28 30 87 31 29 32 30 33 31 34
REMARK SMILES IDX 81 35 32 36 86 37 80 38 82 39 33 40 85 41 79 42 78 43 34 45
REMARK SMILES IDX 66 46 46 47 65 48 47 49 50 50 64 51 83 52 48 53 49 54 63 56
REMARK SMILES IDX 84 57 51 58 35 59 36 60 44 61 37 62 38 63 42 64 45 65 39 66
REMARK SMILES IDX 40 67 43 68 41 69 67 70 68 71 76 72 69 73 70 74 74 75 77 76
REMARK SMILES IDX 71 77 72 78 75 79 73 80 52 81 53 82 61 83 54 84 55 85 59 86
REMARK SMILES IDX 62 87 56 88 57 89 60 90 58 91
REMARK H PARENT 7 14 82 44 50 55
REMARK Flexibility Score: inf
ROOT
ATOM      1  C   UNL A   1      37.135  23.606  24.868  1.00  0.00     0.275 C 
ENDROOT
BRANCH   1   2
ATOM      2  O   UNL A   1      35.761  23.143  24.993  1.00  0.00    -0.458 OA
BRANCH   2   3
ATOM      3  C   UNL A   1      35.235  22.830  23.779  1.00  0.00     0.340 C 
ATOM      4  O   UNL A   1      35.818  23.027  22.719  1.00  0.00    -0.246 OA
BRANCH   3   5
ATOM      5  C   UNL A   1      33.811  22.426  23.680  1.00  0.00     0.086 A 
ATOM      6  C   UNL A   1      34.483  20.297  24.964  1.00  0.00     0.045 C 
ATOM      7  C   UNL A   1      33.475  21.329  24.524  1.00  0.00    -0.034 A 
ATOM      8  C   UNL A   1      32.159  21.183  24.981  1.00  0.00     0.004 A 
ATOM      9  C   UNL A   1      31.233  22.186  24.745  1.00  0.00     0.002 A 
ATOM     10  C   UNL A   1      32.797  23.322  23.258  1.00  0.00     0.056 A 
ATOM     11  C   UNL A   1      31.570  23.265  23.929  1.00  0.00     0.027 A 
BRANCH  10  12
ATOM     12  N   UNL A   1      32.987  24.172  22.140  1.00  0.00    -0.325 N 
ATOM     13  C   UNL A   1      32.893  25.531  21.940  1.00  0.00     0.227 C 
ATOM     14  H   UNL A   1      33.243  23.682  21.326  1.00  0.00     0.169 HD
ATOM     15  O   UNL A   1      33.251  25.957  20.836  1.00  0.00    -0.275 OA
BRANCH  13  16
ATOM     16  C   UNL A   1      32.318  26.520  22.941  1.00  0.00     0.132 C 
BRANCH  16  17
ATOM     17  C   UNL A   1      33.396  27.211  23.799  1.00  0.00     0.127 C 
ATOM     18  C   UNL A   1      34.030  26.267  24.833  1.00  0.00     0.033 C 
ATOM     19  O   UNL A   1      32.939  28.381  24.486  1.00  0.00    -0.378 OA
ATOM     20  C   UNL A   1      33.053  25.904  25.950  1.00  0.00     0.005 C 
ATOM     21  C   UNL A   1      31.967  28.150  25.494  1.00  0.00     0.160 C 
ATOM     22  C   UNL A   1      32.404  27.147  26.547  1.00  0.00     0.029 C 
ENDBRANCH  16  17
ENDBRANCH  13  16
ENDBRANCH  10  12
ENDBRANCH   3   5
ENDBRANCH   2   3
ENDBRANCH   1   2
BRANCH   1  23
ATOM     23  C   UNL A   1      38.156  22.983  25.838  1.00  0.00     0.275 C 
BRANCH  23  24
ATOM     24  O   UNL A   1      38.577  23.734  26.997  1.00  0.00    -0.458 OA
BRANCH  24  25
ATOM     25  C   UNL A   1      39.875  24.077  27.077  1.00  0.00     0.338 C 
ATOM     26  O   UNL A   1      40.809  23.410  26.644  1.00  0.00    -0.246 OA
BRANCH  25  27
ATOM     27  C   UNL A   1      40.001  25.431  27.648  1.00  0.00     0.060 A 
ATOM     28  C   UNL A   1      40.337  26.482  26.786  1.00  0.00     0.016 A 
ATOM     29  C   UNL A   1      39.541  25.675  28.945  1.00  0.00     0.016 A 
ATOM     30  C   UNL A   1      40.076  27.792  27.157  1.00  0.00     0.010 A 
ATOM     31  C   UNL A   1      39.231  26.962  29.302  1.00  0.00     0.010 A 
ATOM     32  C   UNL A   1      39.512  28.013  28.412  1.00  0.00    -0.014 A 
BRANCH  32  33
ATOM     33  C   UNL A   1      39.550  29.313  29.048  1.00  0.00     0.031 A 
ATOM     34  C   UNL A   1      38.520  30.341  28.835  1.00  0.00     0.074 A 
ATOM     35  C   UNL A   1      40.566  29.339  29.938  1.00  0.00     0.049 A 
ATOM     36  N   UNL A   1      38.680  31.583  29.129  1.00  0.00    -0.248 NA
ATOM     37  C   UNL A   1      37.230  30.097  28.197  1.00  0.00     0.031 C 
ATOM     38  C   UNL A   1      40.861  30.217  31.049  1.00  0.00     0.029 A 
ATOM     39  N   UNL A   1      41.704  28.509  29.848  1.00  0.00    -0.354 N 
ATOM     40  C   UNL A   1      37.447  32.205  29.039  1.00  0.00     0.074 A 
ATOM     41  C   UNL A   1      36.624  31.284  28.307  1.00  0.00     0.031 C 
ATOM     42  C   UNL A   1      42.173  30.098  31.339  1.00  0.00     0.029 A 
ATOM     43  C   UNL A   1      42.780  29.264  30.302  1.00  0.00     0.049 A 
ATOM     44  H   UNL A   1      41.731  27.578  29.528  1.00  0.00     0.167 HD
ATOM     45  C   UNL A   1      37.248  33.341  29.771  1.00  0.00     0.037 A 
ATOM     46  C   UNL A   1      43.688  29.693  29.374  1.00  0.00     0.037 A 
ATOM     47  C   UNL A   1      38.516  33.723  30.388  1.00  0.00     0.049 A 
ATOM     48  C   UNL A   1      43.650  31.194  29.264  1.00  0.00     0.074 A 
ATOM     49  C   UNL A   1      39.059  33.402  31.621  1.00  0.00     0.029 A 
ATOM     50  N   UNL A   1      39.568  34.129  29.578  1.00  0.00    -0.354 N 
ATOM     51  N   UNL A   1      42.564  31.913  29.362  1.00  0.00    -0.248 NA
ATOM     52  C   UNL A   1      44.860  31.987  29.107  1.00  0.00     0.031 C 
ATOM     53  C   UNL A   1      40.469  33.511  31.508  1.00  0.00     0.029 A 
ATOM     54  C   UNL A   1      40.775  33.918  30.219  1.00  0.00     0.049 A 
ATOM     55  H   UNL A   1      39.470  34.512  28.676  1.00  0.00     0.167 HD
ATOM     56  C   UNL A   1      42.917  33.235  29.373  1.00  0.00     0.074 A 
ATOM     57  C   UNL A   1      44.359  33.230  29.187  1.00  0.00     0.031 C 
ATOM     58  C   UNL A   1      42.027  34.250  29.567  1.00  0.00     0.037 A 
BRANCH  45  59
ATOM     59  C   UNL A   1      35.913  33.915  30.217  1.00  0.00     0.064 A 
ATOM     60  C   UNL A   1      35.020  34.441  29.251  1.00  0.00     0.173 A 
ATOM     61  C   UNL A   1      35.470  34.056  31.547  1.00  0.00     0.173 A 
ATOM     62  F   UNL A   1      35.257  34.316  27.938  1.00  0.00    -0.203 F 
ATOM     63  C   UNL A   1      33.846  35.122  29.587  1.00  0.00     0.198 A 
ATOM     64  C   UNL A   1      34.300  34.754  31.885  1.00  0.00     0.198 A 
ATOM     65  F   UNL A   1      36.119  33.497  32.571  1.00  0.00    -0.203 F 
ATOM     66  F   UNL A   1      33.063  35.619  28.618  1.00  0.00    -0.200 F 
ATOM     67  C   UNL A   1      33.495  35.297  30.908  1.00  0.00     0.200 A 
ATOM     68  F   UNL A   1      33.961  34.892  33.176  1.00  0.00    -0.200 F 
ATOM     69  F   UNL A   1      32.381  35.967  31.234  1.00  0.00    -0.200 F 
ENDBRANCH  45  59
BRANCH  46  70
ATOM     70  C   UNL A   1      43.910  28.764  28.215  1.00  0.00     0.064 A 
ATOM     71  C   UNL A   1      44.540  27.519  28.443  1.00  0.00     0.173 A 
ATOM     72  C   UNL A   1      43.316  28.943  26.958  1.00  0.00     0.173 A 
ATOM     73  F   UNL A   1      45.143  27.278  29.619  1.00  0.00    -0.203 F 
ATOM     74  C   UNL A   1      44.492  26.483  27.510  1.00  0.00     0.198 A 
ATOM     75  C   UNL A   1      43.285  27.908  26.014  1.00  0.00     0.198 A 
ATOM     76  F   UNL A   1      42.695  30.092  26.654  1.00  0.00    -0.203 F 
ATOM     77  F   UNL A   1      45.009  25.284  27.814  1.00  0.00    -0.200 F 
ATOM     78  C   UNL A   1      43.856  26.675  26.298  1.00  0.00     0.200 A 
ATOM     79  F   UNL A   1      42.627  28.083  24.857  1.00  0.00    -0.200 F 
ATOM     80  F   UNL A   1      43.754  25.660  25.431  1.00  0.00    -0.200 F 
ENDBRANCH  46  70
BRANCH  58  81
ATOM     81  C   UNL A   1      42.314  35.693  29.258  1.00  0.00     0.064 A 
ATOM     82  C   UNL A   1      43.144  36.495  30.056  1.00  0.00     0.173 A 
ATOM     83  C   UNL A   1      41.886  36.269  28.039  1.00  0.00     0.173 A 
ATOM     84  F   UNL A   1      43.736  36.011  31.156  1.00  0.00    -0.203 F 
ATOM     85  C   UNL A   1      43.442  37.811  29.711  1.00  0.00     0.198 A 
ATOM     86  C   UNL A   1      42.251  37.556  27.660  1.00  0.00     0.198 A 
ATOM     87  F   UNL A   1      41.131  35.590  27.163  1.00  0.00    -0.203 F 
ATOM     88  F   UNL A   1      44.183  38.559  30.541  1.00  0.00    -0.200 F 
ATOM     89  C   UNL A   1      43.006  38.338  28.510  1.00  0.00     0.200 A 
ATOM     90  F   UNL A   1      41.887  38.024  26.459  1.00  0.00    -0.200 F 
ATOM     91  F   UNL A   1      43.336  39.587  28.161  1.00  0.00    -0.200 F 
ENDBRANCH  58  81
ENDBRANCH  32  33
ENDBRANCH  25  27
ENDBRANCH  24  25
ENDBRANCH  23  24
ENDBRANCH   1  23
TORSDOF 14
ENDMDL
MODEL 3
REMARK VINA RESULT:     -13.0      4.161      9.965
REMARK SMILES Cc1cccc(NC(=O)C[C@@H]2CCCCO2)c1C(=O)OCCOC(=O)c1ccc(-c2c3nc(c(-c4c(F)c(F)c(F)c(F)c4F)c4ccc([nH]4)c(-c4c(F)c(F)c(F)c(F)c4F)c4nc(c(-c5c(F)c(F)c(F)c(F)c5F)c5ccc2[nH]5)C=C4)C=C3)cc1
REMARK SMILES IDX 21 1 20 2 18 3 19 4 17 5 1 6 2 7 3 8 4 9 6 10 5 11 7 12 8 13
REMARK SMILES IDX 9 15 10 16 11 17 12 18 16 19 13 20 15 21 14 22 22 23 23 24
REMARK SMILES IDX 24 25 25 26 26 27 27 28 88 29 28 30 87 31 29 32 30 33 31 34
REMARK SMILES IDX 81 35 32 36 86 37 80 38 82 39 33 40 85 41 79 42 78 43 34 45
REMARK SMILES IDX 66 46 46 47 65 48 47 49 50 50 64 51 83 52 48 53 49 54 63 56
REMARK SMILES IDX 84 57 51 58 35 59 36 60 44 61 37 62 38 63 42 64 45 65 39 66
REMARK SMILES IDX 40 67 43 68 41 69 67 70 68 71 76 72 69 73 70 74 74 75 77 76
REMARK SMILES IDX 71 77 72 78 75 79 73 80 52 81 53 82 61 83 54 84 55 85 59 86
REMARK SMILES IDX 62 87 56 88 57 89 60 90 58 91
REMARK H PARENT 7 14 82 44 50 55
REMARK Flexibility Score: inf
ROOT
ATOM      1  C   UNL A   1      37.039  23.129  24.520  1.00  0.00     0.275 C 
ENDROOT
BRANCH   1   2
ATOM      2  O   UNL A   1      35.853  23.937  24.760  1.00  0.00    -0.458 OA
BRANCH   2   3
ATOM      3  C   UNL A   1      34.901  23.706  23.818  1.00  0.00     0.340 C 
ATOM      4  O   UNL A   1      35.159  23.411  22.656  1.00  0.00    -0.246 OA
BRANCH   3   5
ATOM      5  C   UNL A   1      33.482  24.020  24.117  1.00  0.00     0.086 A 
ATOM      6  C   UNL A   1      33.700  25.927  22.400  1.00  0.00     0.045 C 
ATOM      7  C   UNL A   1      32.895  24.921  23.184  1.00  0.00    -0.034 A 
ATOM      8  C   UNL A   1      31.512  24.889  22.967  1.00  0.00     0.004 A 
ATOM      9  C   UNL A   1      30.748  23.882  23.533  1.00  0.00     0.002 A 
ATOM     10  C   UNL A   1      32.655  23.144  24.863  1.00  0.00     0.056 A 
ATOM     11  C   UNL A   1      31.330  22.993  24.436  1.00  0.00     0.027 A 
BRANCH  10  12
ATOM     12  N   UNL A   1      33.122  22.523  26.048  1.00  0.00    -0.325 N 
ATOM     13  C   UNL A   1      33.770  21.340  26.321  1.00  0.00     0.227 C 
ATOM     14  H   UNL A   1      32.943  23.057  26.856  1.00  0.00     0.169 HD
ATOM     15  O   UNL A   1      34.141  21.164  27.487  1.00  0.00    -0.275 OA
BRANCH  13  16
ATOM     16  C   UNL A   1      33.991  20.218  25.319  1.00  0.00     0.132 C 
BRANCH  16  17
ATOM     17  C   UNL A   1      32.896  19.135  25.368  1.00  0.00     0.127 C 
ATOM     18  C   UNL A   1      33.463  17.710  25.260  1.00  0.00     0.033 C 
ATOM     19  O   UNL A   1      31.876  19.284  24.375  1.00  0.00    -0.378 OA
ATOM     20  C   UNL A   1      34.007  17.416  23.863  1.00  0.00     0.005 C 
ATOM     21  C   UNL A   1      32.306  19.105  23.034  1.00  0.00     0.160 C 
ATOM     22  C   UNL A   1      32.991  17.773  22.784  1.00  0.00     0.029 C 
ENDBRANCH  16  17
ENDBRANCH  13  16
ENDBRANCH  10  12
ENDBRANCH   3   5
ENDBRANCH   2   3
ENDBRANCH   1   2
BRANCH   1  23
ATOM     23  C   UNL A   1      37.902  22.800  25.753  1.00  0.00     0.275 C 
BRANCH  23  24
ATOM     24  O   UNL A   1      38.116  23.815  26.757  1.00  0.00    -0.458 OA
BRANCH  24  25
ATOM     25  C   UNL A   1      39.360  23.951  27.247  1.00  0.00     0.338 C 
ATOM     26  O   UNL A   1      40.252  23.114  27.151  1.00  0.00    -0.246 OA
BRANCH  25  27
ATOM     27  C   UNL A   1      39.535  25.305  27.804  1.00  0.00     0.060 A 
ATOM     28  C   UNL A   1      39.899  26.337  26.931  1.00  0.00     0.016 A 
ATOM     29  C   UNL A   1      39.090  25.576  29.101  1.00  0.00     0.016 A 
ATOM     30  C   UNL A   1      39.684  27.658  27.292  1.00  0.00     0.010 A 
ATOM     31  C   UNL A   1      38.824  26.876  29.448  1.00  0.00     0.010 A 
ATOM     32  C   UNL A   1      39.135  27.908  28.547  1.00  0.00    -0.014 A 
BRANCH  32  33
ATOM     33  C   UNL A   1      39.219  29.212  29.171  1.00  0.00     0.031 A 
ATOM     34  C   UNL A   1      38.241  30.283  28.928  1.00  0.00     0.074 A 
ATOM     35  C   UNL A   1      40.218  29.203  30.081  1.00  0.00     0.049 A 
ATOM     36  N   UNL A   1      38.451  31.520  29.213  1.00  0.00    -0.248 NA
ATOM     37  C   UNL A   1      36.953  30.090  28.268  1.00  0.00     0.031 C 
ATOM     38  C   UNL A   1      40.530  30.078  31.189  1.00  0.00     0.029 A 
ATOM     39  N   UNL A   1      41.319  28.321  30.022  1.00  0.00    -0.354 N 
ATOM     40  C   UNL A   1      37.249  32.195  29.093  1.00  0.00     0.074 A 
ATOM     41  C   UNL A   1      36.399  31.305  28.354  1.00  0.00     0.031 C 
ATOM     42  C   UNL A   1      41.830  29.904  31.506  1.00  0.00     0.029 A 
ATOM     43  C   UNL A   1      42.418  29.032  30.489  1.00  0.00     0.049 A 
ATOM     44  H   UNL A   1      41.310  27.386  29.711  1.00  0.00     0.167 HD
ATOM     45  C   UNL A   1      37.087  33.347  29.810  1.00  0.00     0.037 A 
ATOM     46  C   UNL A   1      43.363  29.410  29.574  1.00  0.00     0.037 A 
ATOM     47  C   UNL A   1      38.358  33.679  30.448  1.00  0.00     0.049 A 
ATOM     48  C   UNL A   1      43.395  30.910  29.449  1.00  0.00     0.074 A 
ATOM     49  C   UNL A   1      38.863  33.346  31.694  1.00  0.00     0.029 A 
ATOM     50  N   UNL A   1      39.444  34.028  29.654  1.00  0.00    -0.354 N 
ATOM     51  N   UNL A   1      42.341  31.678  29.519  1.00  0.00    -0.248 NA
ATOM     52  C   UNL A   1      44.642  31.647  29.308  1.00  0.00     0.031 C 
ATOM     53  C   UNL A   1      40.279  33.390  31.608  1.00  0.00     0.029 A 
ATOM     54  C   UNL A   1      40.627  33.770  30.321  1.00  0.00     0.049 A 
ATOM     55  H   UNL A   1      39.380  34.405  28.747  1.00  0.00     0.167 HD
ATOM     56  C   UNL A   1      42.752  32.982  29.524  1.00  0.00     0.074 A 
ATOM     57  C   UNL A   1      44.196  32.911  29.367  1.00  0.00     0.031 C 
ATOM     58  C   UNL A   1      41.906  34.039  29.691  1.00  0.00     0.037 A 
BRANCH  45  59
ATOM     59  C   UNL A   1      35.771  33.985  30.224  1.00  0.00     0.064 A 
ATOM     60  C   UNL A   1      34.933  34.563  29.238  1.00  0.00     0.173 A 
ATOM     61  C   UNL A   1      35.298  34.138  31.542  1.00  0.00     0.173 A 
ATOM     62  F   UNL A   1      35.201  34.437  27.932  1.00  0.00    -0.203 F 
ATOM     63  C   UNL A   1      33.786  35.301  29.548  1.00  0.00     0.198 A 
ATOM     64  C   UNL A   1      34.156  34.892  31.855  1.00  0.00     0.198 A 
ATOM     65  F   UNL A   1      35.889  33.538  32.579  1.00  0.00    -0.203 F 
ATOM     66  F   UNL A   1      33.057  35.845  28.563  1.00  0.00    -0.200 F 
ATOM     67  C   UNL A   1      33.408  35.483  30.860  1.00  0.00     0.200 A 
ATOM     68  F   UNL A   1      33.788  35.037  33.136  1.00  0.00    -0.200 F 
ATOM     69  F   UNL A   1      32.320  36.206  31.162  1.00  0.00    -0.200 F 
ENDBRANCH  45  59
BRANCH  46  70
ATOM     70  C   UNL A   1      43.565  28.460  28.429  1.00  0.00     0.064 A 
ATOM     71  C   UNL A   1      42.898  28.706  27.207  1.00  0.00     0.173 A 
ATOM     72  C   UNL A   1      44.561  27.474  28.411  1.00  0.00     0.173 A 
ATOM     73  F   UNL A   1      41.922  29.627  27.149  1.00  0.00    -0.203 F 
ATOM     74  C   UNL A   1      43.274  28.078  26.020  1.00  0.00     0.198 A 
ATOM     75  C   UNL A   1      44.925  26.829  27.221  1.00  0.00     0.198 A 
ATOM     76  F   UNL A   1      45.244  27.174  29.524  1.00  0.00    -0.203 F 
ATOM     77  F   UNL A   1      42.688  28.424  24.864  1.00  0.00    -0.200 F 
ATOM     78  C   UNL A   1      44.295  27.145  26.025  1.00  0.00     0.200 A 
ATOM     79  F   UNL A   1      45.946  25.958  27.223  1.00  0.00    -0.200 F 
ATOM     80  F   UNL A   1      44.698  26.591  24.875  1.00  0.00    -0.200 F 
ENDBRANCH  46  70
BRANCH  58  81
ATOM     81  C   UNL A   1      42.262  35.464  29.373  1.00  0.00     0.064 A 
ATOM     82  C   UNL A   1      43.141  36.224  30.159  1.00  0.00     0.173 A 
ATOM     83  C   UNL A   1      41.852  36.057  28.156  1.00  0.00     0.173 A 
ATOM     84  F   UNL A   1      43.719  35.714  31.255  1.00  0.00    -0.203 F 
ATOM     85  C   UNL A   1      43.503  37.522  29.807  1.00  0.00     0.198 A 
ATOM     86  C   UNL A   1      42.279  37.323  27.769  1.00  0.00     0.198 A 
ATOM     87  F   UNL A   1      41.053  35.415  27.291  1.00  0.00    -0.203 F 
ATOM     88  F   UNL A   1      44.290  38.234  30.626  1.00  0.00    -0.200 F 
ATOM     89  C   UNL A   1      43.082  38.067  28.608  1.00  0.00     0.200 A 
ATOM     90  F   UNL A   1      41.926  37.805  26.570  1.00  0.00    -0.200 F 
ATOM     91  F   UNL A   1      43.472  39.297  28.251  1.00  0.00    -0.200 F 
ENDBRANCH  58  81
ENDBRANCH  32  33
ENDBRANCH  25  27
ENDBRANCH  24  25
ENDBRANCH  23  24
ENDBRANCH   1  23
TORSDOF 14
ENDMDL
