MODEL 1
REMARK VINA RESULT:     -11.6      0.000      0.000
REMARK SMILES Cc1cccc2nc(C(=O)NCC(=O)OCCOC(=O)c3ccc(-c4c5nc(c(-c6c(F)c(F)c(F)c(F)c6F)c6ccc([nH]6)c(-c6c(F)c(F)c(F)c(F)c6F)c6nc(c(-c7c(F)c(F)c(F)c(F)c7F)c7ccc4[nH]7)C=C6)C=C5)cc3)cn12
REMARK SMILES IDX 16 1 15 2 13 3 14 4 12 5 11 6 9 7 10 8 8 10 1 11 2 12 3 13
REMARK SMILES IDX 85 14 4 15 6 16 84 17 5 18 7 19 17 20 18 21 19 22 20 23
REMARK SMILES IDX 21 24 22 25 83 26 23 27 82 28 24 29 25 30 26 31 76 32 27 33
REMARK SMILES IDX 81 34 75 35 77 36 28 37 80 38 74 39 73 40 29 42 61 43 41 44
REMARK SMILES IDX 60 45 42 46 45 47 59 48 78 49 43 50 44 51 58 53 79 54 46 55
REMARK SMILES IDX 30 56 31 57 39 58 32 59 33 60 37 61 40 62 34 63 35 64 38 65
REMARK SMILES IDX 36 66 62 67 63 68 71 69 64 70 65 71 69 72 72 73 66 74 67 75
REMARK SMILES IDX 70 76 68 77 47 78 48 79 56 80 49 81 50 82 54 83 57 84 51 85
REMARK SMILES IDX 52 86 55 87 53 88
REMARK H PARENT 11 9 77 41 45 52
REMARK Flexibility Score: inf
ROOT
ATOM      1  C   UNL A   1      43.193  18.455  26.315  1.00  0.00     0.274 C 
ENDROOT
BRANCH   1   2
ATOM      2  O   UNL A   1      43.928  18.547  25.083  1.00  0.00    -0.461 OA
BRANCH   2   3
ATOM      3  C   UNL A   1      45.276  18.726  25.193  1.00  0.00     0.325 C 
ATOM      4  O   UNL A   1      46.083  17.820  25.380  1.00  0.00    -0.250 OA
BRANCH   3   5
ATOM      5  C   UNL A   1      45.707  20.167  24.904  1.00  0.00     0.239 C 
BRANCH   5   6
ATOM      6  N   UNL A   1      44.945  20.866  23.877  1.00  0.00    -0.340 N 
ATOM      7  C   UNL A   1      44.856  22.202  23.607  1.00  0.00     0.272 C 
ATOM      8  O   UNL A   1      44.153  22.578  22.667  1.00  0.00    -0.267 OA
ATOM      9  H   UNL A   1      44.411  20.285  23.287  1.00  0.00     0.164 HD
BRANCH   7  10
ATOM     10  C   UNL A   1      45.588  23.146  24.448  1.00  0.00     0.147 A 
ATOM     11  C   UNL A   1      45.653  24.452  28.641  1.00  0.00     0.065 C 
ATOM     12  C   UNL A   1      46.497  24.860  27.471  1.00  0.00     0.021 A 
ATOM     13  C   UNL A   1      47.505  25.750  27.595  1.00  0.00     0.022 A 
ATOM     14  N   UNL A   1      46.271  24.295  26.204  1.00  0.00    -0.304 N 
ATOM     15  C   UNL A   1      48.301  26.111  26.433  1.00  0.00     0.006 A 
ATOM     16  C   UNL A   1      47.040  24.598  25.083  1.00  0.00     0.137 A 
ATOM     17  C   UNL A   1      45.337  23.381  25.787  1.00  0.00     0.127 A 
ATOM     18  C   UNL A   1      48.079  25.555  25.230  1.00  0.00     0.048 A 
ATOM     19  N   UNL A   1      46.662  23.908  24.032  1.00  0.00    -0.223 NA
ENDBRANCH   7  10
ENDBRANCH   5   6
ENDBRANCH   3   5
ENDBRANCH   2   3
ENDBRANCH   1   2
BRANCH   1  20
ATOM     20  C   UNL A   1      41.894  19.250  26.214  1.00  0.00     0.275 C 
BRANCH  20  21
ATOM     21  O   UNL A   1      41.930  20.427  27.027  1.00  0.00    -0.458 OA
BRANCH  21  22
ATOM     22  C   UNL A   1      41.815  21.573  26.322  1.00  0.00     0.338 C 
ATOM     23  O   UNL A   1      42.203  21.793  25.185  1.00  0.00    -0.246 OA
BRANCH  22  24
ATOM     24  C   UNL A   1      41.357  22.669  27.171  1.00  0.00     0.060 A 
ATOM     25  C   UNL A   1      40.583  23.650  26.542  1.00  0.00     0.016 A 
ATOM     26  C   UNL A   1      42.030  22.899  28.375  1.00  0.00     0.016 A 
ATOM     27  C   UNL A   1      40.655  24.937  27.020  1.00  0.00     0.010 A 
ATOM     28  C   UNL A   1      42.114  24.191  28.839  1.00  0.00     0.010 A 
ATOM     29  C   UNL A   1      41.489  25.201  28.113  1.00  0.00    -0.014 A 
BRANCH  29  30
ATOM     30  C   UNL A   1      41.601  26.578  28.536  1.00  0.00     0.031 A 
ATOM     31  C   UNL A   1      42.846  27.216  28.071  1.00  0.00     0.074 A 
ATOM     32  C   UNL A   1      40.643  27.224  29.224  1.00  0.00     0.049 A 
ATOM     33  N   UNL A   1      43.845  27.604  28.790  1.00  0.00    -0.248 NA
ATOM     34  C   UNL A   1      43.074  27.297  26.621  1.00  0.00     0.031 C 
ATOM     35  C   UNL A   1      39.266  26.791  29.466  1.00  0.00     0.029 A 
ATOM     36  N   UNL A   1      40.684  28.470  29.775  1.00  0.00    -0.354 N 
ATOM     37  C   UNL A   1      44.755  28.150  27.894  1.00  0.00     0.074 A 
ATOM     38  C   UNL A   1      44.313  27.783  26.575  1.00  0.00     0.031 C 
ATOM     39  C   UNL A   1      38.546  27.842  29.924  1.00  0.00     0.029 A 
ATOM     40  C   UNL A   1      39.442  28.966  30.141  1.00  0.00     0.049 A 
ATOM     41  H   UNL A   1      41.520  28.973  29.903  1.00  0.00     0.167 HD
ATOM     42  C   UNL A   1      45.642  29.093  28.303  1.00  0.00     0.037 A 
ATOM     43  C   UNL A   1      39.180  30.234  30.539  1.00  0.00     0.037 A 
ATOM     44  C   UNL A   1      45.730  29.146  29.737  1.00  0.00     0.049 A 
ATOM     45  C   UNL A   1      40.449  30.836  31.012  1.00  0.00     0.074 A 
ATOM     46  C   UNL A   1      46.371  28.443  30.732  1.00  0.00     0.029 A 
ATOM     47  N   UNL A   1      44.744  29.886  30.328  1.00  0.00    -0.354 N 
ATOM     48  N   UNL A   1      41.060  30.475  32.105  1.00  0.00    -0.248 NA
ATOM     49  C   UNL A   1      41.225  31.683  30.110  1.00  0.00     0.031 C 
ATOM     50  C   UNL A   1      45.639  28.686  31.932  1.00  0.00     0.029 A 
ATOM     51  C   UNL A   1      44.574  29.535  31.641  1.00  0.00     0.049 A 
ATOM     52  H   UNL A   1      44.222  30.583  29.869  1.00  0.00     0.167 HD
ATOM     53  C   UNL A   1      42.394  30.689  31.832  1.00  0.00     0.074 A 
ATOM     54  C   UNL A   1      42.421  31.596  30.695  1.00  0.00     0.031 C 
ATOM     55  C   UNL A   1      43.345  29.851  32.329  1.00  0.00     0.037 A 
BRANCH  42  56
ATOM     56  C   UNL A   1      46.061  30.274  27.464  1.00  0.00     0.064 A 
ATOM     57  C   UNL A   1      47.431  30.587  27.362  1.00  0.00     0.173 A 
ATOM     58  C   UNL A   1      45.172  31.282  27.030  1.00  0.00     0.173 A 
ATOM     59  F   UNL A   1      48.362  29.714  27.775  1.00  0.00    -0.203 F 
ATOM     60  C   UNL A   1      47.871  31.835  26.915  1.00  0.00     0.198 A 
ATOM     61  C   UNL A   1      45.616  32.504  26.531  1.00  0.00     0.198 A 
ATOM     62  F   UNL A   1      43.846  31.178  27.184  1.00  0.00    -0.203 F 
ATOM     63  F   UNL A   1      49.177  32.131  26.946  1.00  0.00    -0.200 F 
ATOM     64  C   UNL A   1      46.963  32.793  26.500  1.00  0.00     0.200 A 
ATOM     65  F   UNL A   1      44.719  33.429  26.160  1.00  0.00    -0.200 F 
ATOM     66  F   UNL A   1      47.379  34.008  26.120  1.00  0.00    -0.200 F 
ENDBRANCH  42  56
BRANCH  43  67
ATOM     67  C   UNL A   1      37.972  31.065  30.340  1.00  0.00     0.064 A 
ATOM     68  C   UNL A   1      37.427  31.225  29.054  1.00  0.00     0.173 A 
ATOM     69  C   UNL A   1      37.153  31.435  31.422  1.00  0.00     0.173 A 
ATOM     70  F   UNL A   1      38.137  30.877  27.971  1.00  0.00    -0.203 F 
ATOM     71  C   UNL A   1      36.113  31.654  28.864  1.00  0.00     0.198 A 
ATOM     72  C   UNL A   1      35.843  31.876  31.229  1.00  0.00     0.198 A 
ATOM     73  F   UNL A   1      37.569  31.275  32.687  1.00  0.00    -0.203 F 
ATOM     74  F   UNL A   1      35.599  31.700  27.628  1.00  0.00    -0.200 F 
ATOM     75  C   UNL A   1      35.315  31.961  29.953  1.00  0.00     0.200 A 
ATOM     76  F   UNL A   1      35.070  32.144  32.291  1.00  0.00    -0.200 F 
ATOM     77  F   UNL A   1      34.029  32.290  29.777  1.00  0.00    -0.200 F 
ENDBRANCH  43  67
BRANCH  55  78
ATOM     78  C   UNL A   1      42.998  29.088  33.564  1.00  0.00     0.064 A 
ATOM     79  C   UNL A   1      42.383  27.825  33.568  1.00  0.00     0.173 A 
ATOM     80  C   UNL A   1      43.353  29.645  34.798  1.00  0.00     0.173 A 
ATOM     81  F   UNL A   1      42.081  27.203  32.420  1.00  0.00    -0.203 F 
ATOM     82  C   UNL A   1      42.101  27.172  34.766  1.00  0.00     0.198 A 
ATOM     83  C   UNL A   1      43.104  28.975  35.990  1.00  0.00     0.198 A 
ATOM     84  F   UNL A   1      43.975  30.835  34.844  1.00  0.00    -0.203 F 
ATOM     85  F   UNL A   1      41.490  25.979  34.753  1.00  0.00    -0.200 F 
ATOM     86  C   UNL A   1      42.467  27.745  35.974  1.00  0.00     0.200 A 
ATOM     87  F   UNL A   1      43.495  29.516  37.153  1.00  0.00    -0.200 F 
ATOM     88  F   UNL A   1      42.223  27.103  37.125  1.00  0.00    -0.200 F 
ENDBRANCH  55  78
ENDBRANCH  29  30
ENDBRANCH  22  24
ENDBRANCH  21  22
ENDBRANCH  20  21
ENDBRANCH   1  20
TORSDOF 13
ENDMDL
MODEL 2
REMARK VINA RESULT:     -11.4      1.742      2.825
REMARK SMILES Cc1cccc2nc(C(=O)NCC(=O)OCCOC(=O)c3ccc(-c4c5nc(c(-c6c(F)c(F)c(F)c(F)c6F)c6ccc([nH]6)c(-c6c(F)c(F)c(F)c(F)c6F)c6nc(c(-c7c(F)c(F)c(F)c(F)c7F)c7ccc4[nH]7)C=C6)C=C5)cc3)cn12
REMARK SMILES IDX 16 1 15 2 13 3 14 4 12 5 11 6 9 7 10 8 8 10 1 11 2 12 3 13
REMARK SMILES IDX 85 14 4 15 6 16 84 17 5 18 7 19 17 20 18 21 19 22 20 23
REMARK SMILES IDX 21 24 22 25 83 26 23 27 82 28 24 29 25 30 26 31 76 32 27 33
REMARK SMILES IDX 81 34 75 35 77 36 28 37 80 38 74 39 73 40 29 42 61 43 41 44
REMARK SMILES IDX 60 45 42 46 45 47 59 48 78 49 43 50 44 51 58 53 79 54 46 55
REMARK SMILES IDX 30 56 31 57 39 58 32 59 33 60 37 61 40 62 34 63 35 64 38 65
REMARK SMILES IDX 36 66 62 67 63 68 71 69 64 70 65 71 69 72 72 73 66 74 67 75
REMARK SMILES IDX 70 76 68 77 47 78 48 79 56 80 49 81 50 82 54 83 57 84 51 85
REMARK SMILES IDX 52 86 55 87 53 88
REMARK H PARENT 11 9 77 41 45 52
REMARK Flexibility Score: inf
ROOT
ATOM      1  C   UNL A   1      40.154  20.111  25.738  1.00  0.00     0.274 C 
ENDROOT
BRANCH   1   2
ATOM      2  O   UNL A   1      41.071  19.428  26.609  1.00  0.00    -0.461 OA
BRANCH   2   3
ATOM      3  C   UNL A   1      42.283  19.099  26.078  1.00  0.00     0.325 C 
ATOM      4  O   UNL A   1      42.625  17.957  25.786  1.00  0.00    -0.250 OA
BRANCH   3   5
ATOM      5  C   UNL A   1      43.131  20.327  25.734  1.00  0.00     0.239 C 
BRANCH   5   6
ATOM      6  N   UNL A   1      44.509  20.061  25.343  1.00  0.00    -0.340 N 
ATOM      7  C   UNL A   1      45.573  20.912  25.246  1.00  0.00     0.272 C 
ATOM      8  O   UNL A   1      46.670  20.463  24.906  1.00  0.00    -0.267 OA
ATOM      9  H   UNL A   1      44.703  19.123  25.114  1.00  0.00     0.164 HD
BRANCH   7  10
ATOM     10  C   UNL A   1      45.377  22.329  25.537  1.00  0.00     0.147 A 
ATOM     11  C   UNL A   1      46.714  25.300  28.483  1.00  0.00     0.065 C 
ATOM     12  C   UNL A   1      45.821  25.435  27.287  1.00  0.00     0.021 A 
ATOM     13  C   UNL A   1      45.295  26.624  26.921  1.00  0.00     0.022 A 
ATOM     14  N   UNL A   1      45.530  24.314  26.490  1.00  0.00    -0.304 N 
ATOM     15  C   UNL A   1      44.438  26.708  25.748  1.00  0.00     0.006 A 
ATOM     16  C   UNL A   1      44.740  24.373  25.345  1.00  0.00     0.137 A 
ATOM     17  C   UNL A   1      45.918  23.004  26.616  1.00  0.00     0.127 A 
ATOM     18  C   UNL A   1      44.177  25.628  24.992  1.00  0.00     0.048 A 
ATOM     19  N   UNL A   1      44.654  23.206  24.752  1.00  0.00    -0.223 NA
ENDBRANCH   7  10
ENDBRANCH   5   6
ENDBRANCH   3   5
ENDBRANCH   2   3
ENDBRANCH   1   2
BRANCH   1  20
ATOM     20  C   UNL A   1      39.580  21.340  26.436  1.00  0.00     0.275 C 
BRANCH  20  21
ATOM     21  O   UNL A   1      40.390  22.499  26.219  1.00  0.00    -0.458 OA
BRANCH  21  22
ATOM     22  C   UNL A   1      41.093  22.877  27.308  1.00  0.00     0.338 C 
ATOM     23  O   UNL A   1      41.274  22.244  28.337  1.00  0.00    -0.246 OA
BRANCH  22  24
ATOM     24  C   UNL A   1      41.457  24.289  27.235  1.00  0.00     0.060 A 
ATOM     25  C   UNL A   1      42.341  24.746  28.218  1.00  0.00     0.016 A 
ATOM     26  C   UNL A   1      40.625  25.151  26.512  1.00  0.00     0.016 A 
ATOM     27  C   UNL A   1      42.239  26.056  28.622  1.00  0.00     0.010 A 
ATOM     28  C   UNL A   1      40.513  26.455  26.932  1.00  0.00     0.010 A 
ATOM     29  C   UNL A   1      41.265  26.868  28.029  1.00  0.00    -0.014 A 
BRANCH  29  30
ATOM     30  C   UNL A   1      41.133  28.215  28.536  1.00  0.00     0.031 A 
ATOM     31  C   UNL A   1      42.210  29.106  28.069  1.00  0.00     0.074 A 
ATOM     32  C   UNL A   1      40.103  28.623  29.297  1.00  0.00     0.049 A 
ATOM     33  N   UNL A   1      43.150  29.638  28.775  1.00  0.00    -0.248 NA
ATOM     34  C   UNL A   1      42.349  29.312  26.620  1.00  0.00     0.031 C 
ATOM     35  C   UNL A   1      38.847  27.919  29.561  1.00  0.00     0.029 A 
ATOM     36  N   UNL A   1      39.932  29.820  29.927  1.00  0.00    -0.354 N 
ATOM     37  C   UNL A   1      43.896  30.400  27.884  1.00  0.00     0.074 A 
ATOM     38  C   UNL A   1      43.470  30.029  26.562  1.00  0.00     0.031 C 
ATOM     39  C   UNL A   1      37.963  28.783  30.111  1.00  0.00     0.029 A 
ATOM     40  C   UNL A   1      38.637  30.046  30.368  1.00  0.00     0.049 A 
ATOM     41  H   UNL A   1      40.662  30.467  30.057  1.00  0.00     0.167 HD
ATOM     42  C   UNL A   1      44.604  31.472  28.322  1.00  0.00     0.037 A 
ATOM     43  C   UNL A   1      38.158  31.214  30.857  1.00  0.00     0.037 A 
ATOM     44  C   UNL A   1      44.749  31.459  29.752  1.00  0.00     0.049 A 
ATOM     45  C   UNL A   1      39.309  32.022  31.322  1.00  0.00     0.074 A 
ATOM     46  C   UNL A   1      45.559  30.838  30.676  1.00  0.00     0.029 A 
ATOM     47  N   UNL A   1      43.669  31.960  30.425  1.00  0.00    -0.354 N 
ATOM     48  N   UNL A   1      40.029  31.725  32.367  1.00  0.00    -0.248 NA
ATOM     49  C   UNL A   1      39.866  33.052  30.450  1.00  0.00     0.031 C 
ATOM     50  C   UNL A   1      44.851  30.867  31.915  1.00  0.00     0.029 A 
ATOM     51  C   UNL A   1      43.632  31.509  31.717  1.00  0.00     0.049 A 
ATOM     52  H   UNL A   1      43.003  32.568  30.031  1.00  0.00     0.167 HD
ATOM     53  C   UNL A   1      41.283  32.207  32.061  1.00  0.00     0.074 A 
ATOM     54  C   UNL A   1      41.083  33.166  30.985  1.00  0.00     0.031 C 
ATOM     55  C   UNL A   1      42.400  31.542  32.468  1.00  0.00     0.037 A 
BRANCH  42  56
ATOM     56  C   UNL A   1      44.750  32.758  27.547  1.00  0.00     0.064 A 
ATOM     57  C   UNL A   1      45.929  32.978  26.806  1.00  0.00     0.173 A 
ATOM     58  C   UNL A   1      43.941  33.895  27.757  1.00  0.00     0.173 A 
ATOM     59  F   UNL A   1      46.786  31.973  26.575  1.00  0.00    -0.203 F 
ATOM     60  C   UNL A   1      46.294  34.252  26.364  1.00  0.00     0.198 A 
ATOM     61  C   UNL A   1      44.280  35.154  27.265  1.00  0.00     0.198 A 
ATOM     62  F   UNL A   1      42.860  33.866  28.546  1.00  0.00    -0.203 F 
ATOM     63  F   UNL A   1      47.479  34.435  25.767  1.00  0.00    -0.200 F 
ATOM     64  C   UNL A   1      45.469  35.338  26.594  1.00  0.00     0.200 A 
ATOM     65  F   UNL A   1      43.480  36.198  27.522  1.00  0.00    -0.200 F 
ATOM     66  F   UNL A   1      45.841  36.569  26.216  1.00  0.00    -0.200 F 
ENDBRANCH  42  56
BRANCH  43  67
ATOM     67  C   UNL A   1      36.805  31.806  30.755  1.00  0.00     0.064 A 
ATOM     68  C   UNL A   1      35.997  31.925  31.899  1.00  0.00     0.173 A 
ATOM     69  C   UNL A   1      36.418  32.556  29.630  1.00  0.00     0.173 A 
ATOM     70  F   UNL A   1      36.310  31.257  33.019  1.00  0.00    -0.203 F 
ATOM     71  C   UNL A   1      34.912  32.801  31.942  1.00  0.00     0.198 A 
ATOM     72  C   UNL A   1      35.325  33.423  29.671  1.00  0.00     0.198 A 
ATOM     73  F   UNL A   1      37.152  32.544  28.508  1.00  0.00    -0.203 F 
ATOM     74  F   UNL A   1      34.226  32.958  33.082  1.00  0.00    -0.200 F 
ATOM     75  C   UNL A   1      34.589  33.565  30.833  1.00  0.00     0.200 A 
ATOM     76  F   UNL A   1      35.037  34.178  28.601  1.00  0.00    -0.200 F 
ATOM     77  F   UNL A   1      33.602  34.468  30.899  1.00  0.00    -0.200 F 
ENDBRANCH  43  67
BRANCH  55  78
ATOM     78  C   UNL A   1      42.263  30.657  33.663  1.00  0.00     0.064 A 
ATOM     79  C   UNL A   1      42.378  31.098  34.991  1.00  0.00     0.173 A 
ATOM     80  C   UNL A   1      41.951  29.309  33.445  1.00  0.00     0.173 A 
ATOM     81  F   UNL A   1      42.605  32.388  35.271  1.00  0.00    -0.203 F 
ATOM     82  C   UNL A   1      42.226  30.209  36.054  1.00  0.00     0.198 A 
ATOM     83  C   UNL A   1      41.764  28.433  34.508  1.00  0.00     0.198 A 
ATOM     84  F   UNL A   1      41.797  28.848  32.193  1.00  0.00    -0.203 F 
ATOM     85  F   UNL A   1      42.365  30.640  37.315  1.00  0.00    -0.200 F 
ATOM     86  C   UNL A   1      41.913  28.880  35.811  1.00  0.00     0.200 A 
ATOM     87  F   UNL A   1      41.424  27.159  34.269  1.00  0.00    -0.200 F 
ATOM     88  F   UNL A   1      41.737  28.032  36.834  1.00  0.00    -0.200 F 
ENDBRANCH  55  78
ENDBRANCH  29  30
ENDBRANCH  22  24
ENDBRANCH  21  22
ENDBRANCH  20  21
ENDBRANCH   1  20
TORSDOF 13
ENDMDL
MODEL 3
REMARK VINA RESULT:     -11.3      4.927     11.589
REMARK SMILES Cc1cccc2nc(C(=O)NCC(=O)OCCOC(=O)c3ccc(-c4c5nc(c(-c6c(F)c(F)c(F)c(F)c6F)c6ccc([nH]6)c(-c6c(F)c(F)c(F)c(F)c6F)c6nc(c(-c7c(F)c(F)c(F)c(F)c7F)c7ccc4[nH]7)C=C6)C=C5)cc3)cn12
REMARK SMILES IDX 16 1 15 2 13 3 14 4 12 5 11 6 9 7 10 8 8 10 1 11 2 12 3 13
REMARK SMILES IDX 85 14 4 15 6 16 84 17 5 18 7 19 17 20 18 21 19 22 20 23
REMARK SMILES IDX 21 24 22 25 83 26 23 27 82 28 24 29 25 30 26 31 76 32 27 33
REMARK SMILES IDX 81 34 75 35 77 36 28 37 80 38 74 39 73 40 29 42 61 43 41 44
REMARK SMILES IDX 60 45 42 46 45 47 59 48 78 49 43 50 44 51 58 53 79 54 46 55
REMARK SMILES IDX 30 56 31 57 39 58 32 59 33 60 37 61 40 62 34 63 35 64 38 65
REMARK SMILES IDX 36 66 62 67 63 68 71 69 64 70 65 71 69 72 72 73 66 74 67 75
REMARK SMILES IDX 70 76 68 77 47 78 48 79 56 80 49 81 50 82 54 83 57 84 51 85
REMARK SMILES IDX 52 86 55 87 53 88
REMARK H PARENT 11 9 77 41 45 52
REMARK Flexibility Score: inf
ROOT
ATOM      1  C   UNL A   1      34.071  33.826  29.455  1.00  0.00     0.274 C 
ENDROOT
BRANCH   1   2
ATOM      2  O   UNL A   1      32.875  34.577  29.721  1.00  0.00    -0.461 OA
BRANCH   2   3
ATOM      3  C   UNL A   1      32.944  35.923  29.509  1.00  0.00     0.325 C 
ATOM      4  O   UNL A   1      32.152  36.556  28.817  1.00  0.00    -0.250 OA
BRANCH   3   5
ATOM      5  C   UNL A   1      34.029  36.600  30.351  1.00  0.00     0.239 C 
BRANCH   5   6
ATOM      6  N   UNL A   1      33.681  36.872  31.739  1.00  0.00    -0.340 N 
ATOM      7  C   UNL A   1      34.047  36.215  32.879  1.00  0.00     0.272 C 
ATOM      8  O   UNL A   1      33.642  36.631  33.967  1.00  0.00    -0.267 OA
ATOM      9  H   UNL A   1      33.089  37.646  31.877  1.00  0.00     0.164 HD
BRANCH   7  10
ATOM     10  C   UNL A   1      34.899  35.033  32.775  1.00  0.00     0.147 A 
ATOM     11  C   UNL A   1      39.172  34.030  32.941  1.00  0.00     0.065 C 
ATOM     12  C   UNL A   1      37.964  33.160  32.766  1.00  0.00     0.021 A 
ATOM     13  C   UNL A   1      38.062  31.817  32.660  1.00  0.00     0.022 A 
ATOM     14  N   UNL A   1      36.679  33.729  32.735  1.00  0.00    -0.304 N 
ATOM     15  C   UNL A   1      36.862  31.012  32.497  1.00  0.00     0.006 A 
ATOM     16  C   UNL A   1      35.512  32.979  32.614  1.00  0.00     0.137 A 
ATOM     17  C   UNL A   1      36.280  35.039  32.820  1.00  0.00     0.127 A 
ATOM     18  C   UNL A   1      35.640  31.571  32.479  1.00  0.00     0.048 A 
ATOM     19  N   UNL A   1      34.441  33.735  32.657  1.00  0.00    -0.223 NA
ENDBRANCH   7  10
ENDBRANCH   5   6
ENDBRANCH   3   5
ENDBRANCH   2   3
ENDBRANCH   1   2
BRANCH   1  20
ATOM     20  C   UNL A   1      34.400  33.868  27.965  1.00  0.00     0.275 C 
BRANCH  20  21
ATOM     21  O   UNL A   1      35.524  33.042  27.647  1.00  0.00    -0.458 OA
BRANCH  21  22
ATOM     22  C   UNL A   1      35.274  31.721  27.767  1.00  0.00     0.338 C 
ATOM     23  O   UNL A   1      34.289  31.109  27.383  1.00  0.00    -0.246 OA
BRANCH  22  24
ATOM     24  C   UNL A   1      36.242  31.082  28.653  1.00  0.00     0.060 A 
ATOM     25  C   UNL A   1      37.426  31.790  28.881  1.00  0.00     0.016 A 
ATOM     26  C   UNL A   1      36.138  29.702  28.862  1.00  0.00     0.016 A 
ATOM     27  C   UNL A   1      38.574  31.072  29.121  1.00  0.00     0.010 A 
ATOM     28  C   UNL A   1      37.291  28.987  29.084  1.00  0.00     0.010 A 
ATOM     29  C   UNL A   1      38.502  29.674  29.134  1.00  0.00    -0.014 A 
BRANCH  29  30
ATOM     30  C   UNL A   1      39.741  28.953  29.309  1.00  0.00     0.031 A 
ATOM     31  C   UNL A   1      40.104  28.780  30.728  1.00  0.00     0.074 A 
ATOM     32  C   UNL A   1      40.451  28.438  28.289  1.00  0.00     0.049 A 
ATOM     33  N   UNL A   1      41.096  29.318  31.354  1.00  0.00    -0.248 NA
ATOM     34  C   UNL A   1      39.169  28.042  31.589  1.00  0.00     0.031 C 
ATOM     35  C   UNL A   1      40.035  28.286  26.894  1.00  0.00     0.029 A 
ATOM     36  N   UNL A   1      41.680  27.850  28.318  1.00  0.00    -0.354 N 
ATOM     37  C   UNL A   1      41.015  28.836  32.655  1.00  0.00     0.074 A 
ATOM     38  C   UNL A   1      39.731  28.204  32.786  1.00  0.00     0.031 C 
ATOM     39  C   UNL A   1      40.901  27.458  26.263  1.00  0.00     0.029 A 
ATOM     40  C   UNL A   1      41.998  27.148  27.165  1.00  0.00     0.049 A 
ATOM     41  H   UNL A   1      42.288  27.916  29.089  1.00  0.00     0.167 HD
ATOM     42  C   UNL A   1      42.128  28.756  33.428  1.00  0.00     0.037 A 
ATOM     43  C   UNL A   1      43.064  26.330  27.003  1.00  0.00     0.037 A 
ATOM     44  C   UNL A   1      43.210  29.526  32.876  1.00  0.00     0.049 A 
ATOM     45  C   UNL A   1      44.081  26.698  28.016  1.00  0.00     0.074 A 
ATOM     46  C   UNL A   1      43.598  30.846  32.857  1.00  0.00     0.029 A 
ATOM     47  N   UNL A   1      43.907  28.880  31.893  1.00  0.00    -0.354 N 
ATOM     48  N   UNL A   1      44.759  27.810  27.993  1.00  0.00    -0.248 NA
ATOM     49  C   UNL A   1      44.166  25.937  29.260  1.00  0.00     0.031 C 
ATOM     50  C   UNL A   1      44.458  30.997  31.728  1.00  0.00     0.029 A 
ATOM     51  C   UNL A   1      44.577  29.765  31.091  1.00  0.00     0.049 A 
ATOM     52  H   UNL A   1      43.924  27.902  31.776  1.00  0.00     0.167 HD
ATOM     53  C   UNL A   1      44.999  28.087  29.322  1.00  0.00     0.074 A 
ATOM     54  C   UNL A   1      44.791  26.832  30.028  1.00  0.00     0.031 C 
ATOM     55  C   UNL A   1      45.009  29.373  29.771  1.00  0.00     0.037 A 
BRANCH  42  56
ATOM     56  C   UNL A   1      42.401  27.633  34.397  1.00  0.00     0.064 A 
ATOM     57  C   UNL A   1      42.939  26.426  33.908  1.00  0.00     0.173 A 
ATOM     58  C   UNL A   1      41.867  27.577  35.703  1.00  0.00     0.173 A 
ATOM     59  F   UNL A   1      43.445  26.358  32.667  1.00  0.00    -0.203 F 
ATOM     60  C   UNL A   1      42.891  25.243  34.649  1.00  0.00     0.198 A 
ATOM     61  C   UNL A   1      41.872  26.409  36.462  1.00  0.00     0.198 A 
ATOM     62  F   UNL A   1      41.211  28.608  36.250  1.00  0.00    -0.203 F 
ATOM     63  F   UNL A   1      43.306  24.095  34.100  1.00  0.00    -0.200 F 
ATOM     64  C   UNL A   1      42.357  25.236  35.925  1.00  0.00     0.200 A 
ATOM     65  F   UNL A   1      41.325  26.417  37.685  1.00  0.00    -0.200 F 
ATOM     66  F   UNL A   1      42.262  24.093  36.619  1.00  0.00    -0.200 F 
ENDBRANCH  42  56
BRANCH  43  67
ATOM     67  C   UNL A   1      43.207  25.098  26.196  1.00  0.00     0.064 A 
ATOM     68  C   UNL A   1      44.300  24.945  25.325  1.00  0.00     0.173 A 
ATOM     69  C   UNL A   1      42.477  23.935  26.502  1.00  0.00     0.173 A 
ATOM     70  F   UNL A   1      45.057  26.002  24.999  1.00  0.00    -0.203 F 
ATOM     71  C   UNL A   1      44.689  23.691  24.852  1.00  0.00     0.198 A 
ATOM     72  C   UNL A   1      42.861  22.684  26.018  1.00  0.00     0.198 A 
ATOM     73  F   UNL A   1      41.447  23.974  27.360  1.00  0.00    -0.203 F 
ATOM     74  F   UNL A   1      45.794  23.574  24.104  1.00  0.00    -0.200 F 
ATOM     75  C   UNL A   1      43.981  22.558  25.216  1.00  0.00     0.200 A 
ATOM     76  F   UNL A   1      42.185  21.590  26.398  1.00  0.00    -0.200 F 
ATOM     77  F   UNL A   1      44.402  21.346  24.833  1.00  0.00    -0.200 F 
ENDBRANCH  43  67
BRANCH  55  78
ATOM     78  C   UNL A   1      45.312  30.437  28.769  1.00  0.00     0.064 A 
ATOM     79  C   UNL A   1      44.346  31.072  27.972  1.00  0.00     0.173 A 
ATOM     80  C   UNL A   1      46.640  30.866  28.653  1.00  0.00     0.173 A 
ATOM     81  F   UNL A   1      43.048  30.760  28.083  1.00  0.00    -0.203 F 
ATOM     82  C   UNL A   1      44.710  32.067  27.066  1.00  0.00     0.198 A 
ATOM     83  C   UNL A   1      46.994  31.884  27.775  1.00  0.00     0.198 A 
ATOM     84  F   UNL A   1      47.594  30.314  29.420  1.00  0.00    -0.203 F 
ATOM     85  F   UNL A   1      43.779  32.644  26.293  1.00  0.00    -0.200 F 
ATOM     86  C   UNL A   1      46.031  32.475  26.973  1.00  0.00     0.200 A 
ATOM     87  F   UNL A   1      48.266  32.301  27.718  1.00  0.00    -0.200 F 
ATOM     88  F   UNL A   1      46.376  33.453  26.124  1.00  0.00    -0.200 F 
ENDBRANCH  55  78
ENDBRANCH  29  30
ENDBRANCH  22  24
ENDBRANCH  21  22
ENDBRANCH  20  21
ENDBRANCH   1  20
TORSDOF 13
ENDMDL
