MODEL 1
REMARK VINA RESULT:     -13.3      0.000      0.000
REMARK SMILES C[C@H]1[C@H](C)CC[C@@]2(C(=O)OCCOC(=O)c3ccc(-c4c5nc(c(-c6c(F)c(F)c(F)c(F)c6F)c6ccc([nH]6)c(-c6c(F)c(F)c(F)c(F)c6F)c6nc(c(-c7c(F)c(F)c(F)c(F)c7F)c7ccc4[nH]7)C=C6)C=C5)cc3)CC[C@@]3(C)C(=CC[C@@H]4[C@@]5(C)CC[C@H](O)C(C)(C)[C@@H]5CC[C@]43C)[C@H]12
REMARK SMILES IDX 12 1 11 2 10 3 8 4 9 5 7 6 1 7 2 8 3 9 101 10 4 11 5 12
REMARK SMILES IDX 83 13 6 14 79 15 81 16 84 17 80 18 82 19 99 20 85 21 86 22
REMARK SMILES IDX 98 23 100 24 87 25 97 26 88 27 89 28 96 29 90 30 93 31 91 32
REMARK SMILES IDX 94 33 95 34 92 35 13 37 14 38 15 39 16 40 17 41 78 42 18 43
REMARK SMILES IDX 77 44 19 45 20 46 21 47 71 48 22 49 76 50 70 51 72 52 23 53
REMARK SMILES IDX 75 54 69 55 68 56 24 58 56 59 36 60 55 61 37 62 40 63 54 64
REMARK SMILES IDX 73 65 38 66 39 67 53 69 74 70 41 71 25 72 26 73 34 74 27 75
REMARK SMILES IDX 28 76 32 77 35 78 29 79 30 80 33 81 31 82 57 83 58 84 66 85
REMARK SMILES IDX 59 86 60 87 64 88 67 89 61 90 62 91 65 92 63 93 42 94 43 95
REMARK SMILES IDX 51 96 44 97 45 98 49 99 52 100 46 101 47 102 50 103 48 104
REMARK H PARENT 92 36 72 57 40 68
REMARK Flexibility Score: inf
ROOT
ATOM      1  C   UNL A   1      37.394  23.727  26.192  1.00  0.00     0.275 C 
ENDROOT
BRANCH   1   2
ATOM      2  C   UNL A   1      36.052  23.360  26.853  1.00  0.00     0.274 C 
BRANCH   2   3
ATOM      3  O   UNL A   1      34.866  23.296  26.030  1.00  0.00    -0.462 OA
BRANCH   3   4
ATOM      4  C   UNL A   1      34.446  22.030  25.767  1.00  0.00     0.312 C 
ATOM      5  O   UNL A   1      33.862  21.379  26.598  1.00  0.00    -0.252 OA
BRANCH   4   6
ATOM      6  C   UNL A   1      34.941  21.409  24.439  1.00  0.00     0.075 C 
ATOM      7  C   UNL A   1      31.928  19.266  23.103  1.00  0.00     0.008 C 
ATOM      8  C   UNL A   1      33.014  19.727  24.091  1.00  0.00    -0.003 C 
ATOM      9  C   UNL A   1      34.029  18.560  24.328  1.00  0.00    -0.011 C 
ATOM     10  C   UNL A   1      33.701  21.044  23.568  1.00  0.00     0.036 C 
ATOM     11  C   UNL A   1      33.382  17.346  25.014  1.00  0.00     0.008 C 
ATOM     12  C   UNL A   1      35.238  18.963  25.176  1.00  0.00     0.005 C 
ATOM     13  C   UNL A   1      32.859  22.364  23.459  1.00  0.00    -0.063 C 
ATOM     14  C   UNL A   1      35.901  20.233  24.686  1.00  0.00     0.020 C 
ATOM     15  C   UNL A   1      35.752  22.471  23.631  1.00  0.00     0.020 C 
ATOM     16  C   UNL A   1      33.527  23.594  22.747  1.00  0.00    -0.006 C 
ATOM     17  C   UNL A   1      31.730  22.514  24.180  1.00  0.00    -0.027 C 
ATOM     18  C   UNL A   1      34.992  23.758  23.268  1.00  0.00     0.013 C 
ATOM     19  C   UNL A   1      33.649  23.270  21.236  1.00  0.00     0.017 C 
ATOM     20  C   UNL A   1      32.653  25.002  22.959  1.00  0.00    -0.020 C 
ATOM     21  C   UNL A   1      31.144  23.832  24.604  1.00  0.00     0.032 C 
ATOM     22  C   UNL A   1      32.122  25.016  24.440  1.00  0.00     0.006 C 
ATOM     23  C   UNL A   1      33.493  26.282  22.728  1.00  0.00     0.008 C 
ATOM     24  C   UNL A   1      31.487  25.058  21.936  1.00  0.00     0.012 C 
ATOM     25  C   UNL A   1      31.636  26.388  25.108  1.00  0.00    -0.025 C 
ATOM     26  C   UNL A   1      32.820  27.588  23.196  1.00  0.00     0.005 C 
ATOM     27  C   UNL A   1      30.162  26.674  24.760  1.00  0.00     0.012 C 
ATOM     28  C   UNL A   1      31.735  26.246  26.663  1.00  0.00     0.010 C 
ATOM     29  C   UNL A   1      32.617  27.554  24.720  1.00  0.00     0.003 C 
ATOM     30  C   UNL A   1      31.492  27.540  27.445  1.00  0.00     0.033 C 
ATOM     31  C   UNL A   1      32.360  28.949  25.431  1.00  0.00    -0.006 C 
ATOM     32  C   UNL A   1      32.354  28.709  26.972  1.00  0.00     0.120 C 
ATOM     33  C   UNL A   1      31.088  29.685  24.971  1.00  0.00     0.014 C 
ATOM     34  C   UNL A   1      33.522  29.940  25.135  1.00  0.00     0.014 C 
BRANCH  32  35
ATOM     35  O   UNL A   1      32.003  29.883  27.704  1.00  0.00    -0.393 OA
ATOM     36  H   UNL A   1      32.323  29.803  28.616  1.00  0.00     0.210 HD
ENDBRANCH  32  35
ENDBRANCH   4   6
ENDBRANCH   3   4
ENDBRANCH   2   3
ENDBRANCH   1   2
BRANCH   1  37
ATOM     37  O   UNL A   1      38.282  22.621  25.946  1.00  0.00    -0.458 OA
BRANCH  37  38
ATOM     38  C   UNL A   1      39.525  22.734  26.488  1.00  0.00     0.338 C 
ATOM     39  O   UNL A   1      40.417  21.903  26.433  1.00  0.00    -0.246 OA
BRANCH  38  40
ATOM     40  C   UNL A   1      39.731  24.112  27.003  1.00  0.00     0.060 A 
ATOM     41  C   UNL A   1      40.323  25.069  26.159  1.00  0.00     0.016 A 
ATOM     42  C   UNL A   1      39.335  24.482  28.279  1.00  0.00     0.016 A 
ATOM     43  C   UNL A   1      40.459  26.411  26.547  1.00  0.00     0.010 A 
ATOM     44  C   UNL A   1      39.517  25.809  28.682  1.00  0.00     0.010 A 
ATOM     45  C   UNL A   1      40.069  26.796  27.825  1.00  0.00    -0.014 A 
BRANCH  45  46
ATOM     46  C   UNL A   1      40.451  28.100  28.445  1.00  0.00     0.031 A 
ATOM     47  C   UNL A   1      41.812  28.131  29.066  1.00  0.00     0.074 A 
ATOM     48  C   UNL A   1      39.656  29.177  28.581  1.00  0.00     0.049 A 
ATOM     49  N   UNL A   1      42.277  28.842  30.054  1.00  0.00    -0.248 NA
ATOM     50  C   UNL A   1      42.761  27.155  28.506  1.00  0.00     0.031 C 
ATOM     51  C   UNL A   1      38.385  29.406  27.915  1.00  0.00     0.029 A 
ATOM     52  N   UNL A   1      39.781  30.264  29.424  1.00  0.00    -0.354 N 
ATOM     53  C   UNL A   1      43.554  28.352  30.274  1.00  0.00     0.074 A 
ATOM     54  C   UNL A   1      43.751  27.235  29.375  1.00  0.00     0.031 C 
ATOM     55  C   UNL A   1      37.779  30.478  28.459  1.00  0.00     0.029 A 
ATOM     56  C   UNL A   1      38.629  31.013  29.518  1.00  0.00     0.049 A 
ATOM     57  H   UNL A   1      40.610  30.480  29.909  1.00  0.00     0.167 HD
ATOM     58  C   UNL A   1      44.501  28.821  31.118  1.00  0.00     0.037 A 
ATOM     59  C   UNL A   1      38.292  31.988  30.386  1.00  0.00     0.037 A 
ATOM     60  C   UNL A   1      44.326  29.983  31.938  1.00  0.00     0.049 A 
ATOM     61  C   UNL A   1      39.315  32.456  31.391  1.00  0.00     0.074 A 
ATOM     62  C   UNL A   1      45.230  30.587  32.791  1.00  0.00     0.029 A 
ATOM     63  N   UNL A   1      43.163  30.739  31.977  1.00  0.00    -0.354 N 
ATOM     64  N   UNL A   1      40.518  31.990  31.625  1.00  0.00    -0.248 NA
ATOM     65  C   UNL A   1      38.953  33.615  32.224  1.00  0.00     0.031 C 
ATOM     66  C   UNL A   1      44.611  31.712  33.348  1.00  0.00     0.029 A 
ATOM     67  C   UNL A   1      43.333  31.821  32.821  1.00  0.00     0.049 A 
ATOM     68  H   UNL A   1      42.339  30.535  31.479  1.00  0.00     0.167 HD
ATOM     69  C   UNL A   1      41.087  32.848  32.557  1.00  0.00     0.074 A 
ATOM     70  C   UNL A   1      40.082  33.839  32.883  1.00  0.00     0.031 C 
ATOM     71  C   UNL A   1      42.340  32.833  33.073  1.00  0.00     0.037 A 
BRANCH  58  72
ATOM     72  C   UNL A   1      45.790  28.060  31.151  1.00  0.00     0.064 A 
ATOM     73  C   UNL A   1      46.831  28.349  30.254  1.00  0.00     0.173 A 
ATOM     74  C   UNL A   1      45.944  26.964  32.010  1.00  0.00     0.173 A 
ATOM     75  F   UNL A   1      46.717  29.373  29.393  1.00  0.00    -0.203 F 
ATOM     76  C   UNL A   1      47.943  27.520  30.159  1.00  0.00     0.198 A 
ATOM     77  C   UNL A   1      47.079  26.160  31.942  1.00  0.00     0.198 A 
ATOM     78  F   UNL A   1      44.980  26.649  32.888  1.00  0.00    -0.203 F 
ATOM     79  F   UNL A   1      48.868  27.747  29.217  1.00  0.00    -0.200 F 
ATOM     80  C   UNL A   1      48.065  26.425  31.002  1.00  0.00     0.200 A 
ATOM     81  F   UNL A   1      47.203  25.109  32.761  1.00  0.00    -0.200 F 
ATOM     82  F   UNL A   1      49.124  25.612  30.893  1.00  0.00    -0.200 F 
ENDBRANCH  58  72
BRANCH  59  83
ATOM     83  C   UNL A   1      36.944  32.619  30.348  1.00  0.00     0.064 A 
ATOM     84  C   UNL A   1      36.615  33.555  29.357  1.00  0.00     0.173 A 
ATOM     85  C   UNL A   1      35.986  32.360  31.340  1.00  0.00     0.173 A 
ATOM     86  F   UNL A   1      37.509  33.862  28.405  1.00  0.00    -0.203 F 
ATOM     87  C   UNL A   1      35.394  34.229  29.376  1.00  0.00     0.198 A 
ATOM     88  C   UNL A   1      34.758  33.022  31.347  1.00  0.00     0.198 A 
ATOM     89  F   UNL A   1      36.251  31.481  32.317  1.00  0.00    -0.203 F 
ATOM     90  F   UNL A   1      35.131  35.161  28.449  1.00  0.00    -0.200 F 
ATOM     91  C   UNL A   1      34.467  33.964  30.371  1.00  0.00     0.200 A 
ATOM     92  F   UNL A   1      33.863  32.764  32.312  1.00  0.00    -0.200 F 
ATOM     93  F   UNL A   1      33.302  34.626  30.399  1.00  0.00    -0.200 F 
ENDBRANCH  59  83
BRANCH  71  94
ATOM     94  C   UNL A   1      42.754  33.988  33.932  1.00  0.00     0.064 A 
ATOM     95  C   UNL A   1      43.211  35.195  33.391  1.00  0.00     0.173 A 
ATOM     96  C   UNL A   1      42.601  33.903  35.326  1.00  0.00     0.173 A 
ATOM     97  F   UNL A   1      43.391  35.317  32.067  1.00  0.00    -0.203 F 
ATOM     98  C   UNL A   1      43.501  36.280  34.215  1.00  0.00     0.198 A 
ATOM     99  C   UNL A   1      42.868  34.995  36.143  1.00  0.00     0.198 A 
ATOM    100  F   UNL A   1      42.166  32.766  35.890  1.00  0.00    -0.203 F 
ATOM    101  F   UNL A   1      43.957  37.421  33.681  1.00  0.00    -0.200 F 
ATOM    102  C   UNL A   1      43.317  36.183  35.587  1.00  0.00     0.200 A 
ATOM    103  F   UNL A   1      42.679  34.903  37.467  1.00  0.00    -0.200 F 
ATOM    104  F   UNL A   1      43.576  37.235  36.376  1.00  0.00    -0.200 F 
ENDBRANCH  71  94
ENDBRANCH  45  46
ENDBRANCH  38  40
ENDBRANCH  37  38
ENDBRANCH   1  37
TORSDOF 12
ENDMDL
MODEL 2
REMARK VINA RESULT:     -13.2      2.726      9.038
REMARK SMILES C[C@H]1[C@H](C)CC[C@@]2(C(=O)OCCOC(=O)c3ccc(-c4c5nc(c(-c6c(F)c(F)c(F)c(F)c6F)c6ccc([nH]6)c(-c6c(F)c(F)c(F)c(F)c6F)c6nc(c(-c7c(F)c(F)c(F)c(F)c7F)c7ccc4[nH]7)C=C6)C=C5)cc3)CC[C@@]3(C)C(=CC[C@@H]4[C@@]5(C)CC[C@H](O)C(C)(C)[C@@H]5CC[C@]43C)[C@H]12
REMARK SMILES IDX 12 1 11 2 10 3 8 4 9 5 7 6 1 7 2 8 3 9 101 10 4 11 5 12
REMARK SMILES IDX 83 13 6 14 79 15 81 16 84 17 80 18 82 19 99 20 85 21 86 22
REMARK SMILES IDX 98 23 100 24 87 25 97 26 88 27 89 28 96 29 90 30 93 31 91 32
REMARK SMILES IDX 94 33 95 34 92 35 13 37 14 38 15 39 16 40 17 41 78 42 18 43
REMARK SMILES IDX 77 44 19 45 20 46 21 47 71 48 22 49 76 50 70 51 72 52 23 53
REMARK SMILES IDX 75 54 69 55 68 56 24 58 56 59 36 60 55 61 37 62 40 63 54 64
REMARK SMILES IDX 73 65 38 66 39 67 53 69 74 70 41 71 25 72 26 73 34 74 27 75
REMARK SMILES IDX 28 76 32 77 35 78 29 79 30 80 33 81 31 82 57 83 58 84 66 85
REMARK SMILES IDX 59 86 60 87 64 88 67 89 61 90 62 91 65 92 63 93 42 94 43 95
REMARK SMILES IDX 51 96 44 97 45 98 49 99 52 100 46 101 47 102 50 103 48 104
REMARK H PARENT 92 36 72 57 40 68
REMARK Flexibility Score: inf
ROOT
ATOM      1  C   UNL A   1      34.309  29.377  26.904  1.00  0.00     0.275 C 
ENDROOT
BRANCH   1   2
ATOM      2  C   UNL A   1      34.462  28.846  25.466  1.00  0.00     0.274 C 
BRANCH   2   3
ATOM      3  O   UNL A   1      33.502  27.885  24.974  1.00  0.00    -0.462 OA
BRANCH   3   4
ATOM      4  C   UNL A   1      32.449  28.443  24.321  1.00  0.00     0.312 C 
ATOM      5  O   UNL A   1      32.555  28.839  23.186  1.00  0.00    -0.252 OA
BRANCH   4   6
ATOM      6  C   UNL A   1      31.191  28.730  25.174  1.00  0.00     0.075 C 
ATOM      7  C   UNL A   1      28.140  28.146  22.765  1.00  0.00     0.008 C 
ATOM      8  C   UNL A   1      29.460  28.763  23.260  1.00  0.00    -0.003 C 
ATOM      9  C   UNL A   1      29.255  30.293  23.511  1.00  0.00    -0.011 C 
ATOM     10  C   UNL A   1      29.976  27.993  24.533  1.00  0.00     0.036 C 
ATOM     11  C   UNL A   1      28.934  31.066  22.222  1.00  0.00     0.008 C 
ATOM     12  C   UNL A   1      30.464  30.976  24.154  1.00  0.00     0.005 C 
ATOM     13  C   UNL A   1      30.414  26.491  24.404  1.00  0.00    -0.063 C 
ATOM     14  C   UNL A   1      30.974  30.239  25.375  1.00  0.00     0.020 C 
ATOM     15  C   UNL A   1      31.373  28.122  26.601  1.00  0.00     0.020 C 
ATOM     16  C   UNL A   1      30.728  25.710  25.728  1.00  0.00    -0.006 C 
ATOM     17  C   UNL A   1      30.764  25.985  23.203  1.00  0.00    -0.027 C 
ATOM     18  C   UNL A   1      31.615  26.603  26.655  1.00  0.00     0.013 C 
ATOM     19  C   UNL A   1      29.395  25.499  26.493  1.00  0.00     0.017 C 
ATOM     20  C   UNL A   1      31.459  24.236  25.439  1.00  0.00    -0.020 C 
ATOM     21  C   UNL A   1      31.684  24.814  22.996  1.00  0.00     0.032 C 
ATOM     22  C   UNL A   1      32.483  24.434  24.262  1.00  0.00     0.006 C 
ATOM     23  C   UNL A   1      32.223  23.681  26.666  1.00  0.00     0.008 C 
ATOM     24  C   UNL A   1      30.382  23.176  25.082  1.00  0.00     0.012 C 
ATOM     25  C   UNL A   1      33.653  23.365  24.024  1.00  0.00    -0.025 C 
ATOM     26  C   UNL A   1      33.148  22.486  26.363  1.00  0.00     0.005 C 
ATOM     27  C   UNL A   1      33.152  22.191  23.160  1.00  0.00     0.012 C 
ATOM     28  C   UNL A   1      34.814  24.064  23.243  1.00  0.00     0.010 C 
ATOM     29  C   UNL A   1      34.267  22.921  25.402  1.00  0.00     0.003 C 
ATOM     30  C   UNL A   1      36.092  23.231  23.108  1.00  0.00     0.033 C 
ATOM     31  C   UNL A   1      35.542  21.981  25.328  1.00  0.00    -0.006 C 
ATOM     32  C   UNL A   1      36.610  22.688  24.438  1.00  0.00     0.120 C 
ATOM     33  C   UNL A   1      35.262  20.548  24.839  1.00  0.00     0.014 C 
ATOM     34  C   UNL A   1      36.177  21.803  26.736  1.00  0.00     0.014 C 
BRANCH  32  35
ATOM     35  O   UNL A   1      37.752  21.867  24.202  1.00  0.00    -0.393 OA
ATOM     36  H   UNL A   1      37.487  21.078  23.703  1.00  0.00     0.210 HD
ENDBRANCH  32  35
ENDBRANCH   4   6
ENDBRANCH   3   4
ENDBRANCH   2   3
ENDBRANCH   1   2
BRANCH   1  37
ATOM     37  O   UNL A   1      34.437  30.804  27.050  1.00  0.00    -0.458 OA
BRANCH  37  38
ATOM     38  C   UNL A   1      34.940  31.229  28.240  1.00  0.00     0.338 C 
ATOM     39  O   UNL A   1      34.385  31.970  29.037  1.00  0.00    -0.246 OA
BRANCH  38  40
ATOM     40  C   UNL A   1      36.201  30.507  28.547  1.00  0.00     0.060 A 
ATOM     41  C   UNL A   1      36.297  29.795  29.756  1.00  0.00     0.016 A 
ATOM     42  C   UNL A   1      37.271  30.499  27.665  1.00  0.00     0.016 A 
ATOM     43  C   UNL A   1      37.420  29.013  30.064  1.00  0.00     0.010 A 
ATOM     44  C   UNL A   1      38.411  29.759  27.997  1.00  0.00     0.010 A 
ATOM     45  C   UNL A   1      38.502  28.997  29.191  1.00  0.00    -0.014 A 
BRANCH  45  46
ATOM     46  C   UNL A   1      39.849  28.466  29.558  1.00  0.00     0.031 A 
ATOM     47  C   UNL A   1      40.745  29.440  30.255  1.00  0.00     0.074 A 
ATOM     48  C   UNL A   1      40.344  27.259  29.226  1.00  0.00     0.049 A 
ATOM     49  N   UNL A   1      42.045  29.524  30.286  1.00  0.00    -0.248 NA
ATOM     50  C   UNL A   1      40.039  30.513  30.975  1.00  0.00     0.031 C 
ATOM     51  C   UNL A   1      39.594  26.128  28.707  1.00  0.00     0.029 A 
ATOM     52  N   UNL A   1      41.652  26.819  29.201  1.00  0.00    -0.354 N 
ATOM     53  C   UNL A   1      42.309  30.696  30.975  1.00  0.00     0.074 A 
ATOM     54  C   UNL A   1      41.039  31.324  31.267  1.00  0.00     0.031 C 
ATOM     55  C   UNL A   1      40.448  25.176  28.289  1.00  0.00     0.029 A 
ATOM     56  C   UNL A   1      41.815  25.636  28.515  1.00  0.00     0.049 A 
ATOM     57  H   UNL A   1      42.395  27.303  29.631  1.00  0.00     0.167 HD
ATOM     58  C   UNL A   1      43.505  31.187  31.375  1.00  0.00     0.037 A 
ATOM     59  C   UNL A   1      42.937  25.023  28.089  1.00  0.00     0.037 A 
ATOM     60  C   UNL A   1      44.750  30.511  31.160  1.00  0.00     0.049 A 
ATOM     61  C   UNL A   1      44.276  25.613  28.456  1.00  0.00     0.074 A 
ATOM     62  C   UNL A   1      46.019  30.879  31.565  1.00  0.00     0.029 A 
ATOM     63  N   UNL A   1      44.871  29.297  30.498  1.00  0.00    -0.354 N 
ATOM     64  N   UNL A   1      44.542  26.730  29.089  1.00  0.00    -0.248 NA
ATOM     65  C   UNL A   1      45.472  24.837  28.089  1.00  0.00     0.031 C 
ATOM     66  C   UNL A   1      46.910  29.885  31.147  1.00  0.00     0.029 A 
ATOM     67  C   UNL A   1      46.192  28.887  30.505  1.00  0.00     0.049 A 
ATOM     68  H   UNL A   1      44.128  28.802  30.084  1.00  0.00     0.167 HD
ATOM     69  C   UNL A   1      45.917  26.745  29.278  1.00  0.00     0.074 A 
ATOM     70  C   UNL A   1      46.440  25.549  28.652  1.00  0.00     0.031 C 
ATOM     71  C   UNL A   1      46.675  27.655  29.937  1.00  0.00     0.037 A 
BRANCH  58  72
ATOM     72  C   UNL A   1      43.472  32.501  32.090  1.00  0.00     0.064 A 
ATOM     73  C   UNL A   1      43.321  32.570  33.485  1.00  0.00     0.173 A 
ATOM     74  C   UNL A   1      43.482  33.702  31.368  1.00  0.00     0.173 A 
ATOM     75  F   UNL A   1      43.280  31.445  34.216  1.00  0.00    -0.203 F 
ATOM     76  C   UNL A   1      43.099  33.787  34.120  1.00  0.00     0.198 A 
ATOM     77  C   UNL A   1      43.302  34.922  32.013  1.00  0.00     0.198 A 
ATOM     78  F   UNL A   1      43.628  33.690  30.035  1.00  0.00    -0.203 F 
ATOM     79  F   UNL A   1      42.841  33.816  35.435  1.00  0.00    -0.200 F 
ATOM     80  C   UNL A   1      43.088  34.961  33.383  1.00  0.00     0.200 A 
ATOM     81  F   UNL A   1      43.300  36.059  31.305  1.00  0.00    -0.200 F 
ATOM     82  F   UNL A   1      42.848  36.130  33.992  1.00  0.00    -0.200 F 
ENDBRANCH  58  72
BRANCH  59  83
ATOM     83  C   UNL A   1      42.871  23.768  27.289  1.00  0.00     0.064 A 
ATOM     84  C   UNL A   1      42.571  22.541  27.898  1.00  0.00     0.173 A 
ATOM     85  C   UNL A   1      43.180  23.756  25.920  1.00  0.00     0.173 A 
ATOM     86  F   UNL A   1      42.300  22.496  29.211  1.00  0.00    -0.203 F 
ATOM     87  C   UNL A   1      42.611  21.348  27.178  1.00  0.00     0.198 A 
ATOM     88  C   UNL A   1      43.203  22.563  25.197  1.00  0.00     0.198 A 
ATOM     89  F   UNL A   1      43.484  24.899  25.289  1.00  0.00    -0.203 F 
ATOM     90  F   UNL A   1      42.376  20.184  27.799  1.00  0.00    -0.200 F 
ATOM     91  C   UNL A   1      42.928  21.359  25.829  1.00  0.00     0.200 A 
ATOM     92  F   UNL A   1      43.512  22.576  23.893  1.00  0.00    -0.200 F 
ATOM     93  F   UNL A   1      42.986  20.210  25.142  1.00  0.00    -0.200 F 
ENDBRANCH  59  83
BRANCH  71  94
ATOM     94  C   UNL A   1      48.124  27.336  30.146  1.00  0.00     0.064 A 
ATOM     95  C   UNL A   1      48.563  26.497  31.176  1.00  0.00     0.173 A 
ATOM     96  C   UNL A   1      49.076  27.817  29.232  1.00  0.00     0.173 A 
ATOM     97  F   UNL A   1      47.692  26.029  32.084  1.00  0.00    -0.203 F 
ATOM     98  C   UNL A   1      49.906  26.148  31.286  1.00  0.00     0.198 A 
ATOM     99  C   UNL A   1      50.413  27.447  29.330  1.00  0.00     0.198 A 
ATOM    100  F   UNL A   1      48.702  28.625  28.228  1.00  0.00    -0.203 F 
ATOM    101  F   UNL A   1      50.312  25.361  32.291  1.00  0.00    -0.200 F 
ATOM    102  C   UNL A   1      50.827  26.613  30.357  1.00  0.00     0.200 A 
ATOM    103  F   UNL A   1      51.297  27.888  28.425  1.00  0.00    -0.200 F 
ATOM    104  F   UNL A   1      52.115  26.258  30.452  1.00  0.00    -0.200 F 
ENDBRANCH  71  94
ENDBRANCH  45  46
ENDBRANCH  38  40
ENDBRANCH  37  38
ENDBRANCH   1  37
TORSDOF 12
ENDMDL
MODEL 3
REMARK VINA RESULT:     -13.0      2.838      8.950
REMARK SMILES C[C@H]1[C@H](C)CC[C@@]2(C(=O)OCCOC(=O)c3ccc(-c4c5nc(c(-c6c(F)c(F)c(F)c(F)c6F)c6ccc([nH]6)c(-c6c(F)c(F)c(F)c(F)c6F)c6nc(c(-c7c(F)c(F)c(F)c(F)c7F)c7ccc4[nH]7)C=C6)C=C5)cc3)CC[C@@]3(C)C(=CC[C@@H]4[C@@]5(C)CC[C@H](O)C(C)(C)[C@@H]5CC[C@]43C)[C@H]12
REMARK SMILES IDX 12 1 11 2 10 3 8 4 9 5 7 6 1 7 2 8 3 9 101 10 4 11 5 12
REMARK SMILES IDX 83 13 6 14 79 15 81 16 84 17 80 18 82 19 99 20 85 21 86 22
REMARK SMILES IDX 98 23 100 24 87 25 97 26 88 27 89 28 96 29 90 30 93 31 91 32
REMARK SMILES IDX 94 33 95 34 92 35 13 37 14 38 15 39 16 40 17 41 78 42 18 43
REMARK SMILES IDX 77 44 19 45 20 46 21 47 71 48 22 49 76 50 70 51 72 52 23 53
REMARK SMILES IDX 75 54 69 55 68 56 24 58 56 59 36 60 55 61 37 62 40 63 54 64
REMARK SMILES IDX 73 65 38 66 39 67 53 69 74 70 41 71 25 72 26 73 34 74 27 75
REMARK SMILES IDX 28 76 32 77 35 78 29 79 30 80 33 81 31 82 57 83 58 84 66 85
REMARK SMILES IDX 59 86 60 87 64 88 67 89 61 90 62 91 65 92 63 93 42 94 43 95
REMARK SMILES IDX 51 96 44 97 45 98 49 99 52 100 46 101 47 102 50 103 48 104
REMARK H PARENT 92 36 72 57 40 68
REMARK Flexibility Score: inf
ROOT
ATOM      1  C   UNL A   1      34.498  29.005  27.048  1.00  0.00     0.275 C 
ENDROOT
BRANCH   1   2
ATOM      2  C   UNL A   1      34.392  28.941  25.512  1.00  0.00     0.274 C 
BRANCH   2   3
ATOM      3  O   UNL A   1      33.524  27.952  24.916  1.00  0.00    -0.462 OA
BRANCH   3   4
ATOM      4  C   UNL A   1      32.453  28.479  24.265  1.00  0.00     0.312 C 
ATOM      5  O   UNL A   1      32.534  28.842  23.118  1.00  0.00    -0.252 OA
BRANCH   4   6
ATOM      6  C   UNL A   1      31.207  28.778  25.133  1.00  0.00     0.075 C 
ATOM      7  C   UNL A   1      28.124  28.203  22.764  1.00  0.00     0.008 C 
ATOM      8  C   UNL A   1      29.453  28.814  23.240  1.00  0.00    -0.003 C 
ATOM      9  C   UNL A   1      29.261  30.347  23.487  1.00  0.00    -0.011 C 
ATOM     10  C   UNL A   1      29.980  28.046  24.510  1.00  0.00     0.036 C 
ATOM     11  C   UNL A   1      28.930  31.115  22.197  1.00  0.00     0.008 C 
ATOM     12  C   UNL A   1      30.483  31.024  24.111  1.00  0.00     0.005 C 
ATOM     13  C   UNL A   1      30.406  26.541  24.383  1.00  0.00    -0.063 C 
ATOM     14  C   UNL A   1      31.003  30.289  25.329  1.00  0.00     0.020 C 
ATOM     15  C   UNL A   1      31.403  28.176  26.560  1.00  0.00     0.020 C 
ATOM     16  C   UNL A   1      30.732  25.765  25.707  1.00  0.00    -0.006 C 
ATOM     17  C   UNL A   1      30.738  26.027  23.181  1.00  0.00    -0.027 C 
ATOM     18  C   UNL A   1      31.636  26.656  26.619  1.00  0.00     0.013 C 
ATOM     19  C   UNL A   1      29.407  25.566  26.489  1.00  0.00     0.017 C 
ATOM     20  C   UNL A   1      31.449  24.284  25.416  1.00  0.00    -0.020 C 
ATOM     21  C   UNL A   1      31.648  24.849  22.967  1.00  0.00     0.032 C 
ATOM     22  C   UNL A   1      32.460  24.469  24.225  1.00  0.00     0.006 C 
ATOM     23  C   UNL A   1      32.224  23.730  26.636  1.00  0.00     0.008 C 
ATOM     24  C   UNL A   1      30.361  23.229  25.078  1.00  0.00     0.012 C 
ATOM     25  C   UNL A   1      33.619  23.391  23.978  1.00  0.00    -0.025 C 
ATOM     26  C   UNL A   1      33.138  22.527  26.328  1.00  0.00     0.005 C 
ATOM     27  C   UNL A   1      33.101  22.217  23.126  1.00  0.00     0.012 C 
ATOM     28  C   UNL A   1      34.776  24.079  23.180  1.00  0.00     0.010 C 
ATOM     29  C   UNL A   1      34.247  22.951  25.350  1.00  0.00     0.003 C 
ATOM     30  C   UNL A   1      36.047  23.237  23.033  1.00  0.00     0.033 C 
ATOM     31  C   UNL A   1      35.516  22.001  25.265  1.00  0.00    -0.006 C 
ATOM     32  C   UNL A   1      36.578  22.697  24.359  1.00  0.00     0.120 C 
ATOM     33  C   UNL A   1      35.220  20.568  24.786  1.00  0.00     0.014 C 
ATOM     34  C   UNL A   1      36.167  21.826  26.667  1.00  0.00     0.014 C 
BRANCH  32  35
ATOM     35  O   UNL A   1      37.711  21.867  24.113  1.00  0.00    -0.393 OA
ATOM     36  H   UNL A   1      37.452  20.935  24.184  1.00  0.00     0.210 HD
ENDBRANCH  32  35
ENDBRANCH   4   6
ENDBRANCH   3   4
ENDBRANCH   2   3
ENDBRANCH   1   2
BRANCH   1  37
ATOM     37  O   UNL A   1      34.226  30.293  27.630  1.00  0.00    -0.458 OA
BRANCH  37  38
ATOM     38  C   UNL A   1      35.296  31.127  27.736  1.00  0.00     0.338 C 
ATOM     39  O   UNL A   1      35.271  32.347  27.684  1.00  0.00    -0.246 OA
BRANCH  38  40
ATOM     40  C   UNL A   1      36.505  30.356  28.123  1.00  0.00     0.060 A 
ATOM     41  C   UNL A   1      36.555  29.773  29.402  1.00  0.00     0.016 A 
ATOM     42  C   UNL A   1      37.568  30.179  27.251  1.00  0.00     0.016 A 
ATOM     43  C   UNL A   1      37.622  28.953  29.797  1.00  0.00     0.010 A 
ATOM     44  C   UNL A   1      38.655  29.401  27.666  1.00  0.00     0.010 A 
ATOM     45  C   UNL A   1      38.697  28.768  28.935  1.00  0.00    -0.014 A 
BRANCH  45  46
ATOM     46  C   UNL A   1      40.005  28.187  29.363  1.00  0.00     0.031 A 
ATOM     47  C   UNL A   1      40.898  29.122  30.115  1.00  0.00     0.074 A 
ATOM     48  C   UNL A   1      40.475  26.967  29.042  1.00  0.00     0.049 A 
ATOM     49  N   UNL A   1      42.197  29.161  30.213  1.00  0.00    -0.248 NA
ATOM     50  C   UNL A   1      40.193  30.211  30.812  1.00  0.00     0.031 C 
ATOM     51  C   UNL A   1      39.714  25.868  28.472  1.00  0.00     0.029 A 
ATOM     52  N   UNL A   1      41.767  26.482  29.077  1.00  0.00    -0.354 N 
ATOM     53  C   UNL A   1      42.465  30.316  30.928  1.00  0.00     0.074 A 
ATOM     54  C   UNL A   1      41.204  30.984  31.163  1.00  0.00     0.031 C 
ATOM     55  C   UNL A   1      40.555  24.891  28.086  1.00  0.00     0.029 A 
ATOM     56  C   UNL A   1      41.924  25.301  28.386  1.00  0.00     0.049 A 
ATOM     57  H   UNL A   1      42.503  26.936  29.549  1.00  0.00     0.167 HD
ATOM     58  C   UNL A   1      43.655  30.761  31.393  1.00  0.00     0.037 A 
ATOM     59  C   UNL A   1      43.045  24.654  28.009  1.00  0.00     0.037 A 
ATOM     60  C   UNL A   1      44.886  30.044  31.232  1.00  0.00     0.049 A 
ATOM     61  C   UNL A   1      44.383  25.194  28.449  1.00  0.00     0.074 A 
ATOM     62  C   UNL A   1      46.144  30.365  31.705  1.00  0.00     0.029 A 
ATOM     63  N   UNL A   1      44.999  28.834  30.563  1.00  0.00    -0.354 N 
ATOM     64  N   UNL A   1      44.654  26.294  29.108  1.00  0.00    -0.248 NA
ATOM     65  C   UNL A   1      45.569  24.381  28.134  1.00  0.00     0.031 C 
ATOM     66  C   UNL A   1      47.022  29.345  31.320  1.00  0.00     0.029 A 
ATOM     67  C   UNL A   1      46.303  28.378  30.631  1.00  0.00     0.049 A 
ATOM     68  H   UNL A   1      44.262  28.369  30.106  1.00  0.00     0.167 HD
ATOM     69  C   UNL A   1      46.018  26.260  29.366  1.00  0.00     0.074 A 
ATOM     70  C   UNL A   1      46.531  25.053  28.753  1.00  0.00     0.031 C 
ATOM     71  C   UNL A   1      46.772  27.137  30.073  1.00  0.00     0.037 A 
BRANCH  58  72
ATOM     72  C   UNL A   1      43.631  32.068  32.121  1.00  0.00     0.064 A 
ATOM     73  C   UNL A   1      43.832  33.284  31.447  1.00  0.00     0.173 A 
ATOM     74  C   UNL A   1      43.517  32.099  33.517  1.00  0.00     0.173 A 
ATOM     75  F   UNL A   1      43.973  33.300  30.112  1.00  0.00    -0.203 F 
ATOM     76  C   UNL A   1      44.001  34.471  32.150  1.00  0.00     0.198 A 
ATOM     77  C   UNL A   1      43.645  33.297  34.215  1.00  0.00     0.198 A 
ATOM     78  F   UNL A   1      43.321  30.966  34.207  1.00  0.00    -0.203 F 
ATOM     79  F   UNL A   1      44.308  35.598  31.493  1.00  0.00    -0.200 F 
ATOM     80  C   UNL A   1      43.909  34.477  33.533  1.00  0.00     0.200 A 
ATOM     81  F   UNL A   1      43.546  33.306  35.551  1.00  0.00    -0.200 F 
ATOM     82  F   UNL A   1      44.098  35.616  34.212  1.00  0.00    -0.200 F 
ENDBRANCH  58  72
BRANCH  59  83
ATOM     83  C   UNL A   1      42.977  23.411  27.192  1.00  0.00     0.064 A 
ATOM     84  C   UNL A   1      42.576  22.195  27.763  1.00  0.00     0.173 A 
ATOM     85  C   UNL A   1      43.381  23.395  25.848  1.00  0.00     0.173 A 
ATOM     86  F   UNL A   1      42.211  22.152  29.053  1.00  0.00    -0.203 F 
ATOM     87  C   UNL A   1      42.611  21.007  27.034  1.00  0.00     0.198 A 
ATOM     88  C   UNL A   1      43.399  22.209  25.115  1.00  0.00     0.198 A 
ATOM     89  F   UNL A   1      43.783  24.528  25.254  1.00  0.00    -0.203 F 
ATOM     90  F   UNL A   1      42.278  19.850  27.624  1.00  0.00    -0.200 F 
ATOM     91  C   UNL A   1      43.024  21.013  25.711  1.00  0.00     0.200 A 
ATOM     92  F   UNL A   1      43.800  22.218  23.835  1.00  0.00    -0.200 F 
ATOM     93  F   UNL A   1      43.076  19.869  25.016  1.00  0.00    -0.200 F 
ENDBRANCH  59  83
BRANCH  71  94
ATOM     94  C   UNL A   1      48.197  26.766  30.351  1.00  0.00     0.064 A 
ATOM     95  C   UNL A   1      49.253  27.207  29.546  1.00  0.00     0.173 A 
ATOM     96  C   UNL A   1      48.506  26.026  31.503  1.00  0.00     0.173 A 
ATOM     97  F   UNL A   1      49.005  27.900  28.424  1.00  0.00    -0.203 F 
ATOM     98  C   UNL A   1      50.573  26.919  29.884  1.00  0.00     0.198 A 
ATOM     99  C   UNL A   1      49.826  25.762  31.852  1.00  0.00     0.198 A 
ATOM    100  F   UNL A   1      47.526  25.582  32.306  1.00  0.00    -0.203 F 
ATOM    101  F   UNL A   1      51.571  27.331  29.090  1.00  0.00    -0.200 F 
ATOM    102  C   UNL A   1      50.859  26.209  31.042  1.00  0.00     0.200 A 
ATOM    103  F   UNL A   1      50.100  25.086  32.976  1.00  0.00    -0.200 F 
ATOM    104  F   UNL A   1      52.131  25.954  31.377  1.00  0.00    -0.200 F 
ENDBRANCH  71  94
ENDBRANCH  45  46
ENDBRANCH  38  40
ENDBRANCH  37  38
ENDBRANCH   1  37
TORSDOF 12
ENDMDL
