MODEL 1
REMARK VINA RESULT:     -12.6      0.000      0.000
REMARK SMILES O=C(OCCOC(=O)[C@@H]1CCCN(C(=O)Nc2ccccc2)C1)c1ccc(-c2c3nc(c(-c4c(F)c(F)c(F)c(F)c4F)c4ccc([nH]4)c(-c4c(F)c(F)c(F)c(F)c4F)c4nc(c(-c5c(F)c(F)c(F)c(F)c5F)c5ccc2[nH]5)C=C4)C=C3)cc1
REMARK SMILES IDX 4 1 3 2 2 3 1 4 24 5 25 6 86 7 26 8 85 9 27 10 28 11 29 12
REMARK SMILES IDX 79 13 30 14 84 15 78 16 80 17 31 18 83 19 77 20 76 21 32 23
REMARK SMILES IDX 64 24 44 25 63 26 45 27 48 28 62 29 81 30 46 31 47 32 61 34
REMARK SMILES IDX 82 35 49 36 33 37 34 38 42 39 35 40 36 41 40 42 43 43 37 44
REMARK SMILES IDX 38 45 41 46 39 47 65 48 66 49 74 50 67 51 68 52 72 53 75 54
REMARK SMILES IDX 69 55 70 56 73 57 71 58 50 59 51 60 59 61 52 62 53 63 57 64
REMARK SMILES IDX 60 65 54 66 55 67 58 68 56 69 5 70 6 71 7 72 8 73 9 74 10 75
REMARK SMILES IDX 23 76 11 77 13 78 12 79 14 80 15 81 16 82 17 84 18 85 22 86
REMARK SMILES IDX 19 87 21 88 20 89
REMARK H PARENT 80 22 48 33 16 83
REMARK Flexibility Score: inf
ROOT
ATOM      1  C   UNL A   1      31.405  32.034  26.880  1.00  0.00     0.275 C 
ENDROOT
BRANCH   1   2
ATOM      2  O   UNL A   1      32.221  33.213  26.860  1.00  0.00    -0.458 OA
BRANCH   2   3
ATOM      3  C   UNL A   1      32.881  33.623  27.960  1.00  0.00     0.338 C 
ATOM      4  O   UNL A   1      32.553  34.604  28.614  1.00  0.00    -0.246 OA
BRANCH   3   5
ATOM      5  C   UNL A   1      34.170  32.979  28.249  1.00  0.00     0.060 A 
ATOM      6  C   UNL A   1      34.455  31.564  29.112  1.00  0.00     0.016 A 
ATOM      7  C   UNL A   1      35.504  34.017  27.966  1.00  0.00     0.016 A 
ATOM      8  C   UNL A   1      36.004  31.157  29.757  1.00  0.00     0.010 A 
ATOM      9  C   UNL A   1      37.286  33.664  28.690  1.00  0.00     0.010 A 
ATOM     10  C   UNL A   1      37.462  32.129  29.592  1.00  0.00    -0.014 A 
BRANCH  10  11
ATOM     11  C   UNL A   1      38.651  31.521  30.224  1.00  0.00     0.031 A 
ATOM     12  C   UNL A   1      38.913  31.792  31.684  1.00  0.00     0.074 A 
ATOM     13  C   UNL A   1      39.291  30.520  29.597  1.00  0.00     0.049 A 
ATOM     14  N   UNL A   1      39.765  31.256  32.521  1.00  0.00    -0.248 NA
ATOM     15  C   UNL A   1      38.066  32.813  32.303  1.00  0.00     0.031 C 
ATOM     16  C   UNL A   1      39.017  30.045  28.247  1.00  0.00     0.029 A 
ATOM     17  N   UNL A   1      40.278  29.681  30.038  1.00  0.00    -0.354 N 
ATOM     18  C   UNL A   1      39.527  31.876  33.747  1.00  0.00     0.074 A 
ATOM     19  C   UNL A   1      38.528  32.873  33.534  1.00  0.00     0.031 C 
ATOM     20  C   UNL A   1      39.839  29.033  27.942  1.00  0.00     0.029 A 
ATOM     21  C   UNL A   1      40.698  28.784  29.087  1.00  0.00     0.049 A 
ATOM     22  H   UNL A   1      40.650  29.716  30.949  1.00  0.00     0.167 HD
ATOM     23  C   UNL A   1      40.041  31.619  34.971  1.00  0.00     0.037 A 
ATOM     24  C   UNL A   1      41.678  27.868  29.139  1.00  0.00     0.037 A 
ATOM     25  C   UNL A   1      41.049  30.630  35.166  1.00  0.00     0.049 A 
ATOM     26  C   UNL A   1      42.362  27.680  30.462  1.00  0.00     0.074 A 
ATOM     27  C   UNL A   1      41.747  30.301  36.308  1.00  0.00     0.029 A 
ATOM     28  N   UNL A   1      41.503  29.810  34.145  1.00  0.00    -0.354 N 
ATOM     29  N   UNL A   1      42.132  28.286  31.606  1.00  0.00    -0.248 NA
ATOM     30  C   UNL A   1      43.418  26.667  30.516  1.00  0.00     0.031 C 
ATOM     31  C   UNL A   1      42.677  29.318  35.956  1.00  0.00     0.029 A 
ATOM     32  C   UNL A   1      42.497  28.986  34.619  1.00  0.00     0.049 A 
ATOM     33  H   UNL A   1      41.166  29.816  33.220  1.00  0.00     0.167 HD
ATOM     34  C   UNL A   1      42.994  27.708  32.525  1.00  0.00     0.074 A 
ATOM     35  C   UNL A   1      43.730  26.686  31.803  1.00  0.00     0.031 C 
ATOM     36  C   UNL A   1      43.176  27.985  33.840  1.00  0.00     0.037 A 
BRANCH  23  37
ATOM     37  C   UNL A   1      39.537  32.441  36.131  1.00  0.00     0.064 A 
ATOM     38  C   UNL A   1      40.152  33.651  36.503  1.00  0.00     0.173 A 
ATOM     39  C   UNL A   1      38.482  31.980  36.932  1.00  0.00     0.173 A 
ATOM     40  F   UNL A   1      41.199  34.118  35.806  1.00  0.00    -0.203 F 
ATOM     41  C   UNL A   1      39.760  34.337  37.651  1.00  0.00     0.198 A 
ATOM     42  C   UNL A   1      38.068  32.690  38.059  1.00  0.00     0.198 A 
ATOM     43  F   UNL A   1      37.868  30.823  36.641  1.00  0.00    -0.203 F 
ATOM     44  F   UNL A   1      40.429  35.435  38.035  1.00  0.00    -0.200 F 
ATOM     45  C   UNL A   1      38.715  33.861  38.424  1.00  0.00     0.200 A 
ATOM     46  F   UNL A   1      37.057  32.225  38.808  1.00  0.00    -0.200 F 
ATOM     47  F   UNL A   1      38.347  34.515  39.535  1.00  0.00    -0.200 F 
ENDBRANCH  23  37
BRANCH  24  48
ATOM     48  C   UNL A   1      42.052  27.109  27.914  1.00  0.00     0.064 A 
ATOM     49  C   UNL A   1      42.950  27.616  26.967  1.00  0.00     0.173 A 
ATOM     50  C   UNL A   1      41.518  25.829  27.678  1.00  0.00     0.173 A 
ATOM     51  F   UNL A   1      43.499  28.827  27.143  1.00  0.00    -0.203 F 
ATOM     52  C   UNL A   1      43.271  26.893  25.817  1.00  0.00     0.198 A 
ATOM     53  C   UNL A   1      41.869  25.092  26.549  1.00  0.00     0.198 A 
ATOM     54  F   UNL A   1      40.672  25.280  28.561  1.00  0.00    -0.203 F 
ATOM     55  F   UNL A   1      44.093  27.425  24.902  1.00  0.00    -0.200 F 
ATOM     56  C   UNL A   1      42.733  25.630  25.611  1.00  0.00     0.200 A 
ATOM     57  F   UNL A   1      41.372  23.860  26.375  1.00  0.00    -0.200 F 
ATOM     58  F   UNL A   1      43.047  24.936  24.508  1.00  0.00    -0.200 F 
ENDBRANCH  24  48
BRANCH  36  59
ATOM     59  C   UNL A   1      44.170  27.147  34.571  1.00  0.00     0.064 A 
ATOM     60  C   UNL A   1      45.499  27.560  34.724  1.00  0.00     0.173 A 
ATOM     61  C   UNL A   1      43.764  25.950  35.176  1.00  0.00     0.173 A 
ATOM     62  F   UNL A   1      45.923  28.700  34.156  1.00  0.00    -0.203 F 
ATOM     63  C   UNL A   1      46.404  26.775  35.424  1.00  0.00     0.198 A 
ATOM     64  C   UNL A   1      44.660  25.194  35.917  1.00  0.00     0.198 A 
ATOM     65  F   UNL A   1      42.493  25.532  35.070  1.00  0.00    -0.203 F 
ATOM     66  F   UNL A   1      47.688  27.148  35.502  1.00  0.00    -0.200 F 
ATOM     67  C   UNL A   1      45.982  25.599  36.028  1.00  0.00     0.200 A 
ATOM     68  F   UNL A   1      44.243  24.076  36.527  1.00  0.00    -0.200 F 
ATOM     69  F   UNL A   1      46.854  24.851  36.716  1.00  0.00    -0.200 F 
ENDBRANCH  36  59
ENDBRANCH  10  11
ENDBRANCH   3   5
ENDBRANCH   2   3
ENDBRANCH   1   2
BRANCH   1  70
ATOM     70  C   UNL A   1      32.123  30.776  26.328  1.00  0.00     0.274 C 
BRANCH  70  71
ATOM     71  O   UNL A   1      32.108  29.632  27.225  1.00  0.00    -0.462 OA
BRANCH  71  72
ATOM     72  C   UNL A   1      31.779  28.298  27.062  1.00  0.00     0.310 C 
ATOM     73  O   UNL A   1      31.015  27.683  27.784  1.00  0.00    -0.252 OA
BRANCH  72  74
ATOM     74  C   UNL A   1      32.565  27.712  25.734  1.00  0.00     0.119 C 
ATOM     75  C   UNL A   1      31.342  28.017  24.545  1.00  0.00     0.019 C 
ATOM     76  C   UNL A   1      33.339  25.974  25.774  1.00  0.00     0.136 C 
ATOM     77  C   UNL A   1      29.959  26.674  24.414  1.00  0.00     0.023 C 
ATOM     78  N   UNL A   1      32.321  24.475  25.568  1.00  0.00    -0.324 N 
ATOM     79  C   UNL A   1      30.612  24.597  24.774  1.00  0.00     0.121 C 
BRANCH  78  80
ATOM     80  C   UNL A   1      32.598  23.422  26.458  1.00  0.00     0.321 C 
ATOM     81  O   UNL A   1      32.080  23.374  27.573  1.00  0.00    -0.248 OA
ATOM     82  N   UNL A   1      33.184  22.308  25.902  1.00  0.00    -0.308 N 
ATOM     83  H   UNL A   1      32.653  21.479  25.930  1.00  0.00     0.171 HD
BRANCH  82  84
ATOM     84  C   UNL A   1      34.449  22.213  25.297  1.00  0.00     0.042 A 
ATOM     85  C   UNL A   1      34.673  22.890  24.086  1.00  0.00     0.026 A 
ATOM     86  C   UNL A   1      35.489  21.506  25.894  1.00  0.00     0.026 A 
ATOM     87  C   UNL A   1      35.945  22.902  23.510  1.00  0.00     0.002 A 
ATOM     88  C   UNL A   1      36.736  21.445  25.269  1.00  0.00     0.002 A 
ATOM     89  C   UNL A   1      36.967  22.154  24.085  1.00  0.00     0.000 A 
ENDBRANCH  82  84
ENDBRANCH  78  80
ENDBRANCH  72  74
ENDBRANCH  71  72
ENDBRANCH  70  71
ENDBRANCH   1  70
TORSDOF 13
ENDMDL
MODEL 2
REMARK VINA RESULT:     -12.6      0.242      1.637
REMARK SMILES O=C(OCCOC(=O)[C@@H]1CCCN(C(=O)Nc2ccccc2)C1)c1ccc(-c2c3nc(c(-c4c(F)c(F)c(F)c(F)c4F)c4ccc([nH]4)c(-c4c(F)c(F)c(F)c(F)c4F)c4nc(c(-c5c(F)c(F)c(F)c(F)c5F)c5ccc2[nH]5)C=C4)C=C3)cc1
REMARK SMILES IDX 4 1 3 2 2 3 1 4 24 5 25 6 86 7 26 8 85 9 27 10 28 11 29 12
REMARK SMILES IDX 79 13 30 14 84 15 78 16 80 17 31 18 83 19 77 20 76 21 32 23
REMARK SMILES IDX 64 24 44 25 63 26 45 27 48 28 62 29 81 30 46 31 47 32 61 34
REMARK SMILES IDX 82 35 49 36 33 37 34 38 42 39 35 40 36 41 40 42 43 43 37 44
REMARK SMILES IDX 38 45 41 46 39 47 65 48 66 49 74 50 67 51 68 52 72 53 75 54
REMARK SMILES IDX 69 55 70 56 73 57 71 58 50 59 51 60 59 61 52 62 53 63 57 64
REMARK SMILES IDX 60 65 54 66 55 67 58 68 56 69 5 70 6 71 7 72 8 73 9 74 10 75
REMARK SMILES IDX 23 76 11 77 13 78 12 79 14 80 15 81 16 82 17 84 18 85 22 86
REMARK SMILES IDX 19 87 21 88 20 89
REMARK H PARENT 80 22 48 33 16 83
REMARK Flexibility Score: inf
ROOT
ATOM      1  C   UNL A   1      31.398  31.937  26.899  1.00  0.00     0.275 C 
ENDROOT
BRANCH   1   2
ATOM      2  O   UNL A   1      32.192  33.130  26.832  1.00  0.00    -0.458 OA
BRANCH   2   3
ATOM      3  C   UNL A   1      32.869  33.577  27.907  1.00  0.00     0.338 C 
ATOM      4  O   UNL A   1      32.549  34.579  28.533  1.00  0.00    -0.246 OA
BRANCH   3   5
ATOM      5  C   UNL A   1      34.163  32.945  28.198  1.00  0.00     0.060 A 
ATOM      6  C   UNL A   1      34.457  31.511  29.027  1.00  0.00     0.016 A 
ATOM      7  C   UNL A   1      35.485  34.010  27.962  1.00  0.00     0.016 A 
ATOM      8  C   UNL A   1      36.003  31.111  29.684  1.00  0.00     0.010 A 
ATOM      9  C   UNL A   1      37.262  33.664  28.702  1.00  0.00     0.010 A 
ATOM     10  C   UNL A   1      37.449  32.108  29.565  1.00  0.00    -0.014 A 
BRANCH  10  11
ATOM     11  C   UNL A   1      38.638  31.502  30.199  1.00  0.00     0.031 A 
ATOM     12  C   UNL A   1      38.901  31.777  31.657  1.00  0.00     0.074 A 
ATOM     13  C   UNL A   1      39.277  30.499  29.574  1.00  0.00     0.049 A 
ATOM     14  N   UNL A   1      39.753  31.243  32.495  1.00  0.00    -0.248 NA
ATOM     15  C   UNL A   1      38.055  32.800  32.275  1.00  0.00     0.031 C 
ATOM     16  C   UNL A   1      39.002  30.020  28.226  1.00  0.00     0.029 A 
ATOM     17  N   UNL A   1      40.263  29.660  30.017  1.00  0.00    -0.354 N 
ATOM     18  C   UNL A   1      39.516  31.867  33.720  1.00  0.00     0.074 A 
ATOM     19  C   UNL A   1      38.518  32.863  33.505  1.00  0.00     0.031 C 
ATOM     20  C   UNL A   1      39.823  29.007  27.924  1.00  0.00     0.029 A 
ATOM     21  C   UNL A   1      40.682  28.760  29.069  1.00  0.00     0.049 A 
ATOM     22  H   UNL A   1      40.636  29.698  30.927  1.00  0.00     0.167 HD
ATOM     23  C   UNL A   1      40.031  31.613  34.944  1.00  0.00     0.037 A 
ATOM     24  C   UNL A   1      41.662  27.844  29.122  1.00  0.00     0.037 A 
ATOM     25  C   UNL A   1      41.039  30.624  35.142  1.00  0.00     0.049 A 
ATOM     26  C   UNL A   1      42.347  27.659  30.446  1.00  0.00     0.074 A 
ATOM     27  C   UNL A   1      41.737  30.298  36.284  1.00  0.00     0.029 A 
ATOM     28  N   UNL A   1      41.492  29.800  34.123  1.00  0.00    -0.354 N 
ATOM     29  N   UNL A   1      42.118  28.269  31.588  1.00  0.00    -0.248 NA
ATOM     30  C   UNL A   1      43.402  26.646  30.502  1.00  0.00     0.031 C 
ATOM     31  C   UNL A   1      42.666  29.313  35.934  1.00  0.00     0.029 A 
ATOM     32  C   UNL A   1      42.485  28.977  34.598  1.00  0.00     0.049 A 
ATOM     33  H   UNL A   1      41.154  29.804  33.198  1.00  0.00     0.167 HD
ATOM     34  C   UNL A   1      42.979  27.693  32.507  1.00  0.00     0.074 A 
ATOM     35  C   UNL A   1      43.715  26.668  31.788  1.00  0.00     0.031 C 
ATOM     36  C   UNL A   1      43.163  27.973  33.822  1.00  0.00     0.037 A 
BRANCH  23  37
ATOM     37  C   UNL A   1      39.528  32.438  36.102  1.00  0.00     0.064 A 
ATOM     38  C   UNL A   1      40.133  33.658  36.460  1.00  0.00     0.173 A 
ATOM     39  C   UNL A   1      38.486  31.972  36.916  1.00  0.00     0.173 A 
ATOM     40  F   UNL A   1      41.169  34.131  35.750  1.00  0.00    -0.203 F 
ATOM     41  C   UNL A   1      39.744  34.349  37.606  1.00  0.00     0.198 A 
ATOM     42  C   UNL A   1      38.073  32.686  38.041  1.00  0.00     0.198 A 
ATOM     43  F   UNL A   1      37.882  30.806  36.641  1.00  0.00    -0.203 F 
ATOM     44  F   UNL A   1      40.404  35.457  37.974  1.00  0.00    -0.200 F 
ATOM     45  C   UNL A   1      38.710  33.867  38.392  1.00  0.00     0.200 A 
ATOM     46  F   UNL A   1      37.075  32.217  38.803  1.00  0.00    -0.200 F 
ATOM     47  F   UNL A   1      38.345  34.526  39.501  1.00  0.00    -0.200 F 
ENDBRANCH  23  37
BRANCH  24  48
ATOM     48  C   UNL A   1      42.035  27.081  27.899  1.00  0.00     0.064 A 
ATOM     49  C   UNL A   1      41.457  25.846  27.584  1.00  0.00     0.173 A 
ATOM     50  C   UNL A   1      42.984  27.599  26.999  1.00  0.00     0.173 A 
ATOM     51  F   UNL A   1      40.539  25.307  28.400  1.00  0.00    -0.203 F 
ATOM     52  C   UNL A   1      41.837  25.141  26.441  1.00  0.00     0.198 A 
ATOM     53  C   UNL A   1      43.335  26.913  25.838  1.00  0.00     0.198 A 
ATOM     54  F   UNL A   1      43.555  28.789  27.234  1.00  0.00    -0.203 F 
ATOM     55  F   UNL A   1      41.305  23.937  26.192  1.00  0.00    -0.200 F 
ATOM     56  C   UNL A   1      42.773  25.677  25.568  1.00  0.00     0.200 A 
ATOM     57  F   UNL A   1      44.214  27.453  24.982  1.00  0.00    -0.200 F 
ATOM     58  F   UNL A   1      43.133  25.000  24.468  1.00  0.00    -0.200 F 
ENDBRANCH  24  48
BRANCH  36  59
ATOM     59  C   UNL A   1      44.157  27.137  34.554  1.00  0.00     0.064 A 
ATOM     60  C   UNL A   1      43.798  25.915  35.133  1.00  0.00     0.173 A 
ATOM     61  C   UNL A   1      45.498  27.542  34.617  1.00  0.00     0.173 A 
ATOM     62  F   UNL A   1      42.522  25.496  35.094  1.00  0.00    -0.203 F 
ATOM     63  C   UNL A   1      44.743  25.142  35.793  1.00  0.00     0.198 A 
ATOM     64  C   UNL A   1      46.449  26.743  35.234  1.00  0.00     0.198 A 
ATOM     65  F   UNL A   1      45.885  28.698  34.055  1.00  0.00    -0.203 F 
ATOM     66  F   UNL A   1      44.369  24.009  36.402  1.00  0.00    -0.200 F 
ATOM     67  C   UNL A   1      46.068  25.552  35.834  1.00  0.00     0.200 A 
ATOM     68  F   UNL A   1      47.733  27.123  35.244  1.00  0.00    -0.200 F 
ATOM     69  F   UNL A   1      46.982  24.797  36.458  1.00  0.00    -0.200 F 
ENDBRANCH  36  59
ENDBRANCH  10  11
ENDBRANCH   3   5
ENDBRANCH   2   3
ENDBRANCH   1   2
BRANCH   1  70
ATOM     70  C   UNL A   1      32.092  30.696  26.280  1.00  0.00     0.274 C 
BRANCH  70  71
ATOM     71  O   UNL A   1      32.147  29.538  27.158  1.00  0.00    -0.462 OA
BRANCH  71  72
ATOM     72  C   UNL A   1      31.766  28.216  27.014  1.00  0.00     0.310 C 
ATOM     73  O   UNL A   1      31.018  27.627  27.774  1.00  0.00    -0.252 OA
BRANCH  72  74
ATOM     74  C   UNL A   1      32.467  27.603  25.651  1.00  0.00     0.119 C 
ATOM     75  C   UNL A   1      31.148  27.829  24.550  1.00  0.00     0.019 C 
ATOM     76  C   UNL A   1      33.295  25.890  25.692  1.00  0.00     0.136 C 
ATOM     77  C   UNL A   1      29.800  26.444  24.573  1.00  0.00     0.023 C 
ATOM     78  N   UNL A   1      32.311  24.357  25.617  1.00  0.00    -0.324 N 
ATOM     79  C   UNL A   1      30.543  24.400  24.954  1.00  0.00     0.121 C 
BRANCH  78  80
ATOM     80  C   UNL A   1      32.686  23.346  26.521  1.00  0.00     0.321 C 
ATOM     81  O   UNL A   1      32.132  23.223  27.611  1.00  0.00    -0.248 OA
ATOM     82  N   UNL A   1      33.441  22.323  25.992  1.00  0.00    -0.308 N 
ATOM     83  H   UNL A   1      33.025  21.431  25.997  1.00  0.00     0.171 HD
BRANCH  82  84
ATOM     84  C   UNL A   1      34.732  22.402  25.443  1.00  0.00     0.042 A 
ATOM     85  C   UNL A   1      34.876  22.395  24.046  1.00  0.00     0.026 A 
ATOM     86  C   UNL A   1      35.858  22.533  26.252  1.00  0.00     0.026 A 
ATOM     87  C   UNL A   1      36.133  22.573  23.465  1.00  0.00     0.002 A 
ATOM     88  C   UNL A   1      37.124  22.620  25.669  1.00  0.00     0.002 A 
ATOM     89  C   UNL A   1      37.260  22.655  24.278  1.00  0.00     0.000 A 
ENDBRANCH  82  84
ENDBRANCH  78  80
ENDBRANCH  72  74
ENDBRANCH  71  72
ENDBRANCH  70  71
ENDBRANCH   1  70
TORSDOF 13
ENDMDL
MODEL 3
REMARK VINA RESULT:     -12.3      8.271     12.737
REMARK SMILES O=C(OCCOC(=O)[C@@H]1CCCN(C(=O)Nc2ccccc2)C1)c1ccc(-c2c3nc(c(-c4c(F)c(F)c(F)c(F)c4F)c4ccc([nH]4)c(-c4c(F)c(F)c(F)c(F)c4F)c4nc(c(-c5c(F)c(F)c(F)c(F)c5F)c5ccc2[nH]5)C=C4)C=C3)cc1
REMARK SMILES IDX 4 1 3 2 2 3 1 4 24 5 25 6 86 7 26 8 85 9 27 10 28 11 29 12
REMARK SMILES IDX 79 13 30 14 84 15 78 16 80 17 31 18 83 19 77 20 76 21 32 23
REMARK SMILES IDX 64 24 44 25 63 26 45 27 48 28 62 29 81 30 46 31 47 32 61 34
REMARK SMILES IDX 82 35 49 36 33 37 34 38 42 39 35 40 36 41 40 42 43 43 37 44
REMARK SMILES IDX 38 45 41 46 39 47 65 48 66 49 74 50 67 51 68 52 72 53 75 54
REMARK SMILES IDX 69 55 70 56 73 57 71 58 50 59 51 60 59 61 52 62 53 63 57 64
REMARK SMILES IDX 60 65 54 66 55 67 58 68 56 69 5 70 6 71 7 72 8 73 9 74 10 75
REMARK SMILES IDX 23 76 11 77 13 78 12 79 14 80 15 81 16 82 17 84 18 85 22 86
REMARK SMILES IDX 19 87 21 88 20 89
REMARK H PARENT 80 22 48 33 16 83
REMARK Flexibility Score: inf
ROOT
ATOM      1  C   UNL A   1      43.370  39.407  26.629  1.00  0.00     0.275 C 
ENDROOT
BRANCH   1   2
ATOM      2  O   UNL A   1      44.115  39.067  27.807  1.00  0.00    -0.458 OA
BRANCH   2   3
ATOM      3  C   UNL A   1      45.307  38.446  27.722  1.00  0.00     0.338 C 
ATOM      4  O   UNL A   1      46.352  39.030  27.466  1.00  0.00    -0.246 OA
BRANCH   3   5
ATOM      5  C   UNL A   1      45.302  36.976  27.727  1.00  0.00     0.060 A 
ATOM      6  C   UNL A   1      44.466  35.936  26.704  1.00  0.00     0.016 A 
ATOM      7  C   UNL A   1      45.943  36.320  29.175  1.00  0.00     0.016 A 
ATOM      8  C   UNL A   1      44.188  34.274  27.083  1.00  0.00     0.010 A 
ATOM      9  C   UNL A   1      45.646  34.462  29.711  1.00  0.00     0.010 A 
ATOM     10  C   UNL A   1      44.741  33.457  28.541  1.00  0.00    -0.014 A 
BRANCH  10  11
ATOM     11  C   UNL A   1      44.381  32.025  28.588  1.00  0.00     0.031 A 
ATOM     12  C   UNL A   1      43.044  31.632  29.164  1.00  0.00     0.074 A 
ATOM     13  C   UNL A   1      45.087  31.144  27.859  1.00  0.00     0.049 A 
ATOM     14  N   UNL A   1      42.409  30.488  29.165  1.00  0.00    -0.248 NA
ATOM     15  C   UNL A   1      42.296  32.705  29.823  1.00  0.00     0.031 C 
ATOM     16  C   UNL A   1      46.304  31.437  27.112  1.00  0.00     0.029 A 
ATOM     17  N   UNL A   1      44.852  29.825  27.584  1.00  0.00    -0.354 N 
ATOM     18  C   UNL A   1      41.198  30.733  29.812  1.00  0.00     0.074 A 
ATOM     19  C   UNL A   1      41.218  32.088  30.257  1.00  0.00     0.031 C 
ATOM     20  C   UNL A   1      46.741  30.329  26.499  1.00  0.00     0.029 A 
ATOM     21  C   UNL A   1      45.825  29.246  26.808  1.00  0.00     0.049 A 
ATOM     22  H   UNL A   1      44.061  29.338  27.910  1.00  0.00     0.167 HD
ATOM     23  C   UNL A   1      40.121  29.933  29.983  1.00  0.00     0.037 A 
ATOM     24  C   UNL A   1      45.960  27.974  26.402  1.00  0.00     0.037 A 
ATOM     25  C   UNL A   1      40.120  28.576  29.544  1.00  0.00     0.049 A 
ATOM     26  C   UNL A   1      44.833  27.035  26.721  1.00  0.00     0.074 A 
ATOM     27  C   UNL A   1      39.163  27.598  29.715  1.00  0.00     0.029 A 
ATOM     28  N   UNL A   1      41.174  28.014  28.840  1.00  0.00    -0.354 N 
ATOM     29  N   UNL A   1      43.702  27.282  27.345  1.00  0.00    -0.248 NA
ATOM     30  C   UNL A   1      44.979  25.654  26.260  1.00  0.00     0.031 C 
ATOM     31  C   UNL A   1      39.674  26.419  29.166  1.00  0.00     0.029 A 
ATOM     32  C   UNL A   1      40.909  26.688  28.587  1.00  0.00     0.049 A 
ATOM     33  H   UNL A   1      41.989  28.491  28.563  1.00  0.00     0.167 HD
ATOM     34  C   UNL A   1      42.987  26.096  27.325  1.00  0.00     0.074 A 
ATOM     35  C   UNL A   1      43.808  25.140  26.604  1.00  0.00     0.031 C 
ATOM     36  C   UNL A   1      41.771  25.804  27.852  1.00  0.00     0.037 A 
BRANCH  23  37
ATOM     37  C   UNL A   1      38.920  30.512  30.688  1.00  0.00     0.064 A 
ATOM     38  C   UNL A   1      38.798  30.477  32.090  1.00  0.00     0.173 A 
ATOM     39  C   UNL A   1      37.842  31.033  29.959  1.00  0.00     0.173 A 
ATOM     40  F   UNL A   1      39.775  29.943  32.840  1.00  0.00    -0.203 F 
ATOM     41  C   UNL A   1      37.631  30.899  32.725  1.00  0.00     0.198 A 
ATOM     42  C   UNL A   1      36.691  31.490  30.601  1.00  0.00     0.198 A 
ATOM     43  F   UNL A   1      37.889  31.075  28.619  1.00  0.00    -0.203 F 
ATOM     44  F   UNL A   1      37.506  30.763  34.053  1.00  0.00    -0.200 F 
ATOM     45  C   UNL A   1      36.581  31.412  31.981  1.00  0.00     0.200 A 
ATOM     46  F   UNL A   1      35.674  31.983  29.879  1.00  0.00    -0.200 F 
ATOM     47  F   UNL A   1      35.454  31.806  32.590  1.00  0.00    -0.200 F 
ENDBRANCH  23  37
BRANCH  24  48
ATOM     48  C   UNL A   1      47.196  27.548  25.688  1.00  0.00     0.064 A 
ATOM     49  C   UNL A   1      47.339  27.674  24.302  1.00  0.00     0.173 A 
ATOM     50  C   UNL A   1      48.284  27.014  26.404  1.00  0.00     0.173 A 
ATOM     51  F   UNL A   1      46.339  28.185  23.568  1.00  0.00    -0.203 F 
ATOM     52  C   UNL A   1      48.499  27.250  23.653  1.00  0.00     0.198 A 
ATOM     53  C   UNL A   1      49.457  26.627  25.761  1.00  0.00     0.198 A 
ATOM     54  F   UNL A   1      48.216  26.890  27.737  1.00  0.00    -0.203 F 
ATOM     55  F   UNL A   1      48.588  27.335  22.319  1.00  0.00    -0.200 F 
ATOM     56  C   UNL A   1      49.559  26.731  24.384  1.00  0.00     0.200 A 
ATOM     57  F   UNL A   1      50.488  26.158  26.477  1.00  0.00    -0.200 F 
ATOM     58  F   UNL A   1      50.675  26.329  23.759  1.00  0.00    -0.200 F 
ENDBRANCH  24  48
BRANCH  36  59
ATOM     59  C   UNL A   1      41.257  24.422  27.626  1.00  0.00     0.064 A 
ATOM     60  C   UNL A   1      40.202  24.172  26.741  1.00  0.00     0.173 A 
ATOM     61  C   UNL A   1      41.876  23.335  28.259  1.00  0.00     0.173 A 
ATOM     62  F   UNL A   1      39.585  25.189  26.118  1.00  0.00    -0.203 F 
ATOM     63  C   UNL A   1      39.751  22.876  26.530  1.00  0.00     0.198 A 
ATOM     64  C   UNL A   1      41.455  22.038  28.006  1.00  0.00     0.198 A 
ATOM     65  F   UNL A   1      42.904  23.533  29.098  1.00  0.00    -0.203 F 
ATOM     66  F   UNL A   1      38.696  22.660  25.734  1.00  0.00    -0.200 F 
ATOM     67  C   UNL A   1      40.384  21.810  27.155  1.00  0.00     0.200 A 
ATOM     68  F   UNL A   1      42.088  21.008  28.585  1.00  0.00    -0.200 F 
ATOM     69  F   UNL A   1      39.957  20.560  26.938  1.00  0.00    -0.200 F 
ENDBRANCH  36  59
ENDBRANCH  10  11
ENDBRANCH   3   5
ENDBRANCH   2   3
ENDBRANCH   1   2
BRANCH   1  70
ATOM     70  C   UNL A   1      43.323  40.931  26.346  1.00  0.00     0.274 C 
BRANCH  70  71
ATOM     71  O   UNL A   1      42.856  41.281  25.014  1.00  0.00    -0.462 OA
BRANCH  71  72
ATOM     72  C   UNL A   1      43.224  42.253  24.101  1.00  0.00     0.310 C 
ATOM     73  O   UNL A   1      42.468  42.763  23.294  1.00  0.00    -0.252 OA
BRANCH  72  74
ATOM     74  C   UNL A   1      44.822  42.609  24.314  1.00  0.00     0.119 C 
ATOM     75  C   UNL A   1      44.653  44.186  25.009  1.00  0.00     0.019 C 
ATOM     76  C   UNL A   1      46.043  42.411  22.867  1.00  0.00     0.136 C 
ATOM     77  C   UNL A   1      44.421  45.631  23.747  1.00  0.00     0.023 C 
ATOM     78  N   UNL A   1      46.161  43.662  21.545  1.00  0.00    -0.324 N 
ATOM     79  C   UNL A   1      45.508  45.410  21.838  1.00  0.00     0.121 C 
BRANCH  78  80
ATOM     80  C   UNL A   1      46.229  43.159  20.233  1.00  0.00     0.321 C 
ATOM     81  O   UNL A   1      47.302  42.842  19.724  1.00  0.00    -0.248 OA
ATOM     82  N   UNL A   1      45.037  42.729  19.697  1.00  0.00    -0.308 N 
ATOM     83  H   UNL A   1      44.976  41.769  19.489  1.00  0.00     0.171 HD
BRANCH  82  84
ATOM     84  C   UNL A   1      43.895  43.497  19.411  1.00  0.00     0.042 A 
ATOM     85  C   UNL A   1      44.035  44.653  18.625  1.00  0.00     0.026 A 
ATOM     86  C   UNL A   1      42.631  43.111  19.849  1.00  0.00     0.026 A 
ATOM     87  C   UNL A   1      42.910  45.384  18.237  1.00  0.00     0.002 A 
ATOM     88  C   UNL A   1      41.518  43.894  19.534  1.00  0.00     0.002 A 
ATOM     89  C   UNL A   1      41.656  45.021  18.718  1.00  0.00     0.000 A 
ENDBRANCH  82  84
ENDBRANCH  78  80
ENDBRANCH  72  74
ENDBRANCH  71  72
ENDBRANCH  70  71
ENDBRANCH   1  70
TORSDOF 13
ENDMDL
