MODEL 1
REMARK VINA RESULT:     -12.2      0.000      0.000
REMARK SMILES O=C(Cn1nc(-c2ccccc2)ccc1=O)N[C@@H](C(=O)OCCOC(=O)c1ccc(-c2c3nc(c(-c4c(F)c(F)c(F)c(F)c4F)c4ccc([nH]4)c(-c4c(F)c(F)c(F)c(F)c4F)c4nc(c(-c5c(F)c(F)c(F)c(F)c5F)c5ccc2[nH]5)C=C4)C=C3)cc1)c1ccccc1
REMARK SMILES IDX 22 1 21 2 19 3 20 4 18 5 17 6 1 7 2 8 3 10 4 11 5 12 15 13
REMARK SMILES IDX 6 14 14 15 16 16 13 17 7 18 8 19 12 20 9 21 11 22 10 23
REMARK SMILES IDX 90 24 91 25 95 26 92 27 94 28 93 29 23 30 24 31 25 32 26 33
REMARK SMILES IDX 27 34 28 35 89 36 29 37 88 38 30 39 31 40 32 41 82 42 33 43
REMARK SMILES IDX 87 44 81 45 83 46 34 47 86 48 80 49 79 50 35 52 67 53 47 54
REMARK SMILES IDX 66 55 48 56 51 57 65 58 84 59 49 60 50 61 64 63 85 64 52 65
REMARK SMILES IDX 36 66 37 67 45 68 38 69 39 70 43 71 46 72 40 73 41 74 44 75
REMARK SMILES IDX 42 76 68 77 69 78 77 79 70 80 71 81 75 82 78 83 72 84 73 85
REMARK SMILES IDX 76 86 74 87 53 88 54 89 62 90 55 91 56 92 60 93 63 94 57 95
REMARK SMILES IDX 58 96 61 97 59 98
REMARK H PARENT 17 9 83 51 51 62
REMARK Flexibility Score: inf
ROOT
ATOM      1  C   UNL A   1      35.374  21.070  24.670  1.00  0.00     0.274 C 
ENDROOT
BRANCH   1   2
ATOM      2  O   UNL A   1      35.148  22.490  24.756  1.00  0.00    -0.460 OA
BRANCH   2   3
ATOM      3  C   UNL A   1      34.958  23.166  23.580  1.00  0.00     0.333 C 
ATOM      4  O   UNL A   1      35.850  23.319  22.752  1.00  0.00    -0.249 OA
BRANCH   3   5
ATOM      5  C   UNL A   1      33.529  23.784  23.485  1.00  0.00     0.223 C 
BRANCH   5   6
ATOM      6  N   UNL A   1      33.626  25.222  23.217  1.00  0.00    -0.337 N 
ATOM      7  O   UNL A   1      32.865  25.144  21.062  1.00  0.00    -0.273 OA
ATOM      8  C   UNL A   1      33.279  25.797  22.016  1.00  0.00     0.242 C 
ATOM      9  H   UNL A   1      33.959  25.808  23.934  1.00  0.00     0.164 HD
BRANCH   8  10
ATOM     10  C   UNL A   1      33.505  27.308  21.949  1.00  0.00     0.248 C 
BRANCH  10  11
ATOM     11  N   UNL A   1      32.774  27.991  23.014  1.00  0.00    -0.220 N 
ATOM     12  N   UNL A   1      33.529  28.466  24.069  1.00  0.00    -0.169 NA
ATOM     13  C   UNL A   1      31.393  28.109  22.935  1.00  0.00     0.267 A 
ATOM     14  C   UNL A   1      32.897  29.021  25.054  1.00  0.00     0.091 A 
ATOM     15  C   UNL A   1      30.732  28.777  24.077  1.00  0.00     0.075 A 
ATOM     16  O   UNL A   1      30.700  27.717  22.001  1.00  0.00    -0.268 OA
ATOM     17  C   UNL A   1      31.436  29.216  25.121  1.00  0.00     0.036 A 
BRANCH  14  18
ATOM     18  C   UNL A   1      33.666  29.520  26.209  1.00  0.00     0.002 A 
ATOM     19  C   UNL A   1      33.283  30.724  26.804  1.00  0.00     0.010 A 
ATOM     20  C   UNL A   1      34.785  28.818  26.671  1.00  0.00     0.010 A 
ATOM     21  C   UNL A   1      34.010  31.217  27.886  1.00  0.00     0.001 A 
ATOM     22  C   UNL A   1      35.518  29.327  27.743  1.00  0.00     0.001 A 
ATOM     23  C   UNL A   1      35.126  30.520  28.353  1.00  0.00     0.000 A 
ENDBRANCH  14  18
ENDBRANCH  10  11
ENDBRANCH   8  10
ENDBRANCH   5   6
BRANCH   5  24
ATOM     24  C   UNL A   1      32.606  23.506  24.683  1.00  0.00    -0.014 A 
ATOM     25  C   UNL A   1      31.695  22.434  24.691  1.00  0.00     0.006 A 
ATOM     26  C   UNL A   1      32.568  24.381  25.788  1.00  0.00     0.006 A 
ATOM     27  C   UNL A   1      30.846  22.204  25.780  1.00  0.00     0.000 A 
ATOM     28  C   UNL A   1      31.716  24.155  26.874  1.00  0.00     0.000 A 
ATOM     29  C   UNL A   1      30.863  23.058  26.876  1.00  0.00     0.000 A 
ENDBRANCH   5  24
ENDBRANCH   3   5
ENDBRANCH   2   3
ENDBRANCH   1   2
BRANCH   1  30
ATOM     30  C   UNL A   1      36.837  20.740  24.978  1.00  0.00     0.275 C 
BRANCH  30  31
ATOM     31  O   UNL A   1      37.433  21.748  25.816  1.00  0.00    -0.458 OA
BRANCH  31  32
ATOM     32  C   UNL A   1      38.737  21.550  26.129  1.00  0.00     0.338 C 
ATOM     33  O   UNL A   1      39.376  20.519  25.988  1.00  0.00    -0.246 OA
BRANCH  32  34
ATOM     34  C   UNL A   1      39.352  22.841  26.500  1.00  0.00     0.060 A 
ATOM     35  C   UNL A   1      38.892  24.068  26.010  1.00  0.00     0.016 A 
ATOM     36  C   UNL A   1      40.458  22.801  27.353  1.00  0.00     0.016 A 
ATOM     37  C   UNL A   1      39.570  25.247  26.343  1.00  0.00     0.010 A 
ATOM     38  C   UNL A   1      41.150  23.969  27.660  1.00  0.00     0.010 A 
ATOM     39  C   UNL A   1      40.718  25.197  27.148  1.00  0.00    -0.014 A 
BRANCH  39  40
ATOM     40  C   UNL A   1      41.445  26.430  27.520  1.00  0.00     0.031 A 
ATOM     41  C   UNL A   1      42.864  26.650  27.092  1.00  0.00     0.074 A 
ATOM     42  C   UNL A   1      40.831  27.328  28.309  1.00  0.00     0.049 A 
ATOM     43  N   UNL A   1      43.618  27.707  27.260  1.00  0.00    -0.248 NA
ATOM     44  C   UNL A   1      43.528  25.536  26.398  1.00  0.00     0.031 C 
ATOM     45  C   UNL A   1      39.475  27.187  28.838  1.00  0.00     0.029 A 
ATOM     46  N   UNL A   1      41.268  28.525  28.814  1.00  0.00    -0.354 N 
ATOM     47  C   UNL A   1      44.833  27.404  26.661  1.00  0.00     0.074 A 
ATOM     48  C   UNL A   1      44.735  26.042  26.177  1.00  0.00     0.031 C 
ATOM     49  C   UNL A   1      39.192  28.253  29.602  1.00  0.00     0.029 A 
ATOM     50  C   UNL A   1      40.342  29.157  29.602  1.00  0.00     0.049 A 
ATOM     51  H   UNL A   1      42.162  28.894  28.628  1.00  0.00     0.167 HD
ATOM     52  C   UNL A   1      45.915  28.206  26.513  1.00  0.00     0.037 A 
ATOM     53  C   UNL A   1      40.404  30.342  30.237  1.00  0.00     0.037 A 
ATOM     54  C   UNL A   1      46.006  29.552  27.022  1.00  0.00     0.049 A 
ATOM     55  C   UNL A   1      41.622  31.206  30.071  1.00  0.00     0.074 A 
ATOM     56  C   UNL A   1      47.028  30.471  26.852  1.00  0.00     0.029 A 
ATOM     57  N   UNL A   1      45.049  30.165  27.818  1.00  0.00    -0.354 N 
ATOM     58  N   UNL A   1      42.714  30.970  29.387  1.00  0.00    -0.248 NA
ATOM     59  C   UNL A   1      41.604  32.513  30.742  1.00  0.00     0.031 C 
ATOM     60  C   UNL A   1      46.715  31.618  27.589  1.00  0.00     0.029 A 
ATOM     61  C   UNL A   1      45.474  31.436  28.175  1.00  0.00     0.049 A 
ATOM     62  H   UNL A   1      44.195  29.757  28.089  1.00  0.00     0.167 HD
ATOM     63  C   UNL A   1      43.501  32.104  29.521  1.00  0.00     0.074 A 
ATOM     64  C   UNL A   1      42.756  33.035  30.343  1.00  0.00     0.031 C 
ATOM     65  C   UNL A   1      44.730  32.352  29.003  1.00  0.00     0.037 A 
BRANCH  52  66
ATOM     66  C   UNL A   1      47.089  27.674  25.743  1.00  0.00     0.064 A 
ATOM     67  C   UNL A   1      47.132  27.752  24.343  1.00  0.00     0.173 A 
ATOM     68  C   UNL A   1      48.227  27.194  26.409  1.00  0.00     0.173 A 
ATOM     69  F   UNL A   1      46.070  28.203  23.660  1.00  0.00    -0.203 F 
ATOM     70  C   UNL A   1      48.268  27.363  23.638  1.00  0.00     0.198 A 
ATOM     71  C   UNL A   1      49.371  26.830  25.702  1.00  0.00     0.198 A 
ATOM     72  F   UNL A   1      48.244  27.111  27.749  1.00  0.00    -0.203 F 
ATOM     73  F   UNL A   1      48.280  27.432  22.299  1.00  0.00    -0.200 F 
ATOM     74  C   UNL A   1      49.390  26.914  24.318  1.00  0.00     0.200 A 
ATOM     75  F   UNL A   1      50.461  26.415  26.361  1.00  0.00    -0.200 F 
ATOM     76  F   UNL A   1      50.492  26.567  23.639  1.00  0.00    -0.200 F 
ENDBRANCH  52  66
BRANCH  53  77
ATOM     77  C   UNL A   1      39.230  30.804  31.015  1.00  0.00     0.064 A 
ATOM     78  C   UNL A   1      38.219  31.554  30.402  1.00  0.00     0.173 A 
ATOM     79  C   UNL A   1      39.069  30.461  32.364  1.00  0.00     0.173 A 
ATOM     80  F   UNL A   1      38.339  31.913  29.115  1.00  0.00    -0.203 F 
ATOM     81  C   UNL A   1      37.088  31.950  31.111  1.00  0.00     0.198 A 
ATOM     82  C   UNL A   1      37.928  30.839  33.068  1.00  0.00     0.198 A 
ATOM     83  F   UNL A   1      40.005  29.731  32.990  1.00  0.00    -0.203 F 
ATOM     84  F   UNL A   1      36.144  32.683  30.506  1.00  0.00    -0.200 F 
ATOM     85  C   UNL A   1      36.940  31.586  32.441  1.00  0.00     0.200 A 
ATOM     86  F   UNL A   1      37.778  30.471  34.347  1.00  0.00    -0.200 F 
ATOM     87  F   UNL A   1      35.843  31.952  33.119  1.00  0.00    -0.200 F 
ENDBRANCH  53  77
BRANCH  65  88
ATOM     88  C   UNL A   1      45.351  33.686  29.300  1.00  0.00     0.064 A 
ATOM     89  C   UNL A   1      46.197  33.869  30.404  1.00  0.00     0.173 A 
ATOM     90  C   UNL A   1      45.146  34.777  28.442  1.00  0.00     0.173 A 
ATOM     91  F   UNL A   1      46.413  32.862  31.262  1.00  0.00    -0.203 F 
ATOM     92  C   UNL A   1      46.802  35.101  30.645  1.00  0.00     0.198 A 
ATOM     93  C   UNL A   1      45.774  35.998  28.671  1.00  0.00     0.198 A 
ATOM     94  F   UNL A   1      44.351  34.653  27.369  1.00  0.00    -0.203 F 
ATOM     95  F   UNL A   1      47.576  35.263  31.728  1.00  0.00    -0.200 F 
ATOM     96  C   UNL A   1      46.597  36.161  29.775  1.00  0.00     0.200 A 
ATOM     97  F   UNL A   1      45.586  37.018  27.821  1.00  0.00    -0.200 F 
ATOM     98  F   UNL A   1      47.189  37.341  30.003  1.00  0.00    -0.200 F 
ENDBRANCH  65  88
ENDBRANCH  39  40
ENDBRANCH  32  34
ENDBRANCH  31  32
ENDBRANCH  30  31
ENDBRANCH   1  30
TORSDOF 16
ENDMDL
MODEL 2
REMARK VINA RESULT:     -12.2      4.253      9.120
REMARK SMILES O=C(Cn1nc(-c2ccccc2)ccc1=O)N[C@@H](C(=O)OCCOC(=O)c1ccc(-c2c3nc(c(-c4c(F)c(F)c(F)c(F)c4F)c4ccc([nH]4)c(-c4c(F)c(F)c(F)c(F)c4F)c4nc(c(-c5c(F)c(F)c(F)c(F)c5F)c5ccc2[nH]5)C=C4)C=C3)cc1)c1ccccc1
REMARK SMILES IDX 22 1 21 2 19 3 20 4 18 5 17 6 1 7 2 8 3 10 4 11 5 12 15 13
REMARK SMILES IDX 6 14 14 15 16 16 13 17 7 18 8 19 12 20 9 21 11 22 10 23
REMARK SMILES IDX 90 24 91 25 95 26 92 27 94 28 93 29 23 30 24 31 25 32 26 33
REMARK SMILES IDX 27 34 28 35 89 36 29 37 88 38 30 39 31 40 32 41 82 42 33 43
REMARK SMILES IDX 87 44 81 45 83 46 34 47 86 48 80 49 79 50 35 52 67 53 47 54
REMARK SMILES IDX 66 55 48 56 51 57 65 58 84 59 49 60 50 61 64 63 85 64 52 65
REMARK SMILES IDX 36 66 37 67 45 68 38 69 39 70 43 71 46 72 40 73 41 74 44 75
REMARK SMILES IDX 42 76 68 77 69 78 77 79 70 80 71 81 75 82 78 83 72 84 73 85
REMARK SMILES IDX 76 86 74 87 53 88 54 89 62 90 55 91 56 92 60 93 63 94 57 95
REMARK SMILES IDX 58 96 61 97 59 98
REMARK H PARENT 17 9 83 51 51 62
REMARK Flexibility Score: inf
ROOT
ATOM      1  C   UNL A   1      31.984  29.339  25.876  1.00  0.00     0.274 C 
ENDROOT
BRANCH   1   2
ATOM      2  O   UNL A   1      32.977  28.742  25.019  1.00  0.00    -0.460 OA
BRANCH   2   3
ATOM      3  C   UNL A   1      33.798  27.797  25.574  1.00  0.00     0.333 C 
ATOM      4  O   UNL A   1      34.385  27.973  26.637  1.00  0.00    -0.249 OA
BRANCH   3   5
ATOM      5  C   UNL A   1      33.960  26.549  24.654  1.00  0.00     0.223 C 
BRANCH   5   6
ATOM      6  N   UNL A   1      32.889  26.528  23.653  1.00  0.00    -0.337 N 
ATOM      7  O   UNL A   1      34.103  25.542  21.985  1.00  0.00    -0.273 OA
ATOM      8  C   UNL A   1      33.044  26.017  22.385  1.00  0.00     0.242 C 
ATOM      9  H   UNL A   1      32.013  26.900  23.901  1.00  0.00     0.164 HD
BRANCH   8  10
ATOM     10  C   UNL A   1      31.805  26.141  21.498  1.00  0.00     0.248 C 
BRANCH  10  11
ATOM     11  N   UNL A   1      30.676  26.680  22.253  1.00  0.00    -0.220 N 
ATOM     12  N   UNL A   1      30.371  28.009  22.035  1.00  0.00    -0.169 NA
ATOM     13  C   UNL A   1      29.994  25.866  23.148  1.00  0.00     0.267 A 
ATOM     14  C   UNL A   1      29.415  28.526  22.738  1.00  0.00     0.091 A 
ATOM     15  C   UNL A   1      28.894  26.506  23.900  1.00  0.00     0.075 A 
ATOM     16  O   UNL A   1      30.228  24.677  23.345  1.00  0.00    -0.268 OA
ATOM     17  C   UNL A   1      28.601  27.796  23.729  1.00  0.00     0.036 A 
BRANCH  14  18
ATOM     18  C   UNL A   1      29.075  29.950  22.551  1.00  0.00     0.002 A 
ATOM     19  C   UNL A   1      29.195  30.819  23.637  1.00  0.00     0.010 A 
ATOM     20  C   UNL A   1      28.602  30.408  21.317  1.00  0.00     0.010 A 
ATOM     21  C   UNL A   1      28.862  32.163  23.481  1.00  0.00     0.001 A 
ATOM     22  C   UNL A   1      28.254  31.751  21.173  1.00  0.00     0.001 A 
ATOM     23  C   UNL A   1      28.391  32.627  22.250  1.00  0.00     0.000 A 
ENDBRANCH  14  18
ENDBRANCH  10  11
ENDBRANCH   8  10
ENDBRANCH   5   6
BRANCH   5  24
ATOM     24  C   UNL A   1      34.064  25.199  25.382  1.00  0.00    -0.014 A 
ATOM     25  C   UNL A   1      32.991  24.659  26.114  1.00  0.00     0.006 A 
ATOM     26  C   UNL A   1      35.284  24.491  25.426  1.00  0.00     0.006 A 
ATOM     27  C   UNL A   1      33.106  23.439  26.790  1.00  0.00     0.000 A 
ATOM     28  C   UNL A   1      35.401  23.274  26.105  1.00  0.00     0.000 A 
ATOM     29  C   UNL A   1      34.308  22.741  26.777  1.00  0.00     0.000 A 
ENDBRANCH   5  24
ENDBRANCH   3   5
ENDBRANCH   2   3
ENDBRANCH   1   2
BRANCH   1  30
ATOM     30  C   UNL A   1      32.367  30.781  26.218  1.00  0.00     0.275 C 
BRANCH  30  31
ATOM     31  O   UNL A   1      33.095  30.845  27.459  1.00  0.00    -0.458 OA
BRANCH  31  32
ATOM     32  C   UNL A   1      33.885  31.936  27.616  1.00  0.00     0.338 C 
ATOM     33  O   UNL A   1      33.577  33.100  27.408  1.00  0.00    -0.246 OA
BRANCH  32  34
ATOM     34  C   UNL A   1      35.148  31.535  28.270  1.00  0.00     0.060 A 
ATOM     35  C   UNL A   1      36.328  32.278  28.157  1.00  0.00     0.016 A 
ATOM     36  C   UNL A   1      35.141  30.343  28.998  1.00  0.00     0.016 A 
ATOM     37  C   UNL A   1      37.508  31.800  28.740  1.00  0.00     0.010 A 
ATOM     38  C   UNL A   1      36.320  29.852  29.551  1.00  0.00     0.010 A 
ATOM     39  C   UNL A   1      37.513  30.570  29.416  1.00  0.00    -0.014 A 
BRANCH  39  40
ATOM     40  C   UNL A   1      38.745  30.049  30.046  1.00  0.00     0.031 A 
ATOM     41  C   UNL A   1      39.242  30.602  31.347  1.00  0.00     0.074 A 
ATOM     42  C   UNL A   1      39.454  29.110  29.397  1.00  0.00     0.049 A 
ATOM     43  N   UNL A   1      40.254  30.204  32.075  1.00  0.00    -0.248 NA
ATOM     44  C   UNL A   1      38.520  31.760  31.894  1.00  0.00     0.031 C 
ATOM     45  C   UNL A   1      39.099  28.546  28.096  1.00  0.00     0.029 A 
ATOM     46  N   UNL A   1      40.622  28.476  29.733  1.00  0.00    -0.354 N 
ATOM     47  C   UNL A   1      40.270  31.035  33.187  1.00  0.00     0.074 A 
ATOM     48  C   UNL A   1      39.203  31.998  33.008  1.00  0.00     0.031 C 
ATOM     49  C   UNL A   1      40.035  27.653  27.737  1.00  0.00     0.029 A 
ATOM     50  C   UNL A   1      41.045  27.575  28.791  1.00  0.00     0.049 A 
ATOM     51  H   UNL A   1      41.108  28.653  30.571  1.00  0.00     0.167 HD
ATOM     52  C   UNL A   1      41.090  30.975  34.263  1.00  0.00     0.037 A 
ATOM     53  C   UNL A   1      42.117  26.760  28.789  1.00  0.00     0.037 A 
ATOM     54  C   UNL A   1      42.165  30.025  34.416  1.00  0.00     0.049 A 
ATOM     55  C   UNL A   1      43.021  26.724  29.987  1.00  0.00     0.074 A 
ATOM     56  C   UNL A   1      42.998  29.834  35.507  1.00  0.00     0.029 A 
ATOM     57  N   UNL A   1      42.570  29.124  33.443  1.00  0.00    -0.354 N 
ATOM     58  N   UNL A   1      42.949  27.417  31.096  1.00  0.00    -0.248 NA
ATOM     59  C   UNL A   1      44.139  25.772  29.945  1.00  0.00     0.031 C 
ATOM     60  C   UNL A   1      43.940  28.855  35.172  1.00  0.00     0.029 A 
ATOM     61  C   UNL A   1      43.662  28.398  33.895  1.00  0.00     0.049 A 
ATOM     62  H   UNL A   1      42.145  29.015  32.562  1.00  0.00     0.167 HD
ATOM     63  C   UNL A   1      43.991  26.970  31.895  1.00  0.00     0.074 A 
ATOM     64  C   UNL A   1      44.676  25.935  31.147  1.00  0.00     0.031 C 
ATOM     65  C   UNL A   1      44.344  27.377  33.140  1.00  0.00     0.037 A 
BRANCH  52  66
ATOM     66  C   UNL A   1      40.851  31.940  35.389  1.00  0.00     0.064 A 
ATOM     67  C   UNL A   1      41.593  33.125  35.497  1.00  0.00     0.173 A 
ATOM     68  C   UNL A   1      39.797  31.740  36.293  1.00  0.00     0.173 A 
ATOM     69  F   UNL A   1      42.611  33.363  34.657  1.00  0.00    -0.203 F 
ATOM     70  C   UNL A   1      41.294  34.072  36.474  1.00  0.00     0.198 A 
ATOM     71  C   UNL A   1      39.485  32.702  37.253  1.00  0.00     0.198 A 
ATOM     72  F   UNL A   1      39.047  30.629  36.226  1.00  0.00    -0.203 F 
ATOM     73  F   UNL A   1      42.028  35.190  36.568  1.00  0.00    -0.200 F 
ATOM     74  C   UNL A   1      40.234  33.864  37.342  1.00  0.00     0.200 A 
ATOM     75  F   UNL A   1      38.447  32.509  38.079  1.00  0.00    -0.200 F 
ATOM     76  F   UNL A   1      39.930  34.790  38.263  1.00  0.00    -0.200 F 
ENDBRANCH  52  66
BRANCH  53  77
ATOM     77  C   UNL A   1      42.328  25.854  27.635  1.00  0.00     0.064 A 
ATOM     78  C   UNL A   1      43.292  26.151  26.663  1.00  0.00     0.173 A 
ATOM     79  C   UNL A   1      41.614  24.655  27.508  1.00  0.00     0.173 A 
ATOM     80  F   UNL A   1      43.989  27.294  26.740  1.00  0.00    -0.203 F 
ATOM     81  C   UNL A   1      43.533  25.282  25.602  1.00  0.00     0.198 A 
ATOM     82  C   UNL A   1      41.870  23.776  26.459  1.00  0.00     0.198 A 
ATOM     83  F   UNL A   1      40.690  24.321  28.422  1.00  0.00    -0.203 F 
ATOM     84  F   UNL A   1      44.448  25.598  24.676  1.00  0.00    -0.200 F 
ATOM     85  C   UNL A   1      42.827  24.092  25.505  1.00  0.00     0.200 A 
ATOM     86  F   UNL A   1      41.201  22.618  26.377  1.00  0.00    -0.200 F 
ATOM     87  F   UNL A   1      43.073  23.248  24.494  1.00  0.00    -0.200 F 
ENDBRANCH  53  77
BRANCH  65  88
ATOM     88  C   UNL A   1      45.521  26.702  33.782  1.00  0.00     0.064 A 
ATOM     89  C   UNL A   1      46.816  27.226  33.669  1.00  0.00     0.173 A 
ATOM     90  C   UNL A   1      45.343  25.553  34.568  1.00  0.00     0.173 A 
ATOM     91  F   UNL A   1      47.041  28.314  32.918  1.00  0.00    -0.203 F 
ATOM     92  C   UNL A   1      47.894  26.615  34.306  1.00  0.00     0.198 A 
ATOM     93  C   UNL A   1      46.418  24.960  35.225  1.00  0.00     0.198 A 
ATOM     94  F   UNL A   1      44.123  25.015  34.714  1.00  0.00    -0.203 F 
ATOM     95  F   UNL A   1      49.130  27.111  34.152  1.00  0.00    -0.200 F 
ATOM     96  C   UNL A   1      47.693  25.488  35.090  1.00  0.00     0.200 A 
ATOM     97  F   UNL A   1      46.221  23.880  35.994  1.00  0.00    -0.200 F 
ATOM     98  F   UNL A   1      48.729  24.909  35.710  1.00  0.00    -0.200 F 
ENDBRANCH  65  88
ENDBRANCH  39  40
ENDBRANCH  32  34
ENDBRANCH  31  32
ENDBRANCH  30  31
ENDBRANCH   1  30
TORSDOF 16
ENDMDL
MODEL 3
REMARK VINA RESULT:     -12.0      4.399      9.950
REMARK SMILES O=C(Cn1nc(-c2ccccc2)ccc1=O)N[C@@H](C(=O)OCCOC(=O)c1ccc(-c2c3nc(c(-c4c(F)c(F)c(F)c(F)c4F)c4ccc([nH]4)c(-c4c(F)c(F)c(F)c(F)c4F)c4nc(c(-c5c(F)c(F)c(F)c(F)c5F)c5ccc2[nH]5)C=C4)C=C3)cc1)c1ccccc1
REMARK SMILES IDX 22 1 21 2 19 3 20 4 18 5 17 6 1 7 2 8 3 10 4 11 5 12 15 13
REMARK SMILES IDX 6 14 14 15 16 16 13 17 7 18 8 19 12 20 9 21 11 22 10 23
REMARK SMILES IDX 90 24 91 25 95 26 92 27 94 28 93 29 23 30 24 31 25 32 26 33
REMARK SMILES IDX 27 34 28 35 89 36 29 37 88 38 30 39 31 40 32 41 82 42 33 43
REMARK SMILES IDX 87 44 81 45 83 46 34 47 86 48 80 49 79 50 35 52 67 53 47 54
REMARK SMILES IDX 66 55 48 56 51 57 65 58 84 59 49 60 50 61 64 63 85 64 52 65
REMARK SMILES IDX 36 66 37 67 45 68 38 69 39 70 43 71 46 72 40 73 41 74 44 75
REMARK SMILES IDX 42 76 68 77 69 78 77 79 70 80 71 81 75 82 78 83 72 84 73 85
REMARK SMILES IDX 76 86 74 87 53 88 54 89 62 90 55 91 56 92 60 93 63 94 57 95
REMARK SMILES IDX 58 96 61 97 59 98
REMARK H PARENT 17 9 83 51 51 62
REMARK Flexibility Score: inf
ROOT
ATOM      1  C   UNL A   1      32.207  30.776  26.496  1.00  0.00     0.274 C 
ENDROOT
BRANCH   1   2
ATOM      2  O   UNL A   1      32.946  29.773  25.773  1.00  0.00    -0.460 OA
BRANCH   2   3
ATOM      3  C   UNL A   1      32.435  29.365  24.569  1.00  0.00     0.333 C 
ATOM      4  O   UNL A   1      33.113  29.304  23.548  1.00  0.00    -0.249 OA
BRANCH   3   5
ATOM      5  C   UNL A   1      30.902  29.094  24.646  1.00  0.00     0.223 C 
BRANCH   5   6
ATOM      6  N   UNL A   1      30.639  27.664  24.458  1.00  0.00    -0.337 N 
ATOM      7  O   UNL A   1      30.918  27.051  26.643  1.00  0.00    -0.273 OA
ATOM      8  C   UNL A   1      30.663  26.745  25.481  1.00  0.00     0.242 C 
ATOM      9  H   UNL A   1      30.436  27.344  23.550  1.00  0.00     0.164 HD
BRANCH   8  10
ATOM     10  C   UNL A   1      30.403  25.303  25.043  1.00  0.00     0.248 C 
BRANCH  10  11
ATOM     11  N   UNL A   1      31.326  24.384  25.705  1.00  0.00    -0.220 N 
ATOM     12  N   UNL A   1      32.608  24.327  25.194  1.00  0.00    -0.169 NA
ATOM     13  C   UNL A   1      30.882  23.612  26.771  1.00  0.00     0.267 A 
ATOM     14  C   UNL A   1      33.425  23.474  25.725  1.00  0.00     0.091 A 
ATOM     15  C   UNL A   1      31.870  22.678  27.352  1.00  0.00     0.075 A 
ATOM     16  O   UNL A   1      29.757  23.658  27.260  1.00  0.00    -0.268 OA
ATOM     17  C   UNL A   1      33.104  22.583  26.856  1.00  0.00     0.036 A 
BRANCH  14  18
ATOM     18  C   UNL A   1      34.796  23.367  25.191  1.00  0.00     0.002 A 
ATOM     19  C   UNL A   1      35.873  23.576  26.055  1.00  0.00     0.010 A 
ATOM     20  C   UNL A   1      35.009  23.104  23.834  1.00  0.00     0.010 A 
ATOM     21  C   UNL A   1      37.175  23.495  25.562  1.00  0.00     0.001 A 
ATOM     22  C   UNL A   1      36.314  23.042  23.344  1.00  0.00     0.001 A 
ATOM     23  C   UNL A   1      37.394  23.230  24.209  1.00  0.00     0.000 A 
ENDBRANCH  14  18
ENDBRANCH  10  11
ENDBRANCH   8  10
ENDBRANCH   5   6
BRANCH   5  24
ATOM     24  C   UNL A   1      30.031  29.945  23.708  1.00  0.00    -0.014 A 
ATOM     25  C   UNL A   1      29.504  31.189  24.101  1.00  0.00     0.006 A 
ATOM     26  C   UNL A   1      29.642  29.461  22.441  1.00  0.00     0.006 A 
ATOM     27  C   UNL A   1      28.695  31.945  23.244  1.00  0.00     0.000 A 
ATOM     28  C   UNL A   1      28.830  30.213  21.587  1.00  0.00     0.000 A 
ATOM     29  C   UNL A   1      28.366  31.462  21.983  1.00  0.00     0.000 A 
ENDBRANCH   5  24
ENDBRANCH   3   5
ENDBRANCH   2   3
ENDBRANCH   1   2
BRANCH   1  30
ATOM     30  C   UNL A   1      33.142  31.587  27.396  1.00  0.00     0.275 C 
BRANCH  30  31
ATOM     31  O   UNL A   1      33.025  32.998  27.133  1.00  0.00    -0.458 OA
BRANCH  31  32
ATOM     32  C   UNL A   1      33.332  33.813  28.172  1.00  0.00     0.338 C 
ATOM     33  O   UNL A   1      32.641  34.711  28.627  1.00  0.00    -0.246 OA
BRANCH  32  34
ATOM     34  C   UNL A   1      34.570  33.333  28.821  1.00  0.00     0.060 A 
ATOM     35  C   UNL A   1      35.847  33.682  28.368  1.00  0.00     0.016 A 
ATOM     36  C   UNL A   1      34.428  32.470  29.911  1.00  0.00     0.016 A 
ATOM     37  C   UNL A   1      36.977  33.130  28.983  1.00  0.00     0.010 A 
ATOM     38  C   UNL A   1      35.550  31.898  30.503  1.00  0.00     0.010 A 
ATOM     39  C   UNL A   1      36.831  32.215  30.036  1.00  0.00    -0.014 A 
BRANCH  39  40
ATOM     40  C   UNL A   1      38.010  31.626  30.706  1.00  0.00     0.031 A 
ATOM     41  C   UNL A   1      38.448  32.099  32.058  1.00  0.00     0.074 A 
ATOM     42  C   UNL A   1      38.727  30.697  30.050  1.00  0.00     0.049 A 
ATOM     43  N   UNL A   1      39.405  31.634  32.820  1.00  0.00    -0.248 NA
ATOM     44  C   UNL A   1      37.729  33.251  32.623  1.00  0.00     0.031 C 
ATOM     45  C   UNL A   1      38.431  30.208  28.705  1.00  0.00     0.029 A 
ATOM     46  N   UNL A   1      39.856  30.012  30.418  1.00  0.00    -0.354 N 
ATOM     47  C   UNL A   1      39.383  32.410  33.971  1.00  0.00     0.074 A 
ATOM     48  C   UNL A   1      38.355  33.413  33.782  1.00  0.00     0.031 C 
ATOM     49  C   UNL A   1      39.360  29.306  28.354  1.00  0.00     0.029 A 
ATOM     50  C   UNL A   1      40.306  29.144  29.457  1.00  0.00     0.049 A 
ATOM     51  H   UNL A   1      40.299  30.132  31.289  1.00  0.00     0.167 HD
ATOM     52  C   UNL A   1      40.139  32.272  35.087  1.00  0.00     0.037 A 
ATOM     53  C   UNL A   1      41.352  28.298  29.472  1.00  0.00     0.037 A 
ATOM     54  C   UNL A   1      41.175  31.283  35.251  1.00  0.00     0.049 A 
ATOM     55  C   UNL A   1      42.186  28.175  30.716  1.00  0.00     0.074 A 
ATOM     56  C   UNL A   1      41.939  31.013  36.374  1.00  0.00     0.029 A 
ATOM     57  N   UNL A   1      41.609  30.418  34.257  1.00  0.00    -0.354 N 
ATOM     58  N   UNL A   1      42.072  28.816  31.852  1.00  0.00    -0.248 NA
ATOM     59  C   UNL A   1      43.277  27.192  30.688  1.00  0.00     0.031 C 
ATOM     60  C   UNL A   1      42.871  30.023  36.043  1.00  0.00     0.029 A 
ATOM     61  C   UNL A   1      42.653  29.637  34.732  1.00  0.00     0.049 A 
ATOM     62  H   UNL A   1      41.231  30.365  33.350  1.00  0.00     0.167 HD
ATOM     63  C   UNL A   1      43.054  28.298  32.684  1.00  0.00     0.074 A 
ATOM     64  C   UNL A   1      43.750  27.280  31.924  1.00  0.00     0.031 C 
ATOM     65  C   UNL A   1      43.347  28.633  33.965  1.00  0.00     0.037 A 
BRANCH  52  66
ATOM     66  C   UNL A   1      39.863  33.188  36.245  1.00  0.00     0.064 A 
ATOM     67  C   UNL A   1      40.460  34.455  36.323  1.00  0.00     0.173 A 
ATOM     68  C   UNL A   1      38.910  32.850  37.217  1.00  0.00     0.173 A 
ATOM     69  F   UNL A   1      41.377  34.826  35.418  1.00  0.00    -0.203 F 
ATOM     70  C   UNL A   1      40.117  35.348  37.336  1.00  0.00     0.198 A 
ATOM     71  C   UNL A   1      38.551  33.755  38.213  1.00  0.00     0.198 A 
ATOM     72  F   UNL A   1      38.299  31.655  37.181  1.00  0.00    -0.203 F 
ATOM     73  F   UNL A   1      40.712  36.547  37.399  1.00  0.00    -0.200 F 
ATOM     74  C   UNL A   1      39.155  35.001  38.272  1.00  0.00     0.200 A 
ATOM     75  F   UNL A   1      37.607  33.426  39.106  1.00  0.00    -0.200 F 
ATOM     76  F   UNL A   1      38.806  35.872  39.230  1.00  0.00    -0.200 F 
ENDBRANCH  52  66
BRANCH  53  77
ATOM     77  C   UNL A   1      41.603  27.443  28.288  1.00  0.00     0.064 A 
ATOM     78  C   UNL A   1      40.880  26.259  28.098  1.00  0.00     0.173 A 
ATOM     79  C   UNL A   1      42.524  27.817  27.300  1.00  0.00     0.173 A 
ATOM     80  F   UNL A   1      39.996  25.859  29.024  1.00  0.00    -0.203 F 
ATOM     81  C   UNL A   1      41.071  25.474  26.963  1.00  0.00     0.198 A 
ATOM     82  C   UNL A   1      42.700  27.043  26.155  1.00  0.00     0.198 A 
ATOM     83  F   UNL A   1      43.230  28.950  27.431  1.00  0.00    -0.203 F 
ATOM     84  F   UNL A   1      40.380  24.336  26.814  1.00  0.00    -0.200 F 
ATOM     85  C   UNL A   1      41.976  25.871  25.990  1.00  0.00     0.200 A 
ATOM     86  F   UNL A   1      43.561  27.437  25.207  1.00  0.00    -0.200 F 
ATOM     87  F   UNL A   1      42.147  25.125  24.890  1.00  0.00    -0.200 F 
ENDBRANCH  53  77
BRANCH  65  88
ATOM     88  C   UNL A   1      44.466  27.892  34.637  1.00  0.00     0.064 A 
ATOM     89  C   UNL A   1      44.243  26.679  35.304  1.00  0.00     0.173 A 
ATOM     90  C   UNL A   1      45.784  28.369  34.563  1.00  0.00     0.173 A 
ATOM     91  F   UNL A   1      43.000  26.188  35.415  1.00  0.00    -0.203 F 
ATOM     92  C   UNL A   1      45.297  25.978  35.887  1.00  0.00     0.198 A 
ATOM     93  C   UNL A   1      46.838  27.652  35.122  1.00  0.00     0.198 A 
ATOM     94  F   UNL A   1      46.051  29.521  33.931  1.00  0.00    -0.203 F 
ATOM     95  F   UNL A   1      45.055  24.840  36.553  1.00  0.00    -0.200 F 
ATOM     96  C   UNL A   1      46.594  26.461  35.788  1.00  0.00     0.200 A 
ATOM     97  F   UNL A   1      48.093  28.113  35.014  1.00  0.00    -0.200 F 
ATOM     98  F   UNL A   1      47.607  25.780  36.340  1.00  0.00    -0.200 F 
ENDBRANCH  65  88
ENDBRANCH  39  40
ENDBRANCH  32  34
ENDBRANCH  31  32
ENDBRANCH  30  31
ENDBRANCH   1  30
TORSDOF 16
ENDMDL
