MODEL 1
REMARK VINA RESULT:     -12.7      0.000      0.000
REMARK SMILES O=C(NCc1ccc(C(=O)OCCOC(=O)c2ccc(-c3c4nc(c(-c5c(F)c(F)c(F)c(F)c5F)c5ccc([nH]5)c(-c5c(F)c(F)c(F)c(F)c5F)c5nc(c(-c6c(F)c(F)c(F)c(F)c6F)c6ccc3[nH]6)C=C5)C=C4)cc2)cc1)Nc1ccccc1Br
REMARK SMILES IDX 12 1 11 2 9 3 10 4 8 5 5 6 6 7 81 8 7 9 80 10 4 11 3 12 1 13
REMARK SMILES IDX 2 14 82 15 83 18 84 19 88 20 85 21 87 22 89 23 86 24 13 25
REMARK SMILES IDX 14 26 15 27 16 28 17 29 18 30 79 31 19 32 78 33 20 34 21 35
REMARK SMILES IDX 22 36 72 37 23 38 77 39 71 40 73 41 24 42 76 43 70 44 69 45
REMARK SMILES IDX 25 47 57 48 37 49 56 50 38 51 41 52 55 53 74 54 39 55 40 56
REMARK SMILES IDX 54 58 75 59 42 60 26 61 27 62 35 63 28 64 29 65 33 66 36 67
REMARK SMILES IDX 30 68 31 69 34 70 32 71 58 72 59 73 67 74 60 75 61 76 65 77
REMARK SMILES IDX 68 78 62 79 63 80 66 81 64 82 43 83 44 84 52 85 45 86 46 87
REMARK SMILES IDX 50 88 53 89 47 90 48 91 51 92 49 93
REMARK H PARENT 3 16 82 17 73 46 41 57
REMARK Flexibility Score: inf
ROOT
ATOM      1  C   UNL A   1      41.995  20.099  26.236  1.00  0.00     0.275 C 
ENDROOT
BRANCH   1   2
ATOM      2  O   UNL A   1      40.698  20.666  26.506  1.00  0.00    -0.458 OA
BRANCH   2   3
ATOM      3  C   UNL A   1      39.666  20.111  25.829  1.00  0.00     0.338 C 
ATOM      4  O   UNL A   1      39.562  18.937  25.502  1.00  0.00    -0.246 OA
BRANCH   3   5
ATOM      5  C   UNL A   1      38.588  21.098  25.578  1.00  0.00     0.060 A 
ATOM      6  C   UNL A   1      36.566  23.024  25.272  1.00  0.00    -0.029 A 
ATOM      7  C   UNL A   1      37.755  23.352  25.928  1.00  0.00     0.006 A 
ATOM      8  C   UNL A   1      36.411  21.735  24.736  1.00  0.00     0.006 A 
ATOM      9  C   UNL A   1      38.741  22.386  26.106  1.00  0.00     0.016 A 
ATOM     10  C   UNL A   1      37.420  20.774  24.883  1.00  0.00     0.016 A 
BRANCH   6  11
ATOM     11  C   UNL A   1      35.469  24.047  25.165  1.00  0.00     0.153 C 
BRANCH  11  12
ATOM     12  N   UNL A   1      35.043  24.230  23.798  1.00  0.00    -0.334 N 
ATOM     13  O   UNL A   1      33.873  25.016  22.079  1.00  0.00    -0.248 OA
ATOM     14  C   UNL A   1      34.088  25.052  23.285  1.00  0.00     0.319 C 
ATOM     15  N   UNL A   1      33.493  25.896  24.177  1.00  0.00    -0.307 N 
ATOM     16  H   UNL A   1      35.515  23.675  23.137  1.00  0.00     0.165 HD
ATOM     17  H   UNL A   1      33.930  25.990  25.055  1.00  0.00     0.171 HD
BRANCH  15  18
ATOM     18  C   UNL A   1      32.315  26.649  23.973  1.00  0.00     0.057 A 
ATOM     19  C   UNL A   1      32.439  28.026  24.232  1.00  0.00     0.027 A 
ATOM     20  C   UNL A   1      31.060  26.147  23.590  1.00  0.00     0.041 A 
ATOM     21  C   UNL A   1      31.366  28.896  24.034  1.00  0.00     0.002 A 
ATOM     22  C   UNL A   1      29.991  27.031  23.380  1.00  0.00     0.018 A 
ATOM     23  Br  UNL A   1      30.609  24.299  23.548  1.00  0.00    -0.049 Br
ATOM     24  C   UNL A   1      30.146  28.400  23.590  1.00  0.00     0.001 A 
ENDBRANCH  15  18
ENDBRANCH  11  12
ENDBRANCH   6  11
ENDBRANCH   3   5
ENDBRANCH   2   3
ENDBRANCH   1   2
BRANCH   1  25
ATOM     25  C   UNL A   1      42.985  21.163  25.760  1.00  0.00     0.275 C 
BRANCH  25  26
ATOM     26  O   UNL A   1      42.289  22.327  25.279  1.00  0.00    -0.458 OA
BRANCH  26  27
ATOM     27  C   UNL A   1      43.039  23.444  25.160  1.00  0.00     0.338 C 
ATOM     28  O   UNL A   1      44.014  23.620  24.451  1.00  0.00    -0.246 OA
BRANCH  27  29
ATOM     29  C   UNL A   1      42.504  24.500  26.033  1.00  0.00     0.060 A 
ATOM     30  C   UNL A   1      42.973  25.803  25.886  1.00  0.00     0.016 A 
ATOM     31  C   UNL A   1      41.667  24.172  27.096  1.00  0.00     0.016 A 
ATOM     32  C   UNL A   1      42.683  26.767  26.849  1.00  0.00     0.010 A 
ATOM     33  C   UNL A   1      41.302  25.164  28.013  1.00  0.00     0.010 A 
ATOM     34  C   UNL A   1      41.836  26.465  27.923  1.00  0.00    -0.014 A 
BRANCH  34  35
ATOM     35  C   UNL A   1      41.537  27.472  28.980  1.00  0.00     0.031 A 
ATOM     36  C   UNL A   1      42.384  27.520  30.226  1.00  0.00     0.074 A 
ATOM     37  C   UNL A   1      40.508  28.332  28.851  1.00  0.00     0.049 A 
ATOM     38  N   UNL A   1      42.146  28.107  31.371  1.00  0.00    -0.248 NA
ATOM     39  C   UNL A   1      43.664  26.796  30.176  1.00  0.00     0.031 C 
ATOM     40  C   UNL A   1      39.644  28.454  27.677  1.00  0.00     0.029 A 
ATOM     41  N   UNL A   1      40.008  29.266  29.728  1.00  0.00    -0.354 N 
ATOM     42  C   UNL A   1      43.208  27.762  32.200  1.00  0.00     0.074 A 
ATOM     43  C   UNL A   1      44.098  26.929  31.422  1.00  0.00     0.031 C 
ATOM     44  C   UNL A   1      38.734  29.416  27.898  1.00  0.00     0.029 A 
ATOM     45  C   UNL A   1      38.887  29.909  29.263  1.00  0.00     0.049 A 
ATOM     46  H   UNL A   1      40.413  29.454  30.605  1.00  0.00     0.167 HD
ATOM     47  C   UNL A   1      43.411  28.106  33.495  1.00  0.00     0.037 A 
ATOM     48  C   UNL A   1      38.040  30.754  29.879  1.00  0.00     0.037 A 
ATOM     49  C   UNL A   1      42.554  28.990  34.243  1.00  0.00     0.049 A 
ATOM     50  C   UNL A   1      38.267  31.102  31.324  1.00  0.00     0.074 A 
ATOM     51  C   UNL A   1      42.675  29.405  35.558  1.00  0.00     0.029 A 
ATOM     52  N   UNL A   1      41.427  29.615  33.728  1.00  0.00    -0.354 N 
ATOM     53  N   UNL A   1      39.224  30.707  32.128  1.00  0.00    -0.248 NA
ATOM     54  C   UNL A   1      37.285  31.995  31.954  1.00  0.00     0.031 C 
ATOM     55  C   UNL A   1      41.605  30.259  35.848  1.00  0.00     0.029 A 
ATOM     56  C   UNL A   1      40.842  30.409  34.702  1.00  0.00     0.049 A 
ATOM     57  H   UNL A   1      41.092  29.509  32.809  1.00  0.00     0.167 HD
ATOM     58  C   UNL A   1      38.972  31.315  33.348  1.00  0.00     0.074 A 
ATOM     59  C   UNL A   1      37.777  32.116  33.179  1.00  0.00     0.031 C 
ATOM     60  C   UNL A   1      39.666  31.216  34.508  1.00  0.00     0.037 A 
BRANCH  47  61
ATOM     61  C   UNL A   1      44.582  27.493  34.205  1.00  0.00     0.064 A 
ATOM     62  C   UNL A   1      44.503  26.243  34.833  1.00  0.00     0.173 A 
ATOM     63  C   UNL A   1      45.820  28.157  34.218  1.00  0.00     0.173 A 
ATOM     64  F   UNL A   1      43.341  25.573  34.858  1.00  0.00    -0.203 F 
ATOM     65  C   UNL A   1      45.613  25.688  35.467  1.00  0.00     0.198 A 
ATOM     66  C   UNL A   1      46.934  27.588  34.829  1.00  0.00     0.198 A 
ATOM     67  F   UNL A   1      45.952  29.353  33.626  1.00  0.00    -0.203 F 
ATOM     68  F   UNL A   1      45.505  24.509  36.094  1.00  0.00    -0.200 F 
ATOM     69  C   UNL A   1      46.829  26.357  35.459  1.00  0.00     0.200 A 
ATOM     70  F   UNL A   1      48.109  28.231  34.807  1.00  0.00    -0.200 F 
ATOM     71  F   UNL A   1      47.897  25.819  36.061  1.00  0.00    -0.200 F 
ENDBRANCH  47  61
BRANCH  48  72
ATOM     72  C   UNL A   1      36.865  31.289  29.142  1.00  0.00     0.064 A 
ATOM     73  C   UNL A   1      35.763  30.472  28.854  1.00  0.00     0.173 A 
ATOM     74  C   UNL A   1      36.814  32.627  28.723  1.00  0.00     0.173 A 
ATOM     75  F   UNL A   1      35.777  29.179  29.209  1.00  0.00    -0.203 F 
ATOM     76  C   UNL A   1      34.656  30.973  28.170  1.00  0.00     0.198 A 
ATOM     77  C   UNL A   1      35.694  33.134  28.068  1.00  0.00     0.198 A 
ATOM     78  F   UNL A   1      37.843  33.449  28.972  1.00  0.00    -0.203 F 
ATOM     79  F   UNL A   1      33.631  30.163  27.876  1.00  0.00    -0.200 F 
ATOM     80  C   UNL A   1      34.619  32.306  27.787  1.00  0.00     0.200 A 
ATOM     81  F   UNL A   1      35.657  34.425  27.712  1.00  0.00    -0.200 F 
ATOM     82  F   UNL A   1      33.549  32.789  27.142  1.00  0.00    -0.200 F 
ENDBRANCH  48  72
BRANCH  60  83
ATOM     83  C   UNL A   1      39.184  32.033  35.669  1.00  0.00     0.064 A 
ATOM     84  C   UNL A   1      38.342  31.493  36.649  1.00  0.00     0.173 A 
ATOM     85  C   UNL A   1      39.612  33.360  35.823  1.00  0.00     0.173 A 
ATOM     86  F   UNL A   1      37.893  30.234  36.536  1.00  0.00    -0.203 F 
ATOM     87  C   UNL A   1      37.929  32.260  37.736  1.00  0.00     0.198 A 
ATOM     88  C   UNL A   1      39.217  34.116  36.922  1.00  0.00     0.198 A 
ATOM     89  F   UNL A   1      40.423  33.919  34.912  1.00  0.00    -0.203 F 
ATOM     90  F   UNL A   1      37.093  31.737  38.644  1.00  0.00    -0.200 F 
ATOM     91  C   UNL A   1      38.373  33.567  37.875  1.00  0.00     0.200 A 
ATOM     92  F   UNL A   1      39.654  35.375  37.059  1.00  0.00    -0.200 F 
ATOM     93  F   UNL A   1      37.981  34.301  38.925  1.00  0.00    -0.200 F 
ENDBRANCH  60  83
ENDBRANCH  34  35
ENDBRANCH  27  29
ENDBRANCH  26  27
ENDBRANCH  25  26
ENDBRANCH   1  25
TORSDOF 14
ENDMDL
MODEL 2
REMARK VINA RESULT:     -12.7      3.017      8.282
REMARK SMILES O=C(NCc1ccc(C(=O)OCCOC(=O)c2ccc(-c3c4nc(c(-c5c(F)c(F)c(F)c(F)c5F)c5ccc([nH]5)c(-c5c(F)c(F)c(F)c(F)c5F)c5nc(c(-c6c(F)c(F)c(F)c(F)c6F)c6ccc3[nH]6)C=C5)C=C4)cc2)cc1)Nc1ccccc1Br
REMARK SMILES IDX 12 1 11 2 9 3 10 4 8 5 5 6 6 7 81 8 7 9 80 10 4 11 3 12 1 13
REMARK SMILES IDX 2 14 82 15 83 18 84 19 88 20 85 21 87 22 89 23 86 24 13 25
REMARK SMILES IDX 14 26 15 27 16 28 17 29 18 30 79 31 19 32 78 33 20 34 21 35
REMARK SMILES IDX 22 36 72 37 23 38 77 39 71 40 73 41 24 42 76 43 70 44 69 45
REMARK SMILES IDX 25 47 57 48 37 49 56 50 38 51 41 52 55 53 74 54 39 55 40 56
REMARK SMILES IDX 54 58 75 59 42 60 26 61 27 62 35 63 28 64 29 65 33 66 36 67
REMARK SMILES IDX 30 68 31 69 34 70 32 71 58 72 59 73 67 74 60 75 61 76 65 77
REMARK SMILES IDX 68 78 62 79 63 80 66 81 64 82 43 83 44 84 52 85 45 86 46 87
REMARK SMILES IDX 50 88 53 89 47 90 48 91 51 92 49 93
REMARK H PARENT 3 16 82 17 73 46 41 57
REMARK Flexibility Score: inf
ROOT
ATOM      1  C   UNL A   1      31.164  29.301  24.329  1.00  0.00     0.275 C 
ENDROOT
BRANCH   1   2
ATOM      2  O   UNL A   1      32.322  28.752  23.668  1.00  0.00    -0.458 OA
BRANCH   2   3
ATOM      3  C   UNL A   1      32.180  27.490  23.199  1.00  0.00     0.338 C 
ATOM      4  O   UNL A   1      31.440  27.132  22.294  1.00  0.00    -0.246 OA
BRANCH   3   5
ATOM      5  C   UNL A   1      33.115  26.554  23.870  1.00  0.00     0.060 A 
ATOM      6  C   UNL A   1      34.790  24.645  25.071  1.00  0.00    -0.029 A 
ATOM      7  C   UNL A   1      34.370  24.477  23.750  1.00  0.00     0.006 A 
ATOM      8  C   UNL A   1      34.397  25.794  25.776  1.00  0.00     0.006 A 
ATOM      9  C   UNL A   1      33.514  25.409  23.168  1.00  0.00     0.016 A 
ATOM     10  C   UNL A   1      33.565  26.750  25.177  1.00  0.00     0.016 A 
BRANCH   6  11
ATOM     11  C   UNL A   1      35.639  23.588  25.721  1.00  0.00     0.153 C 
BRANCH  11  12
ATOM     12  N   UNL A   1      34.852  22.715  26.559  1.00  0.00    -0.334 N 
ATOM     13  O   UNL A   1      33.654  20.939  27.156  1.00  0.00    -0.248 OA
ATOM     14  C   UNL A   1      34.324  21.490  26.289  1.00  0.00     0.319 C 
ATOM     15  N   UNL A   1      34.649  20.960  25.075  1.00  0.00    -0.307 N 
ATOM     16  H   UNL A   1      34.670  23.058  27.463  1.00  0.00     0.165 HD
ATOM     17  H   UNL A   1      35.386  21.395  24.586  1.00  0.00     0.171 HD
BRANCH  15  18
ATOM     18  C   UNL A   1      34.041  19.852  24.445  1.00  0.00     0.057 A 
ATOM     19  C   UNL A   1      34.706  18.626  24.627  1.00  0.00     0.027 A 
ATOM     20  C   UNL A   1      32.890  19.879  23.639  1.00  0.00     0.041 A 
ATOM     21  C   UNL A   1      34.195  17.442  24.093  1.00  0.00     0.002 A 
ATOM     22  C   UNL A   1      32.376  18.682  23.118  1.00  0.00     0.018 A 
ATOM     23  Br  UNL A   1      32.072  21.468  22.986  1.00  0.00    -0.049 Br
ATOM     24  C   UNL A   1      33.019  17.467  23.355  1.00  0.00     0.001 A 
ENDBRANCH  15  18
ENDBRANCH  11  12
ENDBRANCH   6  11
ENDBRANCH   3   5
ENDBRANCH   2   3
ENDBRANCH   1   2
BRANCH   1  25
ATOM     25  C   UNL A   1      31.494  29.760  25.749  1.00  0.00     0.275 C 
BRANCH  25  26
ATOM     26  O   UNL A   1      32.871  30.166  25.847  1.00  0.00    -0.458 OA
BRANCH  26  27
ATOM     27  C   UNL A   1      33.145  31.062  26.821  1.00  0.00     0.338 C 
ATOM     28  O   UNL A   1      32.422  31.944  27.251  1.00  0.00    -0.246 OA
BRANCH  27  29
ATOM     29  C   UNL A   1      34.498  30.830  27.348  1.00  0.00     0.060 A 
ATOM     30  C   UNL A   1      34.898  29.528  27.635  1.00  0.00     0.016 A 
ATOM     31  C   UNL A   1      35.304  31.907  27.708  1.00  0.00     0.016 A 
ATOM     32  C   UNL A   1      36.062  29.295  28.365  1.00  0.00     0.010 A 
ATOM     33  C   UNL A   1      36.518  31.667  28.360  1.00  0.00     0.010 A 
ATOM     34  C   UNL A   1      36.894  30.361  28.731  1.00  0.00    -0.014 A 
BRANCH  34  35
ATOM     35  C   UNL A   1      38.128  30.138  29.537  1.00  0.00     0.031 A 
ATOM     36  C   UNL A   1      39.232  29.272  28.988  1.00  0.00     0.074 A 
ATOM     37  C   UNL A   1      38.268  30.685  30.760  1.00  0.00     0.049 A 
ATOM     38  N   UNL A   1      40.247  28.725  29.608  1.00  0.00    -0.248 NA
ATOM     39  C   UNL A   1      39.176  28.971  27.548  1.00  0.00     0.031 C 
ATOM     40  C   UNL A   1      37.320  31.599  31.397  1.00  0.00     0.029 A 
ATOM     41  N   UNL A   1      39.266  30.540  31.696  1.00  0.00    -0.354 N 
ATOM     42  C   UNL A   1      40.904  27.958  28.653  1.00  0.00     0.074 A 
ATOM     43  C   UNL A   1      40.184  28.122  27.409  1.00  0.00     0.031 C 
ATOM     44  C   UNL A   1      37.787  31.947  32.606  1.00  0.00     0.029 A 
ATOM     45  C   UNL A   1      39.015  31.205  32.871  1.00  0.00     0.049 A 
ATOM     46  H   UNL A   1      40.080  30.010  31.539  1.00  0.00     0.167 HD
ATOM     47  C   UNL A   1      42.005  27.181  28.809  1.00  0.00     0.037 A 
ATOM     48  C   UNL A   1      39.663  31.178  34.051  1.00  0.00     0.037 A 
ATOM     49  C   UNL A   1      42.755  27.076  30.034  1.00  0.00     0.049 A 
ATOM     50  C   UNL A   1      40.865  30.290  34.212  1.00  0.00     0.074 A 
ATOM     51  C   UNL A   1      43.886  26.320  30.293  1.00  0.00     0.029 A 
ATOM     52  N   UNL A   1      42.460  27.767  31.199  1.00  0.00    -0.354 N 
ATOM     53  N   UNL A   1      41.433  29.501  33.332  1.00  0.00    -0.248 NA
ATOM     54  C   UNL A   1      41.504  30.270  35.534  1.00  0.00     0.031 C 
ATOM     55  C   UNL A   1      44.259  26.533  31.624  1.00  0.00     0.029 A 
ATOM     56  C   UNL A   1      43.386  27.453  32.182  1.00  0.00     0.049 A 
ATOM     57  H   UNL A   1      41.705  28.388  31.313  1.00  0.00     0.167 HD
ATOM     58  C   UNL A   1      42.502  28.908  33.985  1.00  0.00     0.074 A 
ATOM     59  C   UNL A   1      42.514  29.434  35.334  1.00  0.00     0.031 C 
ATOM     60  C   UNL A   1      43.394  28.003  33.511  1.00  0.00     0.037 A 
BRANCH  47  61
ATOM     61  C   UNL A   1      42.443  26.350  27.640  1.00  0.00     0.064 A 
ATOM     62  C   UNL A   1      43.444  26.774  26.755  1.00  0.00     0.173 A 
ATOM     63  C   UNL A   1      41.875  25.083  27.428  1.00  0.00     0.173 A 
ATOM     64  F   UNL A   1      44.011  27.981  26.907  1.00  0.00    -0.203 F 
ATOM     65  C   UNL A   1      43.846  25.972  25.690  1.00  0.00     0.198 A 
ATOM     66  C   UNL A   1      42.297  24.272  26.378  1.00  0.00     0.198 A 
ATOM     67  F   UNL A   1      40.917  24.625  28.249  1.00  0.00    -0.203 F 
ATOM     68  F   UNL A   1      44.778  26.413  24.834  1.00  0.00    -0.200 F 
ATOM     69  C   UNL A   1      43.277  24.719  25.506  1.00  0.00     0.200 A 
ATOM     70  F   UNL A   1      41.756  23.057  26.212  1.00  0.00    -0.200 F 
ATOM     71  F   UNL A   1      43.671  23.945  24.486  1.00  0.00    -0.200 F 
ENDBRANCH  47  61
BRANCH  48  72
ATOM     72  C   UNL A   1      39.152  31.983  35.191  1.00  0.00     0.064 A 
ATOM     73  C   UNL A   1      38.409  31.385  36.219  1.00  0.00     0.173 A 
ATOM     74  C   UNL A   1      39.406  33.359  35.284  1.00  0.00     0.173 A 
ATOM     75  F   UNL A   1      38.117  30.078  36.161  1.00  0.00    -0.203 F 
ATOM     76  C   UNL A   1      37.936  32.135  37.295  1.00  0.00     0.198 A 
ATOM     77  C   UNL A   1      38.958  34.102  36.375  1.00  0.00     0.198 A 
ATOM     78  F   UNL A   1      40.108  33.980  34.326  1.00  0.00    -0.203 F 
ATOM     79  F   UNL A   1      37.200  31.547  38.246  1.00  0.00    -0.200 F 
ATOM     80  C   UNL A   1      38.221  33.491  37.376  1.00  0.00     0.200 A 
ATOM     81  F   UNL A   1      39.247  35.408  36.456  1.00  0.00    -0.200 F 
ATOM     82  F   UNL A   1      37.776  34.209  38.417  1.00  0.00    -0.200 F 
ENDBRANCH  48  72
BRANCH  60  83
ATOM     83  C   UNL A   1      44.488  27.567  34.438  1.00  0.00     0.064 A 
ATOM     84  C   UNL A   1      44.348  26.443  35.263  1.00  0.00     0.173 A 
ATOM     85  C   UNL A   1      45.708  28.258  34.464  1.00  0.00     0.173 A 
ATOM     86  F   UNL A   1      43.193  25.761  35.285  1.00  0.00    -0.203 F 
ATOM     87  C   UNL A   1      45.387  26.036  36.096  1.00  0.00     0.198 A 
ATOM     88  C   UNL A   1      46.753  27.835  35.280  1.00  0.00     0.198 A 
ATOM     89  F   UNL A   1      45.890  29.338  33.688  1.00  0.00    -0.203 F 
ATOM     90  F   UNL A   1      45.221  24.980  36.905  1.00  0.00    -0.200 F 
ATOM     91  C   UNL A   1      46.590  26.728  36.098  1.00  0.00     0.200 A 
ATOM     92  F   UNL A   1      47.917  28.499  35.274  1.00  0.00    -0.200 F 
ATOM     93  F   UNL A   1      47.591  26.330  36.894  1.00  0.00    -0.200 F 
ENDBRANCH  60  83
ENDBRANCH  34  35
ENDBRANCH  27  29
ENDBRANCH  26  27
ENDBRANCH  25  26
ENDBRANCH   1  25
TORSDOF 14
ENDMDL
MODEL 3
REMARK VINA RESULT:     -12.6      0.817      1.900
REMARK SMILES O=C(NCc1ccc(C(=O)OCCOC(=O)c2ccc(-c3c4nc(c(-c5c(F)c(F)c(F)c(F)c5F)c5ccc([nH]5)c(-c5c(F)c(F)c(F)c(F)c5F)c5nc(c(-c6c(F)c(F)c(F)c(F)c6F)c6ccc3[nH]6)C=C5)C=C4)cc2)cc1)Nc1ccccc1Br
REMARK SMILES IDX 12 1 11 2 9 3 10 4 8 5 5 6 6 7 81 8 7 9 80 10 4 11 3 12 1 13
REMARK SMILES IDX 2 14 82 15 83 18 84 19 88 20 85 21 87 22 89 23 86 24 13 25
REMARK SMILES IDX 14 26 15 27 16 28 17 29 18 30 79 31 19 32 78 33 20 34 21 35
REMARK SMILES IDX 22 36 72 37 23 38 77 39 71 40 73 41 24 42 76 43 70 44 69 45
REMARK SMILES IDX 25 47 57 48 37 49 56 50 38 51 41 52 55 53 74 54 39 55 40 56
REMARK SMILES IDX 54 58 75 59 42 60 26 61 27 62 35 63 28 64 29 65 33 66 36 67
REMARK SMILES IDX 30 68 31 69 34 70 32 71 58 72 59 73 67 74 60 75 61 76 65 77
REMARK SMILES IDX 68 78 62 79 63 80 66 81 64 82 43 83 44 84 52 85 45 86 46 87
REMARK SMILES IDX 50 88 53 89 47 90 48 91 51 92 49 93
REMARK H PARENT 3 16 82 17 73 46 41 57
REMARK Flexibility Score: inf
ROOT
ATOM      1  C   UNL A   1      42.655  20.417  26.099  1.00  0.00     0.275 C 
ENDROOT
BRANCH   1   2
ATOM      2  O   UNL A   1      41.265  20.646  25.793  1.00  0.00    -0.458 OA
BRANCH   2   3
ATOM      3  C   UNL A   1      40.512  21.112  26.817  1.00  0.00     0.338 C 
ATOM      4  O   UNL A   1      40.780  21.033  28.008  1.00  0.00    -0.246 OA
BRANCH   3   5
ATOM      5  C   UNL A   1      39.311  21.830  26.325  1.00  0.00     0.060 A 
ATOM      6  C   UNL A   1      37.063  23.112  25.233  1.00  0.00    -0.029 A 
ATOM      7  C   UNL A   1      37.304  21.764  24.959  1.00  0.00     0.006 A 
ATOM      8  C   UNL A   1      37.935  23.805  26.088  1.00  0.00     0.006 A 
ATOM      9  C   UNL A   1      38.436  21.140  25.476  1.00  0.00     0.016 A 
ATOM     10  C   UNL A   1      39.055  23.166  26.638  1.00  0.00     0.016 A 
BRANCH   6  11
ATOM     11  C   UNL A   1      35.888  23.802  24.595  1.00  0.00     0.153 C 
BRANCH  11  12
ATOM     12  N   UNL A   1      34.752  23.847  25.484  1.00  0.00    -0.334 N 
ATOM     13  O   UNL A   1      32.869  24.587  26.406  1.00  0.00    -0.248 OA
ATOM     14  C   UNL A   1      33.717  24.729  25.532  1.00  0.00     0.319 C 
ATOM     15  N   UNL A   1      33.696  25.670  24.544  1.00  0.00    -0.307 N 
ATOM     16  H   UNL A   1      34.722  23.131  26.158  1.00  0.00     0.165 HD
ATOM     17  H   UNL A   1      34.294  25.517  23.776  1.00  0.00     0.171 HD
BRANCH  15  18
ATOM     18  C   UNL A   1      32.905  26.840  24.506  1.00  0.00     0.057 A 
ATOM     19  C   UNL A   1      33.560  28.013  24.921  1.00  0.00     0.027 A 
ATOM     20  C   UNL A   1      31.550  26.919  24.144  1.00  0.00     0.041 A 
ATOM     21  C   UNL A   1      32.911  29.249  24.897  1.00  0.00     0.002 A 
ATOM     22  C   UNL A   1      30.909  28.167  24.109  1.00  0.00     0.018 A 
ATOM     23  Br  UNL A   1      30.411  25.412  23.908  1.00  0.00    -0.049 Br
ATOM     24  C   UNL A   1      31.590  29.328  24.473  1.00  0.00     0.001 A 
ENDBRANCH  15  18
ENDBRANCH  11  12
ENDBRANCH   6  11
ENDBRANCH   3   5
ENDBRANCH   2   3
ENDBRANCH   1   2
BRANCH   1  25
ATOM     25  C   UNL A   1      43.560  21.411  25.371  1.00  0.00     0.275 C 
BRANCH  25  26
ATOM     26  O   UNL A   1      42.824  22.590  24.994  1.00  0.00    -0.458 OA
BRANCH  26  27
ATOM     27  C   UNL A   1      43.536  23.737  24.974  1.00  0.00     0.338 C 
ATOM     28  O   UNL A   1      44.529  23.991  24.315  1.00  0.00    -0.246 OA
BRANCH  27  29
ATOM     29  C   UNL A   1      42.931  24.717  25.889  1.00  0.00     0.060 A 
ATOM     30  C   UNL A   1      43.133  26.075  25.658  1.00  0.00     0.016 A 
ATOM     31  C   UNL A   1      42.305  24.290  27.057  1.00  0.00     0.016 A 
ATOM     32  C   UNL A   1      42.795  27.012  26.632  1.00  0.00     0.010 A 
ATOM     33  C   UNL A   1      41.882  25.239  27.994  1.00  0.00     0.010 A 
ATOM     34  C   UNL A   1      42.156  26.609  27.811  1.00  0.00    -0.014 A 
BRANCH  34  35
ATOM     35  C   UNL A   1      41.813  27.590  28.880  1.00  0.00     0.031 A 
ATOM     36  C   UNL A   1      42.671  27.679  30.115  1.00  0.00     0.074 A 
ATOM     37  C   UNL A   1      40.735  28.391  28.769  1.00  0.00     0.049 A 
ATOM     38  N   UNL A   1      42.414  28.244  31.268  1.00  0.00    -0.248 NA
ATOM     39  C   UNL A   1      43.990  27.031  30.046  1.00  0.00     0.031 C 
ATOM     40  C   UNL A   1      39.850  28.471  27.607  1.00  0.00     0.029 A 
ATOM     41  N   UNL A   1      40.192  29.288  29.658  1.00  0.00    -0.354 N 
ATOM     42  C   UNL A   1      43.504  27.956  32.081  1.00  0.00     0.074 A 
ATOM     43  C   UNL A   1      44.431  27.180  31.287  1.00  0.00     0.031 C 
ATOM     44  C   UNL A   1      38.889  29.377  27.845  1.00  0.00     0.029 A 
ATOM     45  C   UNL A   1      39.031  29.869  29.211  1.00  0.00     0.049 A 
ATOM     46  H   UNL A   1      40.597  29.494  30.532  1.00  0.00     0.167 HD
ATOM     47  C   UNL A   1      43.702  28.302  33.377  1.00  0.00     0.037 A 
ATOM     48  C   UNL A   1      38.144  30.660  29.844  1.00  0.00     0.037 A 
ATOM     49  C   UNL A   1      42.805  29.131  34.141  1.00  0.00     0.049 A 
ATOM     50  C   UNL A   1      38.368  31.011  31.288  1.00  0.00     0.074 A 
ATOM     51  C   UNL A   1      42.918  29.543  35.457  1.00  0.00     0.029 A 
ATOM     52  N   UNL A   1      41.638  29.693  33.644  1.00  0.00    -0.354 N 
ATOM     53  N   UNL A   1      39.356  30.667  32.078  1.00  0.00    -0.248 NA
ATOM     54  C   UNL A   1      37.345  31.841  31.936  1.00  0.00     0.031 C 
ATOM     55  C   UNL A   1      41.805  30.332  35.766  1.00  0.00     0.029 A 
ATOM     56  C   UNL A   1      41.021  30.446  34.630  1.00  0.00     0.049 A 
ATOM     57  H   UNL A   1      41.299  29.574  32.728  1.00  0.00     0.167 HD
ATOM     58  C   UNL A   1      39.085  31.251  33.306  1.00  0.00     0.074 A 
ATOM     59  C   UNL A   1      37.844  31.983  33.156  1.00  0.00     0.031 C 
ATOM     60  C   UNL A   1      39.798  31.184  34.457  1.00  0.00     0.037 A 
BRANCH  47  61
ATOM     61  C   UNL A   1      44.916  27.754  34.068  1.00  0.00     0.064 A 
ATOM     62  C   UNL A   1      46.121  28.466  34.136  1.00  0.00     0.173 A 
ATOM     63  C   UNL A   1      44.854  26.506  34.710  1.00  0.00     0.173 A 
ATOM     64  F   UNL A   1      46.237  29.656  33.530  1.00  0.00    -0.203 F 
ATOM     65  C   UNL A   1      47.226  27.940  34.802  1.00  0.00     0.198 A 
ATOM     66  C   UNL A   1      45.951  25.996  35.398  1.00  0.00     0.198 A 
ATOM     67  F   UNL A   1      43.721  25.787  34.681  1.00  0.00    -0.203 F 
ATOM     68  F   UNL A   1      48.381  28.620  34.823  1.00  0.00    -0.200 F 
ATOM     69  C   UNL A   1      47.138  26.710  35.439  1.00  0.00     0.200 A 
ATOM     70  F   UNL A   1      45.858  24.814  36.023  1.00  0.00    -0.200 F 
ATOM     71  F   UNL A   1      48.199  26.210  36.087  1.00  0.00    -0.200 F 
ENDBRANCH  47  61
BRANCH  48  72
ATOM     72  C   UNL A   1      36.932  31.130  29.124  1.00  0.00     0.064 A 
ATOM     73  C   UNL A   1      35.851  30.268  28.892  1.00  0.00     0.173 A 
ATOM     74  C   UNL A   1      36.822  32.453  28.668  1.00  0.00     0.173 A 
ATOM     75  F   UNL A   1      35.921  28.988  29.285  1.00  0.00    -0.203 F 
ATOM     76  C   UNL A   1      34.709  30.708  28.225  1.00  0.00     0.198 A 
ATOM     77  C   UNL A   1      35.667  32.900  28.029  1.00  0.00     0.198 A 
ATOM     78  F   UNL A   1      37.828  33.317  28.862  1.00  0.00    -0.203 F 
ATOM     79  F   UNL A   1      33.706  29.855  27.985  1.00  0.00    -0.200 F 
ATOM     80  C   UNL A   1      34.615  32.027  27.804  1.00  0.00     0.200 A 
ATOM     81  F   UNL A   1      35.575  34.178  27.636  1.00  0.00    -0.200 F 
ATOM     82  F   UNL A   1      33.511  32.453  27.175  1.00  0.00    -0.200 F 
ENDBRANCH  48  72
BRANCH  60  83
ATOM     83  C   UNL A   1      39.284  31.965  35.628  1.00  0.00     0.064 A 
ATOM     84  C   UNL A   1      39.617  33.313  35.817  1.00  0.00     0.173 A 
ATOM     85  C   UNL A   1      38.409  31.365  36.546  1.00  0.00     0.173 A 
ATOM     86  F   UNL A   1      40.464  33.924  34.975  1.00  0.00    -0.203 F 
ATOM     87  C   UNL A   1      39.105  34.029  36.897  1.00  0.00     0.198 A 
ATOM     88  C   UNL A   1      37.881  32.090  37.610  1.00  0.00     0.198 A 
ATOM     89  F   UNL A   1      38.058  30.078  36.404  1.00  0.00    -0.203 F 
ATOM     90  F   UNL A   1      39.465  35.307  37.081  1.00  0.00    -0.200 F 
ATOM     91  C   UNL A   1      38.233  33.419  37.787  1.00  0.00     0.200 A 
ATOM     92  F   UNL A   1      37.032  31.502  38.463  1.00  0.00    -0.200 F 
ATOM     93  F   UNL A   1      37.736  34.113  38.820  1.00  0.00    -0.200 F 
ENDBRANCH  60  83
ENDBRANCH  34  35
ENDBRANCH  27  29
ENDBRANCH  26  27
ENDBRANCH  25  26
ENDBRANCH   1  25
TORSDOF 14
ENDMDL
