MODEL 1
REMARK VINA RESULT:     -10.7      0.000      0.000
REMARK SMILES CC[C@@H](O)CC[C@H]([NH3+])C(=O)OCCOC(=O)c1ccc(-c2c3nc(c(-c4c(F)c(F)c(F)c(F)c4F)c4ccc([nH]4)c(-c4c(F)c(F)c(F)c(F)c4F)c4nc(c(-c5c(F)c(F)c(F)c(F)c5F)c5ccc2[nH]5)C=C4)C=C3)cc1
REMARK SMILES IDX 12 1 11 2 9 3 10 4 7 5 6 6 5 7 3 8 2 9 1 10 4 11 8 13 13 17
REMARK SMILES IDX 14 18 15 19 16 20 17 21 18 22 79 23 19 24 78 25 20 26 21 27
REMARK SMILES IDX 22 28 72 29 23 30 77 31 71 32 73 33 24 34 76 35 70 36 69 37
REMARK SMILES IDX 25 39 57 40 37 41 56 42 38 43 41 44 55 45 74 46 39 47 40 48
REMARK SMILES IDX 54 50 75 51 42 52 26 53 27 54 35 55 28 56 29 57 33 58 36 59
REMARK SMILES IDX 30 60 31 61 34 62 32 63 58 64 59 65 67 66 60 67 61 68 65 69
REMARK SMILES IDX 68 70 62 71 63 72 66 73 64 74 43 75 44 76 52 77 45 78 46 79
REMARK SMILES IDX 50 80 53 81 47 82 48 83 51 84 49 85
REMARK H PARENT 4 12 8 14 8 15 8 16 73 38 41 49
REMARK Flexibility Score: inf
ROOT
ATOM      1  C   UNL A   1      45.836  22.137  24.452  1.00  0.00     0.274 C 
ENDROOT
BRANCH   1   2
ATOM      2  O   UNL A   1      46.407  21.172  25.354  1.00  0.00    -0.458 OA
BRANCH   2   3
ATOM      3  C   UNL A   1      46.273  19.872  24.973  1.00  0.00     0.364 C 
ATOM      4  O   UNL A   1      47.147  19.017  25.089  1.00  0.00    -0.245 OA
BRANCH   3   5
ATOM      5  C   UNL A   1      44.907  19.566  24.358  1.00  0.00     0.291 C 
BRANCH   5   6
ATOM      6  C   UNL A   1      43.938  18.786  25.262  1.00  0.00     0.080 C 
BRANCH   6   7
ATOM      7  C   UNL A   1      42.619  19.441  25.695  1.00  0.00     0.038 C 
BRANCH   7   8
ATOM      8  C   UNL A   1      42.361  19.683  27.191  1.00  0.00     0.114 C 
BRANCH   8   9
ATOM      9  C   UNL A   1      40.948  20.171  27.525  1.00  0.00     0.028 C 
ATOM     10  C   UNL A   1      40.311  20.923  26.360  1.00  0.00     0.006 C 
ENDBRANCH   8   9
BRANCH   8  11
ATOM     11  O   UNL A   1      42.607  18.440  27.858  1.00  0.00    -0.393 OA
ATOM     12  H   UNL A   1      41.853  18.225  28.429  1.00  0.00     0.210 HD
ENDBRANCH   8  11
ENDBRANCH   7   8
ENDBRANCH   6   7
ENDBRANCH   5   6
BRANCH   5  13
ATOM     13  N   UNL A   1      45.038  18.929  23.026  1.00  0.00    -0.346 N 
ATOM     14  H   UNL A   1      46.000  19.021  22.698  1.00  0.00     0.345 HD
ATOM     15  H   UNL A   1      44.409  19.386  22.367  1.00  0.00     0.345 HD
ATOM     16  H   UNL A   1      44.797  17.940  23.096  1.00  0.00     0.345 HD
ENDBRANCH   5  13
ENDBRANCH   3   5
ENDBRANCH   2   3
ENDBRANCH   1   2
BRANCH   1  17
ATOM     17  C   UNL A   1      45.619  23.511  25.101  1.00  0.00     0.275 C 
BRANCH  17  18
ATOM     18  O   UNL A   1      44.494  24.223  24.553  1.00  0.00    -0.458 OA
BRANCH  18  19
ATOM     19  C   UNL A   1      43.275  23.812  24.986  1.00  0.00     0.338 C 
ATOM     20  O   UNL A   1      42.715  22.762  24.722  1.00  0.00    -0.246 OA
BRANCH  19  21
ATOM     21  C   UNL A   1      42.772  24.758  26.000  1.00  0.00     0.060 A 
ATOM     22  C   UNL A   1      43.203  26.089  25.930  1.00  0.00     0.016 A 
ATOM     23  C   UNL A   1      41.924  24.345  27.026  1.00  0.00     0.016 A 
ATOM     24  C   UNL A   1      42.775  27.021  26.868  1.00  0.00     0.010 A 
ATOM     25  C   UNL A   1      41.510  25.276  27.983  1.00  0.00     0.010 A 
ATOM     26  C   UNL A   1      41.938  26.616  27.910  1.00  0.00    -0.014 A 
BRANCH  26  27
ATOM     27  C   UNL A   1      41.586  27.566  28.989  1.00  0.00     0.031 A 
ATOM     28  C   UNL A   1      42.394  27.558  30.251  1.00  0.00     0.074 A 
ATOM     29  C   UNL A   1      40.555  28.415  28.840  1.00  0.00     0.049 A 
ATOM     30  N   UNL A   1      42.172  28.170  31.384  1.00  0.00    -0.248 NA
ATOM     31  C   UNL A   1      43.617  26.740  30.233  1.00  0.00     0.031 C 
ATOM     32  C   UNL A   1      39.749  28.561  27.628  1.00  0.00     0.029 A 
ATOM     33  N   UNL A   1      39.997  29.302  29.725  1.00  0.00    -0.354 N 
ATOM     34  C   UNL A   1      43.211  27.791  32.224  1.00  0.00     0.074 A 
ATOM     35  C   UNL A   1      44.054  26.884  31.475  1.00  0.00     0.031 C 
ATOM     36  C   UNL A   1      38.783  29.468  27.855  1.00  0.00     0.029 A 
ATOM     37  C   UNL A   1      38.870  29.920  29.242  1.00  0.00     0.049 A 
ATOM     38  H   UNL A   1      40.368  29.478  30.620  1.00  0.00     0.167 HD
ATOM     39  C   UNL A   1      43.432  28.169  33.505  1.00  0.00     0.037 A 
ATOM     40  C   UNL A   1      37.987  30.722  29.867  1.00  0.00     0.037 A 
ATOM     41  C   UNL A   1      42.585  29.079  34.230  1.00  0.00     0.049 A 
ATOM     42  C   UNL A   1      38.205  31.058  31.320  1.00  0.00     0.074 A 
ATOM     43  C   UNL A   1      42.721  29.536  35.528  1.00  0.00     0.029 A 
ATOM     44  N   UNL A   1      41.438  29.667  33.716  1.00  0.00    -0.354 N 
ATOM     45  N   UNL A   1      39.181  30.691  32.117  1.00  0.00    -0.248 NA
ATOM     46  C   UNL A   1      37.197  31.911  31.963  1.00  0.00     0.031 C 
ATOM     47  C   UNL A   1      41.625  30.354  35.820  1.00  0.00     0.029 A 
ATOM     48  C   UNL A   1      40.841  30.461  34.682  1.00  0.00     0.049 A 
ATOM     49  H   UNL A   1      41.098  29.539  32.801  1.00  0.00     0.167 HD
ATOM     50  C   UNL A   1      38.924  31.296  33.340  1.00  0.00     0.074 A 
ATOM     51  C   UNL A   1      37.703  32.059  33.179  1.00  0.00     0.031 C 
ATOM     52  C   UNL A   1      39.635  31.227  34.494  1.00  0.00     0.037 A 
BRANCH  39  53
ATOM     53  C   UNL A   1      44.608  27.564  34.214  1.00  0.00     0.064 A 
ATOM     54  C   UNL A   1      45.858  28.200  34.257  1.00  0.00     0.173 A 
ATOM     55  C   UNL A   1      44.474  26.338  34.883  1.00  0.00     0.173 A 
ATOM     56  F   UNL A   1      46.045  29.366  33.621  1.00  0.00    -0.203 F 
ATOM     57  C   UNL A   1      46.937  27.617  34.918  1.00  0.00     0.198 A 
ATOM     58  C   UNL A   1      45.545  25.774  35.571  1.00  0.00     0.198 A 
ATOM     59  F   UNL A   1      43.301  25.688  34.877  1.00  0.00    -0.203 F 
ATOM     60  F   UNL A   1      48.135  28.216  34.901  1.00  0.00    -0.200 F 
ATOM     61  C   UNL A   1      46.777  26.409  35.580  1.00  0.00     0.200 A 
ATOM     62  F   UNL A   1      45.384  24.613  36.221  1.00  0.00    -0.200 F 
ATOM     63  F   UNL A   1      47.814  25.852  36.223  1.00  0.00    -0.200 F 
ENDBRANCH  39  53
BRANCH  40  64
ATOM     64  C   UNL A   1      36.799  31.236  29.134  1.00  0.00     0.064 A 
ATOM     65  C   UNL A   1      35.725  30.394  28.818  1.00  0.00     0.173 A 
ATOM     66  C   UNL A   1      36.720  32.574  28.718  1.00  0.00     0.173 A 
ATOM     67  F   UNL A   1      35.763  29.100  29.169  1.00  0.00    -0.203 F 
ATOM     68  C   UNL A   1      34.627  30.863  28.099  1.00  0.00     0.198 A 
ATOM     69  C   UNL A   1      35.608  33.051  28.027  1.00  0.00     0.198 A 
ATOM     70  F   UNL A   1      37.722  33.423  28.991  1.00  0.00    -0.203 F 
ATOM     71  F   UNL A   1      33.638  30.024  27.766  1.00  0.00    -0.200 F 
ATOM     72  C   UNL A   1      34.567  32.193  27.710  1.00  0.00     0.200 A 
ATOM     73  F   UNL A   1      35.548  34.341  27.665  1.00  0.00    -0.200 F 
ATOM     74  F   UNL A   1      33.510  32.645  27.021  1.00  0.00    -0.200 F 
ENDBRANCH  40  64
BRANCH  52  75
ATOM     75  C   UNL A   1      39.146  32.041  35.658  1.00  0.00     0.064 A 
ATOM     76  C   UNL A   1      38.350  31.484  36.669  1.00  0.00     0.173 A 
ATOM     77  C   UNL A   1      39.536  33.383  35.793  1.00  0.00     0.173 A 
ATOM     78  F   UNL A   1      37.938  30.211  36.580  1.00  0.00    -0.203 F 
ATOM     79  C   UNL A   1      37.946  32.247  37.762  1.00  0.00     0.198 A 
ATOM     80  C   UNL A   1      39.159  34.132  36.904  1.00  0.00     0.198 A 
ATOM     81  F   UNL A   1      40.304  33.962  34.857  1.00  0.00    -0.203 F 
ATOM     82  F   UNL A   1      37.150  31.706  38.696  1.00  0.00    -0.200 F 
ATOM     83  C   UNL A   1      38.360  33.565  37.885  1.00  0.00     0.200 A 
ATOM     84  F   UNL A   1      39.575  35.400  37.028  1.00  0.00    -0.200 F 
ATOM     85  F   UNL A   1      37.984  34.291  38.946  1.00  0.00    -0.200 F 
ENDBRANCH  52  75
ENDBRANCH  26  27
ENDBRANCH  19  21
ENDBRANCH  18  19
ENDBRANCH  17  18
ENDBRANCH   1  17
TORSDOF 17
ENDMDL
MODEL 2
REMARK VINA RESULT:     -10.6      4.795      8.999
REMARK SMILES CC[C@@H](O)CC[C@H]([NH3+])C(=O)OCCOC(=O)c1ccc(-c2c3nc(c(-c4c(F)c(F)c(F)c(F)c4F)c4ccc([nH]4)c(-c4c(F)c(F)c(F)c(F)c4F)c4nc(c(-c5c(F)c(F)c(F)c(F)c5F)c5ccc2[nH]5)C=C4)C=C3)cc1
REMARK SMILES IDX 12 1 11 2 9 3 10 4 7 5 6 6 5 7 3 8 2 9 1 10 4 11 8 13 13 17
REMARK SMILES IDX 14 18 15 19 16 20 17 21 18 22 79 23 19 24 78 25 20 26 21 27
REMARK SMILES IDX 22 28 72 29 23 30 77 31 71 32 73 33 24 34 76 35 70 36 69 37
REMARK SMILES IDX 25 39 57 40 37 41 56 42 38 43 41 44 55 45 74 46 39 47 40 48
REMARK SMILES IDX 54 50 75 51 42 52 26 53 27 54 35 55 28 56 29 57 33 58 36 59
REMARK SMILES IDX 30 60 31 61 34 62 32 63 58 64 59 65 67 66 60 67 61 68 65 69
REMARK SMILES IDX 68 70 62 71 63 72 66 73 64 74 43 75 44 76 52 77 45 78 46 79
REMARK SMILES IDX 50 80 53 81 47 82 48 83 51 84 49 85
REMARK H PARENT 4 12 8 14 8 15 8 16 73 38 41 49
REMARK Flexibility Score: inf
ROOT
ATOM      1  C   UNL A   1      42.018  19.379  26.277  1.00  0.00     0.274 C 
ENDROOT
BRANCH   1   2
ATOM      2  O   UNL A   1      42.819  19.204  25.095  1.00  0.00    -0.458 OA
BRANCH   2   3
ATOM      3  C   UNL A   1      44.021  18.597  25.294  1.00  0.00     0.364 C 
ATOM      4  O   UNL A   1      44.235  17.735  26.142  1.00  0.00    -0.245 OA
BRANCH   3   5
ATOM      5  C   UNL A   1      45.114  19.110  24.355  1.00  0.00     0.291 C 
BRANCH   5   6
ATOM      6  C   UNL A   1      46.116  20.091  24.985  1.00  0.00     0.080 C 
BRANCH   6   7
ATOM      7  C   UNL A   1      46.348  21.457  24.326  1.00  0.00     0.038 C 
BRANCH   7   8
ATOM      8  C   UNL A   1      45.685  22.703  24.935  1.00  0.00     0.114 C 
BRANCH   8   9
ATOM      9  C   UNL A   1      44.380  23.129  24.256  1.00  0.00     0.028 C 
ATOM     10  C   UNL A   1      43.152  22.618  25.003  1.00  0.00     0.006 C 
ENDBRANCH   8   9
BRANCH   8  11
ATOM     11  O   UNL A   1      45.433  22.404  26.312  1.00  0.00    -0.393 OA
ATOM     12  H   UNL A   1      45.314  23.230  26.806  1.00  0.00     0.210 HD
ENDBRANCH   8  11
ENDBRANCH   7   8
ENDBRANCH   6   7
ENDBRANCH   5   6
BRANCH   5  13
ATOM     13  N   UNL A   1      44.544  19.650  23.098  1.00  0.00    -0.346 N 
ATOM     14  H   UNL A   1      45.046  20.499  22.834  1.00  0.00     0.345 HD
ATOM     15  H   UNL A   1      43.558  19.869  23.237  1.00  0.00     0.345 HD
ATOM     16  H   UNL A   1      44.637  18.957  22.356  1.00  0.00     0.345 HD
ENDBRANCH   5  13
ENDBRANCH   3   5
ENDBRANCH   2   3
ENDBRANCH   1   2
BRANCH   1  17
ATOM     17  C   UNL A   1      40.528  19.584  25.969  1.00  0.00     0.275 C 
BRANCH  17  18
ATOM     18  O   UNL A   1      39.875  20.463  26.904  1.00  0.00    -0.458 OA
BRANCH  18  19
ATOM     19  C   UNL A   1      39.234  21.527  26.357  1.00  0.00     0.338 C 
ATOM     20  O   UNL A   1      38.201  21.512  25.710  1.00  0.00    -0.246 OA
BRANCH  19  21
ATOM     21  C   UNL A   1      39.877  22.773  26.816  1.00  0.00     0.060 A 
ATOM     22  C   UNL A   1      39.549  23.965  26.157  1.00  0.00     0.016 A 
ATOM     23  C   UNL A   1      40.815  22.773  27.847  1.00  0.00     0.016 A 
ATOM     24  C   UNL A   1      40.136  25.167  26.536  1.00  0.00     0.010 A 
ATOM     25  C   UNL A   1      41.422  23.977  28.214  1.00  0.00     0.010 A 
ATOM     26  C   UNL A   1      41.088  25.177  27.558  1.00  0.00    -0.014 A 
BRANCH  26  27
ATOM     27  C   UNL A   1      41.817  26.425  27.877  1.00  0.00     0.031 A 
ATOM     28  C   UNL A   1      41.108  27.499  28.645  1.00  0.00     0.074 A 
ATOM     29  C   UNL A   1      43.089  26.593  27.478  1.00  0.00     0.049 A 
ATOM     30  N   UNL A   1      41.478  28.728  28.891  1.00  0.00    -0.248 NA
ATOM     31  C   UNL A   1      39.797  27.138  29.207  1.00  0.00     0.031 C 
ATOM     32  C   UNL A   1      43.899  25.587  26.792  1.00  0.00     0.029 A 
ATOM     33  N   UNL A   1      43.916  27.683  27.576  1.00  0.00    -0.354 N 
ATOM     34  C   UNL A   1      40.436  29.296  29.611  1.00  0.00     0.074 A 
ATOM     35  C   UNL A   1      39.413  28.283  29.749  1.00  0.00     0.031 C 
ATOM     36  C   UNL A   1      45.101  26.116  26.509  1.00  0.00     0.029 A 
ATOM     37  C   UNL A   1      45.123  27.512  26.943  1.00  0.00     0.049 A 
ATOM     38  H   UNL A   1      43.669  28.508  28.053  1.00  0.00     0.167 HD
ATOM     39  C   UNL A   1      40.349  30.553  30.106  1.00  0.00     0.037 A 
ATOM     40  C   UNL A   1      46.108  28.397  26.703  1.00  0.00     0.037 A 
ATOM     41  C   UNL A   1      41.382  31.545  29.965  1.00  0.00     0.049 A 
ATOM     42  C   UNL A   1      45.949  29.816  27.187  1.00  0.00     0.074 A 
ATOM     43  C   UNL A   1      41.401  32.845  30.435  1.00  0.00     0.029 A 
ATOM     44  N   UNL A   1      42.581  31.343  29.295  1.00  0.00    -0.354 N 
ATOM     45  N   UNL A   1      44.960  30.356  27.858  1.00  0.00    -0.248 NA
ATOM     46  C   UNL A   1      47.039  30.750  26.873  1.00  0.00     0.031 C 
ATOM     47  C   UNL A   1      42.585  33.449  29.999  1.00  0.00     0.029 A 
ATOM     48  C   UNL A   1      43.335  32.505  29.316  1.00  0.00     0.049 A 
ATOM     49  H   UNL A   1      42.855  30.499  28.869  1.00  0.00     0.167 HD
ATOM     50  C   UNL A   1      45.323  31.678  28.077  1.00  0.00     0.074 A 
ATOM     51  C   UNL A   1      46.626  31.858  27.473  1.00  0.00     0.031 C 
ATOM     52  C   UNL A   1      44.640  32.656  28.723  1.00  0.00     0.037 A 
BRANCH  39  53
ATOM     53  C   UNL A   1      39.078  30.937  30.806  1.00  0.00     0.064 A 
ATOM     54  C   UNL A   1      38.926  30.811  32.195  1.00  0.00     0.173 A 
ATOM     55  C   UNL A   1      38.001  31.462  30.075  1.00  0.00     0.173 A 
ATOM     56  F   UNL A   1      39.918  30.300  32.940  1.00  0.00    -0.203 F 
ATOM     57  C   UNL A   1      37.735  31.170  32.822  1.00  0.00     0.198 A 
ATOM     58  C   UNL A   1      36.824  31.850  30.709  1.00  0.00     0.198 A 
ATOM     59  F   UNL A   1      38.092  31.606  28.745  1.00  0.00    -0.203 F 
ATOM     60  F   UNL A   1      37.594  30.991  34.142  1.00  0.00    -0.200 F 
ATOM     61  C   UNL A   1      36.689  31.696  32.079  1.00  0.00     0.200 A 
ATOM     62  F   UNL A   1      35.819  32.372  29.990  1.00  0.00    -0.200 F 
ATOM     63  F   UNL A   1      35.545  32.048  32.685  1.00  0.00    -0.200 F 
ENDBRANCH  39  53
BRANCH  40  64
ATOM     64  C   UNL A   1      47.316  27.980  25.941  1.00  0.00     0.064 A 
ATOM     65  C   UNL A   1      47.291  27.882  24.544  1.00  0.00     0.173 A 
ATOM     66  C   UNL A   1      48.514  27.652  26.595  1.00  0.00     0.173 A 
ATOM     67  F   UNL A   1      46.163  28.158  23.874  1.00  0.00    -0.203 F 
ATOM     68  C   UNL A   1      48.409  27.456  23.831  1.00  0.00     0.198 A 
ATOM     69  C   UNL A   1      49.642  27.257  25.878  1.00  0.00     0.198 A 
ATOM     70  F   UNL A   1      48.592  27.725  27.932  1.00  0.00    -0.203 F 
ATOM     71  F   UNL A   1      48.342  27.323  22.499  1.00  0.00    -0.200 F 
ATOM     72  C   UNL A   1      49.586  27.150  24.498  1.00  0.00     0.200 A 
ATOM     73  F   UNL A   1      50.781  26.975  26.528  1.00  0.00    -0.200 F 
ATOM     74  F   UNL A   1      50.662  26.742  23.811  1.00  0.00    -0.200 F 
ENDBRANCH  40  64
BRANCH  52  75
ATOM     75  C   UNL A   1      45.309  33.994  28.860  1.00  0.00     0.064 A 
ATOM     76  C   UNL A   1      46.171  34.286  29.926  1.00  0.00     0.173 A 
ATOM     77  C   UNL A   1      45.132  34.975  27.872  1.00  0.00     0.173 A 
ATOM     78  F   UNL A   1      46.363  33.387  30.904  1.00  0.00    -0.203 F 
ATOM     79  C   UNL A   1      46.816  35.517  30.008  1.00  0.00     0.198 A 
ATOM     80  C   UNL A   1      45.803  36.192  27.939  1.00  0.00     0.198 A 
ATOM     81  F   UNL A   1      44.323  34.745  26.826  1.00  0.00    -0.203 F 
ATOM     82  F   UNL A   1      47.603  35.790  31.059  1.00  0.00    -0.200 F 
ATOM     83  C   UNL A   1      46.641  36.464  29.010  1.00  0.00     0.200 A 
ATOM     84  F   UNL A   1      45.646  37.098  26.964  1.00  0.00    -0.200 F 
ATOM     85  F   UNL A   1      47.275  37.642  29.083  1.00  0.00    -0.200 F 
ENDBRANCH  52  75
ENDBRANCH  26  27
ENDBRANCH  19  21
ENDBRANCH  18  19
ENDBRANCH  17  18
ENDBRANCH   1  17
TORSDOF 17
ENDMDL
MODEL 3
REMARK VINA RESULT:     -10.6      5.079     11.252
REMARK SMILES CC[C@@H](O)CC[C@H]([NH3+])C(=O)OCCOC(=O)c1ccc(-c2c3nc(c(-c4c(F)c(F)c(F)c(F)c4F)c4ccc([nH]4)c(-c4c(F)c(F)c(F)c(F)c4F)c4nc(c(-c5c(F)c(F)c(F)c(F)c5F)c5ccc2[nH]5)C=C4)C=C3)cc1
REMARK SMILES IDX 12 1 11 2 9 3 10 4 7 5 6 6 5 7 3 8 2 9 1 10 4 11 8 13 13 17
REMARK SMILES IDX 14 18 15 19 16 20 17 21 18 22 79 23 19 24 78 25 20 26 21 27
REMARK SMILES IDX 22 28 72 29 23 30 77 31 71 32 73 33 24 34 76 35 70 36 69 37
REMARK SMILES IDX 25 39 57 40 37 41 56 42 38 43 41 44 55 45 74 46 39 47 40 48
REMARK SMILES IDX 54 50 75 51 42 52 26 53 27 54 35 55 28 56 29 57 33 58 36 59
REMARK SMILES IDX 30 60 31 61 34 62 32 63 58 64 59 65 67 66 60 67 61 68 65 69
REMARK SMILES IDX 68 70 62 71 63 72 66 73 64 74 43 75 44 76 52 77 45 78 46 79
REMARK SMILES IDX 50 80 53 81 47 82 48 83 51 84 49 85
REMARK H PARENT 4 12 8 14 8 15 8 16 73 38 41 49
REMARK Flexibility Score: inf
ROOT
ATOM      1  C   UNL A   1      33.529  34.898  29.244  1.00  0.00     0.274 C 
ENDROOT
BRANCH   1   2
ATOM      2  O   UNL A   1      32.607  35.160  30.319  1.00  0.00    -0.458 OA
BRANCH   2   3
ATOM      3  C   UNL A   1      32.708  36.395  30.881  1.00  0.00     0.364 C 
ATOM      4  O   UNL A   1      32.903  37.433  30.254  1.00  0.00    -0.245 OA
BRANCH   3   5
ATOM      5  C   UNL A   1      32.568  36.374  32.404  1.00  0.00     0.291 C 
BRANCH   5   6
ATOM      6  C   UNL A   1      33.877  36.566  33.187  1.00  0.00     0.080 C 
BRANCH   6   7
ATOM      7  C   UNL A   1      35.034  35.579  32.974  1.00  0.00     0.038 C 
BRANCH   7   8
ATOM      8  C   UNL A   1      35.315  34.514  34.047  1.00  0.00     0.114 C 
BRANCH   8   9
ATOM      9  C   UNL A   1      34.998  33.078  33.619  1.00  0.00     0.028 C 
ATOM     10  C   UNL A   1      34.751  32.967  32.118  1.00  0.00     0.006 C 
ENDBRANCH   8   9
BRANCH   8  11
ATOM     11  O   UNL A   1      36.704  34.619  34.377  1.00  0.00    -0.393 OA
ATOM     12  H   UNL A   1      36.832  35.342  35.011  1.00  0.00     0.210 HD
ENDBRANCH   8  11
ENDBRANCH   7   8
ENDBRANCH   6   7
ENDBRANCH   5   6
BRANCH   5  13
ATOM     13  N   UNL A   1      31.830  35.175  32.867  1.00  0.00    -0.346 N 
ATOM     14  H   UNL A   1      31.499  34.646  32.060  1.00  0.00     0.345 HD
ATOM     15  H   UNL A   1      31.033  35.465  33.433  1.00  0.00     0.345 HD
ATOM     16  H   UNL A   1      32.449  34.588  33.426  1.00  0.00     0.345 HD
ENDBRANCH   5  13
ENDBRANCH   3   5
ENDBRANCH   2   3
ENDBRANCH   1   2
BRANCH   1  17
ATOM     17  C   UNL A   1      32.903  34.092  28.099  1.00  0.00     0.275 C 
BRANCH  17  18
ATOM     18  O   UNL A   1      33.874  33.353  27.333  1.00  0.00    -0.458 OA
BRANCH  18  19
ATOM     19  C   UNL A   1      33.862  32.008  27.515  1.00  0.00     0.338 C 
ATOM     20  O   UNL A   1      33.024  31.219  27.114  1.00  0.00    -0.246 OA
BRANCH  19  21
ATOM     21  C   UNL A   1      35.135  31.587  28.129  1.00  0.00     0.060 A 
ATOM     22  C   UNL A   1      35.202  30.307  28.693  1.00  0.00     0.016 A 
ATOM     23  C   UNL A   1      36.234  32.442  28.188  1.00  0.00     0.016 A 
ATOM     24  C   UNL A   1      36.371  29.862  29.299  1.00  0.00     0.010 A 
ATOM     25  C   UNL A   1      37.403  32.004  28.818  1.00  0.00     0.010 A 
ATOM     26  C   UNL A   1      37.474  30.715  29.379  1.00  0.00    -0.014 A 
BRANCH  26  27
ATOM     27  C   UNL A   1      38.675  30.303  30.140  1.00  0.00     0.031 A 
ATOM     28  C   UNL A   1      39.606  29.299  29.531  1.00  0.00     0.074 A 
ATOM     29  C   UNL A   1      38.919  30.815  31.358  1.00  0.00     0.049 A 
ATOM     30  N   UNL A   1      40.615  28.667  30.070  1.00  0.00    -0.248 NA
ATOM     31  C   UNL A   1      39.360  28.956  28.122  1.00  0.00     0.031 C 
ATOM     32  C   UNL A   1      38.123  31.852  32.014  1.00  0.00     0.029 A 
ATOM     33  N   UNL A   1      39.900  30.516  32.269  1.00  0.00    -0.354 N 
ATOM     34  C   UNL A   1      41.107  27.831  29.077  1.00  0.00     0.074 A 
ATOM     35  C   UNL A   1      40.277  28.025  27.908  1.00  0.00     0.031 C 
ATOM     36  C   UNL A   1      38.634  32.086  33.235  1.00  0.00     0.029 A 
ATOM     37  C   UNL A   1      39.755  31.176  33.465  1.00  0.00     0.049 A 
ATOM     38  H   UNL A   1      40.636  29.888  32.085  1.00  0.00     0.167 HD
ATOM     39  C   UNL A   1      42.157  26.979  29.144  1.00  0.00     0.037 A 
ATOM     40  C   UNL A   1      40.424  31.026  34.624  1.00  0.00     0.037 A 
ATOM     41  C   UNL A   1      42.976  26.806  30.315  1.00  0.00     0.049 A 
ATOM     42  C   UNL A   1      41.531  30.007  34.701  1.00  0.00     0.074 A 
ATOM     43  C   UNL A   1      44.069  25.977  30.489  1.00  0.00     0.029 A 
ATOM     44  N   UNL A   1      42.784  27.474  31.516  1.00  0.00    -0.354 N 
ATOM     45  N   UNL A   1      41.990  29.209  33.766  1.00  0.00    -0.248 NA
ATOM     46  C   UNL A   1      42.209  29.860  35.996  1.00  0.00     0.031 C 
ATOM     47  C   UNL A   1      44.503  26.099  31.813  1.00  0.00     0.029 A 
ATOM     48  C   UNL A   1      43.722  27.054  32.446  1.00  0.00     0.049 A 
ATOM     49  H   UNL A   1      42.085  28.147  31.684  1.00  0.00     0.167 HD
ATOM     50  C   UNL A   1      43.030  28.495  34.347  1.00  0.00     0.074 A 
ATOM     51  C   UNL A   1      43.139  28.957  35.715  1.00  0.00     0.031 C 
ATOM     52  C   UNL A   1      43.824  27.542  33.798  1.00  0.00     0.037 A 
BRANCH  39  53
ATOM     53  C   UNL A   1      42.450  26.140  27.935  1.00  0.00     0.064 A 
ATOM     54  C   UNL A   1      43.411  26.515  26.984  1.00  0.00     0.173 A 
ATOM     55  C   UNL A   1      41.770  24.928  27.736  1.00  0.00     0.173 A 
ATOM     56  F   UNL A   1      44.078  27.671  27.117  1.00  0.00    -0.203 F 
ATOM     57  C   UNL A   1      43.662  25.722  25.867  1.00  0.00     0.198 A 
ATOM     58  C   UNL A   1      42.047  24.122  26.635  1.00  0.00     0.198 A 
ATOM     59  F   UNL A   1      40.843  24.520  28.615  1.00  0.00    -0.203 F 
ATOM     60  F   UNL A   1      44.547  26.126  24.946  1.00  0.00    -0.200 F 
ATOM     61  C   UNL A   1      42.986  24.523  25.698  1.00  0.00     0.200 A 
ATOM     62  F   UNL A   1      41.402  22.957  26.482  1.00  0.00    -0.200 F 
ATOM     63  F   UNL A   1      43.233  23.757  24.626  1.00  0.00    -0.200 F 
ENDBRANCH  39  53
BRANCH  40  64
ATOM     64  C   UNL A   1      40.045  31.834  35.813  1.00  0.00     0.064 A 
ATOM     65  C   UNL A   1      40.812  32.936  36.212  1.00  0.00     0.173 A 
ATOM     66  C   UNL A   1      38.920  31.510  36.588  1.00  0.00     0.173 A 
ATOM     67  F   UNL A   1      41.912  33.271  35.522  1.00  0.00    -0.203 F 
ATOM     68  C   UNL A   1      40.480  33.672  37.348  1.00  0.00     0.198 A 
ATOM     69  C   UNL A   1      38.571  32.266  37.705  1.00  0.00     0.198 A 
ATOM     70  F   UNL A   1      38.152  30.462  36.253  1.00  0.00    -0.203 F 
ATOM     71  F   UNL A   1      41.260  34.691  37.735  1.00  0.00    -0.200 F 
ATOM     72  C   UNL A   1      39.356  33.341  38.090  1.00  0.00     0.200 A 
ATOM     73  F   UNL A   1      37.475  31.949  38.410  1.00  0.00    -0.200 F 
ATOM     74  F   UNL A   1      39.037  34.051  39.181  1.00  0.00    -0.200 F 
ENDBRANCH  40  64
BRANCH  52  75
ATOM     75  C   UNL A   1      44.919  26.974  34.655  1.00  0.00     0.064 A 
ATOM     76  C   UNL A   1      44.731  25.820  35.429  1.00  0.00     0.173 A 
ATOM     77  C   UNL A   1      46.194  27.561  34.650  1.00  0.00     0.173 A 
ATOM     78  F   UNL A   1      43.528  25.230  35.479  1.00  0.00    -0.203 F 
ATOM     79  C   UNL A   1      45.774  25.286  36.181  1.00  0.00     0.198 A 
ATOM     80  C   UNL A   1      47.243  27.005  35.376  1.00  0.00     0.198 A 
ATOM     81  F   UNL A   1      46.430  28.663  33.920  1.00  0.00    -0.203 F 
ATOM     82  F   UNL A   1      45.561  24.206  36.946  1.00  0.00    -0.200 F 
ATOM     83  C   UNL A   1      47.031  25.872  36.145  1.00  0.00     0.200 A 
ATOM     84  F   UNL A   1      48.461  27.563  35.326  1.00  0.00    -0.200 F 
ATOM     85  F   UNL A   1      48.038  25.346  36.856  1.00  0.00    -0.200 F 
ENDBRANCH  52  75
ENDBRANCH  26  27
ENDBRANCH  19  21
ENDBRANCH  18  19
ENDBRANCH  17  18
ENDBRANCH   1  17
TORSDOF 17
ENDMDL
