MODEL 1
REMARK VINA RESULT:     -11.6      0.000      0.000
REMARK SMILES O=C(OCCOC(=O)[C@@H]1C[C@@H]2CC(=O)[C@H]1C2)c1ccc(-c2c3nc(c(-c4c(F)c(F)c(F)c(F)c4F)c4ccc([nH]4)c(-c4c(F)c(F)c(F)c(F)c4F)c4nc(c(-c5c(F)c(F)c(F)c(F)c5F)c5ccc2[nH]5)C=C4)C=C3)cc1
REMARK SMILES IDX 4 1 3 2 2 3 1 4 17 5 18 6 79 7 19 8 78 9 20 10 21 11 22 12
REMARK SMILES IDX 72 13 23 14 77 15 71 16 73 17 24 18 76 19 70 20 69 21 25 23
REMARK SMILES IDX 57 24 37 25 56 26 38 27 41 28 55 29 74 30 39 31 40 32 54 34
REMARK SMILES IDX 75 35 42 36 26 37 27 38 35 39 28 40 29 41 33 42 36 43 30 44
REMARK SMILES IDX 31 45 34 46 32 47 58 48 59 49 67 50 60 51 61 52 65 53 68 54
REMARK SMILES IDX 62 55 63 56 66 57 64 58 43 59 44 60 52 61 45 62 46 63 50 64
REMARK SMILES IDX 53 65 47 66 48 67 51 68 49 69 5 70 6 71 7 72 8 73 9 74 10 75
REMARK SMILES IDX 15 76 11 77 13 78 16 79 12 80 14 81
REMARK H PARENT 73 22 41 33
REMARK Flexibility Score: inf
ROOT
ATOM      1  C   UNL A   1      41.931  19.007  26.205  1.00  0.00     0.275 C 
ENDROOT
BRANCH   1   2
ATOM      2  O   UNL A   1      41.831  20.153  27.053  1.00  0.00    -0.458 OA
BRANCH   2   3
ATOM      3  C   UNL A   1      40.764  20.986  26.923  1.00  0.00     0.338 C 
ATOM      4  O   UNL A   1      39.830  20.760  26.165  1.00  0.00    -0.246 OA
BRANCH   3   5
ATOM      5  C   UNL A   1      41.019  22.357  27.435  1.00  0.00     0.060 A 
ATOM      6  C   UNL A   1      41.889  22.667  28.485  1.00  0.00     0.016 A 
ATOM      7  C   UNL A   1      40.397  23.389  26.743  1.00  0.00     0.016 A 
ATOM      8  C   UNL A   1      42.239  23.998  28.747  1.00  0.00     0.010 A 
ATOM      9  C   UNL A   1      40.838  24.696  26.923  1.00  0.00     0.010 A 
ATOM     10  C   UNL A   1      41.754  25.027  27.936  1.00  0.00    -0.014 A 
BRANCH  10  11
ATOM     11  C   UNL A   1      42.086  26.461  28.167  1.00  0.00     0.031 A 
ATOM     12  C   UNL A   1      43.488  26.923  27.859  1.00  0.00     0.074 A 
ATOM     13  C   UNL A   1      41.222  27.321  28.747  1.00  0.00     0.049 A 
ATOM     14  N   UNL A   1      44.041  28.092  28.061  1.00  0.00    -0.248 NA
ATOM     15  C   UNL A   1      44.411  25.918  27.298  1.00  0.00     0.031 C 
ATOM     16  C   UNL A   1      39.850  27.029  29.169  1.00  0.00     0.029 A 
ATOM     17  N   UNL A   1      41.404  28.627  29.142  1.00  0.00    -0.354 N 
ATOM     18  C   UNL A   1      45.346  27.950  27.614  1.00  0.00     0.074 A 
ATOM     19  C   UNL A   1      45.569  26.546  27.374  1.00  0.00     0.031 C 
ATOM     20  C   UNL A   1      39.353  28.084  29.840  1.00  0.00     0.029 A 
ATOM     21  C   UNL A   1      40.348  29.151  29.851  1.00  0.00     0.049 A 
ATOM     22  H   UNL A   1      42.218  29.141  28.936  1.00  0.00     0.167 HD
ATOM     23  C   UNL A   1      46.234  28.909  27.265  1.00  0.00     0.037 A 
ATOM     24  C   UNL A   1      40.201  30.362  30.425  1.00  0.00     0.037 A 
ATOM     25  C   UNL A   1      45.999  30.307  27.449  1.00  0.00     0.049 A 
ATOM     26  C   UNL A   1      41.248  31.418  30.170  1.00  0.00     0.074 A 
ATOM     27  C   UNL A   1      46.763  31.381  27.040  1.00  0.00     0.029 A 
ATOM     28  N   UNL A   1      44.898  30.819  28.116  1.00  0.00    -0.354 N 
ATOM     29  N   UNL A   1      42.388  31.318  29.529  1.00  0.00    -0.248 NA
ATOM     30  C   UNL A   1      40.949  32.777  30.645  1.00  0.00     0.031 C 
ATOM     31  C   UNL A   1      46.138  32.550  27.493  1.00  0.00     0.029 A 
ATOM     32  C   UNL A   1      44.969  32.199  28.151  1.00  0.00     0.049 A 
ATOM     33  H   UNL A   1      44.172  30.281  28.506  1.00  0.00     0.167 HD
ATOM     34  C   UNL A   1      42.882  32.612  29.427  1.00  0.00     0.074 A 
ATOM     35  C   UNL A   1      41.945  33.473  30.116  1.00  0.00     0.031 C 
ATOM     36  C   UNL A   1      43.994  33.048  28.784  1.00  0.00     0.037 A 
BRANCH  23  37
ATOM     37  C   UNL A   1      47.460  28.431  26.547  1.00  0.00     0.064 A 
ATOM     38  C   UNL A   1      47.389  28.056  25.192  1.00  0.00     0.173 A 
ATOM     39  C   UNL A   1      48.672  28.243  27.219  1.00  0.00     0.173 A 
ATOM     40  F   UNL A   1      46.241  28.199  24.510  1.00  0.00    -0.203 F 
ATOM     41  C   UNL A   1      48.461  27.435  24.562  1.00  0.00     0.198 A 
ATOM     42  C   UNL A   1      49.758  27.657  26.571  1.00  0.00     0.198 A 
ATOM     43  F   UNL A   1      48.793  28.589  28.509  1.00  0.00    -0.203 F 
ATOM     44  F   UNL A   1      48.330  26.986  23.306  1.00  0.00    -0.200 F 
ATOM     45  C   UNL A   1      49.645  27.233  25.253  1.00  0.00     0.200 A 
ATOM     46  F   UNL A   1      50.907  27.467  27.234  1.00  0.00    -0.200 F 
ATOM     47  F   UNL A   1      50.670  26.611  24.657  1.00  0.00    -0.200 F 
ENDBRANCH  23  37
BRANCH  24  48
ATOM     48  C   UNL A   1      38.979  30.703  31.200  1.00  0.00     0.064 A 
ATOM     49  C   UNL A   1      37.848  31.233  30.563  1.00  0.00     0.173 A 
ATOM     50  C   UNL A   1      38.948  30.593  32.598  1.00  0.00     0.173 A 
ATOM     51  F   UNL A   1      37.841  31.380  29.230  1.00  0.00    -0.203 F 
ATOM     52  C   UNL A   1      36.749  31.678  31.294  1.00  0.00     0.198 A 
ATOM     53  C   UNL A   1      37.839  31.025  33.328  1.00  0.00     0.198 A 
ATOM     54  F   UNL A   1      40.003  30.094  33.256  1.00  0.00    -0.203 F 
ATOM     55  F   UNL A   1      35.707  32.237  30.662  1.00  0.00    -0.200 F 
ATOM     56  C   UNL A   1      36.746  31.578  32.677  1.00  0.00     0.200 A 
ATOM     57  F   UNL A   1      37.839  30.927  34.665  1.00  0.00    -0.200 F 
ATOM     58  F   UNL A   1      35.699  32.028  33.382  1.00  0.00    -0.200 F 
ENDBRANCH  24  48
BRANCH  36  59
ATOM     59  C   UNL A   1      44.204  34.527  28.675  1.00  0.00     0.064 A 
ATOM     60  C   UNL A   1      43.671  35.281  27.623  1.00  0.00     0.173 A 
ATOM     61  C   UNL A   1      44.894  35.207  29.692  1.00  0.00     0.173 A 
ATOM     62  F   UNL A   1      43.022  34.675  26.618  1.00  0.00    -0.203 F 
ATOM     63  C   UNL A   1      43.831  36.664  27.586  1.00  0.00     0.198 A 
ATOM     64  C   UNL A   1      45.022  36.591  29.670  1.00  0.00     0.198 A 
ATOM     65  F   UNL A   1      45.420  34.527  30.723  1.00  0.00    -0.203 F 
ATOM     66  F   UNL A   1      43.346  37.364  26.551  1.00  0.00    -0.200 F 
ATOM     67  C   UNL A   1      44.494  37.318  28.615  1.00  0.00     0.200 A 
ATOM     68  F   UNL A   1      45.648  37.221  30.674  1.00  0.00    -0.200 F 
ATOM     69  F   UNL A   1      44.627  38.651  28.587  1.00  0.00    -0.200 F 
ENDBRANCH  36  59
ENDBRANCH  10  11
ENDBRANCH   3   5
ENDBRANCH   2   3
ENDBRANCH   1   2
BRANCH   1  70
ATOM     70  C   UNL A   1      43.349  18.753  25.670  1.00  0.00     0.274 C 
BRANCH  70  71
ATOM     71  O   UNL A   1      43.803  19.610  24.601  1.00  0.00    -0.462 OA
BRANCH  71  72
ATOM     72  C   UNL A   1      45.156  19.756  24.538  1.00  0.00     0.309 C 
ATOM     73  O   UNL A   1      45.917  18.918  24.064  1.00  0.00    -0.252 OA
BRANCH  72  74
ATOM     74  C   UNL A   1      45.687  21.041  25.164  1.00  0.00     0.110 C 
ATOM     75  C   UNL A   1      44.870  21.747  26.272  1.00  0.00     0.020 C 
ATOM     76  C   UNL A   1      45.931  22.165  24.160  1.00  0.00     0.070 C 
ATOM     77  C   UNL A   1      44.808  23.221  25.788  1.00  0.00    -0.002 C 
ATOM     78  C   UNL A   1      44.591  22.538  23.607  1.00  0.00     0.137 C 
ATOM     79  C   UNL A   1      46.139  23.389  25.046  1.00  0.00     0.016 C 
ATOM     80  C   UNL A   1      43.798  23.317  24.632  1.00  0.00     0.079 C 
ATOM     81  O   UNL A   1      44.232  22.209  22.497  1.00  0.00    -0.299 OA
ENDBRANCH  72  74
ENDBRANCH  71  72
ENDBRANCH  70  71
ENDBRANCH   1  70
TORSDOF 11
ENDMDL
MODEL 2
REMARK VINA RESULT:     -11.5      5.869     12.314
REMARK SMILES O=C(OCCOC(=O)[C@@H]1C[C@@H]2CC(=O)[C@H]1C2)c1ccc(-c2c3nc(c(-c4c(F)c(F)c(F)c(F)c4F)c4ccc([nH]4)c(-c4c(F)c(F)c(F)c(F)c4F)c4nc(c(-c5c(F)c(F)c(F)c(F)c5F)c5ccc2[nH]5)C=C4)C=C3)cc1
REMARK SMILES IDX 4 1 3 2 2 3 1 4 17 5 18 6 79 7 19 8 78 9 20 10 21 11 22 12
REMARK SMILES IDX 72 13 23 14 77 15 71 16 73 17 24 18 76 19 70 20 69 21 25 23
REMARK SMILES IDX 57 24 37 25 56 26 38 27 41 28 55 29 74 30 39 31 40 32 54 34
REMARK SMILES IDX 75 35 42 36 26 37 27 38 35 39 28 40 29 41 33 42 36 43 30 44
REMARK SMILES IDX 31 45 34 46 32 47 58 48 59 49 67 50 60 51 61 52 65 53 68 54
REMARK SMILES IDX 62 55 63 56 66 57 64 58 43 59 44 60 52 61 45 62 46 63 50 64
REMARK SMILES IDX 53 65 47 66 48 67 51 68 49 69 5 70 6 71 7 72 8 73 9 74 10 75
REMARK SMILES IDX 15 76 11 77 13 78 16 79 12 80 14 81
REMARK H PARENT 73 22 41 33
REMARK Flexibility Score: inf
ROOT
ATOM      1  C   UNL A   1      33.634  34.165  28.143  1.00  0.00     0.275 C 
ENDROOT
BRANCH   1   2
ATOM      2  O   UNL A   1      34.672  33.331  27.623  1.00  0.00    -0.458 OA
BRANCH   2   3
ATOM      3  C   UNL A   1      34.579  31.982  27.774  1.00  0.00     0.338 C 
ATOM      4  O   UNL A   1      33.515  31.401  27.936  1.00  0.00    -0.246 OA
BRANCH   3   5
ATOM      5  C   UNL A   1      35.866  31.340  28.143  1.00  0.00     0.060 A 
ATOM      6  C   UNL A   1      37.099  31.997  28.197  1.00  0.00     0.016 A 
ATOM      7  C   UNL A   1      35.790  30.010  28.540  1.00  0.00     0.016 A 
ATOM      8  C   UNL A   1      38.213  31.371  28.774  1.00  0.00     0.010 A 
ATOM      9  C   UNL A   1      36.859  29.437  29.222  1.00  0.00     0.010 A 
ATOM     10  C   UNL A   1      38.093  30.099  29.337  1.00  0.00    -0.014 A 
BRANCH  10  11
ATOM     11  C   UNL A   1      39.240  29.381  29.959  1.00  0.00     0.031 A 
ATOM     12  C   UNL A   1      39.796  29.919  31.253  1.00  0.00     0.074 A 
ATOM     13  C   UNL A   1      39.867  28.350  29.351  1.00  0.00     0.049 A 
ATOM     14  N   UNL A   1      40.842  29.526  31.936  1.00  0.00    -0.248 NA
ATOM     15  C   UNL A   1      39.117  31.094  31.831  1.00  0.00     0.031 C 
ATOM     16  C   UNL A   1      39.505  27.744  28.069  1.00  0.00     0.029 A 
ATOM     17  N   UNL A   1      41.001  27.663  29.720  1.00  0.00    -0.354 N 
ATOM     18  C   UNL A   1      40.900  30.384  33.023  1.00  0.00     0.074 A 
ATOM     19  C   UNL A   1      39.961  31.451  32.781  1.00  0.00     0.031 C 
ATOM     20  C   UNL A   1      40.444  26.846  27.716  1.00  0.00     0.029 A 
ATOM     21  C   UNL A   1      41.448  26.772  28.772  1.00  0.00     0.049 A 
ATOM     22  H   UNL A   1      41.452  27.797  30.584  1.00  0.00     0.167 HD
ATOM     23  C   UNL A   1      41.544  30.221  34.202  1.00  0.00     0.037 A 
ATOM     24  C   UNL A   1      42.536  25.975  28.772  1.00  0.00     0.037 A 
ATOM     25  C   UNL A   1      42.435  29.136  34.472  1.00  0.00     0.049 A 
ATOM     26  C   UNL A   1      43.362  25.876  30.031  1.00  0.00     0.074 A 
ATOM     27  C   UNL A   1      43.061  28.794  35.653  1.00  0.00     0.029 A 
ATOM     28  N   UNL A   1      42.829  28.212  33.518  1.00  0.00    -0.354 N 
ATOM     29  N   UNL A   1      43.249  26.544  31.153  1.00  0.00    -0.248 NA
ATOM     30  C   UNL A   1      44.415  24.848  30.053  1.00  0.00     0.031 C 
ATOM     31  C   UNL A   1      43.867  27.676  35.403  1.00  0.00     0.029 A 
ATOM     32  C   UNL A   1      43.711  27.306  34.075  1.00  0.00     0.049 A 
ATOM     33  H   UNL A   1      42.526  28.201  32.581  1.00  0.00     0.167 HD
ATOM     34  C   UNL A   1      44.131  25.947  32.044  1.00  0.00     0.074 A 
ATOM     35  C   UNL A   1      44.810  24.895  31.317  1.00  0.00     0.031 C 
ATOM     36  C   UNL A   1      44.329  26.223  33.357  1.00  0.00     0.037 A 
BRANCH  23  37
ATOM     37  C   UNL A   1      41.178  31.192  35.284  1.00  0.00     0.064 A 
ATOM     38  C   UNL A   1      39.935  31.093  35.937  1.00  0.00     0.173 A 
ATOM     39  C   UNL A   1      42.003  32.276  35.601  1.00  0.00     0.173 A 
ATOM     40  F   UNL A   1      39.099  30.080  35.651  1.00  0.00    -0.203 F 
ATOM     41  C   UNL A   1      39.497  32.087  36.803  1.00  0.00     0.198 A 
ATOM     42  C   UNL A   1      41.577  33.250  36.502  1.00  0.00     0.198 A 
ATOM     43  F   UNL A   1      43.199  32.413  35.011  1.00  0.00    -0.203 F 
ATOM     44  F   UNL A   1      38.264  32.027  37.324  1.00  0.00    -0.200 F 
ATOM     45  C   UNL A   1      40.319  33.168  37.084  1.00  0.00     0.200 A 
ATOM     46  F   UNL A   1      42.372  34.293  36.782  1.00  0.00    -0.200 F 
ATOM     47  F   UNL A   1      39.889  34.141  37.898  1.00  0.00    -0.200 F 
ENDBRANCH  23  37
BRANCH  24  48
ATOM     48  C   UNL A   1      42.862  25.117  27.602  1.00  0.00     0.064 A 
ATOM     49  C   UNL A   1      43.858  25.493  26.690  1.00  0.00     0.173 A 
ATOM     50  C   UNL A   1      42.127  23.955  27.324  1.00  0.00     0.173 A 
ATOM     51  F   UNL A   1      44.570  26.609  26.902  1.00  0.00    -0.203 F 
ATOM     52  C   UNL A   1      44.079  24.765  25.522  1.00  0.00     0.198 A 
ATOM     53  C   UNL A   1      42.362  23.218  26.162  1.00  0.00     0.198 A 
ATOM     54  F   UNL A   1      41.164  23.552  28.164  1.00  0.00    -0.203 F 
ATOM     55  F   UNL A   1      44.995  25.183  24.638  1.00  0.00    -0.200 F 
ATOM     56  C   UNL A   1      43.328  23.630  25.256  1.00  0.00     0.200 A 
ATOM     57  F   UNL A   1      41.634  22.121  25.908  1.00  0.00    -0.200 F 
ATOM     58  F   UNL A   1      43.525  22.944  24.122  1.00  0.00    -0.200 F 
ENDBRANCH  24  48
BRANCH  36  59
ATOM     59  C   UNL A   1      45.218  25.304  34.138  1.00  0.00     0.064 A 
ATOM     60  C   UNL A   1      46.574  25.579  34.350  1.00  0.00     0.173 A 
ATOM     61  C   UNL A   1      44.671  24.164  34.748  1.00  0.00     0.173 A 
ATOM     62  F   UNL A   1      47.146  26.645  33.773  1.00  0.00    -0.203 F 
ATOM     63  C   UNL A   1      47.356  24.736  35.136  1.00  0.00     0.198 A 
ATOM     64  C   UNL A   1      45.446  23.344  35.559  1.00  0.00     0.198 A 
ATOM     65  F   UNL A   1      43.374  23.861  34.577  1.00  0.00    -0.203 F 
ATOM     66  F   UNL A   1      48.661  24.994  35.295  1.00  0.00    -0.200 F 
ATOM     67  C   UNL A   1      46.789  23.628  35.749  1.00  0.00     0.200 A 
ATOM     68  F   UNL A   1      44.891  22.283  36.164  1.00  0.00    -0.200 F 
ATOM     69  F   UNL A   1      47.540  22.832  36.522  1.00  0.00    -0.200 F 
ENDBRANCH  36  59
ENDBRANCH  10  11
ENDBRANCH   3   5
ENDBRANCH   2   3
ENDBRANCH   1   2
BRANCH   1  70
ATOM     70  C   UNL A   1      33.820  34.537  29.623  1.00  0.00     0.274 C 
BRANCH  70  71
ATOM     71  O   UNL A   1      35.095  34.216  30.217  1.00  0.00    -0.462 OA
BRANCH  71  72
ATOM     72  C   UNL A   1      35.029  33.296  31.219  1.00  0.00     0.309 C 
ATOM     73  O   UNL A   1      34.048  32.593  31.444  1.00  0.00    -0.252 OA
BRANCH  72  74
ATOM     74  C   UNL A   1      36.267  33.231  32.107  1.00  0.00     0.110 C 
ATOM     75  C   UNL A   1      36.268  32.313  33.352  1.00  0.00     0.020 C 
ATOM     76  C   UNL A   1      36.687  34.581  32.685  1.00  0.00     0.070 C 
ATOM     77  C   UNL A   1      36.761  33.250  34.488  1.00  0.00    -0.002 C 
ATOM     78  C   UNL A   1      35.585  35.010  33.602  1.00  0.00     0.137 C 
ATOM     79  C   UNL A   1      37.710  34.202  33.753  1.00  0.00     0.016 C 
ATOM     80  C   UNL A   1      35.614  34.199  34.877  1.00  0.00     0.079 C 
ATOM     81  O   UNL A   1      34.790  35.874  33.301  1.00  0.00    -0.299 OA
ENDBRANCH  72  74
ENDBRANCH  71  72
ENDBRANCH  70  71
ENDBRANCH   1  70
TORSDOF 11
ENDMDL
MODEL 3
REMARK VINA RESULT:     -11.5      6.015     12.821
REMARK SMILES O=C(OCCOC(=O)[C@@H]1C[C@@H]2CC(=O)[C@H]1C2)c1ccc(-c2c3nc(c(-c4c(F)c(F)c(F)c(F)c4F)c4ccc([nH]4)c(-c4c(F)c(F)c(F)c(F)c4F)c4nc(c(-c5c(F)c(F)c(F)c(F)c5F)c5ccc2[nH]5)C=C4)C=C3)cc1
REMARK SMILES IDX 4 1 3 2 2 3 1 4 17 5 18 6 79 7 19 8 78 9 20 10 21 11 22 12
REMARK SMILES IDX 72 13 23 14 77 15 71 16 73 17 24 18 76 19 70 20 69 21 25 23
REMARK SMILES IDX 57 24 37 25 56 26 38 27 41 28 55 29 74 30 39 31 40 32 54 34
REMARK SMILES IDX 75 35 42 36 26 37 27 38 35 39 28 40 29 41 33 42 36 43 30 44
REMARK SMILES IDX 31 45 34 46 32 47 58 48 59 49 67 50 60 51 61 52 65 53 68 54
REMARK SMILES IDX 62 55 63 56 66 57 64 58 43 59 44 60 52 61 45 62 46 63 50 64
REMARK SMILES IDX 53 65 47 66 48 67 51 68 49 69 5 70 6 71 7 72 8 73 9 74 10 75
REMARK SMILES IDX 15 76 11 77 13 78 16 79 12 80 14 81
REMARK H PARENT 73 22 41 33
REMARK Flexibility Score: inf
ROOT
ATOM      1  C   UNL A   1      33.196  35.474  28.926  1.00  0.00     0.275 C 
ENDROOT
BRANCH   1   2
ATOM      2  O   UNL A   1      34.460  34.866  28.652  1.00  0.00    -0.458 OA
BRANCH   2   3
ATOM      3  C   UNL A   1      34.495  33.609  28.136  1.00  0.00     0.338 C 
ATOM      4  O   UNL A   1      33.499  33.026  27.729  1.00  0.00    -0.246 OA
BRANCH   3   5
ATOM      5  C   UNL A   1      35.729  32.860  28.488  1.00  0.00     0.060 A 
ATOM      6  C   UNL A   1      37.003  33.426  28.593  1.00  0.00     0.016 A 
ATOM      7  C   UNL A   1      35.554  31.520  28.812  1.00  0.00     0.016 A 
ATOM      8  C   UNL A   1      38.061  32.695  29.150  1.00  0.00     0.010 A 
ATOM      9  C   UNL A   1      36.570  30.839  29.476  1.00  0.00     0.010 A 
ATOM     10  C   UNL A   1      37.845  31.407  29.644  1.00  0.00    -0.014 A 
BRANCH  10  11
ATOM     11  C   UNL A   1      38.929  30.579  30.242  1.00  0.00     0.031 A 
ATOM     12  C   UNL A   1      39.401  30.925  31.631  1.00  0.00     0.074 A 
ATOM     13  C   UNL A   1      39.577  29.619  29.546  1.00  0.00     0.049 A 
ATOM     14  N   UNL A   1      40.386  30.415  32.326  1.00  0.00    -0.248 NA
ATOM     15  C   UNL A   1      38.705  32.034  32.313  1.00  0.00     0.031 C 
ATOM     16  C   UNL A   1      39.296  29.198  28.172  1.00  0.00     0.029 A 
ATOM     17  N   UNL A   1      40.667  28.856  29.897  1.00  0.00    -0.354 N 
ATOM     18  C   UNL A   1      40.383  31.120  33.519  1.00  0.00     0.074 A 
ATOM     19  C   UNL A   1      39.486  32.238  33.358  1.00  0.00     0.031 C 
ATOM     20  C   UNL A   1      40.240  28.327  27.769  1.00  0.00     0.029 A 
ATOM     21  C   UNL A   1      41.164  28.085  28.872  1.00  0.00     0.049 A 
ATOM     22  H   UNL A   1      41.057  28.862  30.801  1.00  0.00     0.167 HD
ATOM     23  C   UNL A   1      40.936  30.785  34.707  1.00  0.00     0.037 A 
ATOM     24  C   UNL A   1      42.232  27.263  28.841  1.00  0.00     0.037 A 
ATOM     25  C   UNL A   1      41.783  29.648  34.890  1.00  0.00     0.049 A 
ATOM     26  C   UNL A   1      42.963  26.974  30.129  1.00  0.00     0.074 A 
ATOM     27  C   UNL A   1      42.316  29.135  36.056  1.00  0.00     0.029 A 
ATOM     28  N   UNL A   1      42.227  28.846  33.851  1.00  0.00    -0.354 N 
ATOM     29  N   UNL A   1      42.782  27.492  31.320  1.00  0.00    -0.248 NA
ATOM     30  C   UNL A   1      43.990  25.922  30.087  1.00  0.00     0.031 C 
ATOM     31  C   UNL A   1      43.115  28.036  35.715  1.00  0.00     0.029 A 
ATOM     32  C   UNL A   1      43.048  27.849  34.343  1.00  0.00     0.049 A 
ATOM     33  H   UNL A   1      41.992  28.967  32.903  1.00  0.00     0.167 HD
ATOM     34  C   UNL A   1      43.586  26.757  32.182  1.00  0.00     0.074 A 
ATOM     35  C   UNL A   1      44.294  25.791  31.370  1.00  0.00     0.031 C 
ATOM     36  C   UNL A   1      43.694  26.852  33.530  1.00  0.00     0.037 A 
BRANCH  23  37
ATOM     37  C   UNL A   1      40.513  31.615  35.881  1.00  0.00     0.064 A 
ATOM     38  C   UNL A   1      39.234  31.449  36.445  1.00  0.00     0.173 A 
ATOM     39  C   UNL A   1      41.323  32.641  36.379  1.00  0.00     0.173 A 
ATOM     40  F   UNL A   1      38.413  30.489  35.987  1.00  0.00    -0.203 F 
ATOM     41  C   UNL A   1      38.752  32.330  37.405  1.00  0.00     0.198 A 
ATOM     42  C   UNL A   1      40.850  33.498  37.371  1.00  0.00     0.198 A 
ATOM     43  F   UNL A   1      42.552  32.838  35.880  1.00  0.00    -0.203 F 
ATOM     44  F   UNL A   1      37.491  32.218  37.843  1.00  0.00    -0.200 F 
ATOM     45  C   UNL A   1      39.560  33.357  37.866  1.00  0.00     0.200 A 
ATOM     46  F   UNL A   1      41.632  34.489  37.825  1.00  0.00    -0.200 F 
ATOM     47  F   UNL A   1      39.089  34.225  38.771  1.00  0.00    -0.200 F 
ENDBRANCH  23  37
BRANCH  24  48
ATOM     48  C   UNL A   1      42.624  26.557  27.592  1.00  0.00     0.064 A 
ATOM     49  C   UNL A   1      42.092  25.297  27.282  1.00  0.00     0.173 A 
ATOM     50  C   UNL A   1      43.601  27.082  26.734  1.00  0.00     0.173 A 
ATOM     51  F   UNL A   1      41.174  24.744  28.087  1.00  0.00    -0.203 F 
ATOM     52  C   UNL A   1      42.551  24.570  26.185  1.00  0.00     0.198 A 
ATOM     53  C   UNL A   1      44.047  26.360  25.627  1.00  0.00     0.198 A 
ATOM     54  F   UNL A   1      44.141  28.282  26.986  1.00  0.00    -0.203 F 
ATOM     55  F   UNL A   1      42.069  23.342  25.948  1.00  0.00    -0.200 F 
ATOM     56  C   UNL A   1      43.531  25.100  25.360  1.00  0.00     0.200 A 
ATOM     57  F   UNL A   1      44.995  26.874  24.830  1.00  0.00    -0.200 F 
ATOM     58  F   UNL A   1      43.989  24.391  24.319  1.00  0.00    -0.200 F 
ENDBRANCH  24  48
BRANCH  36  59
ATOM     59  C   UNL A   1      44.505  25.812  34.242  1.00  0.00     0.064 A 
ATOM     60  C   UNL A   1      43.933  24.643  34.756  1.00  0.00     0.173 A 
ATOM     61  C   UNL A   1      45.897  25.966  34.340  1.00  0.00     0.173 A 
ATOM     62  F   UNL A   1      42.606  24.460  34.703  1.00  0.00    -0.203 F 
ATOM     63  C   UNL A   1      44.725  23.667  35.355  1.00  0.00     0.198 A 
ATOM     64  C   UNL A   1      46.689  24.975  34.907  1.00  0.00     0.198 A 
ATOM     65  F   UNL A   1      46.492  27.069  33.859  1.00  0.00    -0.203 F 
ATOM     66  F   UNL A   1      44.155  22.572  35.875  1.00  0.00    -0.200 F 
ATOM     67  C   UNL A   1      46.102  23.828  35.418  1.00  0.00     0.200 A 
ATOM     68  F   UNL A   1      48.021  25.126  34.952  1.00  0.00    -0.200 F 
ATOM     69  F   UNL A   1      46.864  22.877  35.976  1.00  0.00    -0.200 F 
ENDBRANCH  36  59
ENDBRANCH  10  11
ENDBRANCH   3   5
ENDBRANCH   2   3
ENDBRANCH   1   2
BRANCH   1  70
ATOM     70  C   UNL A   1      32.905  35.655  30.424  1.00  0.00     0.274 C 
BRANCH  70  71
ATOM     71  O   UNL A   1      33.777  36.546  31.151  1.00  0.00    -0.462 OA
BRANCH  71  72
ATOM     72  C   UNL A   1      33.767  36.359  32.501  1.00  0.00     0.309 C 
ATOM     73  O   UNL A   1      32.890  36.782  33.248  1.00  0.00    -0.252 OA
BRANCH  72  74
ATOM     74  C   UNL A   1      34.980  35.617  33.050  1.00  0.00     0.110 C 
ATOM     75  C   UNL A   1      35.980  34.954  32.071  1.00  0.00     0.020 C 
ATOM     76  C   UNL A   1      34.631  34.472  33.998  1.00  0.00     0.070 C 
ATOM     77  C   UNL A   1      36.128  33.514  32.632  1.00  0.00    -0.002 C 
ATOM     78  C   UNL A   1      33.901  33.453  33.181  1.00  0.00     0.137 C 
ATOM     79  C   UNL A   1      35.949  33.718  34.140  1.00  0.00     0.016 C 
ATOM     80  C   UNL A   1      34.863  32.714  32.279  1.00  0.00     0.079 C 
ATOM     81  O   UNL A   1      32.700  33.304  33.251  1.00  0.00    -0.299 OA
ENDBRANCH  72  74
ENDBRANCH  71  72
ENDBRANCH  70  71
ENDBRANCH   1  70
TORSDOF 11
ENDMDL
