MODEL 1
REMARK VINA RESULT:     -12.8      0.000      0.000
REMARK SMILES O=C(CC1(NC(=O)c2ccc3cc[nH]c3c2)CCC1)OCCOC(=O)c1ccc(-c2c3nc(c(-c4c(F)c(F)c(F)c(F)c4F)c4ccc([nH]4)c(-c4c(F)c(F)c(F)c(F)c4F)c4nc(c(-c5c(F)c(F)c(F)c(F)c5F)c5ccc2[nH]5)C=C4)C=C3)cc1
REMARK SMILES IDX 21 1 20 2 2 3 1 4 3 5 4 6 17 7 19 8 18 9 5 10 6 11 7 13 8 14
REMARK SMILES IDX 9 15 16 16 10 17 15 18 11 19 14 20 12 21 13 22 22 24 23 25
REMARK SMILES IDX 24 26 25 27 26 28 27 29 88 30 28 31 87 32 29 33 30 34 31 35
REMARK SMILES IDX 81 36 32 37 86 38 80 39 82 40 33 41 85 42 79 43 78 44 34 46
REMARK SMILES IDX 66 47 46 48 65 49 47 50 50 51 64 52 83 53 48 54 49 55 63 57
REMARK SMILES IDX 84 58 51 59 35 60 36 61 44 62 37 63 38 64 42 65 45 66 39 67
REMARK SMILES IDX 40 68 43 69 41 70 67 71 68 72 76 73 69 74 70 75 74 76 77 77
REMARK SMILES IDX 71 78 72 79 75 80 73 81 52 82 53 83 61 84 54 85 55 86 59 87
REMARK SMILES IDX 62 88 56 89 57 90 60 91 58 92
REMARK H PARENT 5 12 14 23 82 45 50 56
REMARK Flexibility Score: inf
ROOT
ATOM      1  C   UNL A   1      31.758  29.613  25.667  1.00  0.00     0.274 C 
ENDROOT
BRANCH   1   2
ATOM      2  O   UNL A   1      32.872  29.609  24.743  1.00  0.00    -0.462 OA
BRANCH   2   3
ATOM      3  C   UNL A   1      33.674  28.577  24.422  1.00  0.00     0.308 C 
ATOM      4  O   UNL A   1      34.403  28.589  23.433  1.00  0.00    -0.252 OA
BRANCH   3   5
ATOM      5  C   UNL A   1      33.651  27.377  25.264  1.00  0.00     0.151 C 
BRANCH   5   6
ATOM      6  C   UNL A   1      33.311  26.056  24.606  1.00  0.00     0.051 C 
ATOM      7  C   UNL A   1      34.403  24.944  24.882  1.00  0.00     0.029 C 
ATOM      8  C   UNL A   1      32.398  25.208  25.584  1.00  0.00     0.029 C 
ATOM      9  C   UNL A   1      33.636  24.491  26.126  1.00  0.00     0.005 C 
BRANCH   6  10
ATOM     10  N   UNL A   1      32.741  25.988  23.203  1.00  0.00    -0.346 N 
ATOM     11  C   UNL A   1      31.762  26.470  22.332  1.00  0.00     0.251 C 
ATOM     12  H   UNL A   1      33.282  25.337  22.701  1.00  0.00     0.164 HD
ATOM     13  O   UNL A   1      31.780  25.983  21.196  1.00  0.00    -0.269 OA
BRANCH  11  14
ATOM     14  C   UNL A   1      30.730  27.514  22.549  1.00  0.00     0.041 A 
ATOM     15  C   UNL A   1      29.661  27.257  23.420  1.00  0.00     0.014 A 
ATOM     16  C   UNL A   1      30.885  28.807  22.022  1.00  0.00     0.040 A 
ATOM     17  C   UNL A   1      28.565  28.136  23.501  1.00  0.00     0.011 A 
ATOM     18  C   UNL A   1      29.795  29.698  22.144  1.00  0.00     0.046 A 
ATOM     19  C   UNL A   1      28.607  29.348  22.789  1.00  0.00    -0.001 A 
ATOM     20  N   UNL A   1      29.611  30.975  21.657  1.00  0.00    -0.361 N 
ATOM     21  C   UNL A   1      27.653  30.367  22.505  1.00  0.00     0.028 A 
ATOM     22  C   UNL A   1      28.301  31.357  21.802  1.00  0.00     0.083 A 
ATOM     23  H   UNL A   1      30.318  31.532  21.260  1.00  0.00     0.166 HD
ENDBRANCH  11  14
ENDBRANCH   6  10
ENDBRANCH   5   6
ENDBRANCH   3   5
ENDBRANCH   2   3
ENDBRANCH   1   2
BRANCH   1  24
ATOM     24  C   UNL A   1      31.781  30.899  26.485  1.00  0.00     0.275 C 
BRANCH  24  25
ATOM     25  O   UNL A   1      32.827  30.764  27.456  1.00  0.00    -0.458 OA
BRANCH  25  26
ATOM     26  C   UNL A   1      33.555  31.908  27.612  1.00  0.00     0.338 C 
ATOM     27  O   UNL A   1      33.143  33.042  27.625  1.00  0.00    -0.246 OA
BRANCH  26  28
ATOM     28  C   UNL A   1      34.913  31.499  28.035  1.00  0.00     0.060 A 
ATOM     29  C   UNL A   1      35.131  30.149  28.338  1.00  0.00     0.016 A 
ATOM     30  C   UNL A   1      35.958  32.421  28.091  1.00  0.00     0.016 A 
ATOM     31  C   UNL A   1      36.400  29.705  28.689  1.00  0.00     0.010 A 
ATOM     32  C   UNL A   1      37.208  31.999  28.528  1.00  0.00     0.010 A 
ATOM     33  C   UNL A   1      37.413  30.650  28.865  1.00  0.00    -0.014 A 
BRANCH  33  34
ATOM     34  C   UNL A   1      38.551  30.312  29.735  1.00  0.00     0.031 A 
ATOM     35  C   UNL A   1      39.544  29.332  29.180  1.00  0.00     0.074 A 
ATOM     36  C   UNL A   1      38.659  30.828  30.967  1.00  0.00     0.049 A 
ATOM     37  N   UNL A   1      40.548  28.737  29.763  1.00  0.00    -0.248 NA
ATOM     38  C   UNL A   1      39.365  28.957  27.764  1.00  0.00     0.031 C 
ATOM     39  C   UNL A   1      37.769  31.831  31.544  1.00  0.00     0.029 A 
ATOM     40  N   UNL A   1      39.562  30.558  31.959  1.00  0.00    -0.354 N 
ATOM     41  C   UNL A   1      41.101  27.907  28.795  1.00  0.00     0.074 A 
ATOM     42  C   UNL A   1      40.317  28.057  27.594  1.00  0.00     0.031 C 
ATOM     43  C   UNL A   1      38.160  32.081  32.806  1.00  0.00     0.029 A 
ATOM     44  C   UNL A   1      39.297  31.223  33.130  1.00  0.00     0.049 A 
ATOM     45  H   UNL A   1      40.325  29.948  31.844  1.00  0.00     0.167 HD
ATOM     46  C   UNL A   1      42.167  27.085  28.914  1.00  0.00     0.037 A 
ATOM     47  C   UNL A   1      39.903  31.112  34.325  1.00  0.00     0.037 A 
ATOM     48  C   UNL A   1      42.911  26.948  30.135  1.00  0.00     0.049 A 
ATOM     49  C   UNL A   1      41.052  30.142  34.451  1.00  0.00     0.074 A 
ATOM     50  C   UNL A   1      44.008  26.153  30.398  1.00  0.00     0.029 A 
ATOM     51  N   UNL A   1      42.612  27.630  31.309  1.00  0.00    -0.354 N 
ATOM     52  N   UNL A   1      41.579  29.357  33.539  1.00  0.00    -0.248 NA
ATOM     53  C   UNL A   1      41.689  30.043  35.767  1.00  0.00     0.031 C 
ATOM     54  C   UNL A   1      44.338  26.310  31.749  1.00  0.00     0.029 A 
ATOM     55  C   UNL A   1      43.490  27.256  32.309  1.00  0.00     0.049 A 
ATOM     56  H   UNL A   1      41.882  28.282  31.414  1.00  0.00     0.167 HD
ATOM     57  C   UNL A   1      42.633  28.700  34.158  1.00  0.00     0.074 A 
ATOM     58  C   UNL A   1      42.673  29.189  35.523  1.00  0.00     0.031 C 
ATOM     59  C   UNL A   1      43.494  27.779  33.654  1.00  0.00     0.037 A 
BRANCH  46  60
ATOM     60  C   UNL A   1      42.528  26.246  27.721  1.00  0.00     0.064 A 
ATOM     61  C   UNL A   1      41.923  25.004  27.469  1.00  0.00     0.173 A 
ATOM     62  C   UNL A   1      43.520  26.680  26.828  1.00  0.00     0.173 A 
ATOM     63  F   UNL A   1      40.988  24.526  28.305  1.00  0.00    -0.203 F 
ATOM     64  C   UNL A   1      42.323  24.214  26.392  1.00  0.00     0.198 A 
ATOM     65  C   UNL A   1      43.892  25.904  25.732  1.00  0.00     0.198 A 
ATOM     66  F   UNL A   1      44.139  27.854  27.022  1.00  0.00    -0.203 F 
ATOM     67  F   UNL A   1      41.778  23.003  26.213  1.00  0.00    -0.200 F 
ATOM     68  C   UNL A   1      43.302  24.667  25.521  1.00  0.00     0.200 A 
ATOM     69  F   UNL A   1      44.832  26.348  24.888  1.00  0.00    -0.200 F 
ATOM     70  F   UNL A   1      43.685  23.908  24.486  1.00  0.00    -0.200 F 
ENDBRANCH  46  60
BRANCH  47  71
ATOM     71  C   UNL A   1      39.445  31.933  35.478  1.00  0.00     0.064 A 
ATOM     72  C   UNL A   1      38.530  31.419  36.408  1.00  0.00     0.173 A 
ATOM     73  C   UNL A   1      39.912  33.240  35.682  1.00  0.00     0.173 A 
ATOM     74  F   UNL A   1      38.039  30.181  36.249  1.00  0.00    -0.203 F 
ATOM     75  C   UNL A   1      38.087  32.185  37.485  1.00  0.00     0.198 A 
ATOM     76  C   UNL A   1      39.490  33.995  36.776  1.00  0.00     0.198 A 
ATOM     77  F   UNL A   1      40.791  33.783  34.826  1.00  0.00    -0.203 F 
ATOM     78  F   UNL A   1      37.179  31.682  38.333  1.00  0.00    -0.200 F 
ATOM     79  C   UNL A   1      38.572  33.470  37.672  1.00  0.00     0.200 A 
ATOM     80  F   UNL A   1      39.975  35.230  36.962  1.00  0.00    -0.200 F 
ATOM     81  F   UNL A   1      38.152  34.203  38.712  1.00  0.00    -0.200 F 
ENDBRANCH  47  71
BRANCH  59  82
ATOM     82  C   UNL A   1      44.577  27.292  34.572  1.00  0.00     0.064 A 
ATOM     83  C   UNL A   1      45.804  27.960  34.688  1.00  0.00     0.173 A 
ATOM     84  C   UNL A   1      44.366  26.155  35.366  1.00  0.00     0.173 A 
ATOM     85  F   UNL A   1      46.058  29.045  33.941  1.00  0.00    -0.203 F 
ATOM     86  C   UNL A   1      46.797  27.482  35.538  1.00  0.00     0.198 A 
ATOM     87  C   UNL A   1      45.346  25.703  36.243  1.00  0.00     0.198 A 
ATOM     88  F   UNL A   1      43.203  25.489  35.298  1.00  0.00    -0.203 F 
ATOM     89  F   UNL A   1      47.987  28.097  35.587  1.00  0.00    -0.200 F 
ATOM     90  C   UNL A   1      46.564  26.360  36.320  1.00  0.00     0.200 A 
ATOM     91  F   UNL A   1      45.111  24.631  37.011  1.00  0.00    -0.200 F 
ATOM     92  F   UNL A   1      47.520  25.904  37.141  1.00  0.00    -0.200 F 
ENDBRANCH  59  82
ENDBRANCH  33  34
ENDBRANCH  26  28
ENDBRANCH  25  26
ENDBRANCH  24  25
ENDBRANCH   1  24
TORSDOF 14
ENDMDL
MODEL 2
REMARK VINA RESULT:     -12.6      0.600      1.747
REMARK SMILES O=C(CC1(NC(=O)c2ccc3cc[nH]c3c2)CCC1)OCCOC(=O)c1ccc(-c2c3nc(c(-c4c(F)c(F)c(F)c(F)c4F)c4ccc([nH]4)c(-c4c(F)c(F)c(F)c(F)c4F)c4nc(c(-c5c(F)c(F)c(F)c(F)c5F)c5ccc2[nH]5)C=C4)C=C3)cc1
REMARK SMILES IDX 21 1 20 2 2 3 1 4 3 5 4 6 17 7 19 8 18 9 5 10 6 11 7 13 8 14
REMARK SMILES IDX 9 15 16 16 10 17 15 18 11 19 14 20 12 21 13 22 22 24 23 25
REMARK SMILES IDX 24 26 25 27 26 28 27 29 88 30 28 31 87 32 29 33 30 34 31 35
REMARK SMILES IDX 81 36 32 37 86 38 80 39 82 40 33 41 85 42 79 43 78 44 34 46
REMARK SMILES IDX 66 47 46 48 65 49 47 50 50 51 64 52 83 53 48 54 49 55 63 57
REMARK SMILES IDX 84 58 51 59 35 60 36 61 44 62 37 63 38 64 42 65 45 66 39 67
REMARK SMILES IDX 40 68 43 69 41 70 67 71 68 72 76 73 69 74 70 75 74 76 77 77
REMARK SMILES IDX 71 78 72 79 75 80 73 81 52 82 53 83 61 84 54 85 55 86 59 87
REMARK SMILES IDX 62 88 56 89 57 90 60 91 58 92
REMARK H PARENT 5 12 14 23 82 45 50 56
REMARK Flexibility Score: inf
ROOT
ATOM      1  C   UNL A   1      31.514  30.002  25.633  1.00  0.00     0.274 C 
ENDROOT
BRANCH   1   2
ATOM      2  O   UNL A   1      31.679  28.815  26.443  1.00  0.00    -0.462 OA
BRANCH   2   3
ATOM      3  C   UNL A   1      32.458  27.746  26.192  1.00  0.00     0.308 C 
ATOM      4  O   UNL A   1      33.545  27.839  25.625  1.00  0.00    -0.252 OA
BRANCH   3   5
ATOM      5  C   UNL A   1      31.976  26.416  26.574  1.00  0.00     0.151 C 
BRANCH   5   6
ATOM      6  C   UNL A   1      32.055  25.309  25.543  1.00  0.00     0.051 C 
ATOM      7  C   UNL A   1      32.913  24.076  26.044  1.00  0.00     0.029 C 
ATOM      8  C   UNL A   1      30.813  24.343  25.722  1.00  0.00     0.029 C 
ATOM      9  C   UNL A   1      31.651  23.421  26.610  1.00  0.00     0.005 C 
BRANCH   6  10
ATOM     10  N   UNL A   1      32.251  25.605  24.070  1.00  0.00    -0.346 N 
ATOM     11  C   UNL A   1      31.807  26.348  22.974  1.00  0.00     0.251 C 
ATOM     12  H   UNL A   1      32.997  25.044  23.757  1.00  0.00     0.164 HD
ATOM     13  O   UNL A   1      32.402  26.130  21.912  1.00  0.00    -0.269 OA
BRANCH  11  14
ATOM     14  C   UNL A   1      30.756  27.394  22.900  1.00  0.00     0.041 A 
ATOM     15  C   UNL A   1      29.513  27.166  23.507  1.00  0.00     0.014 A 
ATOM     16  C   UNL A   1      31.035  28.664  22.370  1.00  0.00     0.040 A 
ATOM     17  C   UNL A   1      28.431  28.042  23.293  1.00  0.00     0.011 A 
ATOM     18  C   UNL A   1      29.950  29.552  22.196  1.00  0.00     0.046 A 
ATOM     19  C   UNL A   1      28.643  29.223  22.560  1.00  0.00    -0.001 A 
ATOM     20  N   UNL A   1      29.889  30.807  21.626  1.00  0.00    -0.361 N 
ATOM     21  C   UNL A   1      27.786  30.223  22.018  1.00  0.00     0.028 A 
ATOM     22  C   UNL A   1      28.583  31.187  21.445  1.00  0.00     0.083 A 
ATOM     23  H   UNL A   1      30.673  31.351  21.382  1.00  0.00     0.166 HD
ENDBRANCH  11  14
ENDBRANCH   6  10
ENDBRANCH   5   6
ENDBRANCH   3   5
ENDBRANCH   2   3
ENDBRANCH   1   2
BRANCH   1  24
ATOM     24  C   UNL A   1      31.750  31.239  26.491  1.00  0.00     0.275 C 
BRANCH  24  25
ATOM     25  O   UNL A   1      32.898  30.974  27.309  1.00  0.00    -0.458 OA
BRANCH  25  26
ATOM     26  C   UNL A   1      33.613  32.099  27.599  1.00  0.00     0.338 C 
ATOM     27  O   UNL A   1      33.194  33.227  27.697  1.00  0.00    -0.246 OA
BRANCH  26  28
ATOM     28  C   UNL A   1      34.953  31.656  28.041  1.00  0.00     0.060 A 
ATOM     29  C   UNL A   1      35.123  30.308  28.383  1.00  0.00     0.016 A 
ATOM     30  C   UNL A   1      36.029  32.541  28.078  1.00  0.00     0.016 A 
ATOM     31  C   UNL A   1      36.374  29.830  28.754  1.00  0.00     0.010 A 
ATOM     32  C   UNL A   1      37.261  32.089  28.533  1.00  0.00     0.010 A 
ATOM     33  C   UNL A   1      37.418  30.744  28.908  1.00  0.00    -0.014 A 
BRANCH  33  34
ATOM     34  C   UNL A   1      38.539  30.391  29.794  1.00  0.00     0.031 A 
ATOM     35  C   UNL A   1      39.540  29.416  29.243  1.00  0.00     0.074 A 
ATOM     36  C   UNL A   1      38.626  30.889  31.036  1.00  0.00     0.049 A 
ATOM     37  N   UNL A   1      40.532  28.811  29.836  1.00  0.00    -0.248 NA
ATOM     38  C   UNL A   1      39.386  29.061  27.820  1.00  0.00     0.031 C 
ATOM     39  C   UNL A   1      37.728  31.887  31.610  1.00  0.00     0.029 A 
ATOM     40  N   UNL A   1      39.510  30.604  32.040  1.00  0.00    -0.354 N 
ATOM     41  C   UNL A   1      41.100  27.993  28.868  1.00  0.00     0.074 A 
ATOM     42  C   UNL A   1      40.339  28.161  27.654  1.00  0.00     0.031 C 
ATOM     43  C   UNL A   1      38.096  32.119  32.882  1.00  0.00     0.029 A 
ATOM     44  C   UNL A   1      39.226  31.253  33.214  1.00  0.00     0.049 A 
ATOM     45  H   UNL A   1      40.274  29.993  31.930  1.00  0.00     0.167 HD
ATOM     46  C   UNL A   1      42.162  27.166  28.994  1.00  0.00     0.037 A 
ATOM     47  C   UNL A   1      39.810  31.124  34.419  1.00  0.00     0.037 A 
ATOM     48  C   UNL A   1      42.884  27.010  30.226  1.00  0.00     0.049 A 
ATOM     49  C   UNL A   1      40.954  30.150  34.552  1.00  0.00     0.074 A 
ATOM     50  C   UNL A   1      43.974  26.209  30.498  1.00  0.00     0.029 A 
ATOM     51  N   UNL A   1      42.565  27.677  31.404  1.00  0.00    -0.354 N 
ATOM     52  N   UNL A   1      41.495  29.376  33.639  1.00  0.00    -0.248 NA
ATOM     53  C   UNL A   1      41.567  30.030  35.878  1.00  0.00     0.031 C 
ATOM     54  C   UNL A   1      44.280  26.347  31.857  1.00  0.00     0.029 A 
ATOM     55  C   UNL A   1      43.424  27.286  32.415  1.00  0.00     0.049 A 
ATOM     56  H   UNL A   1      41.835  28.330  31.504  1.00  0.00     0.167 HD
ATOM     57  C   UNL A   1      42.537  28.707  34.268  1.00  0.00     0.074 A 
ATOM     58  C   UNL A   1      42.553  29.177  35.639  1.00  0.00     0.031 C 
ATOM     59  C   UNL A   1      43.405  27.791  33.767  1.00  0.00     0.037 A 
BRANCH  46  60
ATOM     60  C   UNL A   1      42.543  26.342  27.796  1.00  0.00     0.064 A 
ATOM     61  C   UNL A   1      41.953  25.098  27.526  1.00  0.00     0.173 A 
ATOM     62  C   UNL A   1      43.539  26.796  26.917  1.00  0.00     0.173 A 
ATOM     63  F   UNL A   1      41.014  24.602  28.347  1.00  0.00    -0.203 F 
ATOM     64  C   UNL A   1      42.370  24.323  26.445  1.00  0.00     0.198 A 
ATOM     65  C   UNL A   1      43.929  26.034  25.817  1.00  0.00     0.198 A 
ATOM     66  F   UNL A   1      44.145  27.973  27.129  1.00  0.00    -0.203 F 
ATOM     67  F   UNL A   1      41.839  23.109  26.248  1.00  0.00    -0.200 F 
ATOM     68  C   UNL A   1      43.353  24.794  25.588  1.00  0.00     0.200 A 
ATOM     69  F   UNL A   1      44.873  26.496  24.987  1.00  0.00    -0.200 F 
ATOM     70  F   UNL A   1      43.754  24.049  24.550  1.00  0.00    -0.200 F 
ENDBRANCH  46  60
BRANCH  47  71
ATOM     71  C   UNL A   1      39.333  31.930  35.575  1.00  0.00     0.064 A 
ATOM     72  C   UNL A   1      39.799  33.236  35.780  1.00  0.00     0.173 A 
ATOM     73  C   UNL A   1      38.404  31.420  36.493  1.00  0.00     0.173 A 
ATOM     74  F   UNL A   1      40.702  33.765  34.941  1.00  0.00    -0.203 F 
ATOM     75  C   UNL A   1      39.366  33.995  36.867  1.00  0.00     0.198 A 
ATOM     76  C   UNL A   1      37.949  32.191  37.564  1.00  0.00     0.198 A 
ATOM     77  F   UNL A   1      37.922  30.177  36.346  1.00  0.00    -0.203 F 
ATOM     78  F   UNL A   1      39.861  35.225  37.061  1.00  0.00    -0.200 F 
ATOM     79  C   UNL A   1      38.437  33.474  37.754  1.00  0.00     0.200 A 
ATOM     80  F   UNL A   1      37.038  31.689  38.408  1.00  0.00    -0.200 F 
ATOM     81  F   UNL A   1      38.015  34.207  38.793  1.00  0.00    -0.200 F 
ENDBRANCH  47  71
BRANCH  59  82
ATOM     82  C   UNL A   1      44.470  27.289  34.697  1.00  0.00     0.064 A 
ATOM     83  C   UNL A   1      44.302  26.121  35.453  1.00  0.00     0.173 A 
ATOM     84  C   UNL A   1      45.688  27.977  34.805  1.00  0.00     0.173 A 
ATOM     85  F   UNL A   1      43.150  25.435  35.392  1.00  0.00    -0.203 F 
ATOM     86  C   UNL A   1      45.301  25.682  36.316  1.00  0.00     0.198 A 
ATOM     87  C   UNL A   1      46.699  27.513  35.640  1.00  0.00     0.198 A 
ATOM     88  F   UNL A   1      45.902  29.093  34.092  1.00  0.00    -0.203 F 
ATOM     89  F   UNL A   1      45.095  24.599  37.080  1.00  0.00    -0.200 F 
ATOM     90  C   UNL A   1      46.500  26.373  36.403  1.00  0.00     0.200 A 
ATOM     91  F   UNL A   1      47.864  28.172  35.707  1.00  0.00    -0.200 F 
ATOM     92  F   UNL A   1      47.463  25.946  37.233  1.00  0.00    -0.200 F 
ENDBRANCH  59  82
ENDBRANCH  33  34
ENDBRANCH  26  28
ENDBRANCH  25  26
ENDBRANCH  24  25
ENDBRANCH   1  24
TORSDOF 14
ENDMDL
MODEL 3
REMARK VINA RESULT:     -12.5      4.758     10.077
REMARK SMILES O=C(CC1(NC(=O)c2ccc3cc[nH]c3c2)CCC1)OCCOC(=O)c1ccc(-c2c3nc(c(-c4c(F)c(F)c(F)c(F)c4F)c4ccc([nH]4)c(-c4c(F)c(F)c(F)c(F)c4F)c4nc(c(-c5c(F)c(F)c(F)c(F)c5F)c5ccc2[nH]5)C=C4)C=C3)cc1
REMARK SMILES IDX 21 1 20 2 2 3 1 4 3 5 4 6 17 7 19 8 18 9 5 10 6 11 7 13 8 14
REMARK SMILES IDX 9 15 16 16 10 17 15 18 11 19 14 20 12 21 13 22 22 24 23 25
REMARK SMILES IDX 24 26 25 27 26 28 27 29 88 30 28 31 87 32 29 33 30 34 31 35
REMARK SMILES IDX 81 36 32 37 86 38 80 39 82 40 33 41 85 42 79 43 78 44 34 46
REMARK SMILES IDX 66 47 46 48 65 49 47 50 50 51 64 52 83 53 48 54 49 55 63 57
REMARK SMILES IDX 84 58 51 59 35 60 36 61 44 62 37 63 38 64 42 65 45 66 39 67
REMARK SMILES IDX 40 68 43 69 41 70 67 71 68 72 76 73 69 74 70 75 74 76 77 77
REMARK SMILES IDX 71 78 72 79 75 80 73 81 52 82 53 83 61 84 54 85 55 86 59 87
REMARK SMILES IDX 62 88 56 89 57 90 60 91 58 92
REMARK H PARENT 5 12 14 23 82 45 50 56
REMARK Flexibility Score: inf
ROOT
ATOM      1  C   UNL A   1      36.005  21.726  25.108  1.00  0.00     0.274 C 
ENDROOT
BRANCH   1   2
ATOM      2  O   UNL A   1      35.677  22.362  23.849  1.00  0.00    -0.462 OA
BRANCH   2   3
ATOM      3  C   UNL A   1      35.048  23.536  23.657  1.00  0.00     0.308 C 
ATOM      4  O   UNL A   1      34.728  23.940  22.542  1.00  0.00    -0.252 OA
BRANCH   3   5
ATOM      5  C   UNL A   1      34.768  24.385  24.819  1.00  0.00     0.151 C 
BRANCH   5   6
ATOM      6  C   UNL A   1      33.445  25.120  24.859  1.00  0.00     0.051 C 
ATOM      7  C   UNL A   1      33.143  25.747  26.280  1.00  0.00     0.029 C 
ATOM      8  C   UNL A   1      33.667  26.618  24.396  1.00  0.00     0.029 C 
ATOM      9  C   UNL A   1      33.822  27.051  25.855  1.00  0.00     0.005 C 
BRANCH   6  10
ATOM     10  N   UNL A   1      32.206  24.566  24.183  1.00  0.00    -0.346 N 
ATOM     11  C   UNL A   1      31.558  23.416  23.727  1.00  0.00     0.251 C 
ATOM     12  H   UNL A   1      31.618  25.329  23.983  1.00  0.00     0.164 HD
ATOM     13  O   UNL A   1      30.462  23.607  23.186  1.00  0.00    -0.269 OA
BRANCH  11  14
ATOM     14  C   UNL A   1      31.964  21.993  23.835  1.00  0.00     0.041 A 
ATOM     15  C   UNL A   1      32.142  21.236  22.667  1.00  0.00     0.014 A 
ATOM     16  C   UNL A   1      32.323  21.433  25.072  1.00  0.00     0.040 A 
ATOM     17  C   UNL A   1      32.331  19.842  22.730  1.00  0.00     0.011 A 
ATOM     18  C   UNL A   1      32.552  20.040  25.118  1.00  0.00     0.046 A 
ATOM     19  C   UNL A   1      32.467  19.226  23.986  1.00  0.00    -0.001 A 
ATOM     20  N   UNL A   1      32.823  19.201  26.179  1.00  0.00    -0.361 N 
ATOM     21  C   UNL A   1      32.500  17.873  24.432  1.00  0.00     0.028 A 
ATOM     22  C   UNL A   1      32.718  17.889  25.790  1.00  0.00     0.083 A 
ATOM     23  H   UNL A   1      33.056  19.502  27.087  1.00  0.00     0.166 HD
ENDBRANCH  11  14
ENDBRANCH   6  10
ENDBRANCH   5   6
ENDBRANCH   3   5
ENDBRANCH   2   3
ENDBRANCH   1   2
BRANCH   1  24
ATOM     24  C   UNL A   1      37.347  21.015  24.983  1.00  0.00     0.275 C 
BRANCH  24  25
ATOM     25  O   UNL A   1      38.368  21.996  25.206  1.00  0.00    -0.458 OA
BRANCH  25  26
ATOM     26  C   UNL A   1      39.312  21.584  26.102  1.00  0.00     0.338 C 
ATOM     27  O   UNL A   1      39.795  20.482  26.201  1.00  0.00    -0.246 OA
BRANCH  26  28
ATOM     28  C   UNL A   1      39.839  22.799  26.761  1.00  0.00     0.060 A 
ATOM     29  C   UNL A   1      39.281  24.035  26.409  1.00  0.00     0.016 A 
ATOM     30  C   UNL A   1      40.832  22.716  27.736  1.00  0.00     0.016 A 
ATOM     31  C   UNL A   1      39.705  25.200  27.038  1.00  0.00     0.010 A 
ATOM     32  C   UNL A   1      41.322  23.886  28.303  1.00  0.00     0.010 A 
ATOM     33  C   UNL A   1      40.784  25.127  27.920  1.00  0.00    -0.014 A 
BRANCH  33  34
ATOM     34  C   UNL A   1      41.585  26.340  28.158  1.00  0.00     0.031 A 
ATOM     35  C   UNL A   1      40.902  27.453  28.899  1.00  0.00     0.074 A 
ATOM     36  C   UNL A   1      42.839  26.443  27.696  1.00  0.00     0.049 A 
ATOM     37  N   UNL A   1      41.296  28.677  29.117  1.00  0.00    -0.248 NA
ATOM     38  C   UNL A   1      39.573  27.141  29.459  1.00  0.00     0.031 C 
ATOM     39  C   UNL A   1      43.583  25.381  27.027  1.00  0.00     0.029 A 
ATOM     40  N   UNL A   1      43.697  27.509  27.709  1.00  0.00    -0.354 N 
ATOM     41  C   UNL A   1      40.258  29.282  29.816  1.00  0.00     0.074 A 
ATOM     42  C   UNL A   1      39.211  28.303  29.974  1.00  0.00     0.031 C 
ATOM     43  C   UNL A   1      44.790  25.855  26.673  1.00  0.00     0.029 A 
ATOM     44  C   UNL A   1      44.877  27.263  27.054  1.00  0.00     0.049 A 
ATOM     45  H   UNL A   1      43.488  28.365  28.146  1.00  0.00     0.167 HD
ATOM     46  C   UNL A   1      40.192  30.552  30.274  1.00  0.00     0.037 A 
ATOM     47  C   UNL A   1      45.888  28.108  26.780  1.00  0.00     0.037 A 
ATOM     48  C   UNL A   1      41.249  31.505  30.080  1.00  0.00     0.049 A 
ATOM     49  C   UNL A   1      45.765  29.536  27.248  1.00  0.00     0.074 A 
ATOM     50  C   UNL A   1      41.316  32.822  30.487  1.00  0.00     0.029 A 
ATOM     51  N   UNL A   1      42.431  31.228  29.403  1.00  0.00    -0.354 N 
ATOM     52  N   UNL A   1      44.787  30.112  27.910  1.00  0.00    -0.248 NA
ATOM     53  C   UNL A   1      46.882  30.432  26.931  1.00  0.00     0.031 C 
ATOM     54  C   UNL A   1      42.515  33.360  30.005  1.00  0.00     0.029 A 
ATOM     55  C   UNL A   1      43.226  32.359  29.359  1.00  0.00     0.049 A 
ATOM     56  H   UNL A   1      42.668  30.356  29.011  1.00  0.00     0.167 HD
ATOM     57  C   UNL A   1      45.186  31.424  28.124  1.00  0.00     0.074 A 
ATOM     58  C   UNL A   1      46.502  31.553  27.527  1.00  0.00     0.031 C 
ATOM     59  C   UNL A   1      44.536  32.434  28.757  1.00  0.00     0.037 A 
BRANCH  46  60
ATOM     60  C   UNL A   1      38.922  30.974  30.957  1.00  0.00     0.064 A 
ATOM     61  C   UNL A   1      38.765  30.911  32.351  1.00  0.00     0.173 A 
ATOM     62  C   UNL A   1      37.830  31.425  30.199  1.00  0.00     0.173 A 
ATOM     63  F   UNL A   1      39.766  30.462  33.124  1.00  0.00    -0.203 F 
ATOM     64  C   UNL A   1      37.554  31.246  32.955  1.00  0.00     0.198 A 
ATOM     65  C   UNL A   1      36.633  31.793  30.809  1.00  0.00     0.198 A 
ATOM     66  F   UNL A   1      37.918  31.498  28.863  1.00  0.00    -0.203 F 
ATOM     67  F   UNL A   1      37.408  31.112  34.280  1.00  0.00    -0.200 F 
ATOM     68  C   UNL A   1      36.492  31.693  32.185  1.00  0.00     0.200 A 
ATOM     69  F   UNL A   1      35.611  32.232  30.063  1.00  0.00    -0.200 F 
ATOM     70  F   UNL A   1      35.328  32.015  32.765  1.00  0.00    -0.200 F 
ENDBRANCH  46  60
BRANCH  47  71
ATOM     71  C   UNL A   1      47.087  27.629  26.042  1.00  0.00     0.064 A 
ATOM     72  C   UNL A   1      48.181  27.083  26.727  1.00  0.00     0.173 A 
ATOM     73  C   UNL A   1      47.166  27.699  24.643  1.00  0.00     0.173 A 
ATOM     74  F   UNL A   1      48.165  27.009  28.066  1.00  0.00    -0.203 F 
ATOM     75  C   UNL A   1      49.315  26.642  26.044  1.00  0.00     0.198 A 
ATOM     76  C   UNL A   1      48.288  27.230  23.959  1.00  0.00     0.198 A 
ATOM     77  F   UNL A   1      46.148  28.209  23.935  1.00  0.00    -0.203 F 
ATOM     78  F   UNL A   1      50.363  26.164  26.729  1.00  0.00    -0.200 F 
ATOM     79  C   UNL A   1      49.364  26.710  24.660  1.00  0.00     0.200 A 
ATOM     80  F   UNL A   1      48.323  27.282  22.621  1.00  0.00    -0.200 F 
ATOM     81  F   UNL A   1      50.449  26.278  24.004  1.00  0.00    -0.200 F 
ENDBRANCH  47  71
BRANCH  59  82
ATOM     82  C   UNL A   1      45.266  33.739  28.877  1.00  0.00     0.064 A 
ATOM     83  C   UNL A   1      46.128  34.010  29.949  1.00  0.00     0.173 A 
ATOM     84  C   UNL A   1      45.119  34.720  27.884  1.00  0.00     0.173 A 
ATOM     85  F   UNL A   1      46.292  33.108  30.929  1.00  0.00    -0.203 F 
ATOM     86  C   UNL A   1      46.786  35.232  30.043  1.00  0.00     0.198 A 
ATOM     87  C   UNL A   1      45.809  35.925  27.962  1.00  0.00     0.198 A 
ATOM     88  F   UNL A   1      44.315  34.503  26.832  1.00  0.00    -0.203 F 
ATOM     89  F   UNL A   1      47.554  35.497  31.109  1.00  0.00    -0.200 F 
ATOM     90  C   UNL A   1      46.632  36.185  29.046  1.00  0.00     0.200 A 
ATOM     91  F   UNL A   1      45.673  36.835  26.988  1.00  0.00    -0.200 F 
ATOM     92  F   UNL A   1      47.270  37.360  29.137  1.00  0.00    -0.200 F 
ENDBRANCH  59  82
ENDBRANCH  33  34
ENDBRANCH  26  28
ENDBRANCH  25  26
ENDBRANCH  24  25
ENDBRANCH   1  24
TORSDOF 14
ENDMDL
