MODEL 1
REMARK VINA RESULT:      -9.8      0.000      0.000
REMARK SMILES C=CC[N@@H+](CC(=O)OCCOC(=O)c1ccc(-c2c3nc(c(-c4c(F)c(F)c(F)c(F)c4F)c4ccc([nH]4)c(-c4c(F)c(F)c(F)c(F)c4F)c4nc(c(-c5c(F)c(F)c(F)c(F)c5F)c5ccc2[nH]5)C=C4)C=C3)cc1)C1CCSCC1
REMARK SMILES IDX 9 1 8 2 6 3 7 4 5 5 4 6 3 8 2 9 1 10 77 11 78 12 82 13 79 14
REMARK SMILES IDX 81 15 80 16 10 17 11 18 12 19 13 20 14 21 15 22 76 23 16 24
REMARK SMILES IDX 75 25 17 26 18 27 19 28 69 29 20 30 74 31 68 32 70 33 21 34
REMARK SMILES IDX 73 35 67 36 66 37 22 39 54 40 34 41 53 42 35 43 38 44 52 45
REMARK SMILES IDX 71 46 36 47 37 48 51 50 72 51 39 52 23 53 24 54 32 55 25 56
REMARK SMILES IDX 26 57 30 58 33 59 27 60 28 61 31 62 29 63 55 64 56 65 64 66
REMARK SMILES IDX 57 67 58 68 62 69 65 70 59 71 60 72 63 73 61 74 40 75 41 76
REMARK SMILES IDX 49 77 42 78 43 79 47 80 50 81 44 82 45 83 48 84 46 85
REMARK H PARENT 4 7 70 38 38 49
REMARK Flexibility Score: inf
ROOT
ATOM      1  C   UNL A   1      33.962  35.214  28.513  1.00  0.00     0.274 C 
ENDROOT
BRANCH   1   2
ATOM      2  O   UNL A   1      33.400  33.929  28.178  1.00  0.00    -0.458 OA
BRANCH   2   3
ATOM      3  C   UNL A   1      34.092  32.828  28.573  1.00  0.00     0.361 C 
ATOM      4  O   UNL A   1      34.731  32.757  29.619  1.00  0.00    -0.245 OA
BRANCH   3   5
ATOM      5  C   UNL A   1      34.116  31.703  27.536  1.00  0.00     0.387 C 
BRANCH   5   6
ATOM      6  N   UNL A   1      33.851  30.315  28.001  1.00  0.00    -0.320 N 
ATOM      7  H   UNL A   1      33.360  30.406  28.891  1.00  0.00     0.349 HD
BRANCH   6   8
ATOM      8  C   UNL A   1      35.122  29.609  28.248  1.00  0.00     0.291 C 
BRANCH   8   9
ATOM      9  C   UNL A   1      36.284  30.203  27.510  1.00  0.00     0.025 C 
ATOM     10  C   UNL A   1      37.539  29.743  27.612  1.00  0.00     0.010 C 
ENDBRANCH   8   9
ENDBRANCH   6   8
BRANCH   6  11
ATOM     11  C   UNL A   1      32.847  29.533  27.215  1.00  0.00     0.186 C 
ATOM     12  C   UNL A   1      33.358  28.126  26.815  1.00  0.00     0.076 C 
ATOM     13  C   UNL A   1      32.453  30.297  25.925  1.00  0.00     0.076 C 
ATOM     14  C   UNL A   1      32.332  27.283  26.066  1.00  0.00     0.075 C 
ATOM     15  C   UNL A   1      31.386  29.622  25.071  1.00  0.00     0.075 C 
ATOM     16  S   UNL A   1      31.901  27.999  24.469  1.00  0.00    -0.162 SA
ENDBRANCH   6  11
ENDBRANCH   5   6
ENDBRANCH   3   5
ENDBRANCH   2   3
ENDBRANCH   1   2
BRANCH   1  17
ATOM     17  C   UNL A   1      33.018  35.998  29.417  1.00  0.00     0.275 C 
BRANCH  17  18
ATOM     18  O   UNL A   1      32.545  35.133  30.463  1.00  0.00    -0.458 OA
BRANCH  18  19
ATOM     19  C   UNL A   1      32.633  35.628  31.716  1.00  0.00     0.338 C 
ATOM     20  O   UNL A   1      31.891  36.431  32.251  1.00  0.00    -0.246 OA
BRANCH  19  21
ATOM     21  C   UNL A   1      33.785  35.026  32.413  1.00  0.00     0.060 A 
ATOM     22  C   UNL A   1      35.018  35.680  32.443  1.00  0.00     0.016 A 
ATOM     23  C   UNL A   1      33.670  33.723  32.902  1.00  0.00     0.016 A 
ATOM     24  C   UNL A   1      36.158  34.992  32.859  1.00  0.00     0.010 A 
ATOM     25  C   UNL A   1      34.798  33.069  33.403  1.00  0.00     0.010 A 
ATOM     26  C   UNL A   1      36.063  33.678  33.339  1.00  0.00    -0.014 A 
BRANCH  26  27
ATOM     27  C   UNL A   1      37.281  32.915  33.720  1.00  0.00     0.031 A 
ATOM     28  C   UNL A   1      37.923  33.135  35.067  1.00  0.00     0.074 A 
ATOM     29  C   UNL A   1      37.815  32.019  32.869  1.00  0.00     0.049 A 
ATOM     30  N   UNL A   1      39.069  32.690  35.521  1.00  0.00    -0.248 NA
ATOM     31  C   UNL A   1      37.184  33.972  36.024  1.00  0.00     0.031 C 
ATOM     32  C   UNL A   1      37.281  31.679  31.551  1.00  0.00     0.029 A 
ATOM     33  N   UNL A   1      38.931  31.228  32.990  1.00  0.00    -0.354 N 
ATOM     34  C   UNL A   1      39.207  33.229  36.794  1.00  0.00     0.074 A 
ATOM     35  C   UNL A   1      38.029  34.032  37.044  1.00  0.00     0.031 C 
ATOM     36  C   UNL A   1      38.049  30.728  30.997  1.00  0.00     0.029 A 
ATOM     37  C   UNL A   1      39.168  30.443  31.890  1.00  0.00     0.049 A 
ATOM     38  H   UNL A   1      39.506  31.224  33.789  1.00  0.00     0.167 HD
ATOM     39  C   UNL A   1      40.225  33.072  37.673  1.00  0.00     0.037 A 
ATOM     40  C   UNL A   1      40.190  29.611  31.612  1.00  0.00     0.037 A 
ATOM     41  C   UNL A   1      41.376  32.237  37.450  1.00  0.00     0.049 A 
ATOM     42  C   UNL A   1      41.310  29.459  32.600  1.00  0.00     0.074 A 
ATOM     43  C   UNL A   1      42.459  32.015  38.283  1.00  0.00     0.029 A 
ATOM     44  N   UNL A   1      41.582  31.469  36.314  1.00  0.00    -0.354 N 
ATOM     45  N   UNL A   1      41.461  30.026  33.770  1.00  0.00    -0.248 NA
ATOM     46  C   UNL A   1      42.410  28.562  32.217  1.00  0.00     0.031 C 
ATOM     47  C   UNL A   1      43.330  31.125  37.642  1.00  0.00     0.029 A 
ATOM     48  C   UNL A   1      42.775  30.774  36.423  1.00  0.00     0.049 A 
ATOM     49  H   UNL A   1      40.970  31.425  35.543  1.00  0.00     0.167 HD
ATOM     50  C   UNL A   1      42.670  29.559  34.264  1.00  0.00     0.074 A 
ATOM     51  C   UNL A   1      43.201  28.641  33.278  1.00  0.00     0.031 C 
ATOM     52  C   UNL A   1      43.290  29.871  35.428  1.00  0.00     0.037 A 
BRANCH  39  53
ATOM     53  C   UNL A   1      40.156  33.844  38.955  1.00  0.00     0.064 A 
ATOM     54  C   UNL A   1      39.472  33.352  40.076  1.00  0.00     0.173 A 
ATOM     55  C   UNL A   1      40.821  35.073  39.076  1.00  0.00     0.173 A 
ATOM     56  F   UNL A   1      38.813  32.186  40.005  1.00  0.00    -0.203 F 
ATOM     57  C   UNL A   1      39.444  34.072  41.268  1.00  0.00     0.198 A 
ATOM     58  C   UNL A   1      40.807  35.781  40.275  1.00  0.00     0.198 A 
ATOM     59  F   UNL A   1      41.493  35.583  38.032  1.00  0.00    -0.203 F 
ATOM     60  F   UNL A   1      38.762  33.598  42.320  1.00  0.00    -0.200 F 
ATOM     61  C   UNL A   1      40.116  35.282  41.368  1.00  0.00     0.200 A 
ATOM     62  F   UNL A   1      41.465  36.944  40.372  1.00  0.00    -0.200 F 
ATOM     63  F   UNL A   1      40.095  35.969  42.518  1.00  0.00    -0.200 F 
ENDBRANCH  39  53
BRANCH  40  64
ATOM     64  C   UNL A   1      40.208  28.881  30.321  1.00  0.00     0.064 A 
ATOM     65  C   UNL A   1      40.893  29.396  29.213  1.00  0.00     0.173 A 
ATOM     66  C   UNL A   1      39.557  27.647  30.175  1.00  0.00     0.173 A 
ATOM     67  F   UNL A   1      41.509  30.585  29.300  1.00  0.00    -0.203 F 
ATOM     68  C   UNL A   1      40.925  28.705  28.004  1.00  0.00     0.198 A 
ATOM     69  C   UNL A   1      39.609  26.946  28.973  1.00  0.00     0.198 A 
ATOM     70  F   UNL A   1      38.886  27.116  31.208  1.00  0.00    -0.203 F 
ATOM     71  F   UNL A   1      41.563  29.231  26.951  1.00  0.00    -0.200 F 
ATOM     72  C   UNL A   1      40.290  27.477  27.888  1.00  0.00     0.200 A 
ATOM     73  F   UNL A   1      39.004  25.756  28.868  1.00  0.00    -0.200 F 
ATOM     74  F   UNL A   1      40.330  26.808  26.728  1.00  0.00    -0.200 F 
ENDBRANCH  40  64
BRANCH  52  75
ATOM     75  C   UNL A   1      44.606  29.207  35.694  1.00  0.00     0.064 A 
ATOM     76  C   UNL A   1      45.811  29.794  35.285  1.00  0.00     0.173 A 
ATOM     77  C   UNL A   1      44.661  27.982  36.374  1.00  0.00     0.173 A 
ATOM     78  F   UNL A   1      45.803  30.956  34.616  1.00  0.00    -0.203 F 
ATOM     79  C   UNL A   1      47.028  29.165  35.528  1.00  0.00     0.198 A 
ATOM     80  C   UNL A   1      45.882  27.365  36.631  1.00  0.00     0.198 A 
ATOM     81  F   UNL A   1      43.534  27.385  36.785  1.00  0.00    -0.203 F 
ATOM     82  F   UNL A   1      48.168  29.722  35.093  1.00  0.00    -0.200 F 
ATOM     83  C   UNL A   1      47.063  27.953  36.204  1.00  0.00     0.200 A 
ATOM     84  F   UNL A   1      45.916  26.197  37.286  1.00  0.00    -0.200 F 
ATOM     85  F   UNL A   1      48.236  27.347  36.433  1.00  0.00    -0.200 F 
ENDBRANCH  52  75
ENDBRANCH  26  27
ENDBRANCH  19  21
ENDBRANCH  18  19
ENDBRANCH  17  18
ENDBRANCH   1  17
TORSDOF 15
ENDMDL
MODEL 2
REMARK VINA RESULT:      -9.6      4.708      9.711
REMARK SMILES C=CC[N@@H+](CC(=O)OCCOC(=O)c1ccc(-c2c3nc(c(-c4c(F)c(F)c(F)c(F)c4F)c4ccc([nH]4)c(-c4c(F)c(F)c(F)c(F)c4F)c4nc(c(-c5c(F)c(F)c(F)c(F)c5F)c5ccc2[nH]5)C=C4)C=C3)cc1)C1CCSCC1
REMARK SMILES IDX 9 1 8 2 6 3 7 4 5 5 4 6 3 8 2 9 1 10 77 11 78 12 82 13 79 14
REMARK SMILES IDX 81 15 80 16 10 17 11 18 12 19 13 20 14 21 15 22 76 23 16 24
REMARK SMILES IDX 75 25 17 26 18 27 19 28 69 29 20 30 74 31 68 32 70 33 21 34
REMARK SMILES IDX 73 35 67 36 66 37 22 39 54 40 34 41 53 42 35 43 38 44 52 45
REMARK SMILES IDX 71 46 36 47 37 48 51 50 72 51 39 52 23 53 24 54 32 55 25 56
REMARK SMILES IDX 26 57 30 58 33 59 27 60 28 61 31 62 29 63 55 64 56 65 64 66
REMARK SMILES IDX 57 67 58 68 62 69 65 70 59 71 60 72 63 73 61 74 40 75 41 76
REMARK SMILES IDX 49 77 42 78 43 79 47 80 50 81 44 82 45 83 48 84 46 85
REMARK H PARENT 4 7 70 38 38 49
REMARK Flexibility Score: inf
ROOT
ATOM      1  C   UNL A   1      42.668  20.695  26.206  1.00  0.00     0.274 C 
ENDROOT
BRANCH   1   2
ATOM      2  O   UNL A   1      41.323  20.883  25.722  1.00  0.00    -0.458 OA
BRANCH   2   3
ATOM      3  C   UNL A   1      40.371  21.194  26.643  1.00  0.00     0.361 C 
ATOM      4  O   UNL A   1      40.591  21.311  27.844  1.00  0.00    -0.245 OA
BRANCH   3   5
ATOM      5  C   UNL A   1      38.954  21.267  26.070  1.00  0.00     0.387 C 
BRANCH   5   6
ATOM      6  N   UNL A   1      38.541  22.517  25.377  1.00  0.00    -0.320 N 
ATOM      7  H   UNL A   1      38.781  22.384  24.394  1.00  0.00     0.349 HD
BRANCH   6   8
ATOM      8  C   UNL A   1      39.316  23.662  25.888  1.00  0.00     0.291 C 
BRANCH   8   9
ATOM      9  C   UNL A   1      38.547  24.518  26.850  1.00  0.00     0.025 C 
ATOM     10  C   UNL A   1      38.926  24.732  28.117  1.00  0.00     0.010 C 
ENDBRANCH   8   9
ENDBRANCH   6   8
BRANCH   6  11
ATOM     11  C   UNL A   1      37.070  22.760  25.269  1.00  0.00     0.186 C 
ATOM     12  C   UNL A   1      36.222  21.594  25.838  1.00  0.00     0.076 C 
ATOM     13  C   UNL A   1      36.664  22.985  23.790  1.00  0.00     0.076 C 
ATOM     14  C   UNL A   1      34.719  21.842  25.797  1.00  0.00     0.075 C 
ATOM     15  C   UNL A   1      35.192  23.304  23.561  1.00  0.00     0.075 C 
ATOM     16  S   UNL A   1      34.099  21.974  24.109  1.00  0.00    -0.162 SA
ENDBRANCH   6  11
ENDBRANCH   5   6
ENDBRANCH   3   5
ENDBRANCH   2   3
ENDBRANCH   1   2
BRANCH   1  17
ATOM     17  C   UNL A   1      43.668  21.431  25.323  1.00  0.00     0.275 C 
BRANCH  17  18
ATOM     18  O   UNL A   1      43.057  22.632  24.823  1.00  0.00    -0.458 OA
BRANCH  18  19
ATOM     19  C   UNL A   1      43.775  23.764  24.982  1.00  0.00     0.338 C 
ATOM     20  O   UNL A   1      44.823  24.062  24.437  1.00  0.00    -0.246 OA
BRANCH  19  21
ATOM     21  C   UNL A   1      43.089  24.664  25.928  1.00  0.00     0.060 A 
ATOM     22  C   UNL A   1      42.982  26.030  25.660  1.00  0.00     0.016 A 
ATOM     23  C   UNL A   1      42.690  24.160  27.167  1.00  0.00     0.016 A 
ATOM     24  C   UNL A   1      42.582  26.906  26.669  1.00  0.00     0.010 A 
ATOM     25  C   UNL A   1      42.203  25.029  28.146  1.00  0.00     0.010 A 
ATOM     26  C   UNL A   1      42.193  26.417  27.925  1.00  0.00    -0.014 A 
BRANCH  26  27
ATOM     27  C   UNL A   1      41.830  27.348  29.026  1.00  0.00     0.031 A 
ATOM     28  C   UNL A   1      42.666  27.403  30.280  1.00  0.00     0.074 A 
ATOM     29  C   UNL A   1      40.757  28.153  28.909  1.00  0.00     0.049 A 
ATOM     30  N   UNL A   1      42.428  28.026  31.408  1.00  0.00    -0.248 NA
ATOM     31  C   UNL A   1      43.931  26.652  30.265  1.00  0.00     0.031 C 
ATOM     32  C   UNL A   1      39.880  28.232  27.741  1.00  0.00     0.029 A 
ATOM     33  N   UNL A   1      40.222  29.062  29.788  1.00  0.00    -0.354 N 
ATOM     34  C   UNL A   1      43.487  27.704  32.248  1.00  0.00     0.074 A 
ATOM     35  C   UNL A   1      44.371  26.834  31.503  1.00  0.00     0.031 C 
ATOM     36  C   UNL A   1      38.936  29.159  27.962  1.00  0.00     0.029 A 
ATOM     37  C   UNL A   1      39.099  29.689  29.312  1.00  0.00     0.049 A 
ATOM     38  H   UNL A   1      40.608  29.246  30.675  1.00  0.00     0.167 HD
ATOM     39  C   UNL A   1      43.700  28.096  33.527  1.00  0.00     0.037 A 
ATOM     40  C   UNL A   1      38.269  30.567  29.907  1.00  0.00     0.037 A 
ATOM     41  C   UNL A   1      42.850  28.999  34.258  1.00  0.00     0.049 A 
ATOM     42  C   UNL A   1      38.523  30.981  31.327  1.00  0.00     0.074 A 
ATOM     43  C   UNL A   1      42.987  29.454  35.558  1.00  0.00     0.029 A 
ATOM     44  N   UNL A   1      41.714  29.601  33.741  1.00  0.00    -0.354 N 
ATOM     45  N   UNL A   1      39.490  30.618  32.133  1.00  0.00    -0.248 NA
ATOM     46  C   UNL A   1      37.558  31.915  31.925  1.00  0.00     0.031 C 
ATOM     47  C   UNL A   1      41.920  30.319  35.833  1.00  0.00     0.029 A 
ATOM     48  C   UNL A   1      41.137  30.421  34.696  1.00  0.00     0.049 A 
ATOM     49  H   UNL A   1      41.367  29.465  32.828  1.00  0.00     0.167 HD
ATOM     50  C   UNL A   1      39.252  31.275  33.331  1.00  0.00     0.074 A 
ATOM     51  C   UNL A   1      38.063  32.080  33.140  1.00  0.00     0.031 C 
ATOM     52  C   UNL A   1      39.950  31.209  34.490  1.00  0.00     0.037 A 
BRANCH  39  53
ATOM     53  C   UNL A   1      44.892  27.526  34.234  1.00  0.00     0.064 A 
ATOM     54  C   UNL A   1      44.827  26.310  34.928  1.00  0.00     0.173 A 
ATOM     55  C   UNL A   1      46.129  28.187  34.177  1.00  0.00     0.173 A 
ATOM     56  F   UNL A   1      43.664  25.648  35.018  1.00  0.00    -0.203 F 
ATOM     57  C   UNL A   1      45.954  25.783  35.554  1.00  0.00     0.198 A 
ATOM     58  C   UNL A   1      47.258  27.648  34.787  1.00  0.00     0.198 A 
ATOM     59  F   UNL A   1      46.243  29.351  33.520  1.00  0.00    -0.203 F 
ATOM     60  F   UNL A   1      45.865  24.633  36.235  1.00  0.00    -0.200 F 
ATOM     61  C   UNL A   1      47.169  26.449  35.478  1.00  0.00     0.200 A 
ATOM     62  F   UNL A   1      48.433  28.287  34.703  1.00  0.00    -0.200 F 
ATOM     63  F   UNL A   1      48.255  25.936  36.072  1.00  0.00    -0.200 F 
ENDBRANCH  39  53
BRANCH  40  64
ATOM     64  C   UNL A   1      37.099  31.090  29.158  1.00  0.00     0.064 A 
ATOM     65  C   UNL A   1      35.978  30.284  28.924  1.00  0.00     0.173 A 
ATOM     66  C   UNL A   1      37.073  32.408  28.680  1.00  0.00     0.173 A 
ATOM     67  F   UNL A   1      35.971  29.009  29.341  1.00  0.00    -0.203 F 
ATOM     68  C   UNL A   1      34.872  30.776  28.235  1.00  0.00     0.198 A 
ATOM     69  C   UNL A   1      35.957  32.907  28.013  1.00  0.00     0.198 A 
ATOM     70  F   UNL A   1      38.124  33.216  28.880  1.00  0.00    -0.203 F 
ATOM     71  F   UNL A   1      33.823  29.978  27.998  1.00  0.00    -0.200 F 
ATOM     72  C   UNL A   1      34.860  32.089  27.787  1.00  0.00     0.200 A 
ATOM     73  F   UNL A   1      35.945  34.177  27.591  1.00  0.00    -0.200 F 
ATOM     74  F   UNL A   1      33.792  32.565  27.134  1.00  0.00    -0.200 F 
ENDBRANCH  40  64
BRANCH  52  75
ATOM     75  C   UNL A   1      39.447  32.036  35.632  1.00  0.00     0.064 A 
ATOM     76  C   UNL A   1      38.539  31.512  36.563  1.00  0.00     0.173 A 
ATOM     77  C   UNL A   1      39.886  33.356  35.805  1.00  0.00     0.173 A 
ATOM     78  F   UNL A   1      38.079  30.259  36.426  1.00  0.00    -0.203 F 
ATOM     79  C   UNL A   1      38.069  32.290  37.616  1.00  0.00     0.198 A 
ATOM     80  C   UNL A   1      39.427  34.125  36.870  1.00  0.00     0.198 A 
ATOM     81  F   UNL A   1      40.755  33.898  34.940  1.00  0.00    -0.203 F 
ATOM     82  F   UNL A   1      37.170  31.784  38.472  1.00  0.00    -0.200 F 
ATOM     83  C   UNL A   1      38.516  33.595  37.771  1.00  0.00     0.200 A 
ATOM     84  F   UNL A   1      39.862  35.383  37.022  1.00  0.00    -0.200 F 
ATOM     85  F   UNL A   1      38.059  34.344  38.783  1.00  0.00    -0.200 F 
ENDBRANCH  52  75
ENDBRANCH  26  27
ENDBRANCH  19  21
ENDBRANCH  18  19
ENDBRANCH  17  18
ENDBRANCH   1  17
TORSDOF 15
ENDMDL
MODEL 3
REMARK VINA RESULT:      -9.5      6.465     10.355
REMARK SMILES C=CC[N@@H+](CC(=O)OCCOC(=O)c1ccc(-c2c3nc(c(-c4c(F)c(F)c(F)c(F)c4F)c4ccc([nH]4)c(-c4c(F)c(F)c(F)c(F)c4F)c4nc(c(-c5c(F)c(F)c(F)c(F)c5F)c5ccc2[nH]5)C=C4)C=C3)cc1)C1CCSCC1
REMARK SMILES IDX 9 1 8 2 6 3 7 4 5 5 4 6 3 8 2 9 1 10 77 11 78 12 82 13 79 14
REMARK SMILES IDX 81 15 80 16 10 17 11 18 12 19 13 20 14 21 15 22 76 23 16 24
REMARK SMILES IDX 75 25 17 26 18 27 19 28 69 29 20 30 74 31 68 32 70 33 21 34
REMARK SMILES IDX 73 35 67 36 66 37 22 39 54 40 34 41 53 42 35 43 38 44 52 45
REMARK SMILES IDX 71 46 36 47 37 48 51 50 72 51 39 52 23 53 24 54 32 55 25 56
REMARK SMILES IDX 26 57 30 58 33 59 27 60 28 61 31 62 29 63 55 64 56 65 64 66
REMARK SMILES IDX 57 67 58 68 62 69 65 70 59 71 60 72 63 73 61 74 40 75 41 76
REMARK SMILES IDX 49 77 42 78 43 79 47 80 50 81 44 82 45 83 48 84 46 85
REMARK H PARENT 4 7 70 38 38 49
REMARK Flexibility Score: inf
ROOT
ATOM      1  C   UNL A   1      35.973  20.698  25.201  1.00  0.00     0.274 C 
ENDROOT
BRANCH   1   2
ATOM      2  O   UNL A   1      35.779  22.123  25.315  1.00  0.00    -0.458 OA
BRANCH   2   3
ATOM      3  C   UNL A   1      34.708  22.546  26.037  1.00  0.00     0.361 C 
ATOM      4  O   UNL A   1      34.619  23.660  26.545  1.00  0.00    -0.245 OA
BRANCH   3   5
ATOM      5  C   UNL A   1      33.653  21.464  26.278  1.00  0.00     0.387 C 
BRANCH   5   6
ATOM      6  N   UNL A   1      32.539  21.340  25.300  1.00  0.00    -0.320 N 
ATOM      7  H   UNL A   1      32.876  21.765  24.436  1.00  0.00     0.349 HD
BRANCH   6   8
ATOM      8  C   UNL A   1      31.368  22.108  25.763  1.00  0.00     0.291 C 
BRANCH   8   9
ATOM      9  C   UNL A   1      30.983  23.221  24.835  1.00  0.00     0.025 C 
ATOM     10  C   UNL A   1      31.692  24.351  24.700  1.00  0.00     0.010 C 
ENDBRANCH   8   9
ENDBRANCH   6   8
BRANCH   6  11
ATOM     11  C   UNL A   1      32.227  19.958  24.821  1.00  0.00     0.186 C 
ATOM     12  C   UNL A   1      32.906  18.857  25.673  1.00  0.00     0.076 C 
ATOM     13  C   UNL A   1      32.672  19.782  23.347  1.00  0.00     0.076 C 
ATOM     14  C   UNL A   1      32.556  17.437  25.245  1.00  0.00     0.075 C 
ATOM     15  C   UNL A   1      32.348  18.427  22.728  1.00  0.00     0.075 C 
ATOM     16  S   UNL A   1      33.158  17.060  23.588  1.00  0.00    -0.162 SA
ENDBRANCH   6  11
ENDBRANCH   5   6
ENDBRANCH   3   5
ENDBRANCH   2   3
ENDBRANCH   1   2
BRANCH   1  17
ATOM     17  C   UNL A   1      37.440  20.371  24.950  1.00  0.00     0.275 C 
BRANCH  17  18
ATOM     18  O   UNL A   1      38.240  21.517  25.285  1.00  0.00    -0.458 OA
BRANCH  18  19
ATOM     19  C   UNL A   1      39.279  21.285  26.116  1.00  0.00     0.338 C 
ATOM     20  O   UNL A   1      39.799  20.215  26.372  1.00  0.00    -0.246 OA
BRANCH  19  21
ATOM     21  C   UNL A   1      39.754  22.557  26.691  1.00  0.00     0.060 A 
ATOM     22  C   UNL A   1      39.221  23.774  26.263  1.00  0.00     0.016 A 
ATOM     23  C   UNL A   1      40.855  22.537  27.549  1.00  0.00     0.016 A 
ATOM     24  C   UNL A   1      39.855  24.968  26.604  1.00  0.00     0.010 A 
ATOM     25  C   UNL A   1      41.433  23.740  27.962  1.00  0.00     0.010 A 
ATOM     26  C   UNL A   1      40.972  24.965  27.453  1.00  0.00    -0.014 A 
BRANCH  26  27
ATOM     27  C   UNL A   1      41.695  26.227  27.766  1.00  0.00     0.031 A 
ATOM     28  C   UNL A   1      41.029  27.296  28.595  1.00  0.00     0.074 A 
ATOM     29  C   UNL A   1      42.950  26.419  27.319  1.00  0.00     0.049 A 
ATOM     30  N   UNL A   1      41.427  28.520  28.842  1.00  0.00    -0.248 NA
ATOM     31  C   UNL A   1      39.744  26.946  29.220  1.00  0.00     0.031 C 
ATOM     32  C   UNL A   1      43.728  25.458  26.539  1.00  0.00     0.029 A 
ATOM     33  N   UNL A   1      43.792  27.494  27.459  1.00  0.00    -0.354 N 
ATOM     34  C   UNL A   1      40.422  29.097  29.610  1.00  0.00     0.074 A 
ATOM     35  C   UNL A   1      39.397  28.092  29.791  1.00  0.00     0.031 C 
ATOM     36  C   UNL A   1      44.944  25.972  26.295  1.00  0.00     0.029 A 
ATOM     37  C   UNL A   1      45.005  27.324  26.840  1.00  0.00     0.049 A 
ATOM     38  H   UNL A   1      43.550  28.309  27.957  1.00  0.00     0.167 HD
ATOM     39  C   UNL A   1      40.358  30.353  30.113  1.00  0.00     0.037 A 
ATOM     40  C   UNL A   1      46.040  28.173  26.695  1.00  0.00     0.037 A 
ATOM     41  C   UNL A   1      41.396  31.341  29.977  1.00  0.00     0.049 A 
ATOM     42  C   UNL A   1      45.943  29.561  27.258  1.00  0.00     0.074 A 
ATOM     43  C   UNL A   1      41.421  32.640  30.455  1.00  0.00     0.029 A 
ATOM     44  N   UNL A   1      42.603  31.130  29.330  1.00  0.00    -0.354 N 
ATOM     45  N   UNL A   1      44.961  30.116  27.922  1.00  0.00    -0.248 NA
ATOM     46  C   UNL A   1      47.095  30.447  27.032  1.00  0.00     0.031 C 
ATOM     47  C   UNL A   1      42.638  33.222  30.080  1.00  0.00     0.029 A 
ATOM     48  C   UNL A   1      43.380  32.275  29.392  1.00  0.00     0.049 A 
ATOM     49  H   UNL A   1      42.869  30.290  28.890  1.00  0.00     0.167 HD
ATOM     50  C   UNL A   1      45.371  31.413  28.194  1.00  0.00     0.074 A 
ATOM     51  C   UNL A   1      46.704  31.555  27.645  1.00  0.00     0.031 C 
ATOM     52  C   UNL A   1      44.700  32.401  28.834  1.00  0.00     0.037 A 
BRANCH  39  53
ATOM     53  C   UNL A   1      39.108  30.742  30.841  1.00  0.00     0.064 A 
ATOM     54  C   UNL A   1      38.001  31.280  30.169  1.00  0.00     0.173 A 
ATOM     55  C   UNL A   1      39.001  30.530  32.224  1.00  0.00     0.173 A 
ATOM     56  F   UNL A   1      38.060  31.510  28.849  1.00  0.00    -0.203 F 
ATOM     57  C   UNL A   1      36.837  31.609  30.860  1.00  0.00     0.198 A 
ATOM     58  C   UNL A   1      37.829  30.841  32.908  1.00  0.00     0.198 A 
ATOM     59  F   UNL A   1      40.032  30.013  32.909  1.00  0.00    -0.203 F 
ATOM     60  F   UNL A   1      35.800  32.147  30.205  1.00  0.00    -0.200 F 
ATOM     61  C   UNL A   1      36.750  31.383  32.226  1.00  0.00     0.200 A 
ATOM     62  F   UNL A   1      37.744  30.613  34.226  1.00  0.00    -0.200 F 
ATOM     63  F   UNL A   1      35.626  31.691  32.888  1.00  0.00    -0.200 F 
ENDBRANCH  39  53
BRANCH  40  64
ATOM     64  C   UNL A   1      47.249  27.732  25.956  1.00  0.00     0.064 A 
ATOM     65  C   UNL A   1      48.366  27.234  26.639  1.00  0.00     0.173 A 
ATOM     66  C   UNL A   1      47.303  27.783  24.556  1.00  0.00     0.173 A 
ATOM     67  F   UNL A   1      48.368  27.192  27.979  1.00  0.00    -0.203 F 
ATOM     68  C   UNL A   1      49.496  26.806  25.947  1.00  0.00     0.198 A 
ATOM     69  C   UNL A   1      48.424  27.331  23.864  1.00  0.00     0.198 A 
ATOM     70  F   UNL A   1      46.257  28.253  23.860  1.00  0.00    -0.203 F 
ATOM     71  F   UNL A   1      50.564  26.360  26.623  1.00  0.00    -0.200 F 
ATOM     72  C   UNL A   1      49.521  26.847  24.561  1.00  0.00     0.200 A 
ATOM     73  F   UNL A   1      48.440  27.363  22.526  1.00  0.00    -0.200 F 
ATOM     74  F   UNL A   1      50.605  26.424  23.896  1.00  0.00    -0.200 F 
ENDBRANCH  40  64
BRANCH  52  75
ATOM     75  C   UNL A   1      45.403  33.715  28.976  1.00  0.00     0.064 A 
ATOM     76  C   UNL A   1      45.263  34.722  28.011  1.00  0.00     0.173 A 
ATOM     77  C   UNL A   1      46.210  33.974  30.093  1.00  0.00     0.173 A 
ATOM     78  F   UNL A   1      44.514  34.510  26.918  1.00  0.00    -0.203 F 
ATOM     79  C   UNL A   1      45.928  35.937  28.147  1.00  0.00     0.198 A 
ATOM     80  C   UNL A   1      46.859  35.198  30.234  1.00  0.00     0.198 A 
ATOM     81  F   UNL A   1      46.372  33.041  31.042  1.00  0.00    -0.203 F 
ATOM     82  F   UNL A   1      45.814  36.872  27.193  1.00  0.00    -0.200 F 
ATOM     83  C   UNL A   1      46.722  36.175  29.260  1.00  0.00     0.200 A 
ATOM     84  F   UNL A   1      47.622  35.429  31.310  1.00  0.00    -0.200 F 
ATOM     85  F   UNL A   1      47.364  37.344  29.387  1.00  0.00    -0.200 F 
ENDBRANCH  52  75
ENDBRANCH  26  27
ENDBRANCH  19  21
ENDBRANCH  18  19
ENDBRANCH  17  18
ENDBRANCH   1  17
TORSDOF 15
ENDMDL
