MODEL 1
REMARK VINA RESULT:     -12.3      0.000      0.000
REMARK SMILES C[C@@H]1[C@@H](C(=O)OCCOC(=O)c2ccc(-c3c4nc(c(-c5c(F)c(F)c(F)c(F)c5F)c5ccc([nH]5)c(-c5c(F)c(F)c(F)c(F)c5F)c5nc(c(-c6c(F)c(F)c(F)c(F)c6F)c6ccc3[nH]6)C=C5)C=C4)cc2)CCN1c1ccc(C(F)(F)F)cc1C#N
REMARK SMILES IDX 7 1 6 2 4 3 5 4 3 5 1 6 2 7 77 8 75 9 76 10 78 11 79 12
REMARK SMILES IDX 87 13 80 14 86 15 81 16 88 17 89 18 82 19 83 20 84 21 85 22
REMARK SMILES IDX 8 23 9 24 10 25 11 26 12 27 13 28 74 29 14 30 73 31 15 32
REMARK SMILES IDX 16 33 17 34 67 35 18 36 72 37 66 38 68 39 19 40 71 41 65 42
REMARK SMILES IDX 64 43 20 45 52 46 32 47 51 48 33 49 36 50 50 51 69 52 34 53
REMARK SMILES IDX 35 54 49 56 70 57 37 58 21 59 22 60 30 61 23 62 24 63 28 64
REMARK SMILES IDX 31 65 25 66 26 67 29 68 27 69 53 70 54 71 62 72 55 73 56 74
REMARK SMILES IDX 60 75 63 76 57 77 58 78 61 79 59 80 38 81 39 82 47 83 40 84
REMARK SMILES IDX 41 85 45 86 48 87 42 88 43 89 46 90 44 91
REMARK H PARENT 68 44 36 55
REMARK Flexibility Score: inf
ROOT
ATOM      1  C   UNL A   1      31.404  28.301  25.151  1.00  0.00     0.274 C 
ENDROOT
BRANCH   1   2
ATOM      2  O   UNL A   1      31.118  27.166  25.994  1.00  0.00    -0.462 OA
BRANCH   2   3
ATOM      3  C   UNL A   1      31.526  25.948  25.535  1.00  0.00     0.311 C 
ATOM      4  O   UNL A   1      30.938  24.896  25.739  1.00  0.00    -0.252 OA
BRANCH   3   5
ATOM      5  C   UNL A   1      32.775  26.101  24.685  1.00  0.00     0.123 C 
ATOM      6  C   UNL A   1      33.676  25.243  22.494  1.00  0.00     0.032 C 
ATOM      7  C   UNL A   1      33.055  24.843  23.834  1.00  0.00     0.093 C 
ATOM      8  N   UNL A   1      33.993  24.038  24.644  1.00  0.00    -0.367 N 
ATOM      9  C   UNL A   1      34.032  26.230  25.532  1.00  0.00     0.039 C 
ATOM     10  C   UNL A   1      34.378  24.778  25.854  1.00  0.00     0.118 C 
BRANCH   8  11
ATOM     11  C   UNL A   1      33.763  22.663  24.707  1.00  0.00     0.055 A 
ATOM     12  C   UNL A   1      32.452  22.150  24.677  1.00  0.00     0.028 A 
ATOM     13  C   UNL A   1      34.813  21.723  24.766  1.00  0.00     0.076 A 
ATOM     14  C   UNL A   1      32.187  20.778  24.763  1.00  0.00     0.015 A 
ATOM     15  C   UNL A   1      34.544  20.341  24.839  1.00  0.00     0.034 A 
ATOM     16  C   UNL A   1      33.231  19.856  24.861  1.00  0.00     0.057 A 
BRANCH  13  17
ATOM     17  C   UNL A   1      36.193  22.116  24.788  1.00  0.00     0.101 C 
ATOM     18  N   UNL A   1      37.330  22.359  24.796  1.00  0.00    -0.192 NA
ENDBRANCH  13  17
BRANCH  16  19
ATOM     19  C   UNL A   1      32.939  18.384  25.012  1.00  0.00     0.416 C 
ATOM     20  F   UNL A   1      33.965  17.606  24.569  1.00  0.00    -0.166 F 
ATOM     21  F   UNL A   1      32.723  18.023  26.307  1.00  0.00    -0.166 F 
ATOM     22  F   UNL A   1      31.836  17.975  24.324  1.00  0.00    -0.166 F 
ENDBRANCH  16  19
ENDBRANCH   8  11
ENDBRANCH   3   5
ENDBRANCH   2   3
ENDBRANCH   1   2
BRANCH   1  23
ATOM     23  C   UNL A   1      31.561  29.583  25.974  1.00  0.00     0.275 C 
BRANCH  23  24
ATOM     24  O   UNL A   1      32.924  30.051  25.979  1.00  0.00    -0.458 OA
BRANCH  24  25
ATOM     25  C   UNL A   1      33.174  31.080  26.821  1.00  0.00     0.338 C 
ATOM     26  O   UNL A   1      32.391  31.932  27.203  1.00  0.00    -0.246 OA
BRANCH  25  27
ATOM     27  C   UNL A   1      34.510  30.929  27.419  1.00  0.00     0.060 A 
ATOM     28  C   UNL A   1      34.886  29.634  27.754  1.00  0.00     0.016 A 
ATOM     29  C   UNL A   1      35.315  32.000  27.784  1.00  0.00     0.016 A 
ATOM     30  C   UNL A   1      36.047  29.375  28.469  1.00  0.00     0.010 A 
ATOM     31  C   UNL A   1      36.512  31.744  28.476  1.00  0.00     0.010 A 
ATOM     32  C   UNL A   1      36.882  30.431  28.839  1.00  0.00    -0.014 A 
BRANCH  32  33
ATOM     33  C   UNL A   1      38.094  30.160  29.660  1.00  0.00     0.031 A 
ATOM     34  C   UNL A   1      39.189  29.290  29.108  1.00  0.00     0.074 A 
ATOM     35  C   UNL A   1      38.238  30.716  30.879  1.00  0.00     0.049 A 
ATOM     36  N   UNL A   1      40.238  28.788  29.708  1.00  0.00    -0.248 NA
ATOM     37  C   UNL A   1      39.085  28.931  27.685  1.00  0.00     0.031 C 
ATOM     38  C   UNL A   1      37.300  31.652  31.503  1.00  0.00     0.029 A 
ATOM     39  N   UNL A   1      39.231  30.572  31.818  1.00  0.00    -0.354 N 
ATOM     40  C   UNL A   1      40.896  28.026  28.752  1.00  0.00     0.074 A 
ATOM     41  C   UNL A   1      40.116  28.112  27.535  1.00  0.00     0.031 C 
ATOM     42  C   UNL A   1      37.765  32.001  32.712  1.00  0.00     0.029 A 
ATOM     43  C   UNL A   1      38.988  31.254  32.986  1.00  0.00     0.049 A 
ATOM     44  H   UNL A   1      40.041  30.032  31.667  1.00  0.00     0.167 HD
ATOM     45  C   UNL A   1      42.047  27.322  28.877  1.00  0.00     0.037 A 
ATOM     46  C   UNL A   1      39.645  31.239  34.161  1.00  0.00     0.037 A 
ATOM     47  C   UNL A   1      42.832  27.264  30.084  1.00  0.00     0.049 A 
ATOM     48  C   UNL A   1      40.863  30.364  34.308  1.00  0.00     0.074 A 
ATOM     49  C   UNL A   1      44.009  26.574  30.316  1.00  0.00     0.029 A 
ATOM     50  N   UNL A   1      42.523  27.931  31.261  1.00  0.00    -0.354 N 
ATOM     51  N   UNL A   1      41.455  29.608  33.416  1.00  0.00    -0.248 NA
ATOM     52  C   UNL A   1      41.499  30.332  35.633  1.00  0.00     0.031 C 
ATOM     53  C   UNL A   1      44.380  26.774  31.649  1.00  0.00     0.029 A 
ATOM     54  C   UNL A   1      43.474  27.647  32.230  1.00  0.00     0.049 A 
ATOM     55  H   UNL A   1      41.743  28.518  31.390  1.00  0.00     0.167 HD
ATOM     56  C   UNL A   1      42.550  29.044  34.057  1.00  0.00     0.074 A 
ATOM     57  C   UNL A   1      42.548  29.555  35.412  1.00  0.00     0.031 C 
ATOM     58  C   UNL A   1      43.472  28.179  33.569  1.00  0.00     0.037 A 
BRANCH  45  59
ATOM     59  C   UNL A   1      42.510  26.524  27.691  1.00  0.00     0.064 A 
ATOM     60  C   UNL A   1      43.471  27.012  26.794  1.00  0.00     0.173 A 
ATOM     61  C   UNL A   1      42.007  25.232  27.470  1.00  0.00     0.173 A 
ATOM     62  F   UNL A   1      43.976  28.246  26.950  1.00  0.00    -0.203 F 
ATOM     63  C   UNL A   1      43.888  26.251  25.704  1.00  0.00     0.198 A 
ATOM     64  C   UNL A   1      42.452  24.459  26.401  1.00  0.00     0.198 A 
ATOM     65  F   UNL A   1      41.090  24.711  28.300  1.00  0.00    -0.203 F 
ATOM     66  F   UNL A   1      44.766  26.760  24.829  1.00  0.00    -0.200 F 
ATOM     67  C   UNL A   1      43.384  24.973  25.512  1.00  0.00     0.200 A 
ATOM     68  F   UNL A   1      41.975  23.219  26.227  1.00  0.00    -0.200 F 
ATOM     69  F   UNL A   1      43.792  24.238  24.468  1.00  0.00    -0.200 F 
ENDBRANCH  45  59
BRANCH  46  70
ATOM     70  C   UNL A   1      39.145  32.037  35.315  1.00  0.00     0.064 A 
ATOM     71  C   UNL A   1      39.465  33.395  35.447  1.00  0.00     0.173 A 
ATOM     72  C   UNL A   1      38.373  31.451  36.331  1.00  0.00     0.173 A 
ATOM     73  F   UNL A   1      40.225  33.997  34.519  1.00  0.00    -0.203 F 
ATOM     74  C   UNL A   1      39.060  34.128  36.562  1.00  0.00     0.198 A 
ATOM     75  C   UNL A   1      37.935  32.195  37.425  1.00  0.00     0.198 A 
ATOM     76  F   UNL A   1      38.039  30.154  36.259  1.00  0.00    -0.203 F 
ATOM     77  F   UNL A   1      39.439  35.406  36.695  1.00  0.00    -0.200 F 
ATOM     78  C   UNL A   1      38.290  33.528  37.546  1.00  0.00     0.200 A 
ATOM     79  F   UNL A   1      37.180  31.612  38.367  1.00  0.00    -0.200 F 
ATOM     80  F   UNL A   1      37.903  34.231  38.620  1.00  0.00    -0.200 F 
ENDBRANCH  46  70
BRANCH  58  81
ATOM     81  C   UNL A   1      44.594  27.775  34.483  1.00  0.00     0.064 A 
ATOM     82  C   UNL A   1      45.788  28.507  34.562  1.00  0.00     0.173 A 
ATOM     83  C   UNL A   1      44.455  26.658  35.322  1.00  0.00     0.173 A 
ATOM     84  F   UNL A   1      45.981  29.575  33.772  1.00  0.00    -0.203 F 
ATOM     85  C   UNL A   1      46.811  28.119  35.424  1.00  0.00     0.198 A 
ATOM     86  C   UNL A   1      45.464  26.294  36.209  1.00  0.00     0.198 A 
ATOM     87  F   UNL A   1      43.330  25.926  35.292  1.00  0.00    -0.203 F 
ATOM     88  F   UNL A   1      47.965  28.801  35.442  1.00  0.00    -0.200 F 
ATOM     89  C   UNL A   1      46.645  27.019  36.252  1.00  0.00     0.200 A 
ATOM     90  F   UNL A   1      45.294  25.242  37.021  1.00  0.00    -0.200 F 
ATOM     91  F   UNL A   1      47.626  26.653  37.088  1.00  0.00    -0.200 F 
ENDBRANCH  58  81
ENDBRANCH  32  33
ENDBRANCH  25  27
ENDBRANCH  24  25
ENDBRANCH  23  24
ENDBRANCH   1  23
TORSDOF 14
ENDMDL
MODEL 2
REMARK VINA RESULT:     -12.3      4.865      9.857
REMARK SMILES C[C@@H]1[C@@H](C(=O)OCCOC(=O)c2ccc(-c3c4nc(c(-c5c(F)c(F)c(F)c(F)c5F)c5ccc([nH]5)c(-c5c(F)c(F)c(F)c(F)c5F)c5nc(c(-c6c(F)c(F)c(F)c(F)c6F)c6ccc3[nH]6)C=C5)C=C4)cc2)CCN1c1ccc(C(F)(F)F)cc1C#N
REMARK SMILES IDX 7 1 6 2 4 3 5 4 3 5 1 6 2 7 77 8 75 9 76 10 78 11 79 12
REMARK SMILES IDX 87 13 80 14 86 15 81 16 88 17 89 18 82 19 83 20 84 21 85 22
REMARK SMILES IDX 8 23 9 24 10 25 11 26 12 27 13 28 74 29 14 30 73 31 15 32
REMARK SMILES IDX 16 33 17 34 67 35 18 36 72 37 66 38 68 39 19 40 71 41 65 42
REMARK SMILES IDX 64 43 20 45 52 46 32 47 51 48 33 49 36 50 50 51 69 52 34 53
REMARK SMILES IDX 35 54 49 56 70 57 37 58 21 59 22 60 30 61 23 62 24 63 28 64
REMARK SMILES IDX 31 65 25 66 26 67 29 68 27 69 53 70 54 71 62 72 55 73 56 74
REMARK SMILES IDX 60 75 63 76 57 77 58 78 61 79 59 80 38 81 39 82 47 83 40 84
REMARK SMILES IDX 41 85 45 86 48 87 42 88 43 89 46 90 44 91
REMARK H PARENT 68 44 36 55
REMARK Flexibility Score: inf
ROOT
ATOM      1  C   UNL A   1      36.688  22.550  23.462  1.00  0.00     0.274 C 
ENDROOT
BRANCH   1   2
ATOM      2  O   UNL A   1      35.922  23.667  23.957  1.00  0.00    -0.462 OA
BRANCH   2   3
ATOM      3  C   UNL A   1      34.607  23.710  23.598  1.00  0.00     0.311 C 
ATOM      4  O   UNL A   1      34.202  23.924  22.465  1.00  0.00    -0.252 OA
BRANCH   3   5
ATOM      5  C   UNL A   1      33.727  23.392  24.795  1.00  0.00     0.123 C 
ATOM      6  C   UNL A   1      31.288  22.992  25.283  1.00  0.00     0.032 C 
ATOM      7  C   UNL A   1      32.293  23.938  24.621  1.00  0.00     0.093 C 
ATOM      8  N   UNL A   1      32.307  25.258  25.284  1.00  0.00    -0.367 N 
ATOM      9  C   UNL A   1      34.208  24.086  26.060  1.00  0.00     0.039 C 
ATOM     10  C   UNL A   1      33.605  25.483  25.935  1.00  0.00     0.118 C 
BRANCH   8  11
ATOM     11  C   UNL A   1      31.661  26.307  24.628  1.00  0.00     0.055 A 
ATOM     12  C   UNL A   1      31.427  26.254  23.241  1.00  0.00     0.028 A 
ATOM     13  C   UNL A   1      31.181  27.444  25.311  1.00  0.00     0.076 A 
ATOM     14  C   UNL A   1      30.805  27.301  22.549  1.00  0.00     0.015 A 
ATOM     15  C   UNL A   1      30.542  28.491  24.615  1.00  0.00     0.034 A 
ATOM     16  C   UNL A   1      30.368  28.440  23.226  1.00  0.00     0.057 A 
BRANCH  13  17
ATOM     17  C   UNL A   1      31.343  27.613  26.726  1.00  0.00     0.101 C 
ATOM     18  N   UNL A   1      31.463  27.827  27.863  1.00  0.00    -0.192 NA
ENDBRANCH  13  17
BRANCH  16  19
ATOM     19  C   UNL A   1      29.750  29.589  22.470  1.00  0.00     0.416 C 
ATOM     20  F   UNL A   1      29.627  30.707  23.237  1.00  0.00    -0.166 F 
ATOM     21  F   UNL A   1      30.484  29.956  21.383  1.00  0.00    -0.166 F 
ATOM     22  F   UNL A   1      28.500  29.320  21.998  1.00  0.00    -0.166 F 
ENDBRANCH  16  19
ENDBRANCH   8  11
ENDBRANCH   3   5
ENDBRANCH   2   3
ENDBRANCH   1   2
BRANCH   1  23
ATOM     23  C   UNL A   1      36.837  21.458  24.526  1.00  0.00     0.275 C 
BRANCH  23  24
ATOM     24  O   UNL A   1      37.342  21.988  25.767  1.00  0.00    -0.458 OA
BRANCH  24  25
ATOM     25  C   UNL A   1      38.619  21.649  26.058  1.00  0.00     0.338 C 
ATOM     26  O   UNL A   1      39.205  20.627  25.743  1.00  0.00    -0.246 OA
BRANCH  25  27
ATOM     27  C   UNL A   1      39.324  22.798  26.646  1.00  0.00     0.060 A 
ATOM     28  C   UNL A   1      38.958  24.051  26.167  1.00  0.00     0.016 A 
ATOM     29  C   UNL A   1      40.403  22.678  27.514  1.00  0.00     0.016 A 
ATOM     30  C   UNL A   1      39.655  25.197  26.519  1.00  0.00     0.010 A 
ATOM     31  C   UNL A   1      41.092  23.839  27.905  1.00  0.00     0.010 A 
ATOM     32  C   UNL A   1      40.735  25.108  27.400  1.00  0.00    -0.014 A 
BRANCH  32  33
ATOM     33  C   UNL A   1      41.521  26.328  27.728  1.00  0.00     0.031 A 
ATOM     34  C   UNL A   1      40.893  27.423  28.544  1.00  0.00     0.074 A 
ATOM     35  C   UNL A   1      42.805  26.447  27.332  1.00  0.00     0.049 A 
ATOM     36  N   UNL A   1      41.331  28.631  28.797  1.00  0.00    -0.248 NA
ATOM     37  C   UNL A   1      39.590  27.118  29.156  1.00  0.00     0.031 C 
ATOM     38  C   UNL A   1      43.571  25.426  26.613  1.00  0.00     0.029 A 
ATOM     39  N   UNL A   1      43.694  27.484  27.477  1.00  0.00    -0.354 N 
ATOM     40  C   UNL A   1      40.344  29.241  29.561  1.00  0.00     0.074 A 
ATOM     41  C   UNL A   1      39.273  28.278  29.713  1.00  0.00     0.031 C 
ATOM     42  C   UNL A   1      44.811  25.885  26.388  1.00  0.00     0.029 A 
ATOM     43  C   UNL A   1      44.906  27.259  26.868  1.00  0.00     0.049 A 
ATOM     44  H   UNL A   1      43.483  28.311  27.969  1.00  0.00     0.167 HD
ATOM     45  C   UNL A   1      40.335  30.489  30.089  1.00  0.00     0.037 A 
ATOM     46  C   UNL A   1      45.954  28.082  26.674  1.00  0.00     0.037 A 
ATOM     47  C   UNL A   1      41.417  31.431  29.956  1.00  0.00     0.049 A 
ATOM     48  C   UNL A   1      45.876  29.499  27.179  1.00  0.00     0.074 A 
ATOM     49  C   UNL A   1      41.502  32.723  30.447  1.00  0.00     0.029 A 
ATOM     50  N   UNL A   1      42.607  31.180  29.289  1.00  0.00    -0.354 N 
ATOM     51  N   UNL A   1      44.922  30.087  27.860  1.00  0.00    -0.248 NA
ATOM     52  C   UNL A   1      47.019  30.373  26.877  1.00  0.00     0.031 C 
ATOM     53  C   UNL A   1      42.717  33.272  30.027  1.00  0.00     0.029 A 
ATOM     54  C   UNL A   1      43.422  32.300  29.335  1.00  0.00     0.049 A 
ATOM     55  H   UNL A   1      42.839  30.330  28.848  1.00  0.00     0.167 HD
ATOM     56  C   UNL A   1      45.364  31.381  28.100  1.00  0.00     0.074 A 
ATOM     57  C   UNL A   1      46.679  31.490  27.503  1.00  0.00     0.031 C 
ATOM     58  C   UNL A   1      44.737  32.389  28.755  1.00  0.00     0.037 A 
BRANCH  45  59
ATOM     59  C   UNL A   1      39.101  30.925  30.828  1.00  0.00     0.064 A 
ATOM     60  C   UNL A   1      38.011  31.517  30.173  1.00  0.00     0.173 A 
ATOM     61  C   UNL A   1      38.996  30.714  32.212  1.00  0.00     0.173 A 
ATOM     62  F   UNL A   1      38.064  31.754  28.853  1.00  0.00    -0.203 F 
ATOM     63  C   UNL A   1      36.876  31.909  30.879  1.00  0.00     0.198 A 
ATOM     64  C   UNL A   1      37.845  31.074  32.909  1.00  0.00     0.198 A 
ATOM     65  F   UNL A   1      40.005  30.146  32.889  1.00  0.00    -0.203 F 
ATOM     66  F   UNL A   1      35.870  32.522  30.241  1.00  0.00    -0.200 F 
ATOM     67  C   UNL A   1      36.790  31.681  32.244  1.00  0.00     0.200 A 
ATOM     68  F   UNL A   1      37.759  30.837  34.225  1.00  0.00    -0.200 F 
ATOM     69  F   UNL A   1      35.694  32.050  32.921  1.00  0.00    -0.200 F 
ENDBRANCH  45  59
BRANCH  46  70
ATOM     70  C   UNL A   1      47.154  27.612  25.927  1.00  0.00     0.064 A 
ATOM     71  C   UNL A   1      48.268  27.092  26.600  1.00  0.00     0.173 A 
ATOM     72  C   UNL A   1      47.229  27.710  24.528  1.00  0.00     0.173 A 
ATOM     73  F   UNL A   1      48.259  27.004  27.939  1.00  0.00    -0.203 F 
ATOM     74  C   UNL A   1      49.419  26.718  25.910  1.00  0.00     0.198 A 
ATOM     75  C   UNL A   1      48.366  27.299  23.835  1.00  0.00     0.198 A 
ATOM     76  F   UNL A   1      46.194  28.203  23.831  1.00  0.00    -0.203 F 
ATOM     77  F   UNL A   1      50.494  26.290  26.587  1.00  0.00    -0.200 F 
ATOM     78  C   UNL A   1      49.465  26.816  24.528  1.00  0.00     0.200 A 
ATOM     79  F   UNL A   1      48.400  27.384  22.498  1.00  0.00    -0.200 F 
ATOM     80  F   UNL A   1      50.574  26.460  23.864  1.00  0.00    -0.200 F 
ENDBRANCH  46  70
BRANCH  58  81
ATOM     81  C   UNL A   1      45.488  33.681  28.916  1.00  0.00     0.064 A 
ATOM     82  C   UNL A   1      45.354  34.737  28.003  1.00  0.00     0.173 A 
ATOM     83  C   UNL A   1      46.326  33.877  30.025  1.00  0.00     0.173 A 
ATOM     84  F   UNL A   1      44.577  34.599  26.917  1.00  0.00    -0.203 F 
ATOM     85  C   UNL A   1      46.054  35.929  28.178  1.00  0.00     0.198 A 
ATOM     86  C   UNL A   1      46.995  35.082  30.217  1.00  0.00     0.198 A 
ATOM     87  F   UNL A   1      46.485  32.902  30.933  1.00  0.00    -0.203 F 
ATOM     88  F   UNL A   1      45.953  36.903  27.263  1.00  0.00    -0.200 F 
ATOM     89  C   UNL A   1      46.866  36.104  29.288  1.00  0.00     0.200 A 
ATOM     90  F   UNL A   1      47.765  35.256  31.300  1.00  0.00    -0.200 F 
ATOM     91  F   UNL A   1      47.530  37.255  29.461  1.00  0.00    -0.200 F 
ENDBRANCH  58  81
ENDBRANCH  32  33
ENDBRANCH  25  27
ENDBRANCH  24  25
ENDBRANCH  23  24
ENDBRANCH   1  23
TORSDOF 14
ENDMDL
MODEL 3
REMARK VINA RESULT:     -12.3      4.805      7.591
REMARK SMILES C[C@@H]1[C@@H](C(=O)OCCOC(=O)c2ccc(-c3c4nc(c(-c5c(F)c(F)c(F)c(F)c5F)c5ccc([nH]5)c(-c5c(F)c(F)c(F)c(F)c5F)c5nc(c(-c6c(F)c(F)c(F)c(F)c6F)c6ccc3[nH]6)C=C5)C=C4)cc2)CCN1c1ccc(C(F)(F)F)cc1C#N
REMARK SMILES IDX 7 1 6 2 4 3 5 4 3 5 1 6 2 7 77 8 75 9 76 10 78 11 79 12
REMARK SMILES IDX 87 13 80 14 86 15 81 16 88 17 89 18 82 19 83 20 84 21 85 22
REMARK SMILES IDX 8 23 9 24 10 25 11 26 12 27 13 28 74 29 14 30 73 31 15 32
REMARK SMILES IDX 16 33 17 34 67 35 18 36 72 37 66 38 68 39 19 40 71 41 65 42
REMARK SMILES IDX 64 43 20 45 52 46 32 47 51 48 33 49 36 50 50 51 69 52 34 53
REMARK SMILES IDX 35 54 49 56 70 57 37 58 21 59 22 60 30 61 23 62 24 63 28 64
REMARK SMILES IDX 31 65 25 66 26 67 29 68 27 69 53 70 54 71 62 72 55 73 56 74
REMARK SMILES IDX 60 75 63 76 57 77 58 78 61 79 59 80 38 81 39 82 47 83 40 84
REMARK SMILES IDX 41 85 45 86 48 87 42 88 43 89 46 90 44 91
REMARK H PARENT 68 44 36 55
REMARK Flexibility Score: inf
ROOT
ATOM      1  C   UNL A   1      37.860  20.089  24.759  1.00  0.00     0.274 C 
ENDROOT
BRANCH   1   2
ATOM      2  O   UNL A   1      37.275  21.263  25.359  1.00  0.00    -0.462 OA
BRANCH   2   3
ATOM      3  C   UNL A   1      36.386  21.959  24.594  1.00  0.00     0.311 C 
ATOM      4  O   UNL A   1      36.672  22.923  23.900  1.00  0.00    -0.252 OA
BRANCH   3   5
ATOM      5  C   UNL A   1      35.009  21.324  24.684  1.00  0.00     0.123 C 
ATOM      6  C   UNL A   1      32.721  21.641  23.676  1.00  0.00     0.032 C 
ATOM      7  C   UNL A   1      33.882  22.339  24.390  1.00  0.00     0.093 C 
ATOM      8  N   UNL A   1      33.472  22.845  25.716  1.00  0.00    -0.367 N 
ATOM      9  C   UNL A   1      34.686  20.851  26.093  1.00  0.00     0.039 C 
ATOM     10  C   UNL A   1      34.190  22.123  26.776  1.00  0.00     0.118 C 
BRANCH   8  11
ATOM     11  C   UNL A   1      33.247  24.218  25.832  1.00  0.00     0.055 A 
ATOM     12  C   UNL A   1      34.216  25.145  25.404  1.00  0.00     0.028 A 
ATOM     13  C   UNL A   1      32.042  24.745  26.341  1.00  0.00     0.076 A 
ATOM     14  C   UNL A   1      34.030  26.528  25.529  1.00  0.00     0.015 A 
ATOM     15  C   UNL A   1      31.852  26.138  26.454  1.00  0.00     0.034 A 
ATOM     16  C   UNL A   1      32.851  27.041  26.071  1.00  0.00     0.057 A 
BRANCH  13  17
ATOM     17  C   UNL A   1      30.971  23.907  26.798  1.00  0.00     0.101 C 
ATOM     18  N   UNL A   1      30.054  23.288  27.156  1.00  0.00    -0.192 NA
ENDBRANCH  13  17
BRANCH  16  19
ATOM     19  C   UNL A   1      32.679  28.528  26.257  1.00  0.00     0.416 C 
ATOM     20  F   UNL A   1      33.511  29.249  25.456  1.00  0.00    -0.166 F 
ATOM     21  F   UNL A   1      31.417  28.950  25.966  1.00  0.00    -0.166 F 
ATOM     22  F   UNL A   1      32.926  28.948  27.529  1.00  0.00    -0.166 F 
ENDBRANCH  16  19
ENDBRANCH   8  11
ENDBRANCH   3   5
ENDBRANCH   2   3
ENDBRANCH   1   2
BRANCH   1  23
ATOM     23  C   UNL A   1      38.923  19.468  25.669  1.00  0.00     0.275 C 
BRANCH  23  24
ATOM     24  O   UNL A   1      40.057  20.342  25.840  1.00  0.00    -0.458 OA
BRANCH  24  25
ATOM     25  C   UNL A   1      40.560  20.391  27.094  1.00  0.00     0.338 C 
ATOM     26  O   UNL A   1      40.884  19.451  27.801  1.00  0.00    -0.246 OA
BRANCH  25  27
ATOM     27  C   UNL A   1      40.885  21.780  27.453  1.00  0.00     0.060 A 
ATOM     28  C   UNL A   1      40.278  22.768  26.687  1.00  0.00     0.016 A 
ATOM     29  C   UNL A   1      41.850  22.127  28.390  1.00  0.00     0.016 A 
ATOM     30  C   UNL A   1      40.623  24.105  26.817  1.00  0.00     0.010 A 
ATOM     31  C   UNL A   1      42.180  23.484  28.555  1.00  0.00     0.010 A 
ATOM     32  C   UNL A   1      41.580  24.484  27.759  1.00  0.00    -0.014 A 
BRANCH  32  33
ATOM     33  C   UNL A   1      41.996  25.911  27.854  1.00  0.00     0.031 A 
ATOM     34  C   UNL A   1      43.308  26.345  27.261  1.00  0.00     0.074 A 
ATOM     35  C   UNL A   1      41.192  26.825  28.433  1.00  0.00     0.049 A 
ATOM     36  N   UNL A   1      43.938  27.487  27.379  1.00  0.00    -0.248 NA
ATOM     37  C   UNL A   1      44.008  25.358  26.426  1.00  0.00     0.031 C 
ATOM     38  C   UNL A   1      39.855  26.564  28.969  1.00  0.00     0.029 A 
ATOM     39  N   UNL A   1      41.386  28.165  28.671  1.00  0.00    -0.354 N 
ATOM     40  C   UNL A   1      45.123  27.342  26.668  1.00  0.00     0.074 A 
ATOM     41  C   UNL A   1      45.135  25.993  26.139  1.00  0.00     0.031 C 
ATOM     42  C   UNL A   1      39.348  27.703  29.464  1.00  0.00     0.029 A 
ATOM     43  C   UNL A   1      40.353  28.756  29.359  1.00  0.00     0.049 A 
ATOM     44  H   UNL A   1      42.189  28.654  28.377  1.00  0.00     0.167 HD
ATOM     45  C   UNL A   1      46.107  28.252  26.471  1.00  0.00     0.037 A 
ATOM     46  C   UNL A   1      40.248  29.990  29.889  1.00  0.00     0.037 A 
ATOM     47  C   UNL A   1      46.075  29.601  26.977  1.00  0.00     0.049 A 
ATOM     48  C   UNL A   1      41.402  30.949  29.748  1.00  0.00     0.074 A 
ATOM     49  C   UNL A   1      47.025  30.598  26.840  1.00  0.00     0.029 A 
ATOM     50  N   UNL A   1      45.030  30.144  27.712  1.00  0.00    -0.354 N 
ATOM     51  N   UNL A   1      42.539  30.792  29.116  1.00  0.00    -0.248 NA
ATOM     52  C   UNL A   1      41.261  32.255  30.407  1.00  0.00     0.031 C 
ATOM     53  C   UNL A   1      46.584  31.724  27.540  1.00  0.00     0.029 A 
ATOM     54  C   UNL A   1      45.326  31.455  28.055  1.00  0.00     0.049 A 
ATOM     55  H   UNL A   1      44.202  29.669  27.953  1.00  0.00     0.167 HD
ATOM     56  C   UNL A   1      43.230  31.987  29.267  1.00  0.00     0.074 A 
ATOM     57  C   UNL A   1      42.378  32.865  30.041  1.00  0.00     0.031 C 
ATOM     58  C   UNL A   1      44.460  32.326  28.808  1.00  0.00     0.037 A 
BRANCH  45  59
ATOM     59  C   UNL A   1      47.324  27.810  25.708  1.00  0.00     0.064 A 
ATOM     60  C   UNL A   1      48.491  27.374  26.354  1.00  0.00     0.173 A 
ATOM     61  C   UNL A   1      47.308  27.789  24.304  1.00  0.00     0.173 A 
ATOM     62  F   UNL A   1      48.565  27.385  27.694  1.00  0.00    -0.203 F 
ATOM     63  C   UNL A   1      49.605  26.965  25.625  1.00  0.00     0.198 A 
ATOM     64  C   UNL A   1      48.411  27.346  23.579  1.00  0.00     0.198 A 
ATOM     65  F   UNL A   1      46.218  28.189  23.633  1.00  0.00    -0.203 F 
ATOM     66  F   UNL A   1      50.727  26.604  26.263  1.00  0.00    -0.200 F 
ATOM     67  C   UNL A   1      49.562  26.943  24.239  1.00  0.00     0.200 A 
ATOM     68  F   UNL A   1      48.361  27.311  22.240  1.00  0.00    -0.200 F 
ATOM     69  F   UNL A   1      50.631  26.541  23.538  1.00  0.00    -0.200 F 
ENDBRANCH  45  59
BRANCH  46  70
ATOM     70  C   UNL A   1      39.028  30.383  30.647  1.00  0.00     0.064 A 
ATOM     71  C   UNL A   1      37.946  31.000  30.006  1.00  0.00     0.173 A 
ATOM     72  C   UNL A   1      38.934  30.188  32.035  1.00  0.00     0.173 A 
ATOM     73  F   UNL A   1      37.996  31.235  28.685  1.00  0.00    -0.203 F 
ATOM     74  C   UNL A   1      36.832  31.435  30.723  1.00  0.00     0.198 A 
ATOM     75  C   UNL A   1      37.804  30.587  32.745  1.00  0.00     0.198 A 
ATOM     76  F   UNL A   1      39.941  29.606  32.702  1.00  0.00    -0.203 F 
ATOM     77  F   UNL A   1      35.843  32.083  30.094  1.00  0.00    -0.200 F 
ATOM     78  C   UNL A   1      36.760  31.222  32.091  1.00  0.00     0.200 A 
ATOM     79  F   UNL A   1      37.735  30.368  34.066  1.00  0.00    -0.200 F 
ATOM     80  F   UNL A   1      35.692  31.643  32.782  1.00  0.00    -0.200 F 
ENDBRANCH  46  70
BRANCH  58  81
ATOM     81  C   UNL A   1      44.936  33.726  29.075  1.00  0.00     0.064 A 
ATOM     82  C   UNL A   1      44.667  34.783  28.194  1.00  0.00     0.173 A 
ATOM     83  C   UNL A   1      45.641  34.019  30.254  1.00  0.00     0.173 A 
ATOM     84  F   UNL A   1      44.010  34.557  27.046  1.00  0.00    -0.203 F 
ATOM     85  C   UNL A   1      45.111  36.074  28.468  1.00  0.00     0.198 A 
ATOM     86  C   UNL A   1      46.051  35.317  30.542  1.00  0.00     0.198 A 
ATOM     87  F   UNL A   1      45.919  33.046  31.135  1.00  0.00    -0.203 F 
ATOM     88  F   UNL A   1      44.890  37.058  27.584  1.00  0.00    -0.200 F 
ATOM     89  C   UNL A   1      45.794  36.342  29.644  1.00  0.00     0.200 A 
ATOM     90  F   UNL A   1      46.695  35.576  31.689  1.00  0.00    -0.200 F 
ATOM     91  F   UNL A   1      46.212  37.587  29.911  1.00  0.00    -0.200 F 
ENDBRANCH  58  81
ENDBRANCH  32  33
ENDBRANCH  25  27
ENDBRANCH  24  25
ENDBRANCH  23  24
ENDBRANCH   1  23
TORSDOF 14
ENDMDL
