MODEL 1
REMARK VINA RESULT:      -9.7      0.000      0.000
REMARK SMILES COc1ccccc1Nc1nc(C)c(C(=O)OCCOC(=O)c2ccc(-c3c4nc(c(-c5c(F)c(F)c(F)c(F)c5F)c5ccc([nH]5)c(-c5c(F)c(F)c(F)c(F)c5F)c5nc(c(-c6c(F)c(F)c(F)c(F)c6F)c6ccc3[nH]6)C=C5)C=C4)cc2)s1
REMARK SMILES IDX 18 1 17 2 15 3 16 4 14 5 10 6 11 7 86 8 12 9 13 10 9 11 8 13
REMARK SMILES IDX 3 14 4 15 5 16 7 17 6 18 2 19 1 20 19 21 20 22 21 23 22 24
REMARK SMILES IDX 23 25 24 26 85 27 25 28 84 29 26 30 27 31 28 32 78 33 29 34
REMARK SMILES IDX 83 35 77 36 79 37 30 38 82 39 76 40 75 41 31 43 63 44 43 45
REMARK SMILES IDX 62 46 44 47 47 48 61 49 80 50 45 51 46 52 60 54 81 55 48 56
REMARK SMILES IDX 32 57 33 58 41 59 34 60 35 61 39 62 42 63 36 64 37 65 40 66
REMARK SMILES IDX 38 67 64 68 65 69 73 70 66 71 67 72 71 73 74 74 68 75 69 76
REMARK SMILES IDX 72 77 70 78 49 79 50 80 58 81 51 82 52 83 56 84 59 85 53 86
REMARK SMILES IDX 54 87 57 88 55 89
REMARK H PARENT 9 12 79 42 47 53
REMARK Flexibility Score: inf
ROOT
ATOM      1  C   UNL A   1      33.819  34.182  28.853  1.00  0.00     0.275 C 
ENDROOT
BRANCH   1   2
ATOM      2  O   UNL A   1      33.651  33.813  30.238  1.00  0.00    -0.458 OA
BRANCH   2   3
ATOM      3  C   UNL A   1      34.421  34.464  31.159  1.00  0.00     0.350 C 
ATOM      4  O   UNL A   1      34.172  35.586  31.578  1.00  0.00    -0.245 OA
BRANCH   3   5
ATOM      5  C   UNL A   1      35.498  33.609  31.626  1.00  0.00     0.137 A 
ATOM      6  C   UNL A   1      36.756  31.939  32.897  1.00  0.00     0.188 A 
ATOM      7  N   UNL A   1      37.404  32.264  31.804  1.00  0.00    -0.224 NA
ATOM      8  S   UNL A   1      35.409  32.949  33.220  1.00  0.00    -0.089 S 
ATOM      9  C   UNL A   1      36.681  33.180  31.044  1.00  0.00     0.065 A 
ATOM     10  C   UNL A   1      37.290  33.579  29.749  1.00  0.00     0.069 C 
BRANCH   6  11
ATOM     11  N   UNL A   1      37.197  30.996  33.756  1.00  0.00    -0.328 N 
ATOM     12  H   UNL A   1      36.799  31.010  34.657  1.00  0.00     0.169 HD
BRANCH  11  13
ATOM     13  C   UNL A   1      38.164  29.987  33.518  1.00  0.00     0.083 A 
ATOM     14  C   UNL A   1      39.504  30.210  33.899  1.00  0.00     0.142 A 
ATOM     15  C   UNL A   1      40.514  29.301  33.564  1.00  0.00     0.048 A 
ATOM     16  C   UNL A   1      40.199  28.129  32.882  1.00  0.00     0.004 A 
ATOM     17  C   UNL A   1      37.863  28.778  32.871  1.00  0.00     0.030 A 
ATOM     18  C   UNL A   1      38.874  27.863  32.544  1.00  0.00     0.002 A 
BRANCH  14  19
ATOM     19  O   UNL A   1      39.919  31.369  34.511  1.00  0.00    -0.495 OA
ATOM     20  C   UNL A   1      40.147  31.194  35.911  1.00  0.00     0.278 C 
ENDBRANCH  14  19
ENDBRANCH  11  13
ENDBRANCH   6  11
ENDBRANCH   3   5
ENDBRANCH   2   3
ENDBRANCH   1   2
BRANCH   1  21
ATOM     21  C   UNL A   1      34.014  32.954  27.956  1.00  0.00     0.275 C 
BRANCH  21  22
ATOM     22  O   UNL A   1      34.383  31.792  28.723  1.00  0.00    -0.458 OA
BRANCH  22  23
ATOM     23  C   UNL A   1      34.512  30.656  28.002  1.00  0.00     0.338 C 
ATOM     24  O   UNL A   1      33.706  30.180  27.219  1.00  0.00    -0.246 OA
BRANCH  23  25
ATOM     25  C   UNL A   1      35.872  30.121  28.141  1.00  0.00     0.060 A 
ATOM     26  C   UNL A   1      36.216  29.617  29.390  1.00  0.00     0.016 A 
ATOM     27  C   UNL A   1      36.833  30.225  27.140  1.00  0.00     0.016 A 
ATOM     28  C   UNL A   1      37.526  29.271  29.685  1.00  0.00     0.010 A 
ATOM     29  C   UNL A   1      38.148  29.818  27.414  1.00  0.00     0.010 A 
ATOM     30  C   UNL A   1      38.509  29.358  28.697  1.00  0.00    -0.014 A 
BRANCH  30  31
ATOM     31  C   UNL A   1      39.911  29.003  29.039  1.00  0.00     0.031 A 
ATOM     32  C   UNL A   1      40.757  29.957  29.834  1.00  0.00     0.074 A 
ATOM     33  C   UNL A   1      40.406  27.802  28.679  1.00  0.00     0.049 A 
ATOM     34  N   UNL A   1      42.029  29.887  30.134  1.00  0.00    -0.248 NA
ATOM     35  C   UNL A   1      40.084  31.156  30.358  1.00  0.00     0.031 C 
ATOM     36  C   UNL A   1      39.667  26.763  27.961  1.00  0.00     0.029 A 
ATOM     37  N   UNL A   1      41.650  27.251  28.871  1.00  0.00    -0.354 N 
ATOM     38  C   UNL A   1      42.313  31.037  30.858  1.00  0.00     0.074 A 
ATOM     39  C   UNL A   1      41.089  31.805  30.927  1.00  0.00     0.031 C 
ATOM     40  C   UNL A   1      40.465  25.699  27.779  1.00  0.00     0.029 A 
ATOM     41  C   UNL A   1      41.792  26.009  28.299  1.00  0.00     0.049 A 
ATOM     42  H   UNL A   1      42.370  27.701  29.369  1.00  0.00     0.167 HD
ATOM     43  C   UNL A   1      43.487  31.410  31.421  1.00  0.00     0.037 A 
ATOM     44  C   UNL A   1      42.880  25.228  28.165  1.00  0.00     0.037 A 
ATOM     45  C   UNL A   1      44.698  30.630  31.361  1.00  0.00     0.049 A 
ATOM     46  C   UNL A   1      44.191  25.704  28.730  1.00  0.00     0.074 A 
ATOM     47  C   UNL A   1      45.945  30.927  31.882  1.00  0.00     0.029 A 
ATOM     48  N   UNL A   1      44.809  29.391  30.745  1.00  0.00    -0.354 N 
ATOM     49  N   UNL A   1      44.460  26.808  29.384  1.00  0.00    -0.248 NA
ATOM     50  C   UNL A   1      45.354  24.828  28.534  1.00  0.00     0.031 C 
ATOM     51  C   UNL A   1      46.821  29.892  31.540  1.00  0.00     0.029 A 
ATOM     52  C   UNL A   1      46.107  28.919  30.860  1.00  0.00     0.049 A 
ATOM     53  H   UNL A   1      44.074  28.917  30.291  1.00  0.00     0.167 HD
ATOM     54  C   UNL A   1      45.810  26.747  29.701  1.00  0.00     0.074 A 
ATOM     55  C   UNL A   1      46.301  25.486  29.186  1.00  0.00     0.031 C 
ATOM     56  C   UNL A   1      46.576  27.654  30.353  1.00  0.00     0.037 A 
BRANCH  43  57
ATOM     57  C   UNL A   1      43.530  32.731  32.135  1.00  0.00     0.064 A 
ATOM     58  C   UNL A   1      43.785  33.931  31.456  1.00  0.00     0.173 A 
ATOM     59  C   UNL A   1      43.267  32.802  33.513  1.00  0.00     0.173 A 
ATOM     60  F   UNL A   1      44.056  33.920  30.143  1.00  0.00    -0.203 F 
ATOM     61  C   UNL A   1      43.800  35.149  32.132  1.00  0.00     0.198 A 
ATOM     62  C   UNL A   1      43.250  34.024  34.179  1.00  0.00     0.198 A 
ATOM     63  F   UNL A   1      43.011  31.686  34.211  1.00  0.00    -0.203 F 
ATOM     64  F   UNL A   1      44.093  36.277  31.471  1.00  0.00    -0.200 F 
ATOM     65  C   UNL A   1      43.523  35.195  33.491  1.00  0.00     0.200 A 
ATOM     66  F   UNL A   1      42.967  34.068  35.490  1.00  0.00    -0.200 F 
ATOM     67  F   UNL A   1      43.528  36.370  34.137  1.00  0.00    -0.200 F 
ENDBRANCH  43  57
BRANCH  44  68
ATOM     68  C   UNL A   1      42.792  23.944  27.419  1.00  0.00     0.064 A 
ATOM     69  C   UNL A   1      42.452  22.746  28.064  1.00  0.00     0.173 A 
ATOM     70  C   UNL A   1      43.083  23.881  26.046  1.00  0.00     0.173 A 
ATOM     71  F   UNL A   1      42.190  22.745  29.379  1.00  0.00    -0.203 F 
ATOM     72  C   UNL A   1      42.438  21.535  27.374  1.00  0.00     0.198 A 
ATOM     73  C   UNL A   1      43.029  22.676  25.350  1.00  0.00     0.198 A 
ATOM     74  F   UNL A   1      43.414  24.995  25.378  1.00  0.00    -0.203 F 
ATOM     75  F   UNL A   1      42.176  20.396  28.030  1.00  0.00    -0.200 F 
ATOM     76  C   UNL A   1      42.720  21.501  26.017  1.00  0.00     0.200 A 
ATOM     77  F   UNL A   1      43.286  22.654  24.035  1.00  0.00    -0.200 F 
ATOM     78  F   UNL A   1      42.709  20.336  25.355  1.00  0.00    -0.200 F 
ENDBRANCH  44  68
BRANCH  56  79
ATOM     79  C   UNL A   1      48.014  27.293  30.593  1.00  0.00     0.064 A 
ATOM     80  C   UNL A   1      49.034  27.685  29.713  1.00  0.00     0.173 A 
ATOM     81  C   UNL A   1      48.380  26.566  31.737  1.00  0.00     0.173 A 
ATOM     82  F   UNL A   1      48.736  28.367  28.596  1.00  0.00    -0.203 F 
ATOM     83  C   UNL A   1      50.360  27.335  29.951  1.00  0.00     0.198 A 
ATOM     84  C   UNL A   1      49.711  26.250  31.991  1.00  0.00     0.198 A 
ATOM     85  F   UNL A   1      47.446  26.172  32.617  1.00  0.00    -0.203 F 
ATOM     86  F   UNL A   1      51.308  27.670  29.066  1.00  0.00    -0.200 F 
ATOM     87  C   UNL A   1      50.698  26.625  31.094  1.00  0.00     0.200 A 
ATOM     88  F   UNL A   1      50.037  25.578  33.105  1.00  0.00    -0.200 F 
ATOM     89  F   UNL A   1      51.976  26.296  31.326  1.00  0.00    -0.200 F 
ENDBRANCH  56  79
ENDBRANCH  30  31
ENDBRANCH  23  25
ENDBRANCH  22  23
ENDBRANCH  21  22
ENDBRANCH   1  21
TORSDOF 14
ENDMDL
MODEL 2
REMARK VINA RESULT:      -9.7      4.609      9.801
REMARK SMILES COc1ccccc1Nc1nc(C)c(C(=O)OCCOC(=O)c2ccc(-c3c4nc(c(-c5c(F)c(F)c(F)c(F)c5F)c5ccc([nH]5)c(-c5c(F)c(F)c(F)c(F)c5F)c5nc(c(-c6c(F)c(F)c(F)c(F)c6F)c6ccc3[nH]6)C=C5)C=C4)cc2)s1
REMARK SMILES IDX 18 1 17 2 15 3 16 4 14 5 10 6 11 7 86 8 12 9 13 10 9 11 8 13
REMARK SMILES IDX 3 14 4 15 5 16 7 17 6 18 2 19 1 20 19 21 20 22 21 23 22 24
REMARK SMILES IDX 23 25 24 26 85 27 25 28 84 29 26 30 27 31 28 32 78 33 29 34
REMARK SMILES IDX 83 35 77 36 79 37 30 38 82 39 76 40 75 41 31 43 63 44 43 45
REMARK SMILES IDX 62 46 44 47 47 48 61 49 80 50 45 51 46 52 60 54 81 55 48 56
REMARK SMILES IDX 32 57 33 58 41 59 34 60 35 61 39 62 42 63 36 64 37 65 40 66
REMARK SMILES IDX 38 67 64 68 65 69 73 70 66 71 67 72 71 73 74 74 68 75 69 76
REMARK SMILES IDX 72 77 70 78 49 79 50 80 58 81 51 82 52 83 56 84 59 85 53 86
REMARK SMILES IDX 54 87 57 88 55 89
REMARK H PARENT 9 12 79 42 47 53
REMARK Flexibility Score: inf
ROOT
ATOM      1  C   UNL A   1      31.174  29.581  24.607  1.00  0.00     0.275 C 
ENDROOT
BRANCH   1   2
ATOM      2  O   UNL A   1      30.833  28.206  24.333  1.00  0.00    -0.458 OA
BRANCH   2   3
ATOM      3  C   UNL A   1      30.887  27.793  23.032  1.00  0.00     0.350 C 
ATOM      4  O   UNL A   1      30.163  28.236  22.151  1.00  0.00    -0.245 OA
BRANCH   3   5
ATOM      5  C   UNL A   1      31.969  26.844  22.837  1.00  0.00     0.137 A 
ATOM      6  C   UNL A   1      33.198  24.751  22.524  1.00  0.00     0.188 A 
ATOM      7  N   UNL A   1      33.961  25.777  22.234  1.00  0.00    -0.224 NA
ATOM      8  S   UNL A   1      31.716  25.189  23.267  1.00  0.00    -0.089 S 
ATOM      9  C   UNL A   1      33.264  26.975  22.362  1.00  0.00     0.065 A 
ATOM     10  C   UNL A   1      34.012  28.208  22.001  1.00  0.00     0.069 C 
BRANCH   6  11
ATOM     11  N   UNL A   1      33.606  23.472  22.385  1.00  0.00    -0.328 N 
ATOM     12  H   UNL A   1      33.296  23.003  21.576  1.00  0.00     0.169 HD
BRANCH  11  13
ATOM     13  C   UNL A   1      34.428  22.722  23.263  1.00  0.00     0.083 A 
ATOM     14  C   UNL A   1      33.837  21.768  24.118  1.00  0.00     0.142 A 
ATOM     15  C   UNL A   1      34.590  21.103  25.092  1.00  0.00     0.048 A 
ATOM     16  C   UNL A   1      35.957  21.342  25.201  1.00  0.00     0.004 A 
ATOM     17  C   UNL A   1      35.815  22.914  23.361  1.00  0.00     0.030 A 
ATOM     18  C   UNL A   1      36.570  22.240  24.331  1.00  0.00     0.002 A 
BRANCH  14  19
ATOM     19  O   UNL A   1      32.485  21.519  24.131  1.00  0.00    -0.495 OA
ATOM     20  C   UNL A   1      31.878  21.872  25.375  1.00  0.00     0.278 C 
ENDBRANCH  14  19
ENDBRANCH  11  13
ENDBRANCH   6  11
ENDBRANCH   3   5
ENDBRANCH   2   3
ENDBRANCH   1   2
BRANCH   1  21
ATOM     21  C   UNL A   1      32.576  29.709  25.216  1.00  0.00     0.275 C 
BRANCH  21  22
ATOM     22  O   UNL A   1      32.517  29.945  26.636  1.00  0.00    -0.458 OA
BRANCH  22  23
ATOM     23  C   UNL A   1      33.040  31.126  27.035  1.00  0.00     0.338 C 
ATOM     24  O   UNL A   1      32.482  32.210  27.065  1.00  0.00    -0.246 OA
BRANCH  23  25
ATOM     25  C   UNL A   1      34.369  30.916  27.622  1.00  0.00     0.060 A 
ATOM     26  C   UNL A   1      34.696  29.610  27.968  1.00  0.00     0.016 A 
ATOM     27  C   UNL A   1      35.223  31.962  27.957  1.00  0.00     0.016 A 
ATOM     28  C   UNL A   1      35.837  29.329  28.704  1.00  0.00     0.010 A 
ATOM     29  C   UNL A   1      36.410  31.676  28.648  1.00  0.00     0.010 A 
ATOM     30  C   UNL A   1      36.716  30.359  29.047  1.00  0.00    -0.014 A 
BRANCH  30  31
ATOM     31  C   UNL A   1      37.922  30.041  29.854  1.00  0.00     0.031 A 
ATOM     32  C   UNL A   1      38.987  29.141  29.293  1.00  0.00     0.074 A 
ATOM     33  C   UNL A   1      38.085  30.603  31.068  1.00  0.00     0.049 A 
ATOM     34  N   UNL A   1      40.052  28.651  29.877  1.00  0.00    -0.248 NA
ATOM     35  C   UNL A   1      38.831  28.729  27.890  1.00  0.00     0.031 C 
ATOM     36  C   UNL A   1      37.156  31.543  31.697  1.00  0.00     0.029 A 
ATOM     37  N   UNL A   1      39.094  30.467  31.991  1.00  0.00    -0.354 N 
ATOM     38  C   UNL A   1      40.677  27.859  28.923  1.00  0.00     0.074 A 
ATOM     39  C   UNL A   1      39.858  27.907  27.732  1.00  0.00     0.031 C 
ATOM     40  C   UNL A   1      37.638  31.905  32.896  1.00  0.00     0.029 A 
ATOM     41  C   UNL A   1      38.870  31.167  33.153  1.00  0.00     0.049 A 
ATOM     42  H   UNL A   1      39.898  29.921  31.837  1.00  0.00     0.167 HD
ATOM     43  C   UNL A   1      41.835  27.165  29.033  1.00  0.00     0.037 A 
ATOM     44  C   UNL A   1      39.552  31.176  34.313  1.00  0.00     0.037 A 
ATOM     45  C   UNL A   1      42.653  27.136  30.219  1.00  0.00     0.049 A 
ATOM     46  C   UNL A   1      40.792  30.331  34.434  1.00  0.00     0.074 A 
ATOM     47  C   UNL A   1      43.834  26.449  30.439  1.00  0.00     0.029 A 
ATOM     48  N   UNL A   1      42.375  27.834  31.386  1.00  0.00    -0.354 N 
ATOM     49  N   UNL A   1      41.359  29.558  33.540  1.00  0.00    -0.248 NA
ATOM     50  C   UNL A   1      41.485  30.354  35.729  1.00  0.00     0.031 C 
ATOM     51  C   UNL A   1      44.245  26.692  31.753  1.00  0.00     0.029 A 
ATOM     52  C   UNL A   1      43.355  27.581  32.334  1.00  0.00     0.049 A 
ATOM     53  H   UNL A   1      41.596  28.421  31.522  1.00  0.00     0.167 HD
ATOM     54  C   UNL A   1      42.486  29.028  34.151  1.00  0.00     0.074 A 
ATOM     55  C   UNL A   1      42.536  29.584  35.487  1.00  0.00     0.031 C 
ATOM     56  C   UNL A   1      43.396  28.155  33.655  1.00  0.00     0.037 A 
BRANCH  43  57
ATOM     57  C   UNL A   1      42.280  26.358  27.845  1.00  0.00     0.064 A 
ATOM     58  C   UNL A   1      43.223  26.848  26.931  1.00  0.00     0.173 A 
ATOM     59  C   UNL A   1      41.787  25.058  27.645  1.00  0.00     0.173 A 
ATOM     60  F   UNL A   1      43.715  28.088  27.067  1.00  0.00    -0.203 F 
ATOM     61  C   UNL A   1      43.639  26.078  25.847  1.00  0.00     0.198 A 
ATOM     62  C   UNL A   1      42.230  24.279  26.580  1.00  0.00     0.198 A 
ATOM     63  F   UNL A   1      40.888  24.537  28.492  1.00  0.00    -0.203 F 
ATOM     64  F   UNL A   1      44.506  26.585  24.959  1.00  0.00    -0.200 F 
ATOM     65  C   UNL A   1      43.149  24.791  25.678  1.00  0.00     0.200 A 
ATOM     66  F   UNL A   1      41.767  23.030  26.427  1.00  0.00    -0.200 F 
ATOM     67  F   UNL A   1      43.559  24.048  24.640  1.00  0.00    -0.200 F 
ENDBRANCH  43  57
BRANCH  44  68
ATOM     68  C   UNL A   1      39.051  31.965  35.471  1.00  0.00     0.064 A 
ATOM     69  C   UNL A   1      39.378  33.319  35.629  1.00  0.00     0.173 A 
ATOM     70  C   UNL A   1      38.259  31.369  36.466  1.00  0.00     0.173 A 
ATOM     71  F   UNL A   1      40.152  33.930  34.720  1.00  0.00    -0.203 F 
ATOM     72  C   UNL A   1      38.962  34.035  36.749  1.00  0.00     0.198 A 
ATOM     73  C   UNL A   1      37.810  32.097  37.566  1.00  0.00     0.198 A 
ATOM     74  F   UNL A   1      37.914  30.077  36.368  1.00  0.00    -0.203 F 
ATOM     75  F   UNL A   1      39.348  35.309  36.908  1.00  0.00    -0.200 F 
ATOM     76  C   UNL A   1      38.174  33.427  37.713  1.00  0.00     0.200 A 
ATOM     77  F   UNL A   1      37.035  31.507  38.484  1.00  0.00    -0.200 F 
ATOM     78  F   UNL A   1      37.777  34.115  38.792  1.00  0.00    -0.200 F 
ENDBRANCH  44  68
BRANCH  56  79
ATOM     79  C   UNL A   1      44.550  27.788  34.543  1.00  0.00     0.064 A 
ATOM     80  C   UNL A   1      45.736  28.536  34.564  1.00  0.00     0.173 A 
ATOM     81  C   UNL A   1      44.457  26.684  35.405  1.00  0.00     0.173 A 
ATOM     82  F   UNL A   1      45.884  29.591  33.748  1.00  0.00    -0.203 F 
ATOM     83  C   UNL A   1      46.797  28.175  35.391  1.00  0.00     0.198 A 
ATOM     84  C   UNL A   1      45.505  26.348  36.257  1.00  0.00     0.198 A 
ATOM     85  F   UNL A   1      43.342  25.937  35.431  1.00  0.00    -0.203 F 
ATOM     86  F   UNL A   1      47.941  28.871  35.351  1.00  0.00    -0.200 F 
ATOM     87  C   UNL A   1      46.677  27.087  36.242  1.00  0.00     0.200 A 
ATOM     88  F   UNL A   1      45.380  25.305  37.091  1.00  0.00    -0.200 F 
ATOM     89  F   UNL A   1      47.696  26.746  37.043  1.00  0.00    -0.200 F 
ENDBRANCH  56  79
ENDBRANCH  30  31
ENDBRANCH  23  25
ENDBRANCH  22  23
ENDBRANCH  21  22
ENDBRANCH   1  21
TORSDOF 14
ENDMDL
MODEL 3
REMARK VINA RESULT:      -9.7      5.146      8.654
REMARK SMILES COc1ccccc1Nc1nc(C)c(C(=O)OCCOC(=O)c2ccc(-c3c4nc(c(-c5c(F)c(F)c(F)c(F)c5F)c5ccc([nH]5)c(-c5c(F)c(F)c(F)c(F)c5F)c5nc(c(-c6c(F)c(F)c(F)c(F)c6F)c6ccc3[nH]6)C=C5)C=C4)cc2)s1
REMARK SMILES IDX 18 1 17 2 15 3 16 4 14 5 10 6 11 7 86 8 12 9 13 10 9 11 8 13
REMARK SMILES IDX 3 14 4 15 5 16 7 17 6 18 2 19 1 20 19 21 20 22 21 23 22 24
REMARK SMILES IDX 23 25 24 26 85 27 25 28 84 29 26 30 27 31 28 32 78 33 29 34
REMARK SMILES IDX 83 35 77 36 79 37 30 38 82 39 76 40 75 41 31 43 63 44 43 45
REMARK SMILES IDX 62 46 44 47 47 48 61 49 80 50 45 51 46 52 60 54 81 55 48 56
REMARK SMILES IDX 32 57 33 58 41 59 34 60 35 61 39 62 42 63 36 64 37 65 40 66
REMARK SMILES IDX 38 67 64 68 65 69 73 70 66 71 67 72 71 73 74 74 68 75 69 76
REMARK SMILES IDX 72 77 70 78 49 79 50 80 58 81 51 82 52 83 56 84 59 85 53 86
REMARK SMILES IDX 54 87 57 88 55 89
REMARK H PARENT 9 12 79 42 47 53
REMARK Flexibility Score: inf
ROOT
ATOM      1  C   UNL A   1      35.049  20.635  25.066  1.00  0.00     0.275 C 
ENDROOT
BRANCH   1   2
ATOM      2  O   UNL A   1      33.941  21.225  24.355  1.00  0.00    -0.458 OA
BRANCH   2   3
ATOM      3  C   UNL A   1      32.702  21.117  24.921  1.00  0.00     0.350 C 
ATOM      4  O   UNL A   1      32.047  20.084  24.922  1.00  0.00    -0.245 OA
BRANCH   3   5
ATOM      5  C   UNL A   1      32.331  22.352  25.589  1.00  0.00     0.137 A 
ATOM      6  C   UNL A   1      31.210  24.460  26.124  1.00  0.00     0.188 A 
ATOM      7  N   UNL A   1      31.902  24.037  27.154  1.00  0.00    -0.224 NA
ATOM      8  S   UNL A   1      31.515  23.578  24.686  1.00  0.00    -0.089 S 
ATOM      9  C   UNL A   1      32.510  22.813  26.884  1.00  0.00     0.065 A 
ATOM     10  C   UNL A   1      33.275  22.203  28.002  1.00  0.00     0.069 C 
BRANCH   6  11
ATOM     11  N   UNL A   1      30.448  25.574  26.161  1.00  0.00    -0.328 N 
ATOM     12  H   UNL A   1      29.486  25.435  26.318  1.00  0.00     0.169 HD
BRANCH  11  13
ATOM     13  C   UNL A   1      30.866  26.919  26.002  1.00  0.00     0.083 A 
ATOM     14  C   UNL A   1      30.791  27.520  24.727  1.00  0.00     0.142 A 
ATOM     15  C   UNL A   1      31.316  28.796  24.496  1.00  0.00     0.048 A 
ATOM     16  C   UNL A   1      31.884  29.517  25.543  1.00  0.00     0.004 A 
ATOM     17  C   UNL A   1      31.402  27.681  27.051  1.00  0.00     0.030 A 
ATOM     18  C   UNL A   1      31.919  28.964  26.820  1.00  0.00     0.002 A 
BRANCH  14  19
ATOM     19  O   UNL A   1      30.313  26.858  23.621  1.00  0.00    -0.495 OA
ATOM     20  C   UNL A   1      31.056  27.164  22.440  1.00  0.00     0.278 C 
ENDBRANCH  14  19
ENDBRANCH  11  13
ENDBRANCH   6  11
ENDBRANCH   3   5
ENDBRANCH   2   3
ENDBRANCH   1   2
BRANCH   1  21
ATOM     21  C   UNL A   1      36.380  21.303  24.701  1.00  0.00     0.275 C 
BRANCH  21  22
ATOM     22  O   UNL A   1      37.048  21.826  25.865  1.00  0.00    -0.458 OA
BRANCH  22  23
ATOM     23  C   UNL A   1      38.376  21.579  25.913  1.00  0.00     0.338 C 
ATOM     24  O   UNL A   1      38.972  20.633  25.424  1.00  0.00    -0.246 OA
BRANCH  23  25
ATOM     25  C   UNL A   1      39.082  22.724  26.503  1.00  0.00     0.060 A 
ATOM     26  C   UNL A   1      38.640  23.987  26.124  1.00  0.00     0.016 A 
ATOM     27  C   UNL A   1      40.221  22.589  27.289  1.00  0.00     0.016 A 
ATOM     28  C   UNL A   1      39.354  25.126  26.463  1.00  0.00     0.010 A 
ATOM     29  C   UNL A   1      40.913  23.743  27.687  1.00  0.00     0.010 A 
ATOM     30  C   UNL A   1      40.497  25.020  27.258  1.00  0.00    -0.014 A 
BRANCH  30  31
ATOM     31  C   UNL A   1      41.261  26.249  27.593  1.00  0.00     0.031 A 
ATOM     32  C   UNL A   1      40.609  27.347  28.386  1.00  0.00     0.074 A 
ATOM     33  C   UNL A   1      42.555  26.356  27.231  1.00  0.00     0.049 A 
ATOM     34  N   UNL A   1      41.063  28.540  28.680  1.00  0.00    -0.248 NA
ATOM     35  C   UNL A   1      39.264  27.071  28.913  1.00  0.00     0.031 C 
ATOM     36  C   UNL A   1      43.320  25.334  26.515  1.00  0.00     0.029 A 
ATOM     37  N   UNL A   1      43.457  27.376  27.417  1.00  0.00    -0.354 N 
ATOM     38  C   UNL A   1      40.054  29.162  29.404  1.00  0.00     0.074 A 
ATOM     39  C   UNL A   1      38.951  28.228  29.478  1.00  0.00     0.031 C 
ATOM     40  C   UNL A   1      44.575  25.772  26.330  1.00  0.00     0.029 A 
ATOM     41  C   UNL A   1      44.683  27.132  26.844  1.00  0.00     0.049 A 
ATOM     42  H   UNL A   1      43.248  28.200  27.912  1.00  0.00     0.167 HD
ATOM     43  C   UNL A   1      40.055  30.396  29.961  1.00  0.00     0.037 A 
ATOM     44  C   UNL A   1      45.756  27.932  26.705  1.00  0.00     0.037 A 
ATOM     45  C   UNL A   1      41.165  31.313  29.896  1.00  0.00     0.049 A 
ATOM     46  C   UNL A   1      45.701  29.328  27.264  1.00  0.00     0.074 A 
ATOM     47  C   UNL A   1      41.260  32.594  30.412  1.00  0.00     0.029 A 
ATOM     48  N   UNL A   1      42.378  31.041  29.278  1.00  0.00    -0.354 N 
ATOM     49  N   UNL A   1      44.731  29.921  27.918  1.00  0.00    -0.248 NA
ATOM     50  C   UNL A   1      46.887  30.170  27.063  1.00  0.00     0.031 C 
ATOM     51  C   UNL A   1      42.512  33.114  30.066  1.00  0.00     0.029 A 
ATOM     52  C   UNL A   1      43.221  32.136  29.388  1.00  0.00     0.049 A 
ATOM     53  H   UNL A   1      42.606  30.196  28.828  1.00  0.00     0.167 HD
ATOM     54  C   UNL A   1      45.199  31.190  28.229  1.00  0.00     0.074 A 
ATOM     55  C   UNL A   1      46.549  31.275  27.711  1.00  0.00     0.031 C 
ATOM     56  C   UNL A   1      44.568  32.198  28.879  1.00  0.00     0.037 A 
BRANCH  43  57
ATOM     57  C   UNL A   1      38.810  30.840  30.677  1.00  0.00     0.064 A 
ATOM     58  C   UNL A   1      37.718  31.389  29.989  1.00  0.00     0.173 A 
ATOM     59  C   UNL A   1      38.691  30.670  32.066  1.00  0.00     0.173 A 
ATOM     60  F   UNL A   1      37.784  31.586  28.664  1.00  0.00    -0.203 F 
ATOM     61  C   UNL A   1      36.564  31.776  30.667  1.00  0.00     0.198 A 
ATOM     62  C   UNL A   1      37.524  31.026  32.735  1.00  0.00     0.198 A 
ATOM     63  F   UNL A   1      39.702  30.144  32.773  1.00  0.00    -0.203 F 
ATOM     64  F   UNL A   1      35.552  32.342  29.996  1.00  0.00    -0.200 F 
ATOM     65  C   UNL A   1      36.465  31.586  32.038  1.00  0.00     0.200 A 
ATOM     66  F   UNL A   1      37.423  30.828  34.058  1.00  0.00    -0.200 F 
ATOM     67  F   UNL A   1      35.349  31.948  32.686  1.00  0.00    -0.200 F 
ENDBRANCH  43  57
BRANCH  44  68
ATOM     68  C   UNL A   1      46.953  27.456  25.958  1.00  0.00     0.064 A 
ATOM     69  C   UNL A   1      48.034  26.854  26.617  1.00  0.00     0.173 A 
ATOM     70  C   UNL A   1      47.055  27.628  24.568  1.00  0.00     0.173 A 
ATOM     71  F   UNL A   1      47.998  26.689  27.948  1.00  0.00    -0.203 F 
ATOM     72  C   UNL A   1      49.180  26.473  25.922  1.00  0.00     0.198 A 
ATOM     73  C   UNL A   1      48.184  27.209  23.869  1.00  0.00     0.198 A 
ATOM     74  F   UNL A   1      46.052  28.197  23.885  1.00  0.00    -0.203 F 
ATOM     75  F   UNL A   1      50.225  25.962  26.588  1.00  0.00    -0.200 F 
ATOM     76  C   UNL A   1      49.252  26.644  24.549  1.00  0.00     0.200 A 
ATOM     77  F   UNL A   1      48.241  27.362  22.539  1.00  0.00    -0.200 F 
ATOM     78  F   UNL A   1      50.356  26.280  23.882  1.00  0.00    -0.200 F 
ENDBRANCH  44  68
BRANCH  56  79
ATOM     79  C   UNL A   1      45.348  33.460  29.112  1.00  0.00     0.064 A 
ATOM     80  C   UNL A   1      45.314  34.531  28.207  1.00  0.00     0.173 A 
ATOM     81  C   UNL A   1      46.121  33.609  30.274  1.00  0.00     0.173 A 
ATOM     82  F   UNL A   1      44.604  34.433  27.072  1.00  0.00    -0.203 F 
ATOM     83  C   UNL A   1      46.049  35.690  28.440  1.00  0.00     0.198 A 
ATOM     84  C   UNL A   1      46.825  34.783  30.522  1.00  0.00     0.198 A 
ATOM     85  F   UNL A   1      46.183  32.619  31.178  1.00  0.00    -0.203 F 
ATOM     86  F   UNL A   1      46.046  36.675  27.532  1.00  0.00    -0.200 F 
ATOM     87  C   UNL A   1      46.797  35.818  29.600  1.00  0.00     0.200 A 
ATOM     88  F   UNL A   1      47.534  34.912  31.653  1.00  0.00    -0.200 F 
ATOM     89  F   UNL A   1      47.498  36.938  29.827  1.00  0.00    -0.200 F 
ENDBRANCH  56  79
ENDBRANCH  30  31
ENDBRANCH  23  25
ENDBRANCH  22  23
ENDBRANCH  21  22
ENDBRANCH   1  21
TORSDOF 14
ENDMDL
