MODEL 1
REMARK VINA RESULT:     -10.1      0.000      0.000
REMARK SMILES CCn1c(C(=O)OCCOC(=O)c2ccc(-c3c4nc(c(-c5c(F)c(F)c(F)c(F)c5F)c5ccc([nH]5)c(-c5c(F)c(F)c(F)c(F)c5F)c5nc(c(-c6c(F)c(F)c(F)c(F)c6F)c6ccc3[nH]6)C=C5)C=C4)cc2)c(CC(=O)Nc2ccccc2OC)c2ccccc21
REMARK SMILES IDX 8 1 7 2 5 3 6 4 4 5 3 6 94 7 76 8 89 9 93 10 90 11 92 12
REMARK SMILES IDX 91 13 2 14 1 15 77 16 78 17 79 18 80 19 81 21 82 22 86 23
REMARK SMILES IDX 83 24 85 25 84 26 87 27 88 28 9 29 10 30 11 31 12 32 13 33
REMARK SMILES IDX 14 34 75 35 15 36 74 37 16 38 17 39 18 40 68 41 19 42 73 43
REMARK SMILES IDX 67 44 69 45 20 46 72 47 66 48 65 49 21 51 53 52 33 53 52 54
REMARK SMILES IDX 34 55 37 56 51 57 70 58 35 59 36 60 50 62 71 63 38 64 22 65
REMARK SMILES IDX 23 66 31 67 24 68 25 69 29 70 32 71 26 72 27 73 30 74 28 75
REMARK SMILES IDX 54 76 55 77 63 78 56 79 57 80 61 81 64 82 58 83 59 84 62 85
REMARK SMILES IDX 60 86 39 87 40 88 48 89 41 90 42 91 46 92 49 93 43 94 44 95
REMARK SMILES IDX 47 96 45 97
REMARK H PARENT 80 20 69 50 37 61
REMARK Flexibility Score: inf
ROOT
ATOM      1  C   UNL A   1      45.939  28.354  37.594  1.00  0.00     0.275 C 
ENDROOT
BRANCH   1   2
ATOM      2  O   UNL A   1      44.598  27.879  37.901  1.00  0.00    -0.457 OA
BRANCH   2   3
ATOM      3  C   UNL A   1      44.552  26.615  38.400  1.00  0.00     0.355 C 
ATOM      4  O   UNL A   1      44.646  26.401  39.595  1.00  0.00    -0.244 OA
BRANCH   3   5
ATOM      5  C   UNL A   1      44.325  25.552  37.411  1.00  0.00     0.132 A 
ATOM      6  N   UNL A   1      43.193  25.106  36.747  1.00  0.00    -0.335 N 
ATOM      7  C   UNL A   1      43.567  24.294  35.660  1.00  0.00     0.049 A 
ATOM      8  C   UNL A   1      45.374  24.796  36.871  1.00  0.00     0.002 A 
ATOM      9  C   UNL A   1      44.949  24.179  35.679  1.00  0.00     0.004 A 
ATOM     10  C   UNL A   1      42.813  23.625  34.677  1.00  0.00     0.027 A 
ATOM     11  C   UNL A   1      45.618  23.471  34.658  1.00  0.00     0.010 A 
ATOM     12  C   UNL A   1      43.493  22.883  33.697  1.00  0.00     0.002 A 
ATOM     13  C   UNL A   1      44.880  22.826  33.670  1.00  0.00     0.001 A 
BRANCH   6  14
ATOM     14  C   UNL A   1      41.782  25.313  37.028  1.00  0.00     0.119 C 
ATOM     15  C   UNL A   1      41.170  26.691  36.930  1.00  0.00     0.027 C 
ENDBRANCH   6  14
BRANCH   8  16
ATOM     16  C   UNL A   1      46.739  24.713  37.428  1.00  0.00     0.139 C 
BRANCH  16  17
ATOM     17  C   UNL A   1      46.969  23.852  38.664  1.00  0.00     0.229 C 
ATOM     18  O   UNL A   1      47.010  24.355  39.792  1.00  0.00    -0.274 OA
ATOM     19  N   UNL A   1      46.914  22.482  38.552  1.00  0.00    -0.323 N 
ATOM     20  H   UNL A   1      46.743  21.981  39.381  1.00  0.00     0.170 HD
BRANCH  19  21
ATOM     21  C   UNL A   1      47.076  21.719  37.383  1.00  0.00     0.083 A 
ATOM     22  C   UNL A   1      45.987  20.928  36.984  1.00  0.00     0.030 A 
ATOM     23  C   UNL A   1      48.227  21.734  36.584  1.00  0.00     0.142 A 
ATOM     24  C   UNL A   1      46.074  20.033  35.922  1.00  0.00     0.002 A 
ATOM     25  C   UNL A   1      48.293  20.835  35.501  1.00  0.00     0.048 A 
ATOM     26  C   UNL A   1      47.245  19.967  35.191  1.00  0.00     0.004 A 
BRANCH  23  27
ATOM     27  O   UNL A   1      49.393  22.434  36.715  1.00  0.00    -0.495 OA
ATOM     28  C   UNL A   1      50.629  21.776  36.897  1.00  0.00     0.278 C 
ENDBRANCH  23  27
ENDBRANCH  19  21
ENDBRANCH  16  17
ENDBRANCH   8  16
ENDBRANCH   3   5
ENDBRANCH   2   3
ENDBRANCH   1   2
BRANCH   1  29
ATOM     29  C   UNL A   1      45.998  29.605  36.703  1.00  0.00     0.275 C 
BRANCH  29  30
ATOM     30  O   UNL A   1      45.232  29.417  35.499  1.00  0.00    -0.458 OA
BRANCH  30  31
ATOM     31  C   UNL A   1      45.939  29.026  34.414  1.00  0.00     0.338 C 
ATOM     32  O   UNL A   1      46.788  29.695  33.848  1.00  0.00    -0.246 OA
BRANCH  31  33
ATOM     33  C   UNL A   1      45.780  27.567  34.168  1.00  0.00     0.060 A 
ATOM     34  C   UNL A   1      46.892  26.788  33.842  1.00  0.00     0.016 A 
ATOM     35  C   UNL A   1      44.535  27.202  33.681  1.00  0.00     0.016 A 
ATOM     36  C   UNL A   1      46.861  26.049  32.657  1.00  0.00     0.010 A 
ATOM     37  C   UNL A   1      44.504  26.401  32.551  1.00  0.00     0.010 A 
ATOM     38  C   UNL A   1      45.699  26.043  31.893  1.00  0.00    -0.014 A 
BRANCH  38  39
ATOM     39  C   UNL A   1      45.651  25.613  30.471  1.00  0.00     0.031 A 
ATOM     40  C   UNL A   1      46.734  26.240  29.681  1.00  0.00     0.074 A 
ATOM     41  C   UNL A   1      44.899  24.699  29.797  1.00  0.00     0.049 A 
ATOM     42  N   UNL A   1      46.685  27.460  29.266  1.00  0.00    -0.248 NA
ATOM     43  C   UNL A   1      48.050  25.606  29.531  1.00  0.00     0.031 C 
ATOM     44  C   UNL A   1      43.928  23.695  30.229  1.00  0.00     0.029 A 
ATOM     45  N   UNL A   1      44.897  24.501  28.434  1.00  0.00    -0.354 N 
ATOM     46  C   UNL A   1      47.898  27.690  28.654  1.00  0.00     0.074 A 
ATOM     47  C   UNL A   1      48.775  26.644  29.105  1.00  0.00     0.031 C 
ATOM     48  C   UNL A   1      43.579  22.881  29.196  1.00  0.00     0.029 A 
ATOM     49  C   UNL A   1      44.126  23.434  27.972  1.00  0.00     0.049 A 
ATOM     50  H   UNL A   1      45.408  25.079  27.822  1.00  0.00     0.167 HD
ATOM     51  C   UNL A   1      48.006  28.576  27.631  1.00  0.00     0.037 A 
ATOM     52  C   UNL A   1      43.865  23.106  26.675  1.00  0.00     0.037 A 
ATOM     53  C   UNL A   1      46.757  29.270  27.408  1.00  0.00     0.049 A 
ATOM     54  C   UNL A   1      44.030  24.355  25.892  1.00  0.00     0.074 A 
ATOM     55  C   UNL A   1      45.958  30.085  28.190  1.00  0.00     0.029 A 
ATOM     56  N   UNL A   1      45.926  28.781  26.423  1.00  0.00    -0.354 N 
ATOM     57  N   UNL A   1      43.221  25.372  25.978  1.00  0.00    -0.248 NA
ATOM     58  C   UNL A   1      45.341  24.639  25.336  1.00  0.00     0.031 C 
ATOM     59  C   UNL A   1      44.620  29.652  27.937  1.00  0.00     0.029 A 
ATOM     60  C   UNL A   1      44.664  28.660  26.957  1.00  0.00     0.049 A 
ATOM     61  H   UNL A   1      46.190  28.556  25.501  1.00  0.00     0.167 HD
ATOM     62  C   UNL A   1      44.054  26.477  25.938  1.00  0.00     0.074 A 
ATOM     63  C   UNL A   1      45.334  25.970  25.445  1.00  0.00     0.031 C 
ATOM     64  C   UNL A   1      43.716  27.636  26.575  1.00  0.00     0.037 A 
BRANCH  51  65
ATOM     65  C   UNL A   1      49.132  28.591  26.644  1.00  0.00     0.064 A 
ATOM     66  C   UNL A   1      49.247  27.532  25.730  1.00  0.00     0.173 A 
ATOM     67  C   UNL A   1      50.207  29.504  26.673  1.00  0.00     0.173 A 
ATOM     68  F   UNL A   1      48.295  26.590  25.654  1.00  0.00    -0.203 F 
ATOM     69  C   UNL A   1      50.372  27.386  24.918  1.00  0.00     0.198 A 
ATOM     70  C   UNL A   1      51.296  29.394  25.813  1.00  0.00     0.198 A 
ATOM     71  F   UNL A   1      50.301  30.466  27.598  1.00  0.00    -0.203 F 
ATOM     72  F   UNL A   1      50.488  26.308  24.132  1.00  0.00    -0.200 F 
ATOM     73  C   UNL A   1      51.390  28.322  24.952  1.00  0.00     0.200 A 
ATOM     74  F   UNL A   1      52.280  30.301  25.877  1.00  0.00    -0.200 F 
ATOM     75  F   UNL A   1      52.483  28.168  24.194  1.00  0.00    -0.200 F 
ENDBRANCH  51  65
BRANCH  52  76
ATOM     76  C   UNL A   1      43.591  21.818  25.986  1.00  0.00     0.064 A 
ATOM     77  C   UNL A   1      44.634  21.030  25.455  1.00  0.00     0.173 A 
ATOM     78  C   UNL A   1      42.352  21.175  26.144  1.00  0.00     0.173 A 
ATOM     79  F   UNL A   1      45.860  21.548  25.292  1.00  0.00    -0.203 F 
ATOM     80  C   UNL A   1      44.462  19.673  25.156  1.00  0.00     0.198 A 
ATOM     81  C   UNL A   1      42.180  19.816  25.850  1.00  0.00     0.198 A 
ATOM     82  F   UNL A   1      41.313  21.831  26.679  1.00  0.00    -0.203 F 
ATOM     83  F   UNL A   1      45.500  18.943  24.722  1.00  0.00    -0.200 F 
ATOM     84  C   UNL A   1      43.239  19.062  25.374  1.00  0.00     0.200 A 
ATOM     85  F   UNL A   1      41.002  19.224  26.092  1.00  0.00    -0.200 F 
ATOM     86  F   UNL A   1      43.092  17.746  25.164  1.00  0.00    -0.200 F 
ENDBRANCH  52  76
BRANCH  64  87
ATOM     87  C   UNL A   1      42.312  27.757  27.123  1.00  0.00     0.064 A 
ATOM     88  C   UNL A   1      41.918  27.330  28.405  1.00  0.00     0.173 A 
ATOM     89  C   UNL A   1      41.360  28.464  26.376  1.00  0.00     0.173 A 
ATOM     90  F   UNL A   1      42.778  26.719  29.225  1.00  0.00    -0.203 F 
ATOM     91  C   UNL A   1      40.637  27.574  28.901  1.00  0.00     0.198 A 
ATOM     92  C   UNL A   1      40.091  28.739  26.886  1.00  0.00     0.198 A 
ATOM     93  F   UNL A   1      41.677  28.937  25.161  1.00  0.00    -0.203 F 
ATOM     94  F   UNL A   1      40.297  27.149  30.127  1.00  0.00    -0.200 F 
ATOM     95  C   UNL A   1      39.728  28.289  28.144  1.00  0.00     0.200 A 
ATOM     96  F   UNL A   1      39.229  29.471  26.166  1.00  0.00    -0.200 F 
ATOM     97  F   UNL A   1      38.512  28.565  28.637  1.00  0.00    -0.200 F 
ENDBRANCH  64  87
ENDBRANCH  38  39
ENDBRANCH  31  33
ENDBRANCH  30  31
ENDBRANCH  29  30
ENDBRANCH   1  29
TORSDOF 16
ENDMDL
MODEL 2
REMARK VINA RESULT:     -10.1      6.226     12.325
REMARK SMILES CCn1c(C(=O)OCCOC(=O)c2ccc(-c3c4nc(c(-c5c(F)c(F)c(F)c(F)c5F)c5ccc([nH]5)c(-c5c(F)c(F)c(F)c(F)c5F)c5nc(c(-c6c(F)c(F)c(F)c(F)c6F)c6ccc3[nH]6)C=C5)C=C4)cc2)c(CC(=O)Nc2ccccc2OC)c2ccccc21
REMARK SMILES IDX 8 1 7 2 5 3 6 4 4 5 3 6 94 7 76 8 89 9 93 10 90 11 92 12
REMARK SMILES IDX 91 13 2 14 1 15 77 16 78 17 79 18 80 19 81 21 82 22 86 23
REMARK SMILES IDX 83 24 85 25 84 26 87 27 88 28 9 29 10 30 11 31 12 32 13 33
REMARK SMILES IDX 14 34 75 35 15 36 74 37 16 38 17 39 18 40 68 41 19 42 73 43
REMARK SMILES IDX 67 44 69 45 20 46 72 47 66 48 65 49 21 51 53 52 33 53 52 54
REMARK SMILES IDX 34 55 37 56 51 57 70 58 35 59 36 60 50 62 71 63 38 64 22 65
REMARK SMILES IDX 23 66 31 67 24 68 25 69 29 70 32 71 26 72 27 73 30 74 28 75
REMARK SMILES IDX 54 76 55 77 63 78 56 79 57 80 61 81 64 82 58 83 59 84 62 85
REMARK SMILES IDX 60 86 39 87 40 88 48 89 41 90 42 91 46 92 49 93 43 94 44 95
REMARK SMILES IDX 47 96 45 97
REMARK H PARENT 80 20 69 50 37 61
REMARK Flexibility Score: inf
ROOT
ATOM      1  C   UNL A   1      45.724  31.018  26.229  1.00  0.00     0.275 C 
ENDROOT
BRANCH   1   2
ATOM      2  O   UNL A   1      44.885  29.832  26.136  1.00  0.00    -0.457 OA
BRANCH   2   3
ATOM      3  C   UNL A   1      45.566  28.683  25.881  1.00  0.00     0.355 C 
ATOM      4  O   UNL A   1      46.147  28.511  24.825  1.00  0.00    -0.244 OA
BRANCH   3   5
ATOM      5  C   UNL A   1      45.595  27.707  26.979  1.00  0.00     0.132 A 
ATOM      6  N   UNL A   1      46.170  27.723  28.241  1.00  0.00    -0.335 N 
ATOM      7  C   UNL A   1      45.623  26.690  29.026  1.00  0.00     0.049 A 
ATOM      8  C   UNL A   1      44.885  26.500  26.927  1.00  0.00     0.002 A 
ATOM      9  C   UNL A   1      44.739  25.980  28.228  1.00  0.00     0.004 A 
ATOM     10  C   UNL A   1      45.847  26.298  30.360  1.00  0.00     0.027 A 
ATOM     11  C   UNL A   1      43.984  24.919  28.771  1.00  0.00     0.010 A 
ATOM     12  C   UNL A   1      45.124  25.207  30.870  1.00  0.00     0.002 A 
ATOM     13  C   UNL A   1      44.184  24.541  30.095  1.00  0.00     0.001 A 
BRANCH   6  14
ATOM     14  C   UNL A   1      47.211  28.568  28.801  1.00  0.00     0.119 C 
ATOM     15  C   UNL A   1      46.859  29.823  29.565  1.00  0.00     0.027 C 
ENDBRANCH   6  14
BRANCH   8  16
ATOM     16  C   UNL A   1      44.316  25.898  25.705  1.00  0.00     0.139 C 
BRANCH  16  17
ATOM     17  C   UNL A   1      42.866  26.202  25.352  1.00  0.00     0.229 C 
ATOM     18  O   UNL A   1      42.536  27.307  24.908  1.00  0.00    -0.274 OA
ATOM     19  N   UNL A   1      41.950  25.176  25.321  1.00  0.00    -0.323 N 
ATOM     20  H   UNL A   1      41.134  25.333  24.793  1.00  0.00     0.170 HD
BRANCH  19  21
ATOM     21  C   UNL A   1      42.051  23.929  25.959  1.00  0.00     0.083 A 
ATOM     22  C   UNL A   1      41.389  23.788  27.189  1.00  0.00     0.030 A 
ATOM     23  C   UNL A   1      42.729  22.824  25.428  1.00  0.00     0.142 A 
ATOM     24  C   UNL A   1      41.524  22.648  27.975  1.00  0.00     0.002 A 
ATOM     25  C   UNL A   1      42.842  21.669  26.228  1.00  0.00     0.048 A 
ATOM     26  C   UNL A   1      42.278  21.590  27.502  1.00  0.00     0.004 A 
BRANCH  23  27
ATOM     27  O   UNL A   1      43.408  22.677  24.251  1.00  0.00    -0.495 OA
ATOM     28  C   UNL A   1      44.815  22.559  24.225  1.00  0.00     0.278 C 
ENDBRANCH  23  27
ENDBRANCH  19  21
ENDBRANCH  16  17
ENDBRANCH   8  16
ENDBRANCH   3   5
ENDBRANCH   2   3
ENDBRANCH   1   2
BRANCH   1  29
ATOM     29  C   UNL A   1      44.961  32.346  26.349  1.00  0.00     0.275 C 
BRANCH  29  30
ATOM     30  O   UNL A   1      45.572  33.205  27.330  1.00  0.00    -0.458 OA
BRANCH  30  31
ATOM     31  C   UNL A   1      44.881  34.329  27.631  1.00  0.00     0.338 C 
ATOM     32  O   UNL A   1      44.233  34.990  26.837  1.00  0.00    -0.246 OA
BRANCH  31  33
ATOM     33  C   UNL A   1      44.754  34.502  29.104  1.00  0.00     0.060 A 
ATOM     34  C   UNL A   1      44.741  33.384  29.940  1.00  0.00     0.016 A 
ATOM     35  C   UNL A   1      44.062  35.640  29.489  1.00  0.00     0.016 A 
ATOM     36  C   UNL A   1      43.653  33.211  30.800  1.00  0.00     0.010 A 
ATOM     37  C   UNL A   1      43.035  35.481  30.404  1.00  0.00     0.010 A 
ATOM     38  C   UNL A   1      42.673  34.196  30.860  1.00  0.00    -0.014 A 
BRANCH  38  39
ATOM     39  C   UNL A   1      41.321  33.978  31.438  1.00  0.00     0.031 A 
ATOM     40  C   UNL A   1      41.379  33.849  32.911  1.00  0.00     0.074 A 
ATOM     41  C   UNL A   1      40.067  33.984  30.906  1.00  0.00     0.049 A 
ATOM     42  N   UNL A   1      41.758  32.772  33.509  1.00  0.00    -0.248 NA
ATOM     43  C   UNL A   1      41.256  35.016  33.795  1.00  0.00     0.031 C 
ATOM     44  C   UNL A   1      39.548  34.326  29.583  1.00  0.00     0.029 A 
ATOM     45  N   UNL A   1      38.908  33.641  31.567  1.00  0.00    -0.354 N 
ATOM     46  C   UNL A   1      41.756  33.075  34.852  1.00  0.00     0.074 A 
ATOM     47  C   UNL A   1      41.733  34.510  34.935  1.00  0.00     0.031 C 
ATOM     48  C   UNL A   1      38.187  34.358  29.590  1.00  0.00     0.029 A 
ATOM     49  C   UNL A   1      37.722  33.824  30.856  1.00  0.00     0.049 A 
ATOM     50  H   UNL A   1      38.916  33.286  32.485  1.00  0.00     0.167 HD
ATOM     51  C   UNL A   1      41.518  32.116  35.784  1.00  0.00     0.037 A 
ATOM     52  C   UNL A   1      36.467  33.453  31.236  1.00  0.00     0.037 A 
ATOM     53  C   UNL A   1      41.409  30.811  35.171  1.00  0.00     0.049 A 
ATOM     54  C   UNL A   1      36.640  32.345  32.206  1.00  0.00     0.074 A 
ATOM     55  C   UNL A   1      42.263  30.032  34.411  1.00  0.00     0.029 A 
ATOM     56  N   UNL A   1      40.143  30.346  34.889  1.00  0.00    -0.354 N 
ATOM     57  N   UNL A   1      37.076  31.162  31.878  1.00  0.00    -0.248 NA
ATOM     58  C   UNL A   1      36.739  32.685  33.614  1.00  0.00     0.031 C 
ATOM     59  C   UNL A   1      41.450  29.498  33.364  1.00  0.00     0.029 A 
ATOM     60  C   UNL A   1      40.135  29.906  33.586  1.00  0.00     0.049 A 
ATOM     61  H   UNL A   1      39.378  30.332  35.510  1.00  0.00     0.167 HD
ATOM     62  C   UNL A   1      37.917  30.806  32.919  1.00  0.00     0.074 A 
ATOM     63  C   UNL A   1      37.595  31.736  34.001  1.00  0.00     0.031 C 
ATOM     64  C   UNL A   1      38.987  29.985  32.709  1.00  0.00     0.037 A 
BRANCH  51  65
ATOM     65  C   UNL A   1      41.080  32.395  37.188  1.00  0.00     0.064 A 
ATOM     66  C   UNL A   1      39.804  32.937  37.406  1.00  0.00     0.173 A 
ATOM     67  C   UNL A   1      41.923  32.324  38.316  1.00  0.00     0.173 A 
ATOM     68  F   UNL A   1      38.942  33.082  36.388  1.00  0.00    -0.203 F 
ATOM     69  C   UNL A   1      39.409  33.397  38.663  1.00  0.00     0.198 A 
ATOM     70  C   UNL A   1      41.502  32.720  39.582  1.00  0.00     0.198 A 
ATOM     71  F   UNL A   1      43.213  31.976  38.223  1.00  0.00    -0.203 F 
ATOM     72  F   UNL A   1      38.221  33.997  38.806  1.00  0.00    -0.200 F 
ATOM     73  C   UNL A   1      40.254  33.278  39.751  1.00  0.00     0.200 A 
ATOM     74  F   UNL A   1      42.344  32.615  40.620  1.00  0.00    -0.200 F 
ATOM     75  F   UNL A   1      39.887  33.745  40.952  1.00  0.00    -0.200 F 
ENDBRANCH  51  65
BRANCH  52  76
ATOM     76  C   UNL A   1      35.114  34.003  30.956  1.00  0.00     0.064 A 
ATOM     77  C   UNL A   1      34.525  34.971  31.796  1.00  0.00     0.173 A 
ATOM     78  C   UNL A   1      34.533  33.851  29.686  1.00  0.00     0.173 A 
ATOM     79  F   UNL A   1      35.026  35.206  33.017  1.00  0.00    -0.203 F 
ATOM     80  C   UNL A   1      33.459  35.773  31.370  1.00  0.00     0.198 A 
ATOM     81  C   UNL A   1      33.470  34.657  29.258  1.00  0.00     0.198 A 
ATOM     82  F   UNL A   1      35.051  32.986  28.805  1.00  0.00    -0.203 F 
ATOM     83  F   UNL A   1      32.974  36.731  32.174  1.00  0.00    -0.200 F 
ATOM     84  C   UNL A   1      32.945  35.629  30.092  1.00  0.00     0.200 A 
ATOM     85  F   UNL A   1      32.999  34.533  28.009  1.00  0.00    -0.200 F 
ATOM     86  F   UNL A   1      31.978  36.448  29.654  1.00  0.00    -0.200 F 
ENDBRANCH  52  76
BRANCH  64  87
ATOM     87  C   UNL A   1      39.091  29.290  31.371  1.00  0.00     0.064 A 
ATOM     88  C   UNL A   1      39.691  29.851  30.227  1.00  0.00     0.173 A 
ATOM     89  C   UNL A   1      38.699  27.948  31.280  1.00  0.00     0.173 A 
ATOM     90  F   UNL A   1      40.172  31.097  30.240  1.00  0.00    -0.203 F 
ATOM     91  C   UNL A   1      39.864  29.118  29.053  1.00  0.00     0.198 A 
ATOM     92  C   UNL A   1      38.904  27.205  30.117  1.00  0.00     0.198 A 
ATOM     93  F   UNL A   1      38.156  27.334  32.343  1.00  0.00    -0.203 F 
ATOM     94  F   UNL A   1      40.438  29.688  27.982  1.00  0.00    -0.200 F 
ATOM     95  C   UNL A   1      39.480  27.791  29.002  1.00  0.00     0.200 A 
ATOM     96  F   UNL A   1      38.570  25.907  30.089  1.00  0.00    -0.200 F 
ATOM     97  F   UNL A   1      39.688  27.072  27.891  1.00  0.00    -0.200 F 
ENDBRANCH  64  87
ENDBRANCH  38  39
ENDBRANCH  31  33
ENDBRANCH  30  31
ENDBRANCH  29  30
ENDBRANCH   1  29
TORSDOF 16
ENDMDL
MODEL 3
REMARK VINA RESULT:     -10.0      6.364     12.520
REMARK SMILES CCn1c(C(=O)OCCOC(=O)c2ccc(-c3c4nc(c(-c5c(F)c(F)c(F)c(F)c5F)c5ccc([nH]5)c(-c5c(F)c(F)c(F)c(F)c5F)c5nc(c(-c6c(F)c(F)c(F)c(F)c6F)c6ccc3[nH]6)C=C5)C=C4)cc2)c(CC(=O)Nc2ccccc2OC)c2ccccc21
REMARK SMILES IDX 8 1 7 2 5 3 6 4 4 5 3 6 94 7 76 8 89 9 93 10 90 11 92 12
REMARK SMILES IDX 91 13 2 14 1 15 77 16 78 17 79 18 80 19 81 21 82 22 86 23
REMARK SMILES IDX 83 24 85 25 84 26 87 27 88 28 9 29 10 30 11 31 12 32 13 33
REMARK SMILES IDX 14 34 75 35 15 36 74 37 16 38 17 39 18 40 68 41 19 42 73 43
REMARK SMILES IDX 67 44 69 45 20 46 72 47 66 48 65 49 21 51 53 52 33 53 52 54
REMARK SMILES IDX 34 55 37 56 51 57 70 58 35 59 36 60 50 62 71 63 38 64 22 65
REMARK SMILES IDX 23 66 31 67 24 68 25 69 29 70 32 71 26 72 27 73 30 74 28 75
REMARK SMILES IDX 54 76 55 77 63 78 56 79 57 80 61 81 64 82 58 83 59 84 62 85
REMARK SMILES IDX 60 86 39 87 40 88 48 89 41 90 42 91 46 92 49 93 43 94 44 95
REMARK SMILES IDX 47 96 45 97
REMARK H PARENT 80 20 69 50 37 61
REMARK Flexibility Score: inf
ROOT
ATOM      1  C   UNL A   1      44.327  32.368  26.763  1.00  0.00     0.275 C 
ENDROOT
BRANCH   1   2
ATOM      2  O   UNL A   1      45.062  31.597  25.770  1.00  0.00    -0.457 OA
BRANCH   2   3
ATOM      3  C   UNL A   1      45.975  30.735  26.294  1.00  0.00     0.355 C 
ATOM      4  O   UNL A   1      47.046  30.539  25.749  1.00  0.00    -0.244 OA
BRANCH   3   5
ATOM      5  C   UNL A   1      45.600  30.116  27.572  1.00  0.00     0.132 A 
ATOM      6  N   UNL A   1      45.970  30.363  28.885  1.00  0.00    -0.335 N 
ATOM      7  C   UNL A   1      45.076  29.720  29.761  1.00  0.00     0.049 A 
ATOM      8  C   UNL A   1      44.628  29.111  27.661  1.00  0.00     0.002 A 
ATOM      9  C   UNL A   1      44.169  29.011  28.988  1.00  0.00     0.004 A 
ATOM     10  C   UNL A   1      44.998  29.675  31.167  1.00  0.00     0.027 A 
ATOM     11  C   UNL A   1      43.103  28.317  29.599  1.00  0.00     0.010 A 
ATOM     12  C   UNL A   1      43.960  28.937  31.759  1.00  0.00     0.002 A 
ATOM     13  C   UNL A   1      43.008  28.286  30.986  1.00  0.00     0.001 A 
BRANCH   6  14
ATOM     14  C   UNL A   1      47.096  31.102  29.433  1.00  0.00     0.119 C 
ATOM     15  C   UNL A   1      47.573  32.378  28.778  1.00  0.00     0.027 C 
ENDBRANCH   6  14
BRANCH   8  16
ATOM     16  C   UNL A   1      44.112  28.322  26.524  1.00  0.00     0.139 C 
BRANCH  16  17
ATOM     17  C   UNL A   1      45.064  27.375  25.805  1.00  0.00     0.229 C 
ATOM     18  O   UNL A   1      45.579  27.686  24.726  1.00  0.00    -0.274 OA
ATOM     19  N   UNL A   1      45.525  26.256  26.460  1.00  0.00    -0.323 N 
ATOM     20  H   UNL A   1      46.355  25.857  26.114  1.00  0.00     0.170 HD
BRANCH  19  21
ATOM     21  C   UNL A   1      44.940  25.621  27.568  1.00  0.00     0.083 A 
ATOM     22  C   UNL A   1      45.589  25.773  28.804  1.00  0.00     0.030 A 
ATOM     23  C   UNL A   1      43.747  24.890  27.520  1.00  0.00     0.142 A 
ATOM     24  C   UNL A   1      45.181  25.086  29.943  1.00  0.00     0.002 A 
ATOM     25  C   UNL A   1      43.335  24.214  28.686  1.00  0.00     0.048 A 
ATOM     26  C   UNL A   1      44.061  24.280  29.877  1.00  0.00     0.004 A 
BRANCH  23  27
ATOM     27  O   UNL A   1      42.904  24.627  26.476  1.00  0.00    -0.495 OA
ATOM     28  C   UNL A   1      41.504  24.738  26.616  1.00  0.00     0.278 C 
ENDBRANCH  23  27
ENDBRANCH  19  21
ENDBRANCH  16  17
ENDBRANCH   8  16
ENDBRANCH   3   5
ENDBRANCH   2   3
ENDBRANCH   1   2
BRANCH   1  29
ATOM     29  C   UNL A   1      44.177  33.863  26.444  1.00  0.00     0.275 C 
BRANCH  29  30
ATOM     30  O   UNL A   1      43.857  34.614  27.630  1.00  0.00    -0.458 OA
BRANCH  30  31
ATOM     31  C   UNL A   1      44.918  35.036  28.356  1.00  0.00     0.338 C 
ATOM     32  O   UNL A   1      45.823  35.739  27.937  1.00  0.00    -0.246 OA
BRANCH  31  33
ATOM     33  C   UNL A   1      44.704  34.795  29.809  1.00  0.00     0.060 A 
ATOM     34  C   UNL A   1      44.497  33.497  30.279  1.00  0.00     0.016 A 
ATOM     35  C   UNL A   1      44.125  35.857  30.486  1.00  0.00     0.016 A 
ATOM     36  C   UNL A   1      43.336  33.232  31.010  1.00  0.00     0.010 A 
ATOM     37  C   UNL A   1      43.022  35.581  31.276  1.00  0.00     0.010 A 
ATOM     38  C   UNL A   1      42.478  34.281  31.321  1.00  0.00    -0.014 A 
BRANCH  38  39
ATOM     39  C   UNL A   1      41.070  34.090  31.760  1.00  0.00     0.031 A 
ATOM     40  C   UNL A   1      40.971  34.012  33.234  1.00  0.00     0.074 A 
ATOM     41  C   UNL A   1      39.880  34.084  31.099  1.00  0.00     0.049 A 
ATOM     42  N   UNL A   1      41.275  32.954  33.905  1.00  0.00    -0.248 NA
ATOM     43  C   UNL A   1      40.766  35.210  34.060  1.00  0.00     0.031 C 
ATOM     44  C   UNL A   1      39.505  34.382  29.717  1.00  0.00     0.029 A 
ATOM     45  N   UNL A   1      38.654  33.770  31.644  1.00  0.00    -0.354 N 
ATOM     46  C   UNL A   1      41.135  33.304  35.230  1.00  0.00     0.074 A 
ATOM     47  C   UNL A   1      41.116  34.741  35.261  1.00  0.00     0.031 C 
ATOM     48  C   UNL A   1      38.152  34.422  29.579  1.00  0.00     0.029 A 
ATOM     49  C   UNL A   1      37.552  33.935  30.806  1.00  0.00     0.049 A 
ATOM     50  H   UNL A   1      38.562  33.447  32.570  1.00  0.00     0.167 HD
ATOM     51  C   UNL A   1      40.791  32.379  36.163  1.00  0.00     0.037 A 
ATOM     52  C   UNL A   1      36.260  33.584  31.064  1.00  0.00     0.037 A 
ATOM     53  C   UNL A   1      40.736  31.054  35.587  1.00  0.00     0.049 A 
ATOM     54  C   UNL A   1      36.320  32.509  32.084  1.00  0.00     0.074 A 
ATOM     55  C   UNL A   1      41.659  30.245  34.948  1.00  0.00     0.029 A 
ATOM     56  N   UNL A   1      39.502  30.586  35.189  1.00  0.00    -0.354 N 
ATOM     57  N   UNL A   1      36.778  31.313  31.844  1.00  0.00    -0.248 NA
ATOM     58  C   UNL A   1      36.273  32.897  33.482  1.00  0.00     0.031 C 
ATOM     59  C   UNL A   1      40.956  29.679  33.840  1.00  0.00     0.029 A 
ATOM     60  C   UNL A   1      39.628  30.101  33.907  1.00  0.00     0.049 A 
ATOM     61  H   UNL A   1      38.677  30.598  35.726  1.00  0.00     0.167 HD
ATOM     62  C   UNL A   1      37.501  30.990  32.980  1.00  0.00     0.074 A 
ATOM     63  C   UNL A   1      37.075  31.957  33.990  1.00  0.00     0.031 C 
ATOM     64  C   UNL A   1      38.579  30.156  32.912  1.00  0.00     0.037 A 
BRANCH  51  65
ATOM     65  C   UNL A   1      40.210  32.709  37.502  1.00  0.00     0.064 A 
ATOM     66  C   UNL A   1      41.058  32.744  38.620  1.00  0.00     0.173 A 
ATOM     67  C   UNL A   1      38.829  32.813  37.770  1.00  0.00     0.173 A 
ATOM     68  F   UNL A   1      42.385  32.614  38.474  1.00  0.00    -0.203 F 
ATOM     69  C   UNL A   1      40.555  32.855  39.917  1.00  0.00     0.198 A 
ATOM     70  C   UNL A   1      38.335  32.992  39.058  1.00  0.00     0.198 A 
ATOM     71  F   UNL A   1      37.903  32.638  36.819  1.00  0.00    -0.203 F 
ATOM     72  F   UNL A   1      41.391  32.785  40.961  1.00  0.00    -0.200 F 
ATOM     73  C   UNL A   1      39.196  32.989  40.134  1.00  0.00     0.200 A 
ATOM     74  F   UNL A   1      37.013  33.100  39.249  1.00  0.00    -0.200 F 
ATOM     75  F   UNL A   1      38.710  33.065  41.380  1.00  0.00    -0.200 F 
ENDBRANCH  51  65
BRANCH  52  76
ATOM     76  C   UNL A   1      34.949  34.131  30.624  1.00  0.00     0.064 A 
ATOM     77  C   UNL A   1      34.376  35.260  31.246  1.00  0.00     0.173 A 
ATOM     78  C   UNL A   1      34.412  33.775  29.376  1.00  0.00     0.173 A 
ATOM     79  F   UNL A   1      34.840  35.692  32.428  1.00  0.00    -0.203 F 
ATOM     80  C   UNL A   1      33.370  36.016  30.631  1.00  0.00     0.198 A 
ATOM     81  C   UNL A   1      33.410  34.534  28.758  1.00  0.00     0.198 A 
ATOM     82  F   UNL A   1      34.920  32.742  28.691  1.00  0.00    -0.203 F 
ATOM     83  F   UNL A   1      32.904  37.124  31.226  1.00  0.00    -0.200 F 
ATOM     84  C   UNL A   1      32.902  35.663  29.377  1.00  0.00     0.200 A 
ATOM     85  F   UNL A   1      32.983  34.204  27.530  1.00  0.00    -0.200 F 
ATOM     86  F   UNL A   1      31.996  36.429  28.752  1.00  0.00    -0.200 F 
ENDBRANCH  52  76
BRANCH  64  87
ATOM     87  C   UNL A   1      38.818  29.414  31.617  1.00  0.00     0.064 A 
ATOM     88  C   UNL A   1      39.489  29.954  30.503  1.00  0.00     0.173 A 
ATOM     89  C   UNL A   1      38.484  28.055  31.551  1.00  0.00     0.173 A 
ATOM     90  F   UNL A   1      39.922  31.217  30.501  1.00  0.00    -0.203 F 
ATOM     91  C   UNL A   1      39.784  29.183  29.377  1.00  0.00     0.198 A 
ATOM     92  C   UNL A   1      38.810  27.276  30.441  1.00  0.00     0.198 A 
ATOM     93  F   UNL A   1      37.878  27.462  32.592  1.00  0.00    -0.203 F 
ATOM     94  F   UNL A   1      40.422  29.734  28.333  1.00  0.00    -0.200 F 
ATOM     95  C   UNL A   1      39.454  27.841  29.352  1.00  0.00     0.200 A 
ATOM     96  F   UNL A   1      38.528  25.966  30.440  1.00  0.00    -0.200 F 
ATOM     97  F   UNL A   1      39.778  27.088  28.292  1.00  0.00    -0.200 F 
ENDBRANCH  64  87
ENDBRANCH  38  39
ENDBRANCH  31  33
ENDBRANCH  30  31
ENDBRANCH  29  30
ENDBRANCH   1  29
TORSDOF 16
ENDMDL
