MODEL 1
REMARK VINA RESULT:     -12.5      0.000      0.000
REMARK SMILES O=C(OCCOC(=O)[C@H]1C[C@H]2CCCC[C@@H]2[N@@H+]1Cc1ccno1)c1ccc(-c2c3nc(c(-c4c(F)c(F)c(F)c(F)c4F)c4ccc([nH]4)c(-c4c(F)c(F)c(F)c(F)c4F)c4nc(c(-c5c(F)c(F)c(F)c(F)c5F)c5ccc2[nH]5)C=C4)C=C3)cc1
REMARK SMILES IDX 4 1 3 2 2 3 1 4 24 5 25 6 86 7 26 8 85 9 27 10 28 11 29 12
REMARK SMILES IDX 79 13 30 14 84 15 78 16 80 17 31 18 83 19 77 20 76 21 32 23
REMARK SMILES IDX 64 24 44 25 63 26 45 27 48 28 62 29 81 30 46 31 47 32 61 34
REMARK SMILES IDX 82 35 49 36 33 37 34 38 42 39 35 40 36 41 40 42 43 43 37 44
REMARK SMILES IDX 38 45 41 46 39 47 65 48 66 49 74 50 67 51 68 52 72 53 75 54
REMARK SMILES IDX 69 55 70 56 73 57 71 58 50 59 51 60 59 61 52 62 53 63 57 64
REMARK SMILES IDX 60 65 54 66 55 67 58 68 56 69 5 70 6 71 7 72 8 73 9 74 10 75
REMARK SMILES IDX 17 76 11 77 16 78 12 80 15 81 13 82 14 83 18 84 19 85 20 86
REMARK SMILES IDX 23 87 21 88 22 89
REMARK H PARENT 80 22 48 33 17 79
REMARK Flexibility Score: inf
ROOT
ATOM      1  C   UNL A   1      31.387  32.235  26.925  1.00  0.00     0.275 C 
ENDROOT
BRANCH   1   2
ATOM      2  O   UNL A   1      32.454  33.191  26.901  1.00  0.00    -0.458 OA
BRANCH   2   3
ATOM      3  C   UNL A   1      33.220  33.651  27.915  1.00  0.00     0.338 C 
ATOM      4  O   UNL A   1      32.864  34.677  28.496  1.00  0.00    -0.246 OA
BRANCH   3   5
ATOM      5  C   UNL A   1      34.537  33.052  28.315  1.00  0.00     0.060 A 
ATOM      6  C   UNL A   1      35.805  33.631  28.203  1.00  0.00     0.016 A 
ATOM      7  C   UNL A   1      34.469  31.787  28.914  1.00  0.00     0.016 A 
ATOM      8  C   UNL A   1      36.937  33.049  28.786  1.00  0.00     0.010 A 
ATOM      9  C   UNL A   1      35.598  31.206  29.502  1.00  0.00     0.010 A 
ATOM     10  C   UNL A   1      36.837  31.853  29.487  1.00  0.00    -0.014 A 
BRANCH  10  11
ATOM     11  C   UNL A   1      38.045  31.242  30.099  1.00  0.00     0.031 A 
ATOM     12  C   UNL A   1      38.400  31.631  31.505  1.00  0.00     0.074 A 
ATOM     13  C   UNL A   1      38.796  30.343  29.426  1.00  0.00     0.049 A 
ATOM     14  N   UNL A   1      39.391  31.228  32.257  1.00  0.00    -0.248 NA
ATOM     15  C   UNL A   1      37.538  32.639  32.149  1.00  0.00     0.031 C 
ATOM     16  C   UNL A   1      38.592  29.928  28.034  1.00  0.00     0.029 A 
ATOM     17  N   UNL A   1      39.899  29.619  29.815  1.00  0.00    -0.354 N 
ATOM     18  C   UNL A   1      39.252  31.925  33.448  1.00  0.00     0.074 A 
ATOM     19  C   UNL A   1      38.188  32.881  33.271  1.00  0.00     0.031 C 
ATOM     20  C   UNL A   1      39.539  29.039  27.685  1.00  0.00     0.029 A 
ATOM     21  C   UNL A   1      40.411  28.804  28.829  1.00  0.00     0.049 A 
ATOM     22  H   UNL A   1      40.287  29.678  30.718  1.00  0.00     0.167 HD
ATOM     23  C   UNL A   1      39.883  31.719  34.625  1.00  0.00     0.037 A 
ATOM     24  C   UNL A   1      41.458  27.956  28.862  1.00  0.00     0.037 A 
ATOM     25  C   UNL A   1      40.914  30.742  34.807  1.00  0.00     0.049 A 
ATOM     26  C   UNL A   1      42.181  27.775  30.175  1.00  0.00     0.074 A 
ATOM     27  C   UNL A   1      41.620  30.432  35.951  1.00  0.00     0.029 A 
ATOM     28  N   UNL A   1      41.378  29.907  33.800  1.00  0.00    -0.354 N 
ATOM     29  N   UNL A   1      41.973  28.369  31.326  1.00  0.00    -0.248 NA
ATOM     30  C   UNL A   1      43.259  26.776  30.206  1.00  0.00     0.031 C 
ATOM     31  C   UNL A   1      42.538  29.426  35.628  1.00  0.00     0.029 A 
ATOM     32  C   UNL A   1      42.368  29.080  34.295  1.00  0.00     0.049 A 
ATOM     33  H   UNL A   1      41.051  29.904  32.871  1.00  0.00     0.167 HD
ATOM     34  C   UNL A   1      42.860  27.792  32.223  1.00  0.00     0.074 A 
ATOM     35  C   UNL A   1      43.593  26.782  31.488  1.00  0.00     0.031 C 
ATOM     36  C   UNL A   1      43.058  28.069  33.536  1.00  0.00     0.037 A 
BRANCH  23  37
ATOM     37  C   UNL A   1      39.414  32.544  35.786  1.00  0.00     0.064 A 
ATOM     38  C   UNL A   1      39.998  33.791  36.072  1.00  0.00     0.173 A 
ATOM     39  C   UNL A   1      38.429  32.065  36.658  1.00  0.00     0.173 A 
ATOM     40  F   UNL A   1      40.969  34.279  35.285  1.00  0.00    -0.203 F 
ATOM     41  C   UNL A   1      39.652  34.500  37.218  1.00  0.00     0.198 A 
ATOM     42  C   UNL A   1      38.057  32.796  37.785  1.00  0.00     0.198 A 
ATOM     43  F   UNL A   1      37.844  30.879  36.434  1.00  0.00    -0.203 F 
ATOM     44  F   UNL A   1      40.287  35.642  37.515  1.00  0.00    -0.200 F 
ATOM     45  C   UNL A   1      38.679  34.003  38.071  1.00  0.00     0.200 A 
ATOM     46  F   UNL A   1      37.114  32.319  38.609  1.00  0.00    -0.200 F 
ATOM     47  F   UNL A   1      38.354  34.680  39.181  1.00  0.00    -0.200 F 
ENDBRANCH  23  37
BRANCH  24  48
ATOM     48  C   UNL A   1      41.859  27.168  27.660  1.00  0.00     0.064 A 
ATOM     49  C   UNL A   1      41.369  25.870  27.445  1.00  0.00     0.173 A 
ATOM     50  C   UNL A   1      42.792  27.663  26.736  1.00  0.00     0.173 A 
ATOM     51  F   UNL A   1      40.488  25.336  28.304  1.00  0.00    -0.203 F 
ATOM     52  C   UNL A   1      41.833  25.083  26.390  1.00  0.00     0.198 A 
ATOM     53  C   UNL A   1      43.231  26.887  25.661  1.00  0.00     0.198 A 
ATOM     54  F   UNL A   1      43.297  28.896  26.882  1.00  0.00    -0.203 F 
ATOM     55  F   UNL A   1      41.402  23.820  26.259  1.00  0.00    -0.200 F 
ATOM     56  C   UNL A   1      42.763  25.592  25.499  1.00  0.00     0.200 A 
ATOM     57  F   UNL A   1      44.124  27.386  24.795  1.00  0.00    -0.200 F 
ATOM     58  F   UNL A   1      43.220  24.831  24.494  1.00  0.00    -0.200 F 
ENDBRANCH  24  48
BRANCH  36  59
ATOM     59  C   UNL A   1      44.074  27.240  34.263  1.00  0.00     0.064 A 
ATOM     60  C   UNL A   1      45.403  27.662  34.405  1.00  0.00     0.173 A 
ATOM     61  C   UNL A   1      43.695  26.033  34.869  1.00  0.00     0.173 A 
ATOM     62  F   UNL A   1      45.815  28.803  33.832  1.00  0.00    -0.203 F 
ATOM     63  C   UNL A   1      46.326  26.889  35.103  1.00  0.00     0.198 A 
ATOM     64  C   UNL A   1      44.611  25.282  35.598  1.00  0.00     0.198 A 
ATOM     65  F   UNL A   1      42.432  25.592  34.771  1.00  0.00    -0.203 F 
ATOM     66  F   UNL A   1      47.604  27.283  35.179  1.00  0.00    -0.200 F 
ATOM     67  C   UNL A   1      45.927  25.705  35.707  1.00  0.00     0.200 A 
ATOM     68  F   UNL A   1      44.219  24.150  36.199  1.00  0.00    -0.200 F 
ATOM     69  F   UNL A   1      46.814  24.970  36.389  1.00  0.00    -0.200 F 
ENDBRANCH  36  59
ENDBRANCH  10  11
ENDBRANCH   3   5
ENDBRANCH   2   3
ENDBRANCH   1   2
BRANCH   1  70
ATOM     70  C   UNL A   1      31.766  30.855  26.371  1.00  0.00     0.274 C 
BRANCH  70  71
ATOM     71  O   UNL A   1      31.901  29.818  27.366  1.00  0.00    -0.458 OA
BRANCH  71  72
ATOM     72  C   UNL A   1      31.770  28.531  26.916  1.00  0.00     0.365 C 
ATOM     73  O   UNL A   1      31.374  27.604  27.620  1.00  0.00    -0.245 OA
BRANCH  72  74
ATOM     74  C   UNL A   1      32.271  28.383  25.452  1.00  0.00     0.296 C 
ATOM     75  C   UNL A   1      33.296  27.229  25.412  1.00  0.00     0.087 C 
ATOM     76  N   UNL A   1      31.151  27.965  24.556  1.00  0.00    -0.314 N 
ATOM     77  C   UNL A   1      32.676  26.215  24.455  1.00  0.00     0.054 C 
ATOM     78  C   UNL A   1      31.186  26.507  24.549  1.00  0.00     0.188 C 
ATOM     79  H   UNL A   1      30.264  28.306  24.924  1.00  0.00     0.349 HD
ATOM     80  C   UNL A   1      32.939  24.737  24.660  1.00  0.00     0.010 C 
ATOM     81  C   UNL A   1      30.359  25.749  23.515  1.00  0.00     0.065 C 
ATOM     82  C   UNL A   1      32.173  23.959  23.576  1.00  0.00     0.001 C 
ATOM     83  C   UNL A   1      30.667  24.255  23.586  1.00  0.00     0.006 C 
BRANCH  76  84
ATOM     84  C   UNL A   1      31.091  28.609  23.238  1.00  0.00     0.342 C 
BRANCH  84  85
ATOM     85  C   UNL A   1      29.921  29.417  22.805  1.00  0.00     0.190 A 
ATOM     86  C   UNL A   1      29.128  30.386  23.379  1.00  0.00     0.075 A 
ATOM     87  O   UNL A   1      29.581  29.307  21.489  1.00  0.00    -0.355 OA
ATOM     88  C   UNL A   1      28.283  30.809  22.339  1.00  0.00     0.158 A 
ATOM     89  N   UNL A   1      28.545  30.175  21.198  1.00  0.00    -0.088 NA
ENDBRANCH  84  85
ENDBRANCH  76  84
ENDBRANCH  72  74
ENDBRANCH  71  72
ENDBRANCH  70  71
ENDBRANCH   1  70
TORSDOF 13
ENDMDL
MODEL 2
REMARK VINA RESULT:     -12.3      0.472      1.280
REMARK SMILES O=C(OCCOC(=O)[C@H]1C[C@H]2CCCC[C@@H]2[N@@H+]1Cc1ccno1)c1ccc(-c2c3nc(c(-c4c(F)c(F)c(F)c(F)c4F)c4ccc([nH]4)c(-c4c(F)c(F)c(F)c(F)c4F)c4nc(c(-c5c(F)c(F)c(F)c(F)c5F)c5ccc2[nH]5)C=C4)C=C3)cc1
REMARK SMILES IDX 4 1 3 2 2 3 1 4 24 5 25 6 86 7 26 8 85 9 27 10 28 11 29 12
REMARK SMILES IDX 79 13 30 14 84 15 78 16 80 17 31 18 83 19 77 20 76 21 32 23
REMARK SMILES IDX 64 24 44 25 63 26 45 27 48 28 62 29 81 30 46 31 47 32 61 34
REMARK SMILES IDX 82 35 49 36 33 37 34 38 42 39 35 40 36 41 40 42 43 43 37 44
REMARK SMILES IDX 38 45 41 46 39 47 65 48 66 49 74 50 67 51 68 52 72 53 75 54
REMARK SMILES IDX 69 55 70 56 73 57 71 58 50 59 51 60 59 61 52 62 53 63 57 64
REMARK SMILES IDX 60 65 54 66 55 67 58 68 56 69 5 70 6 71 7 72 8 73 9 74 10 75
REMARK SMILES IDX 17 76 11 77 16 78 12 80 15 81 13 82 14 83 18 84 19 85 20 86
REMARK SMILES IDX 23 87 21 88 22 89
REMARK H PARENT 80 22 48 33 17 79
REMARK Flexibility Score: inf
ROOT
ATOM      1  C   UNL A   1      31.410  32.233  26.875  1.00  0.00     0.275 C 
ENDROOT
BRANCH   1   2
ATOM      2  O   UNL A   1      32.504  33.158  26.895  1.00  0.00    -0.458 OA
BRANCH   2   3
ATOM      3  C   UNL A   1      33.235  33.603  27.941  1.00  0.00     0.338 C 
ATOM      4  O   UNL A   1      32.841  34.599  28.548  1.00  0.00    -0.246 OA
BRANCH   3   5
ATOM      5  C   UNL A   1      34.559  33.024  28.349  1.00  0.00     0.060 A 
ATOM      6  C   UNL A   1      35.804  33.661  28.350  1.00  0.00     0.016 A 
ATOM      7  C   UNL A   1      34.520  31.709  28.832  1.00  0.00     0.016 A 
ATOM      8  C   UNL A   1      36.933  33.075  28.934  1.00  0.00     0.010 A 
ATOM      9  C   UNL A   1      35.646  31.123  29.421  1.00  0.00     0.010 A 
ATOM     10  C   UNL A   1      36.855  31.818  29.522  1.00  0.00    -0.014 A 
BRANCH  10  11
ATOM     11  C   UNL A   1      38.060  31.203  30.136  1.00  0.00     0.031 A 
ATOM     12  C   UNL A   1      38.403  31.575  31.549  1.00  0.00     0.074 A 
ATOM     13  C   UNL A   1      38.821  30.316  29.457  1.00  0.00     0.049 A 
ATOM     14  N   UNL A   1      39.389  31.167  32.304  1.00  0.00    -0.248 NA
ATOM     15  C   UNL A   1      37.531  32.571  32.199  1.00  0.00     0.031 C 
ATOM     16  C   UNL A   1      38.629  29.918  28.058  1.00  0.00     0.029 A 
ATOM     17  N   UNL A   1      39.922  29.591  29.846  1.00  0.00    -0.354 N 
ATOM     18  C   UNL A   1      39.238  31.847  33.503  1.00  0.00     0.074 A 
ATOM     19  C   UNL A   1      38.171  32.801  33.330  1.00  0.00     0.031 C 
ATOM     20  C   UNL A   1      39.583  29.038  27.705  1.00  0.00     0.029 A 
ATOM     21  C   UNL A   1      40.446  28.791  28.853  1.00  0.00     0.049 A 
ATOM     22  H   UNL A   1      40.304  29.640  30.752  1.00  0.00     0.167 HD
ATOM     23  C   UNL A   1      39.860  31.628  34.682  1.00  0.00     0.037 A 
ATOM     24  C   UNL A   1      41.496  27.946  28.883  1.00  0.00     0.037 A 
ATOM     25  C   UNL A   1      40.893  30.653  34.859  1.00  0.00     0.049 A 
ATOM     26  C   UNL A   1      42.209  27.752  30.199  1.00  0.00     0.074 A 
ATOM     27  C   UNL A   1      41.592  30.330  36.005  1.00  0.00     0.029 A 
ATOM     28  N   UNL A   1      41.369  29.833  33.845  1.00  0.00    -0.354 N 
ATOM     29  N   UNL A   1      41.989  28.330  31.357  1.00  0.00    -0.248 NA
ATOM     30  C   UNL A   1      43.290  26.757  30.226  1.00  0.00     0.031 C 
ATOM     31  C   UNL A   1      42.515  29.333  35.676  1.00  0.00     0.029 A 
ATOM     32  C   UNL A   1      42.358  29.003  34.338  1.00  0.00     0.049 A 
ATOM     33  H   UNL A   1      41.049  29.841  32.914  1.00  0.00     0.167 HD
ATOM     34  C   UNL A   1      42.871  27.744  32.253  1.00  0.00     0.074 A 
ATOM     35  C   UNL A   1      43.615  26.747  31.511  1.00  0.00     0.031 C 
ATOM     36  C   UNL A   1      43.058  28.005  33.571  1.00  0.00     0.037 A 
BRANCH  23  37
ATOM     37  C   UNL A   1      39.378  32.436  35.850  1.00  0.00     0.064 A 
ATOM     38  C   UNL A   1      39.923  33.702  36.130  1.00  0.00     0.173 A 
ATOM     39  C   UNL A   1      38.422  31.924  36.734  1.00  0.00     0.173 A 
ATOM     40  F   UNL A   1      40.868  34.223  35.330  1.00  0.00    -0.203 F 
ATOM     41  C   UNL A   1      39.569  34.398  37.281  1.00  0.00     0.198 A 
ATOM     42  C   UNL A   1      38.040  32.641  37.866  1.00  0.00     0.198 A 
ATOM     43  F   UNL A   1      37.874  30.719  36.517  1.00  0.00    -0.203 F 
ATOM     44  F   UNL A   1      40.169  35.561  37.571  1.00  0.00    -0.200 F 
ATOM     45  C   UNL A   1      38.624  33.869  38.146  1.00  0.00     0.200 A 
ATOM     46  F   UNL A   1      37.125  32.133  38.702  1.00  0.00    -0.200 F 
ATOM     47  F   UNL A   1      38.291  34.533  39.260  1.00  0.00    -0.200 F 
ENDBRANCH  23  37
BRANCH  24  48
ATOM     48  C   UNL A   1      41.909  27.176  27.674  1.00  0.00     0.064 A 
ATOM     49  C   UNL A   1      41.398  25.894  27.420  1.00  0.00     0.173 A 
ATOM     50  C   UNL A   1      42.875  27.671  26.784  1.00  0.00     0.173 A 
ATOM     51  F   UNL A   1      40.486  25.361  28.245  1.00  0.00    -0.203 F 
ATOM     52  C   UNL A   1      41.871  25.119  26.359  1.00  0.00     0.198 A 
ATOM     53  C   UNL A   1      43.324  26.908  25.703  1.00  0.00     0.198 A 
ATOM     54  F   UNL A   1      43.401  28.889  26.969  1.00  0.00    -0.203 F 
ATOM     55  F   UNL A   1      41.417  23.870  26.190  1.00  0.00    -0.200 F 
ATOM     56  C   UNL A   1      42.833  25.627  25.502  1.00  0.00     0.200 A 
ATOM     57  F   UNL A   1      44.248  27.406  24.870  1.00  0.00    -0.200 F 
ATOM     58  F   UNL A   1      43.299  24.878  24.492  1.00  0.00    -0.200 F 
ENDBRANCH  24  48
BRANCH  36  59
ATOM     59  C   UNL A   1      44.071  27.171  34.296  1.00  0.00     0.064 A 
ATOM     60  C   UNL A   1      43.734  25.935  34.866  1.00  0.00     0.173 A 
ATOM     61  C   UNL A   1      45.407  27.593  34.375  1.00  0.00     0.173 A 
ATOM     62  F   UNL A   1      42.467  25.495  34.827  1.00  0.00    -0.203 F 
ATOM     63  C   UNL A   1      44.693  25.165  35.516  1.00  0.00     0.198 A 
ATOM     64  C   UNL A   1      46.370  26.802  34.992  1.00  0.00     0.198 A 
ATOM     65  F   UNL A   1      45.780  28.763  33.836  1.00  0.00    -0.203 F 
ATOM     66  F   UNL A   1      44.339  24.013  36.102  1.00  0.00    -0.200 F 
ATOM     67  C   UNL A   1      46.012  25.594  35.570  1.00  0.00     0.200 A 
ATOM     68  F   UNL A   1      47.646  27.209  35.025  1.00  0.00    -0.200 F 
ATOM     69  F   UNL A   1      46.935  24.845  36.185  1.00  0.00    -0.200 F 
ENDBRANCH  36  59
ENDBRANCH  10  11
ENDBRANCH   3   5
ENDBRANCH   2   3
ENDBRANCH   1   2
BRANCH   1  70
ATOM     70  C   UNL A   1      31.769  30.846  26.325  1.00  0.00     0.274 C 
BRANCH  70  71
ATOM     71  O   UNL A   1      32.046  29.848  27.329  1.00  0.00    -0.458 OA
BRANCH  71  72
ATOM     72  C   UNL A   1      31.740  28.555  26.994  1.00  0.00     0.365 C 
ATOM     73  O   UNL A   1      31.212  27.761  27.770  1.00  0.00    -0.245 OA
BRANCH  72  74
ATOM     74  C   UNL A   1      32.227  28.206  25.560  1.00  0.00     0.296 C 
ATOM     75  C   UNL A   1      33.625  27.562  25.674  1.00  0.00     0.087 C 
ATOM     76  N   UNL A   1      31.348  27.164  24.949  1.00  0.00    -0.314 N 
ATOM     77  C   UNL A   1      33.442  26.167  25.086  1.00  0.00     0.054 C 
ATOM     78  C   UNL A   1      31.961  25.888  25.298  1.00  0.00     0.188 C 
ATOM     79  H   UNL A   1      30.406  27.233  25.334  1.00  0.00     0.349 HD
ATOM     80  C   UNL A   1      34.276  25.017  25.615  1.00  0.00     0.010 C 
ATOM     81  C   UNL A   1      31.482  24.618  24.601  1.00  0.00     0.065 C 
ATOM     82  C   UNL A   1      33.861  23.739  24.866  1.00  0.00     0.001 C 
ATOM     83  C   UNL A   1      32.363  23.435  24.998  1.00  0.00     0.006 C 
BRANCH  76  84
ATOM     84  C   UNL A   1      31.008  27.342  23.532  1.00  0.00     0.342 C 
BRANCH  84  85
ATOM     85  C   UNL A   1      30.226  28.511  23.047  1.00  0.00     0.190 A 
ATOM     86  C   UNL A   1      29.539  29.548  23.638  1.00  0.00     0.075 A 
ATOM     87  O   UNL A   1      30.268  28.733  21.703  1.00  0.00    -0.355 OA
ATOM     88  C   UNL A   1      29.150  30.368  22.565  1.00  0.00     0.158 A 
ATOM     89  N   UNL A   1      29.584  29.895  21.398  1.00  0.00    -0.088 NA
ENDBRANCH  84  85
ENDBRANCH  76  84
ENDBRANCH  72  74
ENDBRANCH  71  72
ENDBRANCH  70  71
ENDBRANCH   1  70
TORSDOF 13
ENDMDL
MODEL 3
REMARK VINA RESULT:     -12.2      1.911      3.436
REMARK SMILES O=C(OCCOC(=O)[C@H]1C[C@H]2CCCC[C@@H]2[N@@H+]1Cc1ccno1)c1ccc(-c2c3nc(c(-c4c(F)c(F)c(F)c(F)c4F)c4ccc([nH]4)c(-c4c(F)c(F)c(F)c(F)c4F)c4nc(c(-c5c(F)c(F)c(F)c(F)c5F)c5ccc2[nH]5)C=C4)C=C3)cc1
REMARK SMILES IDX 4 1 3 2 2 3 1 4 24 5 25 6 86 7 26 8 85 9 27 10 28 11 29 12
REMARK SMILES IDX 79 13 30 14 84 15 78 16 80 17 31 18 83 19 77 20 76 21 32 23
REMARK SMILES IDX 64 24 44 25 63 26 45 27 48 28 62 29 81 30 46 31 47 32 61 34
REMARK SMILES IDX 82 35 49 36 33 37 34 38 42 39 35 40 36 41 40 42 43 43 37 44
REMARK SMILES IDX 38 45 41 46 39 47 65 48 66 49 74 50 67 51 68 52 72 53 75 54
REMARK SMILES IDX 69 55 70 56 73 57 71 58 50 59 51 60 59 61 52 62 53 63 57 64
REMARK SMILES IDX 60 65 54 66 55 67 58 68 56 69 5 70 6 71 7 72 8 73 9 74 10 75
REMARK SMILES IDX 17 76 11 77 16 78 12 80 15 81 13 82 14 83 18 84 19 85 20 86
REMARK SMILES IDX 23 87 21 88 22 89
REMARK H PARENT 80 22 48 33 17 79
REMARK Flexibility Score: inf
ROOT
ATOM      1  C   UNL A   1      32.388  29.843  25.369  1.00  0.00     0.275 C 
ENDROOT
BRANCH   1   2
ATOM      2  O   UNL A   1      32.512  30.281  26.727  1.00  0.00    -0.458 OA
BRANCH   2   3
ATOM      3  C   UNL A   1      33.315  31.232  27.254  1.00  0.00     0.338 C 
ATOM      4  O   UNL A   1      32.927  32.400  27.236  1.00  0.00    -0.246 OA
BRANCH   3   5
ATOM      5  C   UNL A   1      34.702  30.972  27.768  1.00  0.00     0.060 A 
ATOM      6  C   UNL A   1      35.714  31.909  28.001  1.00  0.00     0.016 A 
ATOM      7  C   UNL A   1      34.985  29.640  28.097  1.00  0.00     0.016 A 
ATOM      8  C   UNL A   1      36.899  31.568  28.662  1.00  0.00     0.010 A 
ATOM      9  C   UNL A   1      36.167  29.296  28.762  1.00  0.00     0.010 A 
ATOM     10  C   UNL A   1      37.119  30.265  29.096  1.00  0.00    -0.014 A 
BRANCH  10  11
ATOM     11  C   UNL A   1      38.382  29.912  29.793  1.00  0.00     0.031 A 
ATOM     12  C   UNL A   1      38.620  30.484  31.161  1.00  0.00     0.074 A 
ATOM     13  C   UNL A   1      39.288  29.083  29.229  1.00  0.00     0.049 A 
ATOM     14  N   UNL A   1      39.631  30.315  31.971  1.00  0.00    -0.248 NA
ATOM     15  C   UNL A   1      37.588  31.400  31.682  1.00  0.00     0.031 C 
ATOM     16  C   UNL A   1      39.203  28.511  27.882  1.00  0.00     0.029 A 
ATOM     17  N   UNL A   1      40.473  28.581  29.714  1.00  0.00    -0.354 N 
ATOM     18  C   UNL A   1      39.341  31.090  33.084  1.00  0.00     0.074 A 
ATOM     19  C   UNL A   1      38.150  31.846  32.789  1.00  0.00     0.031 C 
ATOM     20  C   UNL A   1      40.289  27.753  27.644  1.00  0.00     0.029 A 
ATOM     21  C   UNL A   1      41.142  27.767  28.826  1.00  0.00     0.049 A 
ATOM     22  H   UNL A   1      40.813  28.786  30.615  1.00  0.00     0.167 HD
ATOM     23  C   UNL A   1      39.952  31.098  34.290  1.00  0.00     0.037 A 
ATOM     24  C   UNL A   1      42.305  27.101  28.966  1.00  0.00     0.037 A 
ATOM     25  C   UNL A   1      41.113  30.317  34.591  1.00  0.00     0.049 A 
ATOM     26  C   UNL A   1      42.998  27.161  30.307  1.00  0.00     0.074 A 
ATOM     27  C   UNL A   1      41.814  30.231  35.776  1.00  0.00     0.029 A 
ATOM     28  N   UNL A   1      41.738  29.473  33.683  1.00  0.00    -0.354 N 
ATOM     29  N   UNL A   1      42.656  27.821  31.388  1.00  0.00    -0.248 NA
ATOM     30  C   UNL A   1      44.214  26.352  30.461  1.00  0.00     0.031 C 
ATOM     31  C   UNL A   1      42.887  29.356  35.575  1.00  0.00     0.029 A 
ATOM     32  C   UNL A   1      42.824  28.863  34.280  1.00  0.00     0.049 A 
ATOM     33  H   UNL A   1      41.450  29.332  32.752  1.00  0.00     0.167 HD
ATOM     34  C   UNL A   1      43.587  27.478  32.358  1.00  0.00     0.074 A 
ATOM     35  C   UNL A   1      44.495  26.531  31.744  1.00  0.00     0.031 C 
ATOM     36  C   UNL A   1      43.690  27.906  33.641  1.00  0.00     0.037 A 
BRANCH  23  37
ATOM     37  C   UNL A   1      39.317  31.945  35.352  1.00  0.00     0.064 A 
ATOM     38  C   UNL A   1      39.615  33.315  35.461  1.00  0.00     0.173 A 
ATOM     39  C   UNL A   1      38.463  31.382  36.308  1.00  0.00     0.173 A 
ATOM     40  F   UNL A   1      40.453  33.896  34.588  1.00  0.00    -0.203 F 
ATOM     41  C   UNL A   1      39.126  34.075  36.518  1.00  0.00     0.198 A 
ATOM     42  C   UNL A   1      37.944  32.154  37.345  1.00  0.00     0.198 A 
ATOM     43  F   UNL A   1      38.151  30.078  36.253  1.00  0.00    -0.203 F 
ATOM     44  F   UNL A   1      39.497  35.356  36.650  1.00  0.00    -0.200 F 
ATOM     45  C   UNL A   1      38.288  33.494  37.457  1.00  0.00     0.200 A 
ATOM     46  F   UNL A   1      37.131  31.596  38.251  1.00  0.00    -0.200 F 
ATOM     47  F   UNL A   1      37.826  34.222  38.483  1.00  0.00    -0.200 F 
ENDBRANCH  23  37
BRANCH  24  48
ATOM     48  C   UNL A   1      42.868  26.276  27.858  1.00  0.00     0.064 A 
ATOM     49  C   UNL A   1      43.760  26.827  26.923  1.00  0.00     0.173 A 
ATOM     50  C   UNL A   1      42.475  24.943  27.662  1.00  0.00     0.173 A 
ATOM     51  F   UNL A   1      44.158  28.101  27.047  1.00  0.00    -0.203 F 
ATOM     52  C   UNL A   1      44.194  26.097  25.815  1.00  0.00     0.198 A 
ATOM     53  C   UNL A   1      42.936  24.203  26.571  1.00  0.00     0.198 A 
ATOM     54  F   UNL A   1      41.628  24.358  28.519  1.00  0.00    -0.203 F 
ATOM     55  F   UNL A   1      44.984  26.678  24.901  1.00  0.00    -0.200 F 
ATOM     56  C   UNL A   1      43.782  24.786  25.640  1.00  0.00     0.200 A 
ATOM     57  F   UNL A   1      42.543  22.932  26.410  1.00  0.00    -0.200 F 
ATOM     58  F   UNL A   1      44.186  24.091  24.567  1.00  0.00    -0.200 F 
ENDBRANCH  24  48
BRANCH  36  59
ATOM     59  C   UNL A   1      44.793  27.320  34.470  1.00  0.00     0.064 A 
ATOM     60  C   UNL A   1      44.618  26.130  35.192  1.00  0.00     0.173 A 
ATOM     61  C   UNL A   1      46.055  27.932  34.500  1.00  0.00     0.173 A 
ATOM     62  F   UNL A   1      43.426  25.516  35.204  1.00  0.00    -0.203 F 
ATOM     63  C   UNL A   1      45.660  25.590  35.938  1.00  0.00     0.198 A 
ATOM     64  C   UNL A   1      47.105  27.368  35.216  1.00  0.00     0.198 A 
ATOM     65  F   UNL A   1      46.275  29.065  33.817  1.00  0.00    -0.203 F 
ATOM     66  F   UNL A   1      45.457  24.483  36.665  1.00  0.00    -0.200 F 
ATOM     67  C   UNL A   1      46.905  26.203  35.942  1.00  0.00     0.200 A 
ATOM     68  F   UNL A   1      48.311  27.950  35.202  1.00  0.00    -0.200 F 
ATOM     69  F   UNL A   1      47.910  25.674  36.651  1.00  0.00    -0.200 F 
ENDBRANCH  36  59
ENDBRANCH  10  11
ENDBRANCH   3   5
ENDBRANCH   2   3
ENDBRANCH   1   2
BRANCH   1  70
ATOM     70  C   UNL A   1      33.286  28.654  25.005  1.00  0.00     0.274 C 
BRANCH  70  71
ATOM     71  O   UNL A   1      32.584  27.419  24.748  1.00  0.00    -0.458 OA
BRANCH  71  72
ATOM     72  C   UNL A   1      33.191  26.552  23.879  1.00  0.00     0.365 C 
ATOM     73  O   UNL A   1      33.710  26.904  22.822  1.00  0.00    -0.245 OA
BRANCH  72  74
ATOM     74  C   UNL A   1      33.052  25.078  24.352  1.00  0.00     0.296 C 
ATOM     75  C   UNL A   1      33.611  24.164  23.241  1.00  0.00     0.087 C 
ATOM     76  N   UNL A   1      33.909  24.831  25.551  1.00  0.00    -0.314 N 
ATOM     77  C   UNL A   1      34.768  23.429  23.910  1.00  0.00     0.054 C 
ATOM     78  C   UNL A   1      35.190  24.376  25.023  1.00  0.00     0.188 C 
ATOM     79  H   UNL A   1      34.020  25.694  26.084  1.00  0.00     0.349 HD
ATOM     80  C   UNL A   1      35.970  23.016  23.083  1.00  0.00     0.010 C 
ATOM     81  C   UNL A   1      36.212  23.765  25.977  1.00  0.00     0.065 C 
ATOM     82  C   UNL A   1      36.980  22.327  24.017  1.00  0.00     0.001 C 
ATOM     83  C   UNL A   1      37.403  23.217  25.193  1.00  0.00     0.006 C 
BRANCH  76  84
ATOM     84  C   UNL A   1      33.326  24.003  26.614  1.00  0.00     0.342 C 
BRANCH  84  85
ATOM     85  C   UNL A   1      31.916  23.533  26.567  1.00  0.00     0.190 A 
ATOM     86  C   UNL A   1      31.268  22.413  26.095  1.00  0.00     0.075 A 
ATOM     87  O   UNL A   1      31.016  24.294  27.251  1.00  0.00    -0.355 OA
ATOM     88  C   UNL A   1      29.936  22.578  26.508  1.00  0.00     0.158 A 
ATOM     89  N   UNL A   1      29.769  23.700  27.207  1.00  0.00    -0.088 NA
ENDBRANCH  84  85
ENDBRANCH  76  84
ENDBRANCH  72  74
ENDBRANCH  71  72
ENDBRANCH  70  71
ENDBRANCH   1  70
TORSDOF 13
ENDMDL
