MODEL 1
REMARK VINA RESULT:     -11.9      0.000      0.000
REMARK SMILES COc1c(C)cc(Br)cc1C(=O)Nc1ccc(O)c(C(=O)OCCOC(=O)c2ccc(-c3c4nc(c(-c5c(F)c(F)c(F)c(F)c5F)c5ccc([nH]5)c(-c5c(F)c(F)c(F)c(F)c5F)c5nc(c(-c6c(F)c(F)c(F)c(F)c6F)c6ccc3[nH]6)C=C5)C=C4)cc2)c1
REMARK SMILES IDX 23 1 22 2 20 3 21 4 19 5 14 6 15 7 91 8 16 9 17 10 13 11
REMARK SMILES IDX 11 12 12 13 10 15 3 16 4 17 5 18 6 19 9 20 7 21 8 22 2 23
REMARK SMILES IDX 1 24 18 25 24 27 25 28 26 29 27 30 28 31 29 32 90 33 30 34
REMARK SMILES IDX 89 35 31 36 32 37 33 38 83 39 34 40 88 41 82 42 84 43 35 44
REMARK SMILES IDX 87 45 81 46 80 47 36 49 68 50 48 51 67 52 49 53 52 54 66 55
REMARK SMILES IDX 85 56 50 57 51 58 65 60 86 61 53 62 37 63 38 64 46 65 39 66
REMARK SMILES IDX 40 67 44 68 47 69 41 70 42 71 45 72 43 73 69 74 70 75 78 76
REMARK SMILES IDX 71 77 72 78 76 79 79 80 73 81 74 82 77 83 75 84 54 85 55 86
REMARK SMILES IDX 63 87 56 88 57 89 61 90 64 91 58 92 59 93 62 94 60 95
REMARK H PARENT 13 14 18 26 84 48 52 59
REMARK Flexibility Score: inf
ROOT
ATOM      1  C   UNL A   1      34.225  34.051  28.474  1.00  0.00     0.275 C 
ENDROOT
BRANCH   1   2
ATOM      2  O   UNL A   1      33.189  34.335  29.430  1.00  0.00    -0.458 OA
BRANCH   2   3
ATOM      3  C   UNL A   1      32.962  35.637  29.709  1.00  0.00     0.342 C 
ATOM      4  O   UNL A   1      32.359  36.422  28.990  1.00  0.00    -0.246 OA
BRANCH   3   5
ATOM      5  C   UNL A   1      33.414  36.008  31.077  1.00  0.00     0.103 A 
ATOM      6  C   UNL A   1      34.120  35.187  33.258  1.00  0.00     0.042 A 
ATOM      7  C   UNL A   1      34.232  36.489  33.729  1.00  0.00     0.030 A 
ATOM      8  C   UNL A   1      33.761  34.946  31.931  1.00  0.00     0.045 A 
ATOM      9  C   UNL A   1      33.874  37.554  32.899  1.00  0.00     0.049 A 
ATOM     10  C   UNL A   1      33.438  37.314  31.589  1.00  0.00     0.130 A 
BRANCH   6  11
ATOM     11  N   UNL A   1      34.522  34.128  34.069  1.00  0.00    -0.322 N 
ATOM     12  C   UNL A   1      35.791  33.852  34.530  1.00  0.00     0.259 C 
ATOM     13  O   UNL A   1      35.882  33.394  35.674  1.00  0.00    -0.269 OA
ATOM     14  H   UNL A   1      33.814  33.501  34.347  1.00  0.00     0.170 HD
BRANCH  12  15
ATOM     15  C   UNL A   1      37.012  33.823  33.665  1.00  0.00     0.083 A 
ATOM     16  C   UNL A   1      37.129  33.414  32.319  1.00  0.00     0.134 A 
ATOM     17  C   UNL A   1      38.340  33.657  31.616  1.00  0.00    -0.007 A 
ATOM     18  C   UNL A   1      38.520  33.392  30.143  1.00  0.00     0.048 C 
ATOM     19  C   UNL A   1      39.439  34.213  32.290  1.00  0.00     0.023 A 
ATOM     20  C   UNL A   1      38.134  34.402  34.299  1.00  0.00     0.033 A 
ATOM     21  C   UNL A   1      39.332  34.584  33.621  1.00  0.00     0.019 A 
ATOM     22  Br  UNL A   1      40.800  35.401  34.485  1.00  0.00    -0.051 Br
BRANCH  16  23
ATOM     23  O   UNL A   1      36.032  32.922  31.662  1.00  0.00    -0.496 OA
ATOM     24  C   UNL A   1      35.820  31.520  31.846  1.00  0.00     0.278 C 
ENDBRANCH  16  23
ENDBRANCH  12  15
ENDBRANCH   6  11
BRANCH  10  25
ATOM     25  O   UNL A   1      32.951  38.362  30.861  1.00  0.00    -0.507 OA
ATOM     26  H   UNL A   1      32.116  38.293  30.442  1.00  0.00     0.293 HD
ENDBRANCH  10  25
ENDBRANCH   3   5
ENDBRANCH   2   3
ENDBRANCH   1   2
BRANCH   1  27
ATOM     27  C   UNL A   1      34.052  32.627  27.952  1.00  0.00     0.275 C 
BRANCH  27  28
ATOM     28  O   UNL A   1      35.233  31.855  28.244  1.00  0.00    -0.458 OA
BRANCH  28  29
ATOM     29  C   UNL A   1      35.128  30.527  28.015  1.00  0.00     0.338 C 
ATOM     30  O   UNL A   1      34.149  29.898  27.654  1.00  0.00    -0.246 OA
BRANCH  29  31
ATOM     31  C   UNL A   1      36.427  29.885  28.264  1.00  0.00     0.060 A 
ATOM     32  C   UNL A   1      36.647  29.215  29.465  1.00  0.00     0.016 A 
ATOM     33  C   UNL A   1      37.468  30.071  27.359  1.00  0.00     0.016 A 
ATOM     34  C   UNL A   1      37.933  28.810  29.814  1.00  0.00     0.010 A 
ATOM     35  C   UNL A   1      38.737  29.571  27.664  1.00  0.00     0.010 A 
ATOM     36  C   UNL A   1      38.995  28.968  28.911  1.00  0.00    -0.014 A 
BRANCH  36  37
ATOM     37  C   UNL A   1      40.380  28.544  29.260  1.00  0.00     0.031 A 
ATOM     38  C   UNL A   1      41.258  29.456  30.075  1.00  0.00     0.074 A 
ATOM     39  C   UNL A   1      40.866  27.363  28.833  1.00  0.00     0.049 A 
ATOM     40  N   UNL A   1      42.551  29.407  30.277  1.00  0.00    -0.248 NA
ATOM     41  C   UNL A   1      40.593  30.590  30.737  1.00  0.00     0.031 C 
ATOM     42  C   UNL A   1      40.117  26.353  28.086  1.00  0.00     0.029 A 
ATOM     43  N   UNL A   1      42.122  26.815  28.958  1.00  0.00    -0.354 N 
ATOM     44  C   UNL A   1      42.861  30.532  31.031  1.00  0.00     0.074 A 
ATOM     45  C   UNL A   1      41.622  31.247  31.251  1.00  0.00     0.031 C 
ATOM     46  C   UNL A   1      40.914  25.304  27.840  1.00  0.00     0.029 A 
ATOM     47  C   UNL A   1      42.255  25.603  28.327  1.00  0.00     0.049 A 
ATOM     48  H   UNL A   1      42.853  27.250  29.454  1.00  0.00     0.167 HD
ATOM     49  C   UNL A   1      44.071  30.930  31.492  1.00  0.00     0.037 A 
ATOM     50  C   UNL A   1      43.345  24.841  28.114  1.00  0.00     0.037 A 
ATOM     51  C   UNL A   1      45.289  30.181  31.320  1.00  0.00     0.049 A 
ATOM     52  C   UNL A   1      44.682  25.319  28.604  1.00  0.00     0.074 A 
ATOM     53  C   UNL A   1      46.564  30.488  31.764  1.00  0.00     0.029 A 
ATOM     54  N   UNL A   1      45.380  28.963  30.662  1.00  0.00    -0.354 N 
ATOM     55  N   UNL A   1      44.980  26.413  29.263  1.00  0.00    -0.248 NA
ATOM     56  C   UNL A   1      45.841  24.466  28.304  1.00  0.00     0.031 C 
ATOM     57  C   UNL A   1      47.432  29.476  31.343  1.00  0.00     0.029 A 
ATOM     58  C   UNL A   1      46.691  28.512  30.678  1.00  0.00     0.049 A 
ATOM     59  H   UNL A   1      44.624  28.489  30.245  1.00  0.00     0.167 HD
ATOM     60  C   UNL A   1      46.351  26.370  29.474  1.00  0.00     0.074 A 
ATOM     61  C   UNL A   1      46.827  25.135  28.886  1.00  0.00     0.031 C 
ATOM     62  C   UNL A   1      47.144  27.274  30.099  1.00  0.00     0.037 A 
BRANCH  49  63
ATOM     63  C   UNL A   1      44.149  32.252  32.200  1.00  0.00     0.064 A 
ATOM     64  C   UNL A   1      44.052  32.360  33.594  1.00  0.00     0.173 A 
ATOM     65  C   UNL A   1      44.365  33.430  31.467  1.00  0.00     0.173 A 
ATOM     66  F   UNL A   1      43.833  31.268  34.342  1.00  0.00    -0.203 F 
ATOM     67  C   UNL A   1      44.139  33.599  34.226  1.00  0.00     0.198 A 
ATOM     68  C   UNL A   1      44.481  34.663  32.103  1.00  0.00     0.198 A 
ATOM     69  F   UNL A   1      44.473  33.385  30.130  1.00  0.00    -0.203 F 
ATOM     70  F   UNL A   1      43.995  33.682  35.556  1.00  0.00    -0.200 F 
ATOM     71  C   UNL A   1      44.362  34.748  33.481  1.00  0.00     0.200 A 
ATOM     72  F   UNL A   1      44.711  35.770  31.382  1.00  0.00    -0.200 F 
ATOM     73  F   UNL A   1      44.453  35.937  34.091  1.00  0.00    -0.200 F 
ENDBRANCH  49  63
BRANCH  50  74
ATOM     74  C   UNL A   1      43.218  23.564  27.361  1.00  0.00     0.064 A 
ATOM     75  C   UNL A   1      42.683  22.420  27.968  1.00  0.00     0.173 A 
ATOM     76  C   UNL A   1      43.623  23.463  26.022  1.00  0.00     0.173 A 
ATOM     77  F   UNL A   1      42.309  22.459  29.256  1.00  0.00    -0.203 F 
ATOM     78  C   UNL A   1      42.565  21.222  27.267  1.00  0.00     0.198 A 
ATOM     79  C   UNL A   1      43.475  22.273  25.312  1.00  0.00     0.198 A 
ATOM     80  F   UNL A   1      44.146  24.527  25.395  1.00  0.00    -0.203 F 
ATOM     81  F   UNL A   1      42.090  20.131  27.884  1.00  0.00    -0.200 F 
ATOM     82  C   UNL A   1      42.952  21.152  25.938  1.00  0.00     0.200 A 
ATOM     83  F   UNL A   1      43.839  22.215  24.024  1.00  0.00    -0.200 F 
ATOM     84  F   UNL A   1      42.832  20.002  25.261  1.00  0.00    -0.200 F 
ENDBRANCH  50  74
BRANCH  62  85
ATOM     85  C   UNL A   1      48.602  26.940  30.219  1.00  0.00     0.064 A 
ATOM     86  C   UNL A   1      49.084  26.100  31.231  1.00  0.00     0.173 A 
ATOM     87  C   UNL A   1      49.519  27.439  29.282  1.00  0.00     0.173 A 
ATOM     88  F   UNL A   1      48.247  25.613  32.160  1.00  0.00    -0.203 F 
ATOM     89  C   UNL A   1      50.438  25.787  31.315  1.00  0.00     0.198 A 
ATOM     90  C   UNL A   1      50.868  27.102  29.352  1.00  0.00     0.198 A 
ATOM     91  F   UNL A   1      49.106  28.242  28.290  1.00  0.00    -0.203 F 
ATOM     92  F   UNL A   1      50.885  25.016  32.316  1.00  0.00    -0.200 F 
ATOM     93  C   UNL A   1      51.327  26.282  30.371  1.00  0.00     0.200 A 
ATOM     94  F   UNL A   1      51.724  27.570  28.432  1.00  0.00    -0.200 F 
ATOM     95  F   UNL A   1      52.628  25.972  30.449  1.00  0.00    -0.200 F 
ENDBRANCH  62  85
ENDBRANCH  36  37
ENDBRANCH  29  31
ENDBRANCH  28  29
ENDBRANCH  27  28
ENDBRANCH   1  27
TORSDOF 15
ENDMDL
MODEL 2
REMARK VINA RESULT:     -11.8      4.969     10.496
REMARK SMILES COc1c(C)cc(Br)cc1C(=O)Nc1ccc(O)c(C(=O)OCCOC(=O)c2ccc(-c3c4nc(c(-c5c(F)c(F)c(F)c(F)c5F)c5ccc([nH]5)c(-c5c(F)c(F)c(F)c(F)c5F)c5nc(c(-c6c(F)c(F)c(F)c(F)c6F)c6ccc3[nH]6)C=C5)C=C4)cc2)c1
REMARK SMILES IDX 23 1 22 2 20 3 21 4 19 5 14 6 15 7 91 8 16 9 17 10 13 11
REMARK SMILES IDX 11 12 12 13 10 15 3 16 4 17 5 18 6 19 9 20 7 21 8 22 2 23
REMARK SMILES IDX 1 24 18 25 24 27 25 28 26 29 27 30 28 31 29 32 90 33 30 34
REMARK SMILES IDX 89 35 31 36 32 37 33 38 83 39 34 40 88 41 82 42 84 43 35 44
REMARK SMILES IDX 87 45 81 46 80 47 36 49 68 50 48 51 67 52 49 53 52 54 66 55
REMARK SMILES IDX 85 56 50 57 51 58 65 60 86 61 53 62 37 63 38 64 46 65 39 66
REMARK SMILES IDX 40 67 44 68 47 69 41 70 42 71 45 72 43 73 69 74 70 75 78 76
REMARK SMILES IDX 71 77 72 78 76 79 79 80 73 81 74 82 77 83 75 84 54 85 55 86
REMARK SMILES IDX 63 87 56 88 57 89 61 90 64 91 58 92 59 93 62 94 60 95
REMARK H PARENT 13 14 18 26 84 48 52 59
REMARK Flexibility Score: inf
ROOT
ATOM      1  C   UNL A   1      31.214  29.719  24.853  1.00  0.00     0.275 C 
ENDROOT
BRANCH   1   2
ATOM      2  O   UNL A   1      32.088  28.578  24.931  1.00  0.00    -0.458 OA
BRANCH   2   3
ATOM      3  C   UNL A   1      32.748  28.242  23.803  1.00  0.00     0.342 C 
ATOM      4  O   UNL A   1      33.453  28.993  23.142  1.00  0.00    -0.246 OA
BRANCH   3   5
ATOM      5  C   UNL A   1      32.643  26.789  23.498  1.00  0.00     0.103 A 
ATOM      6  C   UNL A   1      32.247  24.564  24.404  1.00  0.00     0.042 A 
ATOM      7  C   UNL A   1      32.453  24.001  23.152  1.00  0.00     0.030 A 
ATOM      8  C   UNL A   1      32.294  25.949  24.571  1.00  0.00     0.045 A 
ATOM      9  C   UNL A   1      32.818  24.819  22.080  1.00  0.00     0.049 A 
ATOM     10  C   UNL A   1      32.942  26.204  22.259  1.00  0.00     0.130 A 
BRANCH   6  11
ATOM     11  N   UNL A   1      31.837  23.754  25.462  1.00  0.00    -0.322 N 
ATOM     12  C   UNL A   1      32.622  23.186  26.442  1.00  0.00     0.259 C 
ATOM     13  O   UNL A   1      32.137  23.122  27.577  1.00  0.00    -0.269 OA
ATOM     14  H   UNL A   1      30.872  23.565  25.515  1.00  0.00     0.170 HD
BRANCH  12  15
ATOM     15  C   UNL A   1      33.881  22.423  26.175  1.00  0.00     0.083 A 
ATOM     16  C   UNL A   1      34.028  21.092  25.727  1.00  0.00     0.134 A 
ATOM     17  C   UNL A   1      35.311  20.621  25.338  1.00  0.00    -0.007 A 
ATOM     18  C   UNL A   1      35.553  19.271  24.714  1.00  0.00     0.048 C 
ATOM     19  C   UNL A   1      36.434  21.450  25.491  1.00  0.00     0.023 A 
ATOM     20  C   UNL A   1      35.034  23.232  26.290  1.00  0.00     0.033 A 
ATOM     21  C   UNL A   1      36.293  22.745  25.961  1.00  0.00     0.019 A 
ATOM     22  Br  UNL A   1      37.808  23.866  26.085  1.00  0.00    -0.051 Br
BRANCH  16  23
ATOM     23  O   UNL A   1      32.915  20.316  25.534  1.00  0.00    -0.496 OA
ATOM     24  C   UNL A   1      32.411  20.339  24.196  1.00  0.00     0.278 C 
ENDBRANCH  16  23
ENDBRANCH  12  15
ENDBRANCH   6  11
BRANCH  10  25
ATOM     25  O   UNL A   1      33.449  26.951  21.234  1.00  0.00    -0.507 OA
ATOM     26  H   UNL A   1      32.889  27.532  20.757  1.00  0.00     0.293 HD
ENDBRANCH  10  25
ENDBRANCH   3   5
ENDBRANCH   2   3
ENDBRANCH   1   2
BRANCH   1  27
ATOM     27  C   UNL A   1      31.509  30.660  26.017  1.00  0.00     0.275 C 
BRANCH  27  28
ATOM     28  O   UNL A   1      32.927  30.694  26.269  1.00  0.00    -0.458 OA
BRANCH  28  29
ATOM     29  C   UNL A   1      33.342  31.660  27.119  1.00  0.00     0.338 C 
ATOM     30  O   UNL A   1      32.766  32.685  27.436  1.00  0.00    -0.246 OA
BRANCH  29  31
ATOM     31  C   UNL A   1      34.660  31.299  27.660  1.00  0.00     0.060 A 
ATOM     32  C   UNL A   1      34.919  29.980  28.027  1.00  0.00     0.016 A 
ATOM     33  C   UNL A   1      35.588  32.301  27.931  1.00  0.00     0.016 A 
ATOM     34  C   UNL A   1      36.067  29.669  28.752  1.00  0.00     0.010 A 
ATOM     35  C   UNL A   1      36.787  31.969  28.567  1.00  0.00     0.010 A 
ATOM     36  C   UNL A   1      37.025  30.657  29.020  1.00  0.00    -0.014 A 
BRANCH  36  37
ATOM     37  C   UNL A   1      38.260  30.349  29.795  1.00  0.00     0.031 A 
ATOM     38  C   UNL A   1      39.296  29.424  29.215  1.00  0.00     0.074 A 
ATOM     39  C   UNL A   1      38.449  30.870  31.024  1.00  0.00     0.049 A 
ATOM     40  N   UNL A   1      40.303  28.827  29.803  1.00  0.00    -0.248 NA
ATOM     41  C   UNL A   1      39.169  29.111  27.783  1.00  0.00     0.031 C 
ATOM     42  C   UNL A   1      37.562  31.823  31.690  1.00  0.00     0.029 A 
ATOM     43  N   UNL A   1      39.452  30.656  31.939  1.00  0.00    -0.354 N 
ATOM     44  C   UNL A   1      40.887  28.023  28.831  1.00  0.00     0.074 A 
ATOM     45  C   UNL A   1      40.123  28.206  27.617  1.00  0.00     0.031 C 
ATOM     46  C   UNL A   1      38.069  32.131  32.892  1.00  0.00     0.029 A 
ATOM     47  C   UNL A   1      39.263  31.328  33.123  1.00  0.00     0.049 A 
ATOM     48  H   UNL A   1      40.230  30.080  31.763  1.00  0.00     0.167 HD
ATOM     49  C   UNL A   1      41.961  27.205  28.949  1.00  0.00     0.037 A 
ATOM     50  C   UNL A   1      39.942  31.264  34.285  1.00  0.00     0.037 A 
ATOM     51  C   UNL A   1      42.751  27.074  30.146  1.00  0.00     0.049 A 
ATOM     52  C   UNL A   1      41.108  30.323  34.403  1.00  0.00     0.074 A 
ATOM     53  C   UNL A   1      43.869  26.286  30.362  1.00  0.00     0.029 A 
ATOM     54  N   UNL A   1      42.516  27.764  31.326  1.00  0.00    -0.354 N 
ATOM     55  N   UNL A   1      41.619  29.520  33.501  1.00  0.00    -0.248 NA
ATOM     56  C   UNL A   1      41.781  30.265  35.708  1.00  0.00     0.031 C 
ATOM     57  C   UNL A   1      44.287  26.471  31.684  1.00  0.00     0.029 A 
ATOM     58  C   UNL A   1      43.460  27.410  32.278  1.00  0.00     0.049 A 
ATOM     59  H   UNL A   1      41.785  28.409  31.467  1.00  0.00     0.167 HD
ATOM     60  C   UNL A   1      42.683  28.879  34.119  1.00  0.00     0.074 A 
ATOM     61  C   UNL A   1      42.754  29.396  35.471  1.00  0.00     0.031 C 
ATOM     62  C   UNL A   1      43.524  27.945  33.614  1.00  0.00     0.037 A 
BRANCH  49  63
ATOM     63  C   UNL A   1      42.328  26.359  27.764  1.00  0.00     0.064 A 
ATOM     64  C   UNL A   1      43.312  26.748  26.844  1.00  0.00     0.173 A 
ATOM     65  C   UNL A   1      41.707  25.114  27.570  1.00  0.00     0.173 A 
ATOM     66  F   UNL A   1      43.927  27.933  26.975  1.00  0.00    -0.203 F 
ATOM     67  C   UNL A   1      43.640  25.937  25.759  1.00  0.00     0.198 A 
ATOM     68  C   UNL A   1      42.058  24.293  26.502  1.00  0.00     0.198 A 
ATOM     69  F   UNL A   1      40.763  24.688  28.424  1.00  0.00    -0.203 F 
ATOM     70  F   UNL A   1      44.550  26.352  24.867  1.00  0.00    -0.200 F 
ATOM     71  C   UNL A   1      43.020  24.708  25.593  1.00  0.00     0.200 A 
ATOM     72  F   UNL A   1      41.467  23.099  26.352  1.00  0.00    -0.200 F 
ATOM     73  F   UNL A   1      43.343  23.927  24.554  1.00  0.00    -0.200 F 
ENDBRANCH  49  63
BRANCH  50  74
ATOM     74  C   UNL A   1      39.502  32.086  35.443  1.00  0.00     0.064 A 
ATOM     75  C   UNL A   1      38.603  31.575  36.389  1.00  0.00     0.173 A 
ATOM     76  C   UNL A   1      39.974  33.394  35.631  1.00  0.00     0.173 A 
ATOM     77  F   UNL A   1      38.101  30.341  36.237  1.00  0.00    -0.203 F 
ATOM     78  C   UNL A   1      38.186  32.344  37.475  1.00  0.00     0.198 A 
ATOM     79  C   UNL A   1      39.580  34.150  36.733  1.00  0.00     0.198 A 
ATOM     80  F   UNL A   1      40.831  33.932  34.752  1.00  0.00    -0.203 F 
ATOM     81  F   UNL A   1      37.293  31.847  38.340  1.00  0.00    -0.200 F 
ATOM     82  C   UNL A   1      38.682  33.626  37.650  1.00  0.00     0.200 A 
ATOM     83  F   UNL A   1      40.073  35.385  36.906  1.00  0.00    -0.200 F 
ATOM     84  F   UNL A   1      38.287  34.362  38.698  1.00  0.00    -0.200 F 
ENDBRANCH  50  74
BRANCH  62  85
ATOM     85  C   UNL A   1      44.623  27.454  34.509  1.00  0.00     0.064 A 
ATOM     86  C   UNL A   1      44.471  26.309  35.302  1.00  0.00     0.173 A 
ATOM     87  C   UNL A   1      45.858  28.120  34.540  1.00  0.00     0.173 A 
ATOM     88  F   UNL A   1      43.303  25.649  35.318  1.00  0.00    -0.203 F 
ATOM     89  C   UNL A   1      45.510  25.859  36.112  1.00  0.00     0.198 A 
ATOM     90  C   UNL A   1      46.903  27.651  35.331  1.00  0.00     0.198 A 
ATOM     91  F   UNL A   1      46.055  29.217  33.795  1.00  0.00    -0.203 F 
ATOM     92  F   UNL A   1      45.329  24.786  36.895  1.00  0.00    -0.200 F 
ATOM     93  C   UNL A   1      46.727  26.525  36.120  1.00  0.00     0.200 A 
ATOM     94  F   UNL A   1      48.083  28.288  35.327  1.00  0.00    -0.200 F 
ATOM     95  F   UNL A   1      47.727  26.084  36.894  1.00  0.00    -0.200 F 
ENDBRANCH  62  85
ENDBRANCH  36  37
ENDBRANCH  29  31
ENDBRANCH  28  29
ENDBRANCH  27  28
ENDBRANCH   1  27
TORSDOF 15
ENDMDL
MODEL 3
REMARK VINA RESULT:     -11.7      4.631      8.138
REMARK SMILES COc1c(C)cc(Br)cc1C(=O)Nc1ccc(O)c(C(=O)OCCOC(=O)c2ccc(-c3c4nc(c(-c5c(F)c(F)c(F)c(F)c5F)c5ccc([nH]5)c(-c5c(F)c(F)c(F)c(F)c5F)c5nc(c(-c6c(F)c(F)c(F)c(F)c6F)c6ccc3[nH]6)C=C5)C=C4)cc2)c1
REMARK SMILES IDX 23 1 22 2 20 3 21 4 19 5 14 6 15 7 91 8 16 9 17 10 13 11
REMARK SMILES IDX 11 12 12 13 10 15 3 16 4 17 5 18 6 19 9 20 7 21 8 22 2 23
REMARK SMILES IDX 1 24 18 25 24 27 25 28 26 29 27 30 28 31 29 32 90 33 30 34
REMARK SMILES IDX 89 35 31 36 32 37 33 38 83 39 34 40 88 41 82 42 84 43 35 44
REMARK SMILES IDX 87 45 81 46 80 47 36 49 68 50 48 51 67 52 49 53 52 54 66 55
REMARK SMILES IDX 85 56 50 57 51 58 65 60 86 61 53 62 37 63 38 64 46 65 39 66
REMARK SMILES IDX 40 67 44 68 47 69 41 70 42 71 45 72 43 73 69 74 70 75 78 76
REMARK SMILES IDX 71 77 72 78 76 79 79 80 73 81 74 82 77 83 75 84 54 85 55 86
REMARK SMILES IDX 63 87 56 88 57 89 61 90 64 91 58 92 59 93 62 94 60 95
REMARK H PARENT 13 14 18 26 84 48 52 59
REMARK Flexibility Score: inf
ROOT
ATOM      1  C   UNL A   1      34.068  35.408  28.683  1.00  0.00     0.275 C 
ENDROOT
BRANCH   1   2
ATOM      2  O   UNL A   1      34.259  34.135  28.040  1.00  0.00    -0.458 OA
BRANCH   2   3
ATOM      3  C   UNL A   1      35.383  33.458  28.358  1.00  0.00     0.342 C 
ATOM      4  O   UNL A   1      36.350  33.923  28.948  1.00  0.00    -0.246 OA
BRANCH   3   5
ATOM      5  C   UNL A   1      35.282  32.010  28.032  1.00  0.00     0.103 A 
ATOM      6  C   UNL A   1      33.787  30.109  27.747  1.00  0.00     0.042 A 
ATOM      7  C   UNL A   1      34.870  29.277  27.492  1.00  0.00     0.030 A 
ATOM      8  C   UNL A   1      33.983  31.473  27.968  1.00  0.00     0.045 A 
ATOM      9  C   UNL A   1      36.166  29.791  27.569  1.00  0.00     0.049 A 
ATOM     10  C   UNL A   1      36.373  31.144  27.867  1.00  0.00     0.130 A 
BRANCH   6  11
ATOM     11  N   UNL A   1      32.493  29.607  27.625  1.00  0.00    -0.322 N 
ATOM     12  C   UNL A   1      32.111  28.352  27.201  1.00  0.00     0.259 C 
ATOM     13  O   UNL A   1      31.133  27.847  27.763  1.00  0.00    -0.269 OA
ATOM     14  H   UNL A   1      31.763  30.222  27.870  1.00  0.00     0.170 HD
BRANCH  12  15
ATOM     15  C   UNL A   1      32.624  27.691  25.960  1.00  0.00     0.083 A 
ATOM     16  C   UNL A   1      32.698  28.211  24.650  1.00  0.00     0.134 A 
ATOM     17  C   UNL A   1      33.410  27.494  23.650  1.00  0.00    -0.007 A 
ATOM     18  C   UNL A   1      33.669  28.026  22.264  1.00  0.00     0.048 C 
ATOM     19  C   UNL A   1      33.950  26.233  23.948  1.00  0.00     0.023 A 
ATOM     20  C   UNL A   1      33.204  26.430  26.224  1.00  0.00     0.033 A 
ATOM     21  C   UNL A   1      33.849  25.710  25.227  1.00  0.00     0.019 A 
ATOM     22  Br  UNL A   1      34.652  24.046  25.623  1.00  0.00    -0.051 Br
BRANCH  16  23
ATOM     23  O   UNL A   1      32.211  29.465  24.391  1.00  0.00    -0.496 OA
ATOM     24  C   UNL A   1      30.816  29.498  24.081  1.00  0.00     0.278 C 
ENDBRANCH  16  23
ENDBRANCH  12  15
ENDBRANCH   6  11
BRANCH  10  25
ATOM     25  O   UNL A   1      37.650  31.576  28.085  1.00  0.00    -0.507 OA
ATOM     26  H   UNL A   1      38.336  31.327  27.497  1.00  0.00     0.293 HD
ENDBRANCH  10  25
ENDBRANCH   3   5
ENDBRANCH   2   3
ENDBRANCH   1   2
BRANCH   1  27
ATOM     27  C   UNL A   1      32.849  35.332  29.598  1.00  0.00     0.275 C 
BRANCH  27  28
ATOM     28  O   UNL A   1      32.956  36.326  30.635  1.00  0.00    -0.458 OA
BRANCH  28  29
ATOM     29  C   UNL A   1      32.585  35.919  31.869  1.00  0.00     0.338 C 
ATOM     30  O   UNL A   1      31.518  36.088  32.430  1.00  0.00    -0.246 OA
BRANCH  29  31
ATOM     31  C   UNL A   1      33.697  35.191  32.497  1.00  0.00     0.060 A 
ATOM     32  C   UNL A   1      34.969  35.760  32.522  1.00  0.00     0.016 A 
ATOM     33  C   UNL A   1      33.501  33.884  32.936  1.00  0.00     0.016 A 
ATOM     34  C   UNL A   1      36.070  34.994  32.897  1.00  0.00     0.010 A 
ATOM     35  C   UNL A   1      34.592  33.150  33.409  1.00  0.00     0.010 A 
ATOM     36  C   UNL A   1      35.895  33.682  33.361  1.00  0.00    -0.014 A 
BRANCH  36  37
ATOM     37  C   UNL A   1      37.057  32.842  33.766  1.00  0.00     0.031 A 
ATOM     38  C   UNL A   1      37.717  33.070  35.100  1.00  0.00     0.074 A 
ATOM     39  C   UNL A   1      37.544  31.896  32.939  1.00  0.00     0.049 A 
ATOM     40  N   UNL A   1      38.872  32.642  35.543  1.00  0.00    -0.248 NA
ATOM     41  C   UNL A   1      36.984  33.913  36.059  1.00  0.00     0.031 C 
ATOM     42  C   UNL A   1      36.977  31.523  31.644  1.00  0.00     0.029 A 
ATOM     43  N   UNL A   1      38.643  31.079  33.065  1.00  0.00    -0.354 N 
ATOM     44  C   UNL A   1      39.032  33.212  36.800  1.00  0.00     0.074 A 
ATOM     45  C   UNL A   1      37.857  34.018  37.050  1.00  0.00     0.031 C 
ATOM     46  C   UNL A   1      37.712  30.540  31.106  1.00  0.00     0.029 A 
ATOM     47  C   UNL A   1      38.856  30.276  31.971  1.00  0.00     0.049 A 
ATOM     48  H   UNL A   1      39.219  31.068  33.863  1.00  0.00     0.167 HD
ATOM     49  C   UNL A   1      40.069  33.076  37.662  1.00  0.00     0.037 A 
ATOM     50  C   UNL A   1      39.884  29.460  31.669  1.00  0.00     0.037 A 
ATOM     51  C   UNL A   1      41.207  32.224  37.430  1.00  0.00     0.049 A 
ATOM     52  C   UNL A   1      41.039  29.352  32.623  1.00  0.00     0.074 A 
ATOM     53  C   UNL A   1      42.302  32.002  38.248  1.00  0.00     0.029 A 
ATOM     54  N   UNL A   1      41.387  31.438  36.300  1.00  0.00    -0.354 N 
ATOM     55  N   UNL A   1      41.215  29.940  33.782  1.00  0.00    -0.248 NA
ATOM     56  C   UNL A   1      42.152  28.480  32.220  1.00  0.00     0.031 C 
ATOM     57  C   UNL A   1      43.163  31.112  37.597  1.00  0.00     0.029 A 
ATOM     58  C   UNL A   1      42.582  30.741  36.395  1.00  0.00     0.049 A 
ATOM     59  H   UNL A   1      40.760  31.385  35.543  1.00  0.00     0.167 HD
ATOM     60  C   UNL A   1      42.441  29.495  34.254  1.00  0.00     0.074 A 
ATOM     61  C   UNL A   1      42.963  28.576  33.264  1.00  0.00     0.031 C 
ATOM     62  C   UNL A   1      43.078  29.820  35.405  1.00  0.00     0.037 A 
BRANCH  49  63
ATOM     63  C   UNL A   1      40.042  33.890  38.923  1.00  0.00     0.064 A 
ATOM     64  C   UNL A   1      40.659  35.145  39.015  1.00  0.00     0.173 A 
ATOM     65  C   UNL A   1      39.349  33.418  40.050  1.00  0.00     0.173 A 
ATOM     66  F   UNL A   1      41.345  35.638  37.972  1.00  0.00    -0.203 F 
ATOM     67  C   UNL A   1      40.609  35.885  40.195  1.00  0.00     0.198 A 
ATOM     68  C   UNL A   1      39.276  34.173  41.218  1.00  0.00     0.198 A 
ATOM     69  F   UNL A   1      38.734  32.226  40.016  1.00  0.00    -0.203 F 
ATOM     70  F   UNL A   1      41.247  37.061  40.274  1.00  0.00    -0.200 F 
ATOM     71  C   UNL A   1      39.911  35.402  41.292  1.00  0.00     0.200 A 
ATOM     72  F   UNL A   1      38.589  33.710  42.272  1.00  0.00    -0.200 F 
ATOM     73  F   UNL A   1      39.857  36.119  42.423  1.00  0.00    -0.200 F 
ENDBRANCH  49  63
BRANCH  50  74
ATOM     74  C   UNL A   1      39.883  28.716  30.381  1.00  0.00     0.064 A 
ATOM     75  C   UNL A   1      40.425  29.286  29.221  1.00  0.00     0.173 A 
ATOM     76  C   UNL A   1      39.347  27.423  30.284  1.00  0.00     0.173 A 
ATOM     77  F   UNL A   1      40.922  30.531  29.256  1.00  0.00    -0.203 F 
ATOM     78  C   UNL A   1      40.423  28.593  28.011  1.00  0.00     0.198 A 
ATOM     79  C   UNL A   1      39.375  26.720  29.082  1.00  0.00     0.198 A 
ATOM     80  F   UNL A   1      38.812  26.835  31.364  1.00  0.00    -0.203 F 
ATOM     81  F   UNL A   1      40.907  29.177  26.907  1.00  0.00    -0.200 F 
ATOM     82  C   UNL A   1      39.907  27.308  27.945  1.00  0.00     0.200 A 
ATOM     83  F   UNL A   1      38.887  25.473  29.026  1.00  0.00    -0.200 F 
ATOM     84  F   UNL A   1      39.912  26.640  26.784  1.00  0.00    -0.200 F 
ENDBRANCH  50  74
BRANCH  62  85
ATOM     85  C   UNL A   1      44.390  29.144  35.678  1.00  0.00     0.064 A 
ATOM     86  C   UNL A   1      44.461  27.927  36.369  1.00  0.00     0.173 A 
ATOM     87  C   UNL A   1      45.585  29.705  35.205  1.00  0.00     0.173 A 
ATOM     88  F   UNL A   1      43.346  27.360  36.855  1.00  0.00    -0.203 F 
ATOM     89  C   UNL A   1      45.686  27.305  36.596  1.00  0.00     0.198 A 
ATOM     90  C   UNL A   1      46.805  29.067  35.410  1.00  0.00     0.198 A 
ATOM     91  F   UNL A   1      45.569  30.865  34.532  1.00  0.00    -0.203 F 
ATOM     92  F   UNL A   1      45.736  26.163  37.296  1.00  0.00    -0.200 F 
ATOM     93  C   UNL A   1      46.855  27.871  36.110  1.00  0.00     0.200 A 
ATOM     94  F   UNL A   1      47.933  29.609  34.928  1.00  0.00    -0.200 F 
ATOM     95  F   UNL A   1      48.032  27.266  36.322  1.00  0.00    -0.200 F 
ENDBRANCH  62  85
ENDBRANCH  36  37
ENDBRANCH  29  31
ENDBRANCH  28  29
ENDBRANCH  27  28
ENDBRANCH   1  27
TORSDOF 15
ENDMDL
