MODEL 1
REMARK VINA RESULT:     -12.9      0.000      0.000
REMARK SMILES COc1ccc(C2=NN(C(=O)CCC(=O)OCCOC(=O)c3ccc(-c4c5nc(c(-c6c(F)c(F)c(F)c(F)c6F)c6ccc([nH]6)c(-c6c(F)c(F)c(F)c(F)c6F)c6nc(c(-c7c(F)c(F)c(F)c(F)c7F)c7ccc4[nH]7)C=C6)C=C5)cc3)[C@H](c3ccc(Cl)cc3Cl)C2)cc1
REMARK SMILES IDX 16 1 14 2 15 3 13 4 12 5 10 6 11 7 9 8 7 9 8 10 94 11 85 12
REMARK SMILES IDX 6 13 3 14 4 15 96 16 5 17 95 18 2 19 1 20 86 21 87 22 92 23
REMARK SMILES IDX 88 24 91 25 93 26 89 27 90 28 17 29 18 30 19 31 20 32 21 33
REMARK SMILES IDX 22 34 23 35 84 36 24 37 83 38 25 39 26 40 27 41 77 42 28 43
REMARK SMILES IDX 82 44 76 45 78 46 29 47 81 48 75 49 74 50 30 52 62 53 42 54
REMARK SMILES IDX 61 55 43 56 46 57 60 58 79 59 44 60 45 61 59 63 80 64 47 65
REMARK SMILES IDX 31 66 32 67 40 68 33 69 34 70 38 71 41 72 35 73 36 74 39 75
REMARK SMILES IDX 37 76 63 77 64 78 72 79 65 80 66 81 70 82 73 83 67 84 68 85
REMARK SMILES IDX 71 86 69 87 48 88 49 89 57 90 50 91 51 92 55 93 58 94 52 95
REMARK SMILES IDX 53 96 56 97 54 98
REMARK H PARENT 78 51 46 62
REMARK Flexibility Score: inf
ROOT
ATOM      1  O   UNL A   1      31.029  28.276  25.213  1.00  0.00    -0.462 OA
ENDROOT
BRANCH   1   2
ATOM      2  C   UNL A   1      30.675  26.994  24.928  1.00  0.00     0.306 C 
ATOM      3  O   UNL A   1      30.330  26.597  23.821  1.00  0.00    -0.252 OA
BRANCH   2   4
ATOM      4  C   UNL A   1      30.709  26.109  26.150  1.00  0.00     0.132 C 
BRANCH   4   5
ATOM      5  C   UNL A   1      29.953  24.793  25.991  1.00  0.00     0.114 C 
BRANCH   5   6
ATOM      6  C   UNL A   1      30.806  23.615  26.429  1.00  0.00     0.243 C 
ATOM      7  O   UNL A   1      30.796  23.316  27.629  1.00  0.00    -0.273 OA
BRANCH   6   8
ATOM      8  N   UNL A   1      31.614  22.973  25.488  1.00  0.00    -0.225 N 
ATOM      9  C   UNL A   1      32.362  21.038  24.898  1.00  0.00     0.071 C 
ATOM     10  N   UNL A   1      31.276  21.644  25.244  1.00  0.00    -0.174 NA
ATOM     11  C   UNL A   1      33.562  21.888  24.698  1.00  0.00     0.091 C 
ATOM     12  C   UNL A   1      33.023  23.243  25.145  1.00  0.00     0.149 C 
BRANCH   9  13
ATOM     13  C   UNL A   1      32.500  19.597  24.730  1.00  0.00    -0.002 A 
ATOM     14  C   UNL A   1      33.042  16.896  24.465  1.00  0.00     0.118 A 
ATOM     15  C   UNL A   1      32.922  17.702  23.328  1.00  0.00     0.047 A 
ATOM     16  C   UNL A   1      32.903  17.445  25.741  1.00  0.00     0.047 A 
ATOM     17  C   UNL A   1      32.635  19.059  23.455  1.00  0.00     0.014 A 
ATOM     18  C   UNL A   1      32.628  18.804  25.876  1.00  0.00     0.014 A 
BRANCH  14  19
ATOM     19  O   UNL A   1      33.365  15.584  24.251  1.00  0.00    -0.497 OA
ATOM     20  C   UNL A   1      33.084  14.756  25.377  1.00  0.00     0.278 C 
ENDBRANCH  14  19
ENDBRANCH   9  13
BRANCH  12  21
ATOM     21  C   UNL A   1      33.474  24.366  24.201  1.00  0.00    -0.004 A 
ATOM     22  C   UNL A   1      33.929  25.557  24.845  1.00  0.00     0.009 A 
ATOM     23  C   UNL A   1      33.281  24.448  22.814  1.00  0.00     0.047 A 
ATOM     24  C   UNL A   1      34.089  26.767  24.168  1.00  0.00     0.021 A 
ATOM     25  C   UNL A   1      33.409  25.677  22.138  1.00  0.00     0.041 A 
ATOM     26  Cl  UNL A   1      32.897  23.100  21.813  1.00  0.00    -0.084 Cl
ATOM     27  C   UNL A   1      33.786  26.830  22.820  1.00  0.00     0.042 A 
ATOM     28  Cl  UNL A   1      33.852  28.340  22.001  1.00  0.00    -0.084 Cl
ENDBRANCH  12  21
ENDBRANCH   6   8
ENDBRANCH   5   6
ENDBRANCH   4   5
ENDBRANCH   2   4
ENDBRANCH   1   2
BRANCH   1  29
ATOM     29  C   UNL A   1      31.768  28.480  26.437  1.00  0.00     0.274 C 
BRANCH  29  30
ATOM     30  C   UNL A   1      31.876  29.956  26.844  1.00  0.00     0.275 C 
BRANCH  30  31
ATOM     31  O   UNL A   1      33.088  30.584  26.384  1.00  0.00    -0.458 OA
BRANCH  31  32
ATOM     32  C   UNL A   1      33.611  31.467  27.258  1.00  0.00     0.338 C 
ATOM     33  O   UNL A   1      33.106  32.504  27.632  1.00  0.00    -0.246 OA
BRANCH  32  34
ATOM     34  C   UNL A   1      34.879  31.048  27.825  1.00  0.00     0.060 A 
ATOM     35  C   UNL A   1      35.861  32.028  28.003  1.00  0.00     0.016 A 
ATOM     36  C   UNL A   1      35.140  29.697  28.037  1.00  0.00     0.016 A 
ATOM     37  C   UNL A   1      37.107  31.661  28.482  1.00  0.00     0.010 A 
ATOM     38  C   UNL A   1      36.387  29.330  28.527  1.00  0.00     0.010 A 
ATOM     39  C   UNL A   1      37.354  30.316  28.789  1.00  0.00    -0.014 A 
BRANCH  39  40
ATOM     40  C   UNL A   1      38.537  29.966  29.591  1.00  0.00     0.031 A 
ATOM     41  C   UNL A   1      39.544  28.984  29.103  1.00  0.00     0.074 A 
ATOM     42  C   UNL A   1      38.624  30.534  30.807  1.00  0.00     0.049 A 
ATOM     43  N   UNL A   1      40.585  28.504  29.730  1.00  0.00    -0.248 NA
ATOM     44  C   UNL A   1      39.359  28.467  27.740  1.00  0.00     0.031 C 
ATOM     45  C   UNL A   1      37.666  31.502  31.351  1.00  0.00     0.029 A 
ATOM     46  N   UNL A   1      39.537  30.368  31.811  1.00  0.00    -0.354 N 
ATOM     47  C   UNL A   1      41.182  27.622  28.842  1.00  0.00     0.074 A 
ATOM     48  C   UNL A   1      40.378  27.621  27.637  1.00  0.00     0.031 C 
ATOM     49  C   UNL A   1      38.036  31.838  32.592  1.00  0.00     0.029 A 
ATOM     50  C   UNL A   1      39.229  31.079  32.944  1.00  0.00     0.049 A 
ATOM     51  H   UNL A   1      40.335  29.797  31.730  1.00  0.00     0.167 HD
ATOM     52  C   UNL A   1      42.303  26.887  29.034  1.00  0.00     0.037 A 
ATOM     53  C   UNL A   1      39.828  31.089  34.146  1.00  0.00     0.037 A 
ATOM     54  C   UNL A   1      43.071  26.902  30.254  1.00  0.00     0.049 A 
ATOM     55  C   UNL A   1      41.043  30.234  34.340  1.00  0.00     0.074 A 
ATOM     56  C   UNL A   1      44.243  26.225  30.548  1.00  0.00     0.029 A 
ATOM     57  N   UNL A   1      42.734  27.628  31.390  1.00  0.00    -0.354 N 
ATOM     58  N   UNL A   1      41.628  29.430  33.484  1.00  0.00    -0.248 NA
ATOM     59  C   UNL A   1      41.682  30.284  35.658  1.00  0.00     0.031 C 
ATOM     60  C   UNL A   1      44.587  26.507  31.875  1.00  0.00     0.029 A 
ATOM     61  C   UNL A   1      43.656  27.392  32.397  1.00  0.00     0.049 A 
ATOM     62  H   UNL A   1      41.952  28.222  31.467  1.00  0.00     0.167 HD
ATOM     63  C   UNL A   1      42.706  28.879  34.155  1.00  0.00     0.074 A 
ATOM     64  C   UNL A   1      42.707  29.462  35.484  1.00  0.00     0.031 C 
ATOM     65  C   UNL A   1      43.613  27.973  33.716  1.00  0.00     0.037 A 
BRANCH  52  66
ATOM     66  C   UNL A   1      42.744  25.990  27.917  1.00  0.00     0.064 A 
ATOM     67  C   UNL A   1      43.658  26.421  26.944  1.00  0.00     0.173 A 
ATOM     68  C   UNL A   1      42.274  24.671  27.836  1.00  0.00     0.173 A 
ATOM     69  F   UNL A   1      44.129  27.677  26.969  1.00  0.00    -0.203 F 
ATOM     70  C   UNL A   1      44.070  25.570  25.920  1.00  0.00     0.198 A 
ATOM     71  C   UNL A   1      42.705  23.816  26.824  1.00  0.00     0.198 A 
ATOM     72  F   UNL A   1      41.400  24.208  28.742  1.00  0.00    -0.203 F 
ATOM     73  F   UNL A   1      44.917  26.015  24.981  1.00  0.00    -0.200 F 
ATOM     74  C   UNL A   1      43.598  24.268  25.864  1.00  0.00     0.200 A 
ATOM     75  F   UNL A   1      42.253  22.556  26.776  1.00  0.00    -0.200 F 
ATOM     76  F   UNL A   1      43.999  23.449  24.882  1.00  0.00    -0.200 F 
ENDBRANCH  52  66
BRANCH  53  77
ATOM     77  C   UNL A   1      39.271  31.930  35.233  1.00  0.00     0.064 A 
ATOM     78  C   UNL A   1      38.458  31.374  36.227  1.00  0.00     0.173 A 
ATOM     79  C   UNL A   1      39.589  33.293  35.330  1.00  0.00     0.173 A 
ATOM     80  F   UNL A   1      38.119  30.078  36.168  1.00  0.00    -0.203 F 
ATOM     81  C   UNL A   1      37.977  32.152  37.278  1.00  0.00     0.198 A 
ATOM     82  C   UNL A   1      39.128  34.064  36.394  1.00  0.00     0.198 A 
ATOM     83  F   UNL A   1      40.374  33.868  34.408  1.00  0.00    -0.203 F 
ATOM     84  F   UNL A   1      37.181  31.602  38.205  1.00  0.00    -0.200 F 
ATOM     85  C   UNL A   1      38.320  33.494  37.366  1.00  0.00     0.200 A 
ATOM     86  F   UNL A   1      39.477  35.354  36.484  1.00  0.00    -0.200 F 
ATOM     87  F   UNL A   1      37.870  34.237  38.385  1.00  0.00    -0.200 F 
ENDBRANCH  53  77
BRANCH  65  88
ATOM     88  C   UNL A   1      44.669  27.561  34.694  1.00  0.00     0.064 A 
ATOM     89  C   UNL A   1      45.872  28.274  34.809  1.00  0.00     0.173 A 
ATOM     90  C   UNL A   1      44.473  26.453  35.530  1.00  0.00     0.173 A 
ATOM     91  F   UNL A   1      46.110  29.327  34.014  1.00  0.00    -0.203 F 
ATOM     92  C   UNL A   1      46.851  27.877  35.713  1.00  0.00     0.198 A 
ATOM     93  C   UNL A   1      45.445  26.074  36.450  1.00  0.00     0.198 A 
ATOM     94  F   UNL A   1      43.339  25.740  35.454  1.00  0.00    -0.203 F 
ATOM     95  F   UNL A   1      48.012  28.544  35.775  1.00  0.00    -0.200 F 
ATOM     96  C   UNL A   1      46.635  26.782  36.536  1.00  0.00     0.200 A 
ATOM     97  F   UNL A   1      45.233  25.020  37.249  1.00  0.00    -0.200 F 
ATOM     98  F   UNL A   1      47.580  26.401  37.407  1.00  0.00    -0.200 F 
ENDBRANCH  65  88
ENDBRANCH  39  40
ENDBRANCH  32  34
ENDBRANCH  31  32
ENDBRANCH  30  31
ENDBRANCH  29  30
ENDBRANCH   1  29
TORSDOF 17
ENDMDL
MODEL 2
REMARK VINA RESULT:     -12.8      4.647      9.630
REMARK SMILES COc1ccc(C2=NN(C(=O)CCC(=O)OCCOC(=O)c3ccc(-c4c5nc(c(-c6c(F)c(F)c(F)c(F)c6F)c6ccc([nH]6)c(-c6c(F)c(F)c(F)c(F)c6F)c6nc(c(-c7c(F)c(F)c(F)c(F)c7F)c7ccc4[nH]7)C=C6)C=C5)cc3)[C@H](c3ccc(Cl)cc3Cl)C2)cc1
REMARK SMILES IDX 16 1 14 2 15 3 13 4 12 5 10 6 11 7 9 8 7 9 8 10 94 11 85 12
REMARK SMILES IDX 6 13 3 14 4 15 96 16 5 17 95 18 2 19 1 20 86 21 87 22 92 23
REMARK SMILES IDX 88 24 91 25 93 26 89 27 90 28 17 29 18 30 19 31 20 32 21 33
REMARK SMILES IDX 22 34 23 35 84 36 24 37 83 38 25 39 26 40 27 41 77 42 28 43
REMARK SMILES IDX 82 44 76 45 78 46 29 47 81 48 75 49 74 50 30 52 62 53 42 54
REMARK SMILES IDX 61 55 43 56 46 57 60 58 79 59 44 60 45 61 59 63 80 64 47 65
REMARK SMILES IDX 31 66 32 67 40 68 33 69 34 70 38 71 41 72 35 73 36 74 39 75
REMARK SMILES IDX 37 76 63 77 64 78 72 79 65 80 66 81 70 82 73 83 67 84 68 85
REMARK SMILES IDX 71 86 69 87 48 88 49 89 57 90 50 91 51 92 55 93 58 94 52 95
REMARK SMILES IDX 53 96 56 97 54 98
REMARK H PARENT 78 51 46 62
REMARK Flexibility Score: inf
ROOT
ATOM      1  O   UNL A   1      37.187  21.376  24.309  1.00  0.00    -0.462 OA
ENDROOT
BRANCH   1   2
ATOM      2  C   UNL A   1      36.943  22.651  23.903  1.00  0.00     0.306 C 
ATOM      3  O   UNL A   1      36.653  22.973  22.758  1.00  0.00    -0.252 OA
BRANCH   2   4
ATOM      4  C   UNL A   1      37.114  23.647  25.024  1.00  0.00     0.132 C 
BRANCH   4   5
ATOM      5  C   UNL A   1      35.969  23.659  26.032  1.00  0.00     0.114 C 
BRANCH   5   6
ATOM      6  C   UNL A   1      34.735  24.328  25.450  1.00  0.00     0.243 C 
ATOM      7  O   UNL A   1      34.629  25.553  25.589  1.00  0.00    -0.273 OA
BRANCH   6   8
ATOM      8  N   UNL A   1      33.748  23.538  24.858  1.00  0.00    -0.225 N 
ATOM      9  C   UNL A   1      33.332  21.538  24.165  1.00  0.00     0.071 C 
ATOM     10  N   UNL A   1      33.827  22.182  25.169  1.00  0.00    -0.174 NA
ATOM     11  C   UNL A   1      32.699  22.354  23.099  1.00  0.00     0.091 C 
ATOM     12  C   UNL A   1      33.026  23.760  23.591  1.00  0.00     0.149 C 
BRANCH   9  13
ATOM     13  C   UNL A   1      33.385  20.092  23.989  1.00  0.00    -0.002 A 
ATOM     14  C   UNL A   1      33.289  17.330  23.861  1.00  0.00     0.118 A 
ATOM     15  C   UNL A   1      34.314  17.963  24.571  1.00  0.00     0.047 A 
ATOM     16  C   UNL A   1      32.300  18.079  23.222  1.00  0.00     0.047 A 
ATOM     17  C   UNL A   1      34.375  19.354  24.626  1.00  0.00     0.014 A 
ATOM     18  C   UNL A   1      32.348  19.471  23.284  1.00  0.00     0.014 A 
BRANCH  14  19
ATOM     19  O   UNL A   1      33.281  15.962  23.892  1.00  0.00    -0.497 OA
ATOM     20  C   UNL A   1      33.135  15.441  25.211  1.00  0.00     0.278 C 
ENDBRANCH  14  19
ENDBRANCH   9  13
BRANCH  12  21
ATOM     21  C   UNL A   1      31.822  24.701  23.446  1.00  0.00    -0.004 A 
ATOM     22  C   UNL A   1      31.866  25.578  22.320  1.00  0.00     0.009 A 
ATOM     23  C   UNL A   1      30.818  24.957  24.392  1.00  0.00     0.047 A 
ATOM     24  C   UNL A   1      31.029  26.687  22.195  1.00  0.00     0.021 A 
ATOM     25  C   UNL A   1      29.996  26.096  24.282  1.00  0.00     0.041 A 
ATOM     26  Cl  UNL A   1      30.475  23.935  25.735  1.00  0.00    -0.084 Cl
ATOM     27  C   UNL A   1      30.123  26.965  23.202  1.00  0.00     0.042 A 
ATOM     28  Cl  UNL A   1      29.176  28.398  23.126  1.00  0.00    -0.084 Cl
ENDBRANCH  12  21
ENDBRANCH   6   8
ENDBRANCH   5   6
ENDBRANCH   4   5
ENDBRANCH   2   4
ENDBRANCH   1   2
BRANCH   1  29
ATOM     29  C   UNL A   1      38.152  21.216  25.372  1.00  0.00     0.274 C 
BRANCH  29  30
ATOM     30  C   UNL A   1      38.993  19.938  25.243  1.00  0.00     0.275 C 
BRANCH  30  31
ATOM     31  O   UNL A   1      39.822  19.685  26.394  1.00  0.00    -0.458 OA
BRANCH  31  32
ATOM     32  C   UNL A   1      41.143  19.709  26.131  1.00  0.00     0.338 C 
ATOM     33  O   UNL A   1      41.796  18.828  25.612  1.00  0.00    -0.246 OA
BRANCH  32  34
ATOM     34  C   UNL A   1      41.783  20.968  26.464  1.00  0.00     0.060 A 
ATOM     35  C   UNL A   1      42.096  21.831  25.409  1.00  0.00     0.016 A 
ATOM     36  C   UNL A   1      42.196  21.220  27.770  1.00  0.00     0.016 A 
ATOM     37  C   UNL A   1      42.763  23.014  25.675  1.00  0.00     0.010 A 
ATOM     38  C   UNL A   1      42.857  22.412  28.039  1.00  0.00     0.010 A 
ATOM     39  C   UNL A   1      43.102  23.326  26.999  1.00  0.00    -0.014 A 
BRANCH  39  40
ATOM     40  C   UNL A   1      43.510  24.701  27.332  1.00  0.00     0.031 A 
ATOM     41  C   UNL A   1      42.537  25.691  27.869  1.00  0.00     0.074 A 
ATOM     42  C   UNL A   1      44.788  25.025  27.068  1.00  0.00     0.049 A 
ATOM     43  N   UNL A   1      42.722  26.960  28.121  1.00  0.00    -0.248 NA
ATOM     44  C   UNL A   1      41.181  25.203  28.155  1.00  0.00     0.031 C 
ATOM     45  C   UNL A   1      45.794  24.101  26.535  1.00  0.00     0.029 A 
ATOM     46  N   UNL A   1      45.456  26.212  27.187  1.00  0.00    -0.354 N 
ATOM     47  C   UNL A   1      41.505  27.428  28.592  1.00  0.00     0.074 A 
ATOM     48  C   UNL A   1      40.583  26.311  28.576  1.00  0.00     0.031 C 
ATOM     49  C   UNL A   1      46.948  24.757  26.363  1.00  0.00     0.029 A 
ATOM     50  C   UNL A   1      46.750  26.152  26.734  1.00  0.00     0.049 A 
ATOM     51  H   UNL A   1      45.049  27.028  27.559  1.00  0.00     0.167 HD
ATOM     52  C   UNL A   1      41.203  28.684  28.998  1.00  0.00     0.037 A 
ATOM     53  C   UNL A   1      47.664  27.127  26.603  1.00  0.00     0.037 A 
ATOM     54  C   UNL A   1      42.142  29.778  28.987  1.00  0.00     0.049 A 
ATOM     55  C   UNL A   1      47.286  28.515  27.024  1.00  0.00     0.074 A 
ATOM     56  C   UNL A   1      41.957  31.083  29.408  1.00  0.00     0.029 A 
ATOM     57  N   UNL A   1      43.447  29.691  28.518  1.00  0.00    -0.354 N 
ATOM     58  N   UNL A   1      46.145  28.946  27.505  1.00  0.00    -0.248 NA
ATOM     59  C   UNL A   1      48.315  29.550  26.884  1.00  0.00     0.031 C 
ATOM     60  C   UNL A   1      43.135  31.795  29.151  1.00  0.00     0.029 A 
ATOM     61  C   UNL A   1      44.070  30.926  28.610  1.00  0.00     0.049 A 
ATOM     62  H   UNL A   1      43.868  28.871  28.170  1.00  0.00     0.167 HD
ATOM     63  C   UNL A   1      46.315  30.301  27.732  1.00  0.00     0.074 A 
ATOM     64  C   UNL A   1      47.682  30.614  27.356  1.00  0.00     0.031 C 
ATOM     65  C   UNL A   1      45.425  31.206  28.205  1.00  0.00     0.037 A 
BRANCH  52  66
ATOM     66  C   UNL A   1      39.800  28.947  29.457  1.00  0.00     0.064 A 
ATOM     67  C   UNL A   1      38.815  29.421  28.578  1.00  0.00     0.173 A 
ATOM     68  C   UNL A   1      39.425  28.688  30.783  1.00  0.00     0.173 A 
ATOM     69  F   UNL A   1      39.124  29.695  27.301  1.00  0.00    -0.203 F 
ATOM     70  C   UNL A   1      37.511  29.645  29.016  1.00  0.00     0.198 A 
ATOM     71  C   UNL A   1      38.116  28.893  31.212  1.00  0.00     0.198 A 
ATOM     72  F   UNL A   1      40.328  28.232  31.664  1.00  0.00    -0.203 F 
ATOM     73  F   UNL A   1      36.595  30.133  28.168  1.00  0.00    -0.200 F 
ATOM     74  C   UNL A   1      37.162  29.376  30.330  1.00  0.00     0.200 A 
ATOM     75  F   UNL A   1      37.779  28.625  32.482  1.00  0.00    -0.200 F 
ATOM     76  F   UNL A   1      35.906  29.588  30.749  1.00  0.00    -0.200 F 
ENDBRANCH  52  66
BRANCH  53  77
ATOM     77  C   UNL A   1      49.000  26.805  26.047  1.00  0.00     0.064 A 
ATOM     78  C   UNL A   1      49.283  27.007  24.691  1.00  0.00     0.173 A 
ATOM     79  C   UNL A   1      50.037  26.344  26.873  1.00  0.00     0.173 A 
ATOM     80  F   UNL A   1      48.319  27.436  23.864  1.00  0.00    -0.203 F 
ATOM     81  C   UNL A   1      50.553  26.755  24.178  1.00  0.00     0.198 A 
ATOM     82  C   UNL A   1      51.313  26.116  26.363  1.00  0.00     0.198 A 
ATOM     83  F   UNL A   1      49.818  26.146  28.180  1.00  0.00    -0.203 F 
ATOM     84  F   UNL A   1      50.792  26.934  22.872  1.00  0.00    -0.200 F 
ATOM     85  C   UNL A   1      51.570  26.318  25.016  1.00  0.00     0.200 A 
ATOM     86  F   UNL A   1      52.296  25.712  27.180  1.00  0.00    -0.200 F 
ATOM     87  F   UNL A   1      52.795  26.092  24.524  1.00  0.00    -0.200 F 
ENDBRANCH  53  77
BRANCH  65  88
ATOM     88  C   UNL A   1      45.913  32.616  28.330  1.00  0.00     0.064 A 
ATOM     89  C   UNL A   1      46.540  33.067  29.500  1.00  0.00     0.173 A 
ATOM     90  C   UNL A   1      45.761  33.519  27.269  1.00  0.00     0.173 A 
ATOM     91  F   UNL A   1      46.686  32.244  30.548  1.00  0.00    -0.203 F 
ATOM     92  C   UNL A   1      46.981  34.382  29.610  1.00  0.00     0.198 A 
ATOM     93  C   UNL A   1      46.225  34.826  27.374  1.00  0.00     0.198 A 
ATOM     94  F   UNL A   1      45.166  33.132  26.130  1.00  0.00    -0.203 F 
ATOM     95  F   UNL A   1      47.537  34.806  30.754  1.00  0.00    -0.200 F 
ATOM     96  C   UNL A   1      46.828  35.259  28.546  1.00  0.00     0.200 A 
ATOM     97  F   UNL A   1      46.083  35.670  26.343  1.00  0.00    -0.200 F 
ATOM     98  F   UNL A   1      47.252  36.525  28.654  1.00  0.00    -0.200 F 
ENDBRANCH  65  88
ENDBRANCH  39  40
ENDBRANCH  32  34
ENDBRANCH  31  32
ENDBRANCH  30  31
ENDBRANCH  29  30
ENDBRANCH   1  29
TORSDOF 17
ENDMDL
MODEL 3
REMARK VINA RESULT:     -12.8      2.399      5.077
REMARK SMILES COc1ccc(C2=NN(C(=O)CCC(=O)OCCOC(=O)c3ccc(-c4c5nc(c(-c6c(F)c(F)c(F)c(F)c6F)c6ccc([nH]6)c(-c6c(F)c(F)c(F)c(F)c6F)c6nc(c(-c7c(F)c(F)c(F)c(F)c7F)c7ccc4[nH]7)C=C6)C=C5)cc3)[C@H](c3ccc(Cl)cc3Cl)C2)cc1
REMARK SMILES IDX 16 1 14 2 15 3 13 4 12 5 10 6 11 7 9 8 7 9 8 10 94 11 85 12
REMARK SMILES IDX 6 13 3 14 4 15 96 16 5 17 95 18 2 19 1 20 86 21 87 22 92 23
REMARK SMILES IDX 88 24 91 25 93 26 89 27 90 28 17 29 18 30 19 31 20 32 21 33
REMARK SMILES IDX 22 34 23 35 84 36 24 37 83 38 25 39 26 40 27 41 77 42 28 43
REMARK SMILES IDX 82 44 76 45 78 46 29 47 81 48 75 49 74 50 30 52 62 53 42 54
REMARK SMILES IDX 61 55 43 56 46 57 60 58 79 59 44 60 45 61 59 63 80 64 47 65
REMARK SMILES IDX 31 66 32 67 40 68 33 69 34 70 38 71 41 72 35 73 36 74 39 75
REMARK SMILES IDX 37 76 63 77 64 78 72 79 65 80 66 81 70 82 73 83 67 84 68 85
REMARK SMILES IDX 71 86 69 87 48 88 49 89 57 90 50 91 51 92 55 93 58 94 52 95
REMARK SMILES IDX 53 96 56 97 54 98
REMARK H PARENT 78 51 46 62
REMARK Flexibility Score: inf
ROOT
ATOM      1  O   UNL A   1      32.627  30.647  27.338  1.00  0.00    -0.462 OA
ENDROOT
BRANCH   1   2
ATOM      2  C   UNL A   1      32.536  29.297  27.196  1.00  0.00     0.306 C 
ATOM      3  O   UNL A   1      31.501  28.653  27.314  1.00  0.00    -0.252 OA
BRANCH   2   4
ATOM      4  C   UNL A   1      33.878  28.663  26.919  1.00  0.00     0.132 C 
BRANCH   4   5
ATOM      5  C   UNL A   1      34.025  28.103  25.507  1.00  0.00     0.114 C 
BRANCH   5   6
ATOM      6  C   UNL A   1      33.502  26.679  25.426  1.00  0.00     0.243 C 
ATOM      7  O   UNL A   1      34.078  25.818  26.103  1.00  0.00    -0.273 OA
BRANCH   6   8
ATOM      8  N   UNL A   1      32.456  26.387  24.548  1.00  0.00    -0.225 N 
ATOM      9  C   UNL A   1      30.769  27.264  23.531  1.00  0.00     0.071 C 
ATOM     10  N   UNL A   1      32.017  27.470  23.789  1.00  0.00    -0.174 NA
ATOM     11  C   UNL A   1      30.215  25.947  23.932  1.00  0.00     0.091 C 
ATOM     12  C   UNL A   1      31.410  25.354  24.671  1.00  0.00     0.149 C 
BRANCH   9  13
ATOM     13  C   UNL A   1      29.869  28.235  22.919  1.00  0.00    -0.002 A 
ATOM     14  C   UNL A   1      28.234  30.254  21.967  1.00  0.00     0.118 A 
ATOM     15  C   UNL A   1      27.692  29.213  22.728  1.00  0.00     0.047 A 
ATOM     16  C   UNL A   1      29.602  30.293  21.691  1.00  0.00     0.047 A 
ATOM     17  C   UNL A   1      28.508  28.185  23.196  1.00  0.00     0.014 A 
ATOM     18  C   UNL A   1      30.426  29.276  22.168  1.00  0.00     0.014 A 
BRANCH  14  19
ATOM     19  O   UNL A   1      27.370  31.241  21.582  1.00  0.00    -0.497 OA
ATOM     20  C   UNL A   1      28.017  32.496  21.387  1.00  0.00     0.278 C 
ENDBRANCH  14  19
ENDBRANCH   9  13
BRANCH  12  21
ATOM     21  C   UNL A   1      31.620  23.878  24.309  1.00  0.00    -0.004 A 
ATOM     22  C   UNL A   1      31.190  22.941  25.297  1.00  0.00     0.009 A 
ATOM     23  C   UNL A   1      32.375  23.355  23.247  1.00  0.00     0.047 A 
ATOM     24  C   UNL A   1      31.566  21.597  25.277  1.00  0.00     0.021 A 
ATOM     25  C   UNL A   1      32.783  22.008  23.246  1.00  0.00     0.041 A 
ATOM     26  Cl  UNL A   1      32.856  24.266  21.867  1.00  0.00    -0.084 Cl
ATOM     27  C   UNL A   1      32.400  21.145  24.269  1.00  0.00     0.042 A 
ATOM     28  Cl  UNL A   1      32.978  19.527  24.302  1.00  0.00    -0.084 Cl
ENDBRANCH  12  21
ENDBRANCH   6   8
ENDBRANCH   5   6
ENDBRANCH   4   5
ENDBRANCH   2   4
ENDBRANCH   1   2
BRANCH   1  29
ATOM     29  C   UNL A   1      31.728  31.439  26.532  1.00  0.00     0.274 C 
BRANCH  29  30
ATOM     30  C   UNL A   1      31.747  32.932  26.888  1.00  0.00     0.275 C 
BRANCH  30  31
ATOM     31  O   UNL A   1      33.077  33.456  27.065  1.00  0.00    -0.458 OA
BRANCH  31  32
ATOM     32  C   UNL A   1      33.257  34.110  28.229  1.00  0.00     0.338 C 
ATOM     33  O   UNL A   1      32.520  34.943  28.715  1.00  0.00    -0.246 OA
BRANCH  32  34
ATOM     34  C   UNL A   1      34.433  33.685  28.964  1.00  0.00     0.060 A 
ATOM     35  C   UNL A   1      34.253  32.731  29.971  1.00  0.00     0.016 A 
ATOM     36  C   UNL A   1      35.654  34.322  28.762  1.00  0.00     0.016 A 
ATOM     37  C   UNL A   1      35.338  32.343  30.739  1.00  0.00     0.010 A 
ATOM     38  C   UNL A   1      36.745  33.926  29.526  1.00  0.00     0.010 A 
ATOM     39  C   UNL A   1      36.595  32.908  30.484  1.00  0.00    -0.014 A 
BRANCH  39  40
ATOM     40  C   UNL A   1      37.797  32.281  31.059  1.00  0.00     0.031 A 
ATOM     41  C   UNL A   1      38.531  31.204  30.339  1.00  0.00     0.074 A 
ATOM     42  C   UNL A   1      38.153  32.690  32.289  1.00  0.00     0.049 A 
ATOM     43  N   UNL A   1      39.545  30.492  30.753  1.00  0.00    -0.248 NA
ATOM     44  C   UNL A   1      38.067  30.876  28.983  1.00  0.00     0.031 C 
ATOM     45  C   UNL A   1      37.471  33.739  33.054  1.00  0.00     0.029 A 
ATOM     46  N   UNL A   1      39.152  32.267  33.120  1.00  0.00    -0.354 N 
ATOM     47  C   UNL A   1      39.844  29.626  29.713  1.00  0.00     0.074 A 
ATOM     48  C   UNL A   1      38.892  29.889  28.652  1.00  0.00     0.031 C 
ATOM     49  C   UNL A   1      38.066  33.871  34.246  1.00  0.00     0.029 A 
ATOM     50  C   UNL A   1      39.139  32.891  34.343  1.00  0.00     0.049 A 
ATOM     51  H   UNL A   1      39.815  31.583  32.868  1.00  0.00     0.167 HD
ATOM     52  C   UNL A   1      40.829  28.698  29.666  1.00  0.00     0.037 A 
ATOM     53  C   UNL A   1      39.892  32.670  35.433  1.00  0.00     0.037 A 
ATOM     54  C   UNL A   1      41.750  28.452  30.746  1.00  0.00     0.049 A 
ATOM     55  C   UNL A   1      40.948  31.609  35.362  1.00  0.00     0.074 A 
ATOM     56  C   UNL A   1      42.810  27.563  30.796  1.00  0.00     0.029 A 
ATOM     57  N   UNL A   1      41.711  29.096  31.977  1.00  0.00    -0.354 N 
ATOM     58  N   UNL A   1      41.252  30.817  34.362  1.00  0.00    -0.248 NA
ATOM     59  C   UNL A   1      41.763  31.408  36.563  1.00  0.00     0.031 C 
ATOM     60  C   UNL A   1      43.381  27.637  32.072  1.00  0.00     0.029 A 
ATOM     61  C   UNL A   1      42.707  28.602  32.805  1.00  0.00     0.049 A 
ATOM     62  H   UNL A   1      41.069  29.799  32.225  1.00  0.00     0.167 HD
ATOM     63  C   UNL A   1      42.297  30.026  34.807  1.00  0.00     0.074 A 
ATOM     64  C   UNL A   1      42.589  30.452  36.164  1.00  0.00     0.031 C 
ATOM     65  C   UNL A   1      42.955  29.034  34.158  1.00  0.00     0.037 A 
BRANCH  52  66
ATOM     66  C   UNL A   1      40.941  27.868  28.422  1.00  0.00     0.064 A 
ATOM     67  C   UNL A   1      41.737  28.267  27.339  1.00  0.00     0.173 A 
ATOM     68  C   UNL A   1      40.270  26.639  28.325  1.00  0.00     0.173 A 
ATOM     69  F   UNL A   1      42.390  29.439  27.377  1.00  0.00    -0.203 F 
ATOM     70  C   UNL A   1      41.843  27.477  26.196  1.00  0.00     0.198 A 
ATOM     71  C   UNL A   1      40.395  25.841  27.191  1.00  0.00     0.198 A 
ATOM     72  F   UNL A   1      39.496  26.210  29.333  1.00  0.00    -0.203 F 
ATOM     73  F   UNL A   1      42.581  27.895  25.159  1.00  0.00    -0.200 F 
ATOM     74  C   UNL A   1      41.177  26.263  26.125  1.00  0.00     0.200 A 
ATOM     75  F   UNL A   1      39.756  24.665  27.127  1.00  0.00    -0.200 F 
ATOM     76  F   UNL A   1      41.283  25.501  25.028  1.00  0.00    -0.200 F 
ENDBRANCH  52  66
BRANCH  53  77
ATOM     77  C   UNL A   1      39.653  33.468  36.659  1.00  0.00     0.064 A 
ATOM     78  C   UNL A   1      40.306  34.690  36.860  1.00  0.00     0.173 A 
ATOM     79  C   UNL A   1      38.723  33.054  37.624  1.00  0.00     0.173 A 
ATOM     80  F   UNL A   1      41.211  35.119  35.968  1.00  0.00    -0.203 F 
ATOM     81  C   UNL A   1      40.043  35.467  37.985  1.00  0.00     0.198 A 
ATOM     82  C   UNL A   1      38.443  33.843  38.737  1.00  0.00     0.198 A 
ATOM     83  F   UNL A   1      38.063  31.897  37.470  1.00  0.00    -0.203 F 
ATOM     84  F   UNL A   1      40.699  36.621  38.167  1.00  0.00    -0.200 F 
ATOM     85  C   UNL A   1      39.105  35.048  38.918  1.00  0.00     0.200 A 
ATOM     86  F   UNL A   1      37.523  33.443  39.625  1.00  0.00    -0.200 F 
ATOM     87  F   UNL A   1      38.841  35.804  39.992  1.00  0.00    -0.200 F 
ENDBRANCH  53  77
BRANCH  65  88
ATOM     88  C   UNL A   1      44.046  28.349  34.921  1.00  0.00     0.064 A 
ATOM     89  C   UNL A   1      45.357  28.844  34.917  1.00  0.00     0.173 A 
ATOM     90  C   UNL A   1      43.774  27.196  35.670  1.00  0.00     0.173 A 
ATOM     91  F   UNL A   1      45.666  29.933  34.197  1.00  0.00    -0.203 F 
ATOM     92  C   UNL A   1      46.366  28.195  35.621  1.00  0.00     0.198 A 
ATOM     93  C   UNL A   1      44.781  26.563  36.392  1.00  0.00     0.198 A 
ATOM     94  F   UNL A   1      42.534  26.685  35.702  1.00  0.00    -0.203 F 
ATOM     95  F   UNL A   1      47.622  28.658  35.568  1.00  0.00    -0.200 F 
ATOM     96  C   UNL A   1      46.076  27.058  36.361  1.00  0.00     0.200 A 
ATOM     97  F   UNL A   1      44.499  25.469  37.112  1.00  0.00    -0.200 F 
ATOM     98  F   UNL A   1      47.049  26.433  37.039  1.00  0.00    -0.200 F 
ENDBRANCH  65  88
ENDBRANCH  39  40
ENDBRANCH  32  34
ENDBRANCH  31  32
ENDBRANCH  30  31
ENDBRANCH  29  30
ENDBRANCH   1  29
TORSDOF 17
ENDMDL
