MODEL 1
REMARK VINA RESULT:     -11.7      0.000      0.000
REMARK SMILES CC(=O)Cc1cccc(C(=O)OCCOC(=O)c2ccc(-c3c4nc(c(-c5c(F)c(F)c(F)c(F)c5F)c5ccc([nH]5)c(-c5c(F)c(F)c(F)c(F)c5F)c5nc(c(-c6c(F)c(F)c(F)c(F)c6F)c6ccc3[nH]6)C=C5)C=C4)cc2)c1
REMARK SMILES IDX 13 1 12 2 10 3 11 4 9 5 5 6 6 7 81 8 7 9 8 10 4 11 2 12 1 13
REMARK SMILES IDX 3 14 14 15 15 16 16 17 17 18 18 19 19 20 80 21 20 22 79 23
REMARK SMILES IDX 21 24 22 25 23 26 73 27 24 28 78 29 72 30 74 31 25 32 77 33
REMARK SMILES IDX 71 34 70 35 26 37 58 38 38 39 57 40 39 41 42 42 56 43 75 44
REMARK SMILES IDX 40 45 41 46 55 48 76 49 43 50 27 51 28 52 36 53 29 54 30 55
REMARK SMILES IDX 34 56 37 57 31 58 32 59 35 60 33 61 59 62 60 63 68 64 61 65
REMARK SMILES IDX 62 66 66 67 69 68 63 69 64 70 67 71 65 72 44 73 45 74 53 75
REMARK SMILES IDX 46 76 47 77 51 78 54 79 48 80 49 81 52 82 50 83
REMARK H PARENT 74 36 42 47
REMARK Flexibility Score: inf
ROOT
ATOM      1  C   UNL A   1      31.570  28.442  25.502  1.00  0.00     0.275 C 
ENDROOT
BRANCH   1   2
ATOM      2  O   UNL A   1      31.828  28.197  24.103  1.00  0.00    -0.458 OA
BRANCH   2   3
ATOM      3  C   UNL A   1      30.900  27.441  23.465  1.00  0.00     0.338 C 
ATOM      4  O   UNL A   1      30.955  26.237  23.269  1.00  0.00    -0.246 OA
BRANCH   3   5
ATOM      5  C   UNL A   1      29.712  28.252  23.090  1.00  0.00     0.060 A 
ATOM      6  C   UNL A   1      28.641  30.119  21.953  1.00  0.00    -0.040 A 
ATOM      7  C   UNL A   1      27.394  29.653  22.399  1.00  0.00     0.004 A 
ATOM      8  C   UNL A   1      29.804  29.424  22.328  1.00  0.00     0.019 A 
ATOM      9  C   UNL A   1      27.301  28.502  23.179  1.00  0.00     0.001 A 
ATOM     10  C   UNL A   1      28.453  27.791  23.500  1.00  0.00     0.016 A 
BRANCH   6  11
ATOM     11  C   UNL A   1      28.723  31.316  21.038  1.00  0.00     0.110 C 
BRANCH  11  12
ATOM     12  C   UNL A   1      28.330  32.628  21.681  1.00  0.00     0.134 C 
ATOM     13  C   UNL A   1      28.793  32.888  23.092  1.00  0.00     0.088 C 
ATOM     14  O   UNL A   1      27.650  33.459  21.076  1.00  0.00    -0.300 OA
ENDBRANCH  11  12
ENDBRANCH   6  11
ENDBRANCH   3   5
ENDBRANCH   2   3
ENDBRANCH   1   2
BRANCH   1  15
ATOM     15  C   UNL A   1      31.559  29.944  25.785  1.00  0.00     0.275 C 
BRANCH  15  16
ATOM     16  O   UNL A   1      32.913  30.406  25.919  1.00  0.00    -0.458 OA
BRANCH  16  17
ATOM     17  C   UNL A   1      33.145  31.286  26.917  1.00  0.00     0.338 C 
ATOM     18  O   UNL A   1      32.442  32.230  27.255  1.00  0.00    -0.246 OA
BRANCH  17  19
ATOM     19  C   UNL A   1      34.425  30.957  27.565  1.00  0.00     0.060 A 
ATOM     20  C   UNL A   1      34.735  29.633  27.877  1.00  0.00     0.016 A 
ATOM     21  C   UNL A   1      35.292  31.985  27.935  1.00  0.00     0.016 A 
ATOM     22  C   UNL A   1      35.891  29.333  28.599  1.00  0.00     0.010 A 
ATOM     23  C   UNL A   1      36.482  31.678  28.604  1.00  0.00     0.010 A 
ATOM     24  C   UNL A   1      36.780  30.352  28.969  1.00  0.00    -0.014 A 
BRANCH  24  25
ATOM     25  C   UNL A   1      37.982  30.050  29.796  1.00  0.00     0.031 A 
ATOM     26  C   UNL A   1      39.076  29.183  29.235  1.00  0.00     0.074 A 
ATOM     27  C   UNL A   1      38.110  30.554  31.039  1.00  0.00     0.049 A 
ATOM     28  N   UNL A   1      40.118  28.664  29.837  1.00  0.00    -0.248 NA
ATOM     29  C   UNL A   1      38.981  28.846  27.806  1.00  0.00     0.031 C 
ATOM     30  C   UNL A   1      37.155  31.445  31.696  1.00  0.00     0.029 A 
ATOM     31  N   UNL A   1      39.107  30.389  31.970  1.00  0.00    -0.354 N 
ATOM     32  C   UNL A   1      40.763  27.895  28.879  1.00  0.00     0.074 A 
ATOM     33  C   UNL A   1      40.003  28.018  27.653  1.00  0.00     0.031 C 
ATOM     34  C   UNL A   1      37.627  31.776  32.908  1.00  0.00     0.029 A 
ATOM     35  C   UNL A   1      38.881  31.065  33.144  1.00  0.00     0.049 A 
ATOM     36  H   UNL A   1      39.907  29.838  31.811  1.00  0.00     0.167 HD
ATOM     37  C   UNL A   1      41.888  27.151  29.010  1.00  0.00     0.037 A 
ATOM     38  C   UNL A   1      39.586  31.087  34.291  1.00  0.00     0.037 A 
ATOM     39  C   UNL A   1      42.682  27.075  30.207  1.00  0.00     0.049 A 
ATOM     40  C   UNL A   1      40.826  30.245  34.417  1.00  0.00     0.074 A 
ATOM     41  C   UNL A   1      43.848  26.361  30.428  1.00  0.00     0.029 A 
ATOM     42  N   UNL A   1      42.402  27.756  31.382  1.00  0.00    -0.354 N 
ATOM     43  N   UNL A   1      41.393  29.471  33.526  1.00  0.00    -0.248 NA
ATOM     44  C   UNL A   1      41.509  30.264  35.719  1.00  0.00     0.031 C 
ATOM     45  C   UNL A   1      44.261  26.591  31.746  1.00  0.00     0.029 A 
ATOM     46  C   UNL A   1      43.369  27.473  32.334  1.00  0.00     0.049 A 
ATOM     47  H   UNL A   1      41.630  28.351  31.520  1.00  0.00     0.167 HD
ATOM     48  C   UNL A   1      42.497  28.911  34.154  1.00  0.00     0.074 A 
ATOM     49  C   UNL A   1      42.535  29.453  35.496  1.00  0.00     0.031 C 
ATOM     50  C   UNL A   1      43.392  28.018  33.665  1.00  0.00     0.037 A 
BRANCH  37  51
ATOM     51  C   UNL A   1      42.311  26.327  27.831  1.00  0.00     0.064 A 
ATOM     52  C   UNL A   1      43.297  26.765  26.936  1.00  0.00     0.173 A 
ATOM     53  C   UNL A   1      41.739  25.065  27.613  1.00  0.00     0.173 A 
ATOM     54  F   UNL A   1      43.862  27.971  27.092  1.00  0.00    -0.203 F 
ATOM     55  C   UNL A   1      43.678  25.978  25.852  1.00  0.00     0.198 A 
ATOM     56  C   UNL A   1      42.139  24.270  26.543  1.00  0.00     0.198 A 
ATOM     57  F   UNL A   1      40.794  24.599  28.445  1.00  0.00    -0.203 F 
ATOM     58  F   UNL A   1      44.594  26.433  24.984  1.00  0.00    -0.200 F 
ATOM     59  C   UNL A   1      43.103  24.730  25.660  1.00  0.00     0.200 A 
ATOM     60  F   UNL A   1      41.590  23.061  26.365  1.00  0.00    -0.200 F 
ATOM     61  F   UNL A   1      43.476  23.972  24.619  1.00  0.00    -0.200 F 
ENDBRANCH  37  51
BRANCH  38  62
ATOM     62  C   UNL A   1      39.116  31.916  35.430  1.00  0.00     0.064 A 
ATOM     63  C   UNL A   1      39.452  33.274  35.514  1.00  0.00     0.173 A 
ATOM     64  C   UNL A   1      38.319  31.374  36.448  1.00  0.00     0.173 A 
ATOM     65  F   UNL A   1      40.237  33.829  34.579  1.00  0.00    -0.203 F 
ATOM     66  C   UNL A   1      39.011  34.057  36.579  1.00  0.00     0.198 A 
ATOM     67  C   UNL A   1      37.858  32.164  37.497  1.00  0.00     0.198 A 
ATOM     68  F   UNL A   1      37.976  30.078  36.413  1.00  0.00    -0.203 F 
ATOM     69  F   UNL A   1      39.374  35.345  36.654  1.00  0.00    -0.200 F 
ATOM     70  C   UNL A   1      38.207  33.504  37.565  1.00  0.00     0.200 A 
ATOM     71  F   UNL A   1      37.073  31.628  38.443  1.00  0.00    -0.200 F 
ATOM     72  F   UNL A   1      37.776  34.261  38.583  1.00  0.00    -0.200 F 
ENDBRANCH  38  62
BRANCH  50  73
ATOM     73  C   UNL A   1      44.493  27.582  34.584  1.00  0.00     0.064 A 
ATOM     74  C   UNL A   1      44.384  26.410  35.347  1.00  0.00     0.173 A 
ATOM     75  C   UNL A   1      45.679  28.322  34.677  1.00  0.00     0.173 A 
ATOM     76  F   UNL A   1      43.261  25.678  35.301  1.00  0.00    -0.203 F 
ATOM     77  C   UNL A   1      45.419  26.005  36.184  1.00  0.00     0.198 A 
ATOM     78  C   UNL A   1      46.720  27.903  35.501  1.00  0.00     0.198 A 
ATOM     79  F   UNL A   1      45.831  29.449  33.964  1.00  0.00    -0.203 F 
ATOM     80  F   UNL A   1      45.280  24.902  36.933  1.00  0.00    -0.200 F 
ATOM     81  C   UNL A   1      46.587  26.749  36.258  1.00  0.00     0.200 A 
ATOM     82  F   UNL A   1      47.851  28.620  35.567  1.00  0.00    -0.200 F 
ATOM     83  F   UNL A   1      47.583  26.357  37.064  1.00  0.00    -0.200 F 
ENDBRANCH  50  73
ENDBRANCH  24  25
ENDBRANCH  17  19
ENDBRANCH  16  17
ENDBRANCH  15  16
ENDBRANCH   1  15
TORSDOF 13
ENDMDL
MODEL 2
REMARK VINA RESULT:     -11.5      4.386      9.234
REMARK SMILES CC(=O)Cc1cccc(C(=O)OCCOC(=O)c2ccc(-c3c4nc(c(-c5c(F)c(F)c(F)c(F)c5F)c5ccc([nH]5)c(-c5c(F)c(F)c(F)c(F)c5F)c5nc(c(-c6c(F)c(F)c(F)c(F)c6F)c6ccc3[nH]6)C=C5)C=C4)cc2)c1
REMARK SMILES IDX 13 1 12 2 10 3 11 4 9 5 5 6 6 7 81 8 7 9 8 10 4 11 2 12 1 13
REMARK SMILES IDX 3 14 14 15 15 16 16 17 17 18 18 19 19 20 80 21 20 22 79 23
REMARK SMILES IDX 21 24 22 25 23 26 73 27 24 28 78 29 72 30 74 31 25 32 77 33
REMARK SMILES IDX 71 34 70 35 26 37 58 38 38 39 57 40 39 41 42 42 56 43 75 44
REMARK SMILES IDX 40 45 41 46 55 48 76 49 43 50 27 51 28 52 36 53 29 54 30 55
REMARK SMILES IDX 34 56 37 57 31 58 32 59 35 60 33 61 59 62 60 63 68 64 61 65
REMARK SMILES IDX 62 66 66 67 69 68 63 69 64 70 67 71 65 72 44 73 45 74 53 75
REMARK SMILES IDX 46 76 47 77 51 78 54 79 48 80 49 81 52 82 50 83
REMARK H PARENT 74 36 42 47
REMARK Flexibility Score: inf
ROOT
ATOM      1  C   UNL A   1      42.651  20.568  26.086  1.00  0.00     0.275 C 
ENDROOT
BRANCH   1   2
ATOM      2  O   UNL A   1      41.308  20.978  25.749  1.00  0.00    -0.458 OA
BRANCH   2   3
ATOM      3  C   UNL A   1      40.499  21.243  26.804  1.00  0.00     0.338 C 
ATOM      4  O   UNL A   1      40.689  20.915  27.965  1.00  0.00    -0.246 OA
BRANCH   3   5
ATOM      5  C   UNL A   1      39.347  22.089  26.398  1.00  0.00     0.060 A 
ATOM      6  C   UNL A   1      37.217  22.447  25.274  1.00  0.00    -0.040 A 
ATOM      7  C   UNL A   1      37.203  23.765  25.758  1.00  0.00     0.004 A 
ATOM      8  C   UNL A   1      38.313  21.619  25.578  1.00  0.00     0.019 A 
ATOM      9  C   UNL A   1      38.242  24.243  26.552  1.00  0.00     0.001 A 
ATOM     10  C   UNL A   1      39.296  23.400  26.893  1.00  0.00     0.016 A 
BRANCH   6  11
ATOM     11  C   UNL A   1      36.047  21.912  24.486  1.00  0.00     0.110 C 
BRANCH  11  12
ATOM     12  C   UNL A   1      35.630  22.774  23.314  1.00  0.00     0.134 C 
ATOM     13  C   UNL A   1      34.195  23.234  23.253  1.00  0.00     0.088 C 
ATOM     14  O   UNL A   1      36.432  23.089  22.433  1.00  0.00    -0.300 OA
ENDBRANCH  11  12
ENDBRANCH   6  11
ENDBRANCH   3   5
ENDBRANCH   2   3
ENDBRANCH   1   2
BRANCH   1  15
ATOM     15  C   UNL A   1      43.670  21.532  25.481  1.00  0.00     0.275 C 
BRANCH  15  16
ATOM     16  O   UNL A   1      42.992  22.729  25.065  1.00  0.00    -0.458 OA
BRANCH  16  17
ATOM     17  C   UNL A   1      43.734  23.858  25.052  1.00  0.00     0.338 C 
ATOM     18  O   UNL A   1      44.723  24.090  24.369  1.00  0.00    -0.246 OA
BRANCH  17  19
ATOM     19  C   UNL A   1      43.181  24.812  26.027  1.00  0.00     0.060 A 
ATOM     20  C   UNL A   1      43.443  26.176  25.903  1.00  0.00     0.016 A 
ATOM     21  C   UNL A   1      42.459  24.335  27.121  1.00  0.00     0.016 A 
ATOM     22  C   UNL A   1      43.024  27.066  26.892  1.00  0.00     0.010 A 
ATOM     23  C   UNL A   1      41.984  25.235  28.081  1.00  0.00     0.010 A 
ATOM     24  C   UNL A   1      42.286  26.606  27.992  1.00  0.00    -0.014 A 
BRANCH  24  25
ATOM     25  C   UNL A   1      41.890  27.537  29.086  1.00  0.00     0.031 A 
ATOM     26  C   UNL A   1      42.733  27.632  30.329  1.00  0.00     0.074 A 
ATOM     27  C   UNL A   1      40.792  28.309  28.973  1.00  0.00     0.049 A 
ATOM     28  N   UNL A   1      42.484  28.245  31.459  1.00  0.00    -0.248 NA
ATOM     29  C   UNL A   1      44.027  26.932  30.300  1.00  0.00     0.031 C 
ATOM     30  C   UNL A   1      39.906  28.360  27.811  1.00  0.00     0.029 A 
ATOM     31  N   UNL A   1      40.237  29.206  29.854  1.00  0.00    -0.354 N 
ATOM     32  C   UNL A   1      43.556  27.957  32.291  1.00  0.00     0.074 A 
ATOM     33  C   UNL A   1      44.464  27.118  31.537  1.00  0.00     0.031 C 
ATOM     34  C   UNL A   1      38.941  29.265  28.034  1.00  0.00     0.029 A 
ATOM     35  C   UNL A   1      39.096  29.806  29.382  1.00  0.00     0.049 A 
ATOM     36  H   UNL A   1      40.622  29.401  30.739  1.00  0.00     0.167 HD
ATOM     37  C   UNL A   1      43.765  28.353  33.570  1.00  0.00     0.037 A 
ATOM     38  C   UNL A   1      38.251  30.671  29.977  1.00  0.00     0.037 A 
ATOM     39  C   UNL A   1      42.898  29.236  34.303  1.00  0.00     0.049 A 
ATOM     40  C   UNL A   1      38.498  31.090  31.400  1.00  0.00     0.074 A 
ATOM     41  C   UNL A   1      43.037  29.708  35.597  1.00  0.00     0.029 A 
ATOM     42  N   UNL A   1      41.737  29.801  33.795  1.00  0.00    -0.354 N 
ATOM     43  N   UNL A   1      39.481  30.760  32.200  1.00  0.00    -0.248 NA
ATOM     44  C   UNL A   1      37.501  31.982  32.010  1.00  0.00     0.031 C 
ATOM     45  C   UNL A   1      41.947  30.539  35.882  1.00  0.00     0.029 A 
ATOM     46  C   UNL A   1      41.147  30.609  34.754  1.00  0.00     0.049 A 
ATOM     47  H   UNL A   1      41.384  29.648  32.889  1.00  0.00     0.167 HD
ATOM     48  C   UNL A   1      39.225  31.402  33.404  1.00  0.00     0.074 A 
ATOM     49  C   UNL A   1      38.006  32.161  33.223  1.00  0.00     0.031 C 
ATOM     50  C   UNL A   1      39.932  31.356  34.560  1.00  0.00     0.037 A 
BRANCH  37  51
ATOM     51  C   UNL A   1      44.969  27.803  34.274  1.00  0.00     0.064 A 
ATOM     52  C   UNL A   1      46.196  28.480  34.283  1.00  0.00     0.173 A 
ATOM     53  C   UNL A   1      44.880  26.592  34.977  1.00  0.00     0.173 A 
ATOM     54  F   UNL A   1      46.335  29.633  33.613  1.00  0.00    -0.203 F 
ATOM     55  C   UNL A   1      47.298  27.952  34.952  1.00  0.00     0.198 A 
ATOM     56  C   UNL A   1      45.976  26.079  35.665  1.00  0.00     0.198 A 
ATOM     57  F   UNL A   1      43.725  25.908  35.002  1.00  0.00    -0.203 F 
ATOM     58  F   UNL A   1      48.474  28.595  34.914  1.00  0.00    -0.200 F 
ATOM     59  C   UNL A   1      47.185  26.756  35.646  1.00  0.00     0.200 A 
ATOM     60  F   UNL A   1      45.863  24.929  36.342  1.00  0.00    -0.200 F 
ATOM     61  F   UNL A   1      48.246  26.254  36.293  1.00  0.00    -0.200 F 
ENDBRANCH  37  51
BRANCH  38  62
ATOM     62  C   UNL A   1      37.070  31.178  29.233  1.00  0.00     0.064 A 
ATOM     63  C   UNL A   1      35.994  30.332  28.934  1.00  0.00     0.173 A 
ATOM     64  C   UNL A   1      36.990  32.513  28.814  1.00  0.00     0.173 A 
ATOM     65  F   UNL A   1      36.040  29.039  29.289  1.00  0.00    -0.203 F 
ATOM     66  C   UNL A   1      34.882  30.803  28.238  1.00  0.00     0.198 A 
ATOM     67  C   UNL A   1      35.867  32.989  28.141  1.00  0.00     0.198 A 
ATOM     68  F   UNL A   1      37.998  33.360  29.072  1.00  0.00    -0.203 F 
ATOM     69  F   UNL A   1      33.881  29.966  27.935  1.00  0.00    -0.200 F 
ATOM     70  C   UNL A   1      34.816  32.133  27.850  1.00  0.00     0.200 A 
ATOM     71  F   UNL A   1      35.803  34.277  27.777  1.00  0.00    -0.200 F 
ATOM     72  F   UNL A   1      33.743  32.587  27.190  1.00  0.00    -0.200 F 
ENDBRANCH  38  62
BRANCH  50  73
ATOM     73  C   UNL A   1      39.409  32.158  35.713  1.00  0.00     0.064 A 
ATOM     74  C   UNL A   1      38.489  31.613  36.620  1.00  0.00     0.173 A 
ATOM     75  C   UNL A   1      39.856  33.468  35.931  1.00  0.00     0.173 A 
ATOM     76  F   UNL A   1      38.022  30.369  36.443  1.00  0.00    -0.203 F 
ATOM     77  C   UNL A   1      38.022  32.361  37.697  1.00  0.00     0.198 A 
ATOM     78  C   UNL A   1      39.402  34.206  37.021  1.00  0.00     0.198 A 
ATOM     79  F   UNL A   1      40.738  34.031  35.091  1.00  0.00    -0.203 F 
ATOM     80  F   UNL A   1      37.115  31.835  38.532  1.00  0.00    -0.200 F 
ATOM     81  C   UNL A   1      38.481  33.654  37.900  1.00  0.00     0.200 A 
ATOM     82  F   UNL A   1      39.850  35.453  37.218  1.00  0.00    -0.200 F 
ATOM     83  F   UNL A   1      38.031  34.371  38.937  1.00  0.00    -0.200 F 
ENDBRANCH  50  73
ENDBRANCH  24  25
ENDBRANCH  17  19
ENDBRANCH  16  17
ENDBRANCH  15  16
ENDBRANCH   1  15
TORSDOF 13
ENDMDL
MODEL 3
REMARK VINA RESULT:     -11.3      6.543     10.747
REMARK SMILES CC(=O)Cc1cccc(C(=O)OCCOC(=O)c2ccc(-c3c4nc(c(-c5c(F)c(F)c(F)c(F)c5F)c5ccc([nH]5)c(-c5c(F)c(F)c(F)c(F)c5F)c5nc(c(-c6c(F)c(F)c(F)c(F)c6F)c6ccc3[nH]6)C=C5)C=C4)cc2)c1
REMARK SMILES IDX 13 1 12 2 10 3 11 4 9 5 5 6 6 7 81 8 7 9 8 10 4 11 2 12 1 13
REMARK SMILES IDX 3 14 14 15 15 16 16 17 17 18 18 19 19 20 80 21 20 22 79 23
REMARK SMILES IDX 21 24 22 25 23 26 73 27 24 28 78 29 72 30 74 31 25 32 77 33
REMARK SMILES IDX 71 34 70 35 26 37 58 38 38 39 57 40 39 41 42 42 56 43 75 44
REMARK SMILES IDX 40 45 41 46 55 48 76 49 43 50 27 51 28 52 36 53 29 54 30 55
REMARK SMILES IDX 34 56 37 57 31 58 32 59 35 60 33 61 59 62 60 63 68 64 61 65
REMARK SMILES IDX 62 66 66 67 69 68 63 69 64 70 67 71 65 72 44 73 45 74 53 75
REMARK SMILES IDX 46 76 47 77 51 78 54 79 48 80 49 81 52 82 50 83
REMARK H PARENT 74 36 42 47
REMARK Flexibility Score: inf
ROOT
ATOM      1  C   UNL A   1      41.905  19.198  26.320  1.00  0.00     0.275 C 
ENDROOT
BRANCH   1   2
ATOM      2  O   UNL A   1      41.690  20.558  25.887  1.00  0.00    -0.458 OA
BRANCH   2   3
ATOM      3  C   UNL A   1      41.367  21.437  26.868  1.00  0.00     0.338 C 
ATOM      4  O   UNL A   1      42.032  21.693  27.860  1.00  0.00    -0.246 OA
BRANCH   3   5
ATOM      5  C   UNL A   1      40.105  22.154  26.552  1.00  0.00     0.060 A 
ATOM      6  C   UNL A   1      37.905  22.307  25.520  1.00  0.00    -0.040 A 
ATOM      7  C   UNL A   1      37.747  23.581  26.086  1.00  0.00     0.004 A 
ATOM      8  C   UNL A   1      39.105  21.607  25.736  1.00  0.00     0.019 A 
ATOM      9  C   UNL A   1      38.749  24.140  26.876  1.00  0.00     0.001 A 
ATOM     10  C   UNL A   1      39.911  23.417  27.130  1.00  0.00     0.016 A 
BRANCH   6  11
ATOM     11  C   UNL A   1      36.780  21.676  24.737  1.00  0.00     0.110 C 
BRANCH  11  12
ATOM     12  C   UNL A   1      36.106  22.601  23.746  1.00  0.00     0.134 C 
ATOM     13  C   UNL A   1      34.699  23.051  24.047  1.00  0.00     0.088 C 
ATOM     14  O   UNL A   1      36.683  22.973  22.723  1.00  0.00    -0.300 OA
ENDBRANCH  11  12
ENDBRANCH   6  11
ENDBRANCH   3   5
ENDBRANCH   2   3
ENDBRANCH   1   2
BRANCH   1  15
ATOM     15  C   UNL A   1      43.228  18.667  25.768  1.00  0.00     0.275 C 
BRANCH  15  16
ATOM     16  O   UNL A   1      43.447  19.224  24.462  1.00  0.00    -0.458 OA
BRANCH  16  17
ATOM     17  C   UNL A   1      44.730  19.501  24.141  1.00  0.00     0.338 C 
ATOM     18  O   UNL A   1      45.548  18.747  23.628  1.00  0.00    -0.246 OA
BRANCH  17  19
ATOM     19  C   UNL A   1      45.037  20.887  24.527  1.00  0.00     0.060 A 
ATOM     20  C   UNL A   1      45.572  21.166  25.784  1.00  0.00     0.016 A 
ATOM     21  C   UNL A   1      44.716  21.930  23.657  1.00  0.00     0.016 A 
ATOM     22  C   UNL A   1      45.749  22.487  26.197  1.00  0.00     0.010 A 
ATOM     23  C   UNL A   1      44.953  23.252  24.046  1.00  0.00     0.010 A 
ATOM     24  C   UNL A   1      45.444  23.546  25.331  1.00  0.00    -0.014 A 
BRANCH  24  25
ATOM     25  C   UNL A   1      45.567  24.960  25.786  1.00  0.00     0.031 A 
ATOM     26  C   UNL A   1      46.881  25.679  25.644  1.00  0.00     0.074 A 
ATOM     27  C   UNL A   1      44.512  25.611  26.313  1.00  0.00     0.049 A 
ATOM     28  N   UNL A   1      47.250  26.841  26.122  1.00  0.00    -0.248 NA
ATOM     29  C   UNL A   1      47.926  24.992  24.868  1.00  0.00     0.031 C 
ATOM     30  C   UNL A   1      43.166  25.061  26.470  1.00  0.00     0.029 A 
ATOM     31  N   UNL A   1      44.409  26.888  26.810  1.00  0.00    -0.354 N 
ATOM     32  C   UNL A   1      48.580  26.996  25.757  1.00  0.00     0.074 A 
ATOM     33  C   UNL A   1      48.955  25.812  25.012  1.00  0.00     0.031 C 
ATOM     34  C   UNL A   1      42.365  26.002  26.991  1.00  0.00     0.029 A 
ATOM     35  C   UNL A   1      43.155  27.199  27.274  1.00  0.00     0.049 A 
ATOM     36  H   UNL A   1      45.163  27.521  26.832  1.00  0.00     0.167 HD
ATOM     37  C   UNL A   1      49.415  28.030  26.021  1.00  0.00     0.037 A 
ATOM     38  C   UNL A   1      42.697  28.309  27.885  1.00  0.00     0.037 A 
ATOM     39  C   UNL A   1      49.030  29.235  26.706  1.00  0.00     0.049 A 
ATOM     40  C   UNL A   1      43.643  29.440  28.176  1.00  0.00     0.074 A 
ATOM     41  C   UNL A   1      49.803  30.345  27.004  1.00  0.00     0.029 A 
ATOM     42  N   UNL A   1      47.755  29.497  27.183  1.00  0.00    -0.354 N 
ATOM     43  N   UNL A   1      44.915  29.549  27.883  1.00  0.00    -0.248 NA
ATOM     44  C   UNL A   1      43.093  30.592  28.905  1.00  0.00     0.031 C 
ATOM     45  C   UNL A   1      49.000  31.270  27.682  1.00  0.00     0.029 A 
ATOM     46  C   UNL A   1      47.721  30.748  27.779  1.00  0.00     0.049 A 
ATOM     47  H   UNL A   1      46.987  28.885  27.110  1.00  0.00     0.167 HD
ATOM     48  C   UNL A   1      45.319  30.777  28.390  1.00  0.00     0.074 A 
ATOM     49  C   UNL A   1      44.150  31.389  28.987  1.00  0.00     0.031 C 
ATOM     50  C   UNL A   1      46.552  31.342  28.371  1.00  0.00     0.037 A 
BRANCH  37  51
ATOM     51  C   UNL A   1      50.845  27.888  25.595  1.00  0.00     0.064 A 
ATOM     52  C   UNL A   1      51.263  28.188  24.291  1.00  0.00     0.173 A 
ATOM     53  C   UNL A   1      51.816  27.473  26.518  1.00  0.00     0.173 A 
ATOM     54  F   UNL A   1      50.370  28.574  23.368  1.00  0.00    -0.203 F 
ATOM     55  C   UNL A   1      52.599  28.056  23.921  1.00  0.00     0.198 A 
ATOM     56  C   UNL A   1      53.155  27.365  26.152  1.00  0.00     0.198 A 
ATOM     57  F   UNL A   1      51.467  27.178  27.780  1.00  0.00    -0.203 F 
ATOM     58  F   UNL A   1      52.972  28.309  22.658  1.00  0.00    -0.200 F 
ATOM     59  C   UNL A   1      53.544  27.650  24.853  1.00  0.00     0.200 A 
ATOM     60  F   UNL A   1      54.067  26.982  27.056  1.00  0.00    -0.200 F 
ATOM     61  F   UNL A   1      54.830  27.529  24.495  1.00  0.00    -0.200 F 
ENDBRANCH  37  51
BRANCH  38  62
ATOM     62  C   UNL A   1      41.271  28.391  28.292  1.00  0.00     0.064 A 
ATOM     63  C   UNL A   1      40.860  27.955  29.559  1.00  0.00     0.173 A 
ATOM     64  C   UNL A   1      40.295  28.911  27.430  1.00  0.00     0.173 A 
ATOM     65  F   UNL A   1      41.754  27.422  30.405  1.00  0.00    -0.203 F 
ATOM     66  C   UNL A   1      39.524  28.032  29.946  1.00  0.00     0.198 A 
ATOM     67  C   UNL A   1      38.965  29.012  27.828  1.00  0.00     0.198 A 
ATOM     68  F   UNL A   1      40.639  29.337  26.205  1.00  0.00    -0.203 F 
ATOM     69  F   UNL A   1      39.151  27.578  31.151  1.00  0.00    -0.200 F 
ATOM     70  C   UNL A   1      38.579  28.569  29.084  1.00  0.00     0.200 A 
ATOM     71  F   UNL A   1      38.056  29.541  26.996  1.00  0.00    -0.200 F 
ATOM     72  F   UNL A   1      37.297  28.652  29.462  1.00  0.00    -0.200 F 
ENDBRANCH  38  62
BRANCH  50  73
ATOM     73  C   UNL A   1      46.694  32.692  29.005  1.00  0.00     0.064 A 
ATOM     74  C   UNL A   1      47.053  32.829  30.354  1.00  0.00     0.173 A 
ATOM     75  C   UNL A   1      46.502  33.858  28.251  1.00  0.00     0.173 A 
ATOM     76  F   UNL A   1      47.231  31.742  31.118  1.00  0.00    -0.203 F 
ATOM     77  C   UNL A   1      47.199  34.088  30.929  1.00  0.00     0.198 A 
ATOM     78  C   UNL A   1      46.669  35.116  28.824  1.00  0.00     0.198 A 
ATOM     79  F   UNL A   1      46.161  33.777  26.956  1.00  0.00    -0.203 F 
ATOM     80  F   UNL A   1      47.507  34.198  32.228  1.00  0.00    -0.200 F 
ATOM     81  C   UNL A   1      47.011  35.230  30.164  1.00  0.00     0.200 A 
ATOM     82  F   UNL A   1      46.493  36.218  28.083  1.00  0.00    -0.200 F 
ATOM     83  F   UNL A   1      47.153  36.440  30.719  1.00  0.00    -0.200 F 
ENDBRANCH  50  73
ENDBRANCH  24  25
ENDBRANCH  17  19
ENDBRANCH  16  17
ENDBRANCH  15  16
ENDBRANCH   1  15
TORSDOF 13
ENDMDL
