MODEL 1
REMARK VINA RESULT:     -11.2      0.000      0.000
REMARK SMILES CN(C)C(=O)CSc1ccc(C(=O)OCCOC(=O)c2ccc(-c3c4nc(c(-c5c(F)c(F)c(F)c(F)c5F)c5ccc([nH]5)c(-c5c(F)c(F)c(F)c(F)c5F)c5nc(c(-c6c(F)c(F)c(F)c(F)c6F)c6ccc3[nH]6)C=C5)C=C4)cc2)cc1
REMARK SMILES IDX 15 1 14 2 12 3 13 4 11 5 8 6 9 7 84 8 10 9 83 10 7 11 6 12
REMARK SMILES IDX 4 13 1 14 2 15 3 16 5 17 16 18 17 19 18 20 19 21 20 22 21 23
REMARK SMILES IDX 82 24 22 25 81 26 23 27 24 28 25 29 75 30 26 31 80 32 74 33
REMARK SMILES IDX 76 34 27 35 79 36 73 37 72 38 28 40 60 41 40 42 59 43 41 44
REMARK SMILES IDX 44 45 58 46 77 47 42 48 43 49 57 51 78 52 45 53 29 54 30 55
REMARK SMILES IDX 38 56 31 57 32 58 36 59 39 60 33 61 34 62 37 63 35 64 61 65
REMARK SMILES IDX 62 66 70 67 63 68 64 69 68 70 71 71 65 72 66 73 69 74 67 75
REMARK SMILES IDX 46 76 47 77 55 78 48 79 49 80 53 81 56 82 50 83 51 84 54 85
REMARK SMILES IDX 52 86
REMARK H PARENT 76 39 44 50
REMARK Flexibility Score: inf
ROOT
ATOM      1  C   UNL A   1      42.696  20.527  26.080  1.00  0.00     0.275 C 
ENDROOT
BRANCH   1   2
ATOM      2  O   UNL A   1      41.339  20.806  25.674  1.00  0.00    -0.458 OA
BRANCH   2   3
ATOM      3  C   UNL A   1      40.483  21.115  26.677  1.00  0.00     0.338 C 
ATOM      4  O   UNL A   1      40.667  20.925  27.871  1.00  0.00    -0.246 OA
BRANCH   3   5
ATOM      5  C   UNL A   1      39.274  21.807  26.169  1.00  0.00     0.060 A 
ATOM      6  C   UNL A   1      36.941  23.182  25.412  1.00  0.00     0.008 A 
ATOM      7  C   UNL A   1      37.950  23.842  26.115  1.00  0.00     0.016 A 
ATOM      8  C   UNL A   1      37.108  21.832  25.079  1.00  0.00     0.016 A 
ATOM      9  C   UNL A   1      39.096  23.154  26.508  1.00  0.00     0.017 A 
ATOM     10  C   UNL A   1      38.278  21.148  25.443  1.00  0.00     0.017 A 
BRANCH   6  11
ATOM     11  S   UNL A   1      35.433  24.085  25.118  1.00  0.00    -0.116 SA
BRANCH  11  12
ATOM     12  C   UNL A   1      34.170  22.781  25.204  1.00  0.00     0.175 C 
BRANCH  12  13
ATOM     13  C   UNL A   1      33.437  22.551  23.893  1.00  0.00     0.232 C 
ATOM     14  C   UNL A   1      32.146  21.161  22.379  1.00  0.00     0.146 C 
ATOM     15  N   UNL A   1      32.809  21.331  23.661  1.00  0.00    -0.348 N 
ATOM     16  C   UNL A   1      32.654  20.261  24.634  1.00  0.00     0.146 C 
ATOM     17  O   UNL A   1      33.456  23.435  23.029  1.00  0.00    -0.274 OA
ENDBRANCH  12  13
ENDBRANCH  11  12
ENDBRANCH   6  11
ENDBRANCH   3   5
ENDBRANCH   2   3
ENDBRANCH   1   2
BRANCH   1  18
ATOM     18  C   UNL A   1      43.691  21.467  25.399  1.00  0.00     0.275 C 
BRANCH  18  19
ATOM     19  O   UNL A   1      43.013  22.651  24.936  1.00  0.00    -0.458 OA
BRANCH  19  20
ATOM     20  C   UNL A   1      43.721  23.800  25.007  1.00  0.00     0.338 C 
ATOM     21  O   UNL A   1      44.734  24.094  24.397  1.00  0.00    -0.246 OA
BRANCH  20  22
ATOM     22  C   UNL A   1      43.076  24.723  25.955  1.00  0.00     0.060 A 
ATOM     23  C   UNL A   1      43.317  26.089  25.844  1.00  0.00     0.016 A 
ATOM     24  C   UNL A   1      42.357  24.227  27.040  1.00  0.00     0.016 A 
ATOM     25  C   UNL A   1      42.929  26.956  26.862  1.00  0.00     0.010 A 
ATOM     26  C   UNL A   1      41.879  25.114  28.014  1.00  0.00     0.010 A 
ATOM     27  C   UNL A   1      42.195  26.485  27.960  1.00  0.00    -0.014 A 
BRANCH  27  28
ATOM     28  C   UNL A   1      41.807  27.408  29.066  1.00  0.00     0.031 A 
ATOM     29  C   UNL A   1      42.639  27.479  30.323  1.00  0.00     0.074 A 
ATOM     30  C   UNL A   1      40.723  28.201  28.953  1.00  0.00     0.049 A 
ATOM     31  N   UNL A   1      42.380  28.078  31.459  1.00  0.00    -0.248 NA
ATOM     32  C   UNL A   1      43.928  26.771  30.303  1.00  0.00     0.031 C 
ATOM     33  C   UNL A   1      39.848  28.278  27.783  1.00  0.00     0.029 A 
ATOM     34  N   UNL A   1      40.173  29.102  29.834  1.00  0.00    -0.354 N 
ATOM     35  C   UNL A   1      43.438  27.766  32.305  1.00  0.00     0.074 A 
ATOM     36  C   UNL A   1      44.345  26.926  31.552  1.00  0.00     0.031 C 
ATOM     37  C   UNL A   1      38.901  29.203  27.998  1.00  0.00     0.029 A 
ATOM     38  C   UNL A   1      39.043  29.719  29.356  1.00  0.00     0.049 A 
ATOM     39  H   UNL A   1      40.554  29.288  30.722  1.00  0.00     0.167 HD
ATOM     40  C   UNL A   1      43.634  28.145  33.591  1.00  0.00     0.037 A 
ATOM     41  C   UNL A   1      38.186  30.569  29.953  1.00  0.00     0.037 A 
ATOM     42  C   UNL A   1      42.766  29.034  34.319  1.00  0.00     0.049 A 
ATOM     43  C   UNL A   1      38.411  30.957  31.387  1.00  0.00     0.074 A 
ATOM     44  C   UNL A   1      42.896  29.498  35.618  1.00  0.00     0.029 A 
ATOM     45  N   UNL A   1      41.613  29.609  33.805  1.00  0.00    -0.354 N 
ATOM     46  N   UNL A   1      39.384  30.612  32.194  1.00  0.00    -0.248 NA
ATOM     47  C   UNL A   1      37.404  31.835  32.001  1.00  0.00     0.031 C 
ATOM     48  C   UNL A   1      41.803  30.325  35.902  1.00  0.00     0.029 A 
ATOM     49  C   UNL A   1      41.015  30.412  34.765  1.00  0.00     0.049 A 
ATOM     50  H   UNL A   1      41.270  29.469  32.894  1.00  0.00     0.167 HD
ATOM     51  C   UNL A   1      39.113  31.232  33.406  1.00  0.00     0.074 A 
ATOM     52  C   UNL A   1      37.897  31.996  33.221  1.00  0.00     0.031 C 
ATOM     53  C   UNL A   1      39.805  31.167  34.568  1.00  0.00     0.037 A 
BRANCH  40  54
ATOM     54  C   UNL A   1      44.820  27.574  34.313  1.00  0.00     0.064 A 
ATOM     55  C   UNL A   1      46.058  28.234  34.352  1.00  0.00     0.173 A 
ATOM     56  C   UNL A   1      44.701  26.363  35.012  1.00  0.00     0.173 A 
ATOM     57  F   UNL A   1      46.229  29.388  33.691  1.00  0.00    -0.203 F 
ATOM     58  C   UNL A   1      47.138  27.688  35.043  1.00  0.00     0.198 A 
ATOM     59  C   UNL A   1      45.775  25.835  35.725  1.00  0.00     0.198 A 
ATOM     60  F   UNL A   1      43.537  25.695  35.014  1.00  0.00    -0.203 F 
ATOM     61  F   UNL A   1      48.323  28.313  35.029  1.00  0.00    -0.200 F 
ATOM     62  C   UNL A   1      46.993  26.494  35.734  1.00  0.00     0.200 A 
ATOM     63  F   UNL A   1      45.628  24.688  36.403  1.00  0.00    -0.200 F 
ATOM     64  F   UNL A   1      48.032  25.975  36.403  1.00  0.00    -0.200 F 
ENDBRANCH  40  54
BRANCH  41  65
ATOM     65  C   UNL A   1      37.007  31.077  29.202  1.00  0.00     0.064 A 
ATOM     66  C   UNL A   1      35.904  30.253  28.948  1.00  0.00     0.173 A 
ATOM     67  C   UNL A   1      36.957  32.398  28.731  1.00  0.00     0.173 A 
ATOM     68  F   UNL A   1      35.916  28.973  29.351  1.00  0.00    -0.203 F 
ATOM     69  C   UNL A   1      34.796  30.729  28.249  1.00  0.00     0.198 A 
ATOM     70  C   UNL A   1      35.837  32.882  28.061  1.00  0.00     0.198 A 
ATOM     71  F   UNL A   1      37.991  33.227  28.944  1.00  0.00    -0.203 F 
ATOM     72  F   UNL A   1      33.769  29.909  27.986  1.00  0.00    -0.200 F 
ATOM     73  C   UNL A   1      34.760  32.045  27.815  1.00  0.00     0.200 A 
ATOM     74  F   UNL A   1      35.801  34.159  27.655  1.00  0.00    -0.200 F 
ATOM     75  F   UNL A   1      33.689  32.506  27.153  1.00  0.00    -0.200 F 
ENDBRANCH  41  65
BRANCH  53  76
ATOM     76  C   UNL A   1      39.275  31.961  35.724  1.00  0.00     0.064 A 
ATOM     77  C   UNL A   1      39.624  33.308  35.908  1.00  0.00     0.173 A 
ATOM     78  C   UNL A   1      38.389  31.379  36.641  1.00  0.00     0.173 A 
ATOM     79  F   UNL A   1      40.482  33.904  35.068  1.00  0.00    -0.203 F 
ATOM     80  C   UNL A   1      39.122  34.034  36.985  1.00  0.00     0.198 A 
ATOM     81  C   UNL A   1      37.870  32.116  37.702  1.00  0.00     0.198 A 
ATOM     82  F   UNL A   1      38.021  30.096  36.505  1.00  0.00    -0.203 F 
ATOM     83  F   UNL A   1      39.505  35.306  37.169  1.00  0.00    -0.200 F 
ATOM     84  C   UNL A   1      38.242  33.440  37.877  1.00  0.00     0.200 A 
ATOM     85  F   UNL A   1      37.011  31.543  38.557  1.00  0.00    -0.200 F 
ATOM     86  F   UNL A   1      37.759  34.142  38.910  1.00  0.00    -0.200 F 
ENDBRANCH  53  76
ENDBRANCH  27  28
ENDBRANCH  20  22
ENDBRANCH  19  20
ENDBRANCH  18  19
ENDBRANCH   1  18
TORSDOF 14
ENDMDL
MODEL 2
REMARK VINA RESULT:     -11.0      3.461      8.288
REMARK SMILES CN(C)C(=O)CSc1ccc(C(=O)OCCOC(=O)c2ccc(-c3c4nc(c(-c5c(F)c(F)c(F)c(F)c5F)c5ccc([nH]5)c(-c5c(F)c(F)c(F)c(F)c5F)c5nc(c(-c6c(F)c(F)c(F)c(F)c6F)c6ccc3[nH]6)C=C5)C=C4)cc2)cc1
REMARK SMILES IDX 15 1 14 2 12 3 13 4 11 5 8 6 9 7 84 8 10 9 83 10 7 11 6 12
REMARK SMILES IDX 4 13 1 14 2 15 3 16 5 17 16 18 17 19 18 20 19 21 20 22 21 23
REMARK SMILES IDX 82 24 22 25 81 26 23 27 24 28 25 29 75 30 26 31 80 32 74 33
REMARK SMILES IDX 76 34 27 35 79 36 73 37 72 38 28 40 60 41 40 42 59 43 41 44
REMARK SMILES IDX 44 45 58 46 77 47 42 48 43 49 57 51 78 52 45 53 29 54 30 55
REMARK SMILES IDX 38 56 31 57 32 58 36 59 39 60 33 61 34 62 37 63 35 64 61 65
REMARK SMILES IDX 62 66 70 67 63 68 64 69 68 70 71 71 65 72 66 73 69 74 67 75
REMARK SMILES IDX 46 76 47 77 55 78 48 79 49 80 53 81 56 82 50 83 51 84 54 85
REMARK SMILES IDX 52 86
REMARK H PARENT 76 39 44 50
REMARK Flexibility Score: inf
ROOT
ATOM      1  C   UNL A   1      31.432  28.924  25.190  1.00  0.00     0.275 C 
ENDROOT
BRANCH   1   2
ATOM      2  O   UNL A   1      32.452  27.960  25.529  1.00  0.00    -0.458 OA
BRANCH   2   3
ATOM      3  C   UNL A   1      32.073  26.995  26.401  1.00  0.00     0.338 C 
ATOM      4  O   UNL A   1      31.231  27.103  27.281  1.00  0.00    -0.246 OA
BRANCH   3   5
ATOM      5  C   UNL A   1      32.759  25.710  26.124  1.00  0.00     0.060 A 
ATOM      6  C   UNL A   1      34.072  23.335  25.386  1.00  0.00     0.008 A 
ATOM      7  C   UNL A   1      34.641  24.574  25.092  1.00  0.00     0.016 A 
ATOM      8  C   UNL A   1      32.846  23.288  26.062  1.00  0.00     0.016 A 
ATOM      9  C   UNL A   1      33.980  25.750  25.439  1.00  0.00     0.017 A 
ATOM     10  C   UNL A   1      32.196  24.471  26.445  1.00  0.00     0.017 A 
BRANCH   6  11
ATOM     11  S   UNL A   1      34.891  21.891  24.739  1.00  0.00    -0.116 SA
BRANCH  11  12
ATOM     12  C   UNL A   1      34.129  20.545  25.694  1.00  0.00     0.175 C 
BRANCH  12  13
ATOM     13  C   UNL A   1      33.258  19.619  24.861  1.00  0.00     0.232 C 
ATOM     14  C   UNL A   1      32.927  17.623  23.522  1.00  0.00     0.146 C 
ATOM     15  N   UNL A   1      33.802  18.454  24.330  1.00  0.00    -0.348 N 
ATOM     16  C   UNL A   1      35.131  17.935  24.616  1.00  0.00     0.146 C 
ATOM     17  O   UNL A   1      32.089  19.946  24.623  1.00  0.00    -0.274 OA
ENDBRANCH  12  13
ENDBRANCH  11  12
ENDBRANCH   6  11
ENDBRANCH   3   5
ENDBRANCH   2   3
ENDBRANCH   1   2
BRANCH   1  18
ATOM     18  C   UNL A   1      31.724  30.291  25.808  1.00  0.00     0.275 C 
BRANCH  18  19
ATOM     19  O   UNL A   1      33.127  30.407  26.109  1.00  0.00    -0.458 OA
BRANCH  19  20
ATOM     20  C   UNL A   1      33.450  31.292  27.078  1.00  0.00     0.338 C 
ATOM     21  O   UNL A   1      32.785  32.226  27.491  1.00  0.00    -0.246 OA
BRANCH  20  22
ATOM     22  C   UNL A   1      34.776  30.967  27.626  1.00  0.00     0.060 A 
ATOM     23  C   UNL A   1      35.089  29.640  27.908  1.00  0.00     0.016 A 
ATOM     24  C   UNL A   1      35.651  31.985  28.001  1.00  0.00     0.016 A 
ATOM     25  C   UNL A   1      36.225  29.328  28.650  1.00  0.00     0.010 A 
ATOM     26  C   UNL A   1      36.845  31.661  28.660  1.00  0.00     0.010 A 
ATOM     27  C   UNL A   1      37.127  30.333  29.032  1.00  0.00    -0.014 A 
BRANCH  27  28
ATOM     28  C   UNL A   1      38.327  30.002  29.854  1.00  0.00     0.031 A 
ATOM     29  C   UNL A   1      39.405  29.105  29.298  1.00  0.00     0.074 A 
ATOM     30  C   UNL A   1      38.475  30.512  31.094  1.00  0.00     0.049 A 
ATOM     31  N   UNL A   1      40.430  28.560  29.906  1.00  0.00    -0.248 NA
ATOM     32  C   UNL A   1      39.310  28.765  27.870  1.00  0.00     0.031 C 
ATOM     33  C   UNL A   1      37.542  31.429  31.749  1.00  0.00     0.029 A 
ATOM     34  N   UNL A   1      39.471  30.336  32.024  1.00  0.00    -0.354 N 
ATOM     35  C   UNL A   1      41.060  27.766  28.955  1.00  0.00     0.074 A 
ATOM     36  C   UNL A   1      40.305  27.900  27.728  1.00  0.00     0.031 C 
ATOM     37  C   UNL A   1      38.027  31.769  32.952  1.00  0.00     0.029 A 
ATOM     38  C   UNL A   1      39.257  31.023  33.195  1.00  0.00     0.049 A 
ATOM     39  H   UNL A   1      40.262  29.773  31.866  1.00  0.00     0.167 HD
ATOM     40  C   UNL A   1      42.166  26.996  29.095  1.00  0.00     0.037 A 
ATOM     41  C   UNL A   1      39.944  31.021  34.353  1.00  0.00     0.037 A 
ATOM     42  C   UNL A   1      42.956  26.914  30.295  1.00  0.00     0.049 A 
ATOM     43  C   UNL A   1      41.155  30.141  34.491  1.00  0.00     0.074 A 
ATOM     44  C   UNL A   1      44.109  26.181  30.524  1.00  0.00     0.029 A 
ATOM     45  N   UNL A   1      42.683  27.602  31.469  1.00  0.00    -0.354 N 
ATOM     46  N   UNL A   1      41.709  29.352  33.604  1.00  0.00    -0.248 NA
ATOM     47  C   UNL A   1      41.822  30.134  35.801  1.00  0.00     0.031 C 
ATOM     48  C   UNL A   1      44.514  26.398  31.846  1.00  0.00     0.029 A 
ATOM     49  C   UNL A   1      43.637  27.300  32.428  1.00  0.00     0.049 A 
ATOM     50  H   UNL A   1      41.924  28.214  31.601  1.00  0.00     0.167 HD
ATOM     51  C   UNL A   1      42.789  28.760  34.242  1.00  0.00     0.074 A 
ATOM     52  C   UNL A   1      42.829  29.300  35.585  1.00  0.00     0.031 C 
ATOM     53  C   UNL A   1      43.665  27.845  33.761  1.00  0.00     0.037 A 
BRANCH  40  54
ATOM     54  C   UNL A   1      42.577  26.149  27.925  1.00  0.00     0.064 A 
ATOM     55  C   UNL A   1      42.035  24.874  27.700  1.00  0.00     0.173 A 
ATOM     56  C   UNL A   1      43.501  26.642  26.990  1.00  0.00     0.173 A 
ATOM     57  F   UNL A   1      41.157  24.351  28.569  1.00  0.00    -0.203 F 
ATOM     58  C   UNL A   1      42.422  24.116  26.597  1.00  0.00     0.198 A 
ATOM     59  C   UNL A   1      43.865  25.892  25.873  1.00  0.00     0.198 A 
ATOM     60  F   UNL A   1      44.044  27.858  27.153  1.00  0.00    -0.203 F 
ATOM     61  F   UNL A   1      41.926  22.883  26.427  1.00  0.00    -0.200 F 
ATOM     62  C   UNL A   1      43.331  24.629  25.682  1.00  0.00     0.200 A 
ATOM     63  F   UNL A   1      44.732  26.396  24.984  1.00  0.00    -0.200 F 
ATOM     64  F   UNL A   1      43.696  23.900  24.618  1.00  0.00    -0.200 F 
ENDBRANCH  40  54
BRANCH  41  65
ATOM     65  C   UNL A   1      39.473  31.853  35.492  1.00  0.00     0.064 A 
ATOM     66  C   UNL A   1      39.903  33.177  35.644  1.00  0.00     0.173 A 
ATOM     67  C   UNL A   1      38.577  31.344  36.444  1.00  0.00     0.173 A 
ATOM     68  F   UNL A   1      40.783  33.700  34.777  1.00  0.00    -0.203 F 
ATOM     69  C   UNL A   1      39.458  33.960  36.707  1.00  0.00     0.198 A 
ATOM     70  C   UNL A   1      38.108  32.137  37.488  1.00  0.00     0.198 A 
ATOM     71  F   UNL A   1      38.139  30.080  36.346  1.00  0.00    -0.203 F 
ATOM     72  F   UNL A   1      39.913  35.213  36.852  1.00  0.00    -0.200 F 
ATOM     73  C   UNL A   1      38.553  33.443  37.622  1.00  0.00     0.200 A 
ATOM     74  F   UNL A   1      37.223  31.636  38.362  1.00  0.00    -0.200 F 
ATOM     75  F   UNL A   1      38.116  34.200  38.638  1.00  0.00    -0.200 F 
ENDBRANCH  41  65
BRANCH  53  76
ATOM     76  C   UNL A   1      44.753  27.388  34.686  1.00  0.00     0.064 A 
ATOM     77  C   UNL A   1      45.972  28.077  34.780  1.00  0.00     0.173 A 
ATOM     78  C   UNL A   1      44.566  26.266  35.505  1.00  0.00     0.173 A 
ATOM     79  F   UNL A   1      46.204  29.146  34.004  1.00  0.00    -0.203 F 
ATOM     80  C   UNL A   1      46.972  27.643  35.645  1.00  0.00     0.198 A 
ATOM     81  C   UNL A   1      45.559  25.850  36.388  1.00  0.00     0.198 A 
ATOM     82  F   UNL A   1      43.416  25.577  35.455  1.00  0.00    -0.203 F 
ATOM     83  F   UNL A   1      48.147  28.289  35.686  1.00  0.00    -0.200 F 
ATOM     84  C   UNL A   1      46.763  26.534  36.452  1.00  0.00     0.200 A 
ATOM     85  F   UNL A   1      45.352  24.784  37.173  1.00  0.00    -0.200 F 
ATOM     86  F   UNL A   1      47.727  26.120  37.285  1.00  0.00    -0.200 F 
ENDBRANCH  53  76
ENDBRANCH  27  28
ENDBRANCH  20  22
ENDBRANCH  19  20
ENDBRANCH  18  19
ENDBRANCH   1  18
TORSDOF 14
ENDMDL
MODEL 3
REMARK VINA RESULT:     -11.0      0.874      1.986
REMARK SMILES CN(C)C(=O)CSc1ccc(C(=O)OCCOC(=O)c2ccc(-c3c4nc(c(-c5c(F)c(F)c(F)c(F)c5F)c5ccc([nH]5)c(-c5c(F)c(F)c(F)c(F)c5F)c5nc(c(-c6c(F)c(F)c(F)c(F)c6F)c6ccc3[nH]6)C=C5)C=C4)cc2)cc1
REMARK SMILES IDX 15 1 14 2 12 3 13 4 11 5 8 6 9 7 84 8 10 9 83 10 7 11 6 12
REMARK SMILES IDX 4 13 1 14 2 15 3 16 5 17 16 18 17 19 18 20 19 21 20 22 21 23
REMARK SMILES IDX 82 24 22 25 81 26 23 27 24 28 25 29 75 30 26 31 80 32 74 33
REMARK SMILES IDX 76 34 27 35 79 36 73 37 72 38 28 40 60 41 40 42 59 43 41 44
REMARK SMILES IDX 44 45 58 46 77 47 42 48 43 49 57 51 78 52 45 53 29 54 30 55
REMARK SMILES IDX 38 56 31 57 32 58 36 59 39 60 33 61 34 62 37 63 35 64 61 65
REMARK SMILES IDX 62 66 70 67 63 68 64 69 68 70 71 71 65 72 66 73 69 74 67 75
REMARK SMILES IDX 46 76 47 77 55 78 48 79 49 80 53 81 56 82 50 83 51 84 54 85
REMARK SMILES IDX 52 86
REMARK H PARENT 76 39 44 50
REMARK Flexibility Score: inf
ROOT
ATOM      1  C   UNL A   1      42.129  20.450  26.120  1.00  0.00     0.275 C 
ENDROOT
BRANCH   1   2
ATOM      2  O   UNL A   1      40.873  21.103  26.404  1.00  0.00    -0.458 OA
BRANCH   2   3
ATOM      3  C   UNL A   1      39.786  20.562  25.803  1.00  0.00     0.338 C 
ATOM      4  O   UNL A   1      39.688  19.421  25.376  1.00  0.00    -0.246 OA
BRANCH   3   5
ATOM      5  C   UNL A   1      38.647  21.510  25.780  1.00  0.00     0.060 A 
ATOM      6  C   UNL A   1      36.469  23.271  25.520  1.00  0.00     0.008 A 
ATOM      7  C   UNL A   1      36.359  21.947  25.092  1.00  0.00     0.016 A 
ATOM      8  C   UNL A   1      37.671  23.708  26.090  1.00  0.00     0.016 A 
ATOM      9  C   UNL A   1      37.446  21.081  25.201  1.00  0.00     0.017 A 
ATOM     10  C   UNL A   1      38.754  22.827  26.235  1.00  0.00     0.017 A 
BRANCH   6  11
ATOM     11  S   UNL A   1      35.099  24.354  25.168  1.00  0.00    -0.116 SA
BRANCH  11  12
ATOM     12  C   UNL A   1      34.544  23.771  23.539  1.00  0.00     0.175 C 
BRANCH  12  13
ATOM     13  C   UNL A   1      33.583  24.720  22.842  1.00  0.00     0.232 C 
ATOM     14  C   UNL A   1      31.347  25.534  22.369  1.00  0.00     0.146 C 
ATOM     15  N   UNL A   1      32.217  24.615  23.083  1.00  0.00    -0.348 N 
ATOM     16  C   UNL A   1      31.597  23.754  24.078  1.00  0.00     0.146 C 
ATOM     17  O   UNL A   1      34.029  25.537  22.028  1.00  0.00    -0.274 OA
ENDBRANCH  12  13
ENDBRANCH  11  12
ENDBRANCH   6  11
ENDBRANCH   3   5
ENDBRANCH   2   3
ENDBRANCH   1   2
BRANCH   1  18
ATOM     18  C   UNL A   1      43.193  21.451  25.670  1.00  0.00     0.275 C 
BRANCH  18  19
ATOM     19  O   UNL A   1      42.566  22.621  25.112  1.00  0.00    -0.458 OA
BRANCH  19  20
ATOM     20  C   UNL A   1      43.307  23.751  25.133  1.00  0.00     0.338 C 
ATOM     21  O   UNL A   1      44.309  24.001  24.486  1.00  0.00    -0.246 OA
BRANCH  20  22
ATOM     22  C   UNL A   1      42.715  24.716  26.073  1.00  0.00     0.060 A 
ATOM     23  C   UNL A   1      43.128  26.044  26.034  1.00  0.00     0.016 A 
ATOM     24  C   UNL A   1      41.866  24.278  27.088  1.00  0.00     0.016 A 
ATOM     25  C   UNL A   1      42.779  26.919  27.059  1.00  0.00     0.010 A 
ATOM     26  C   UNL A   1      41.433  25.186  28.063  1.00  0.00     0.010 A 
ATOM     27  C   UNL A   1      41.918  26.507  28.087  1.00  0.00    -0.014 A 
BRANCH  27  28
ATOM     28  C   UNL A   1      41.569  27.435  29.203  1.00  0.00     0.031 A 
ATOM     29  C   UNL A   1      42.391  27.444  30.467  1.00  0.00     0.074 A 
ATOM     30  C   UNL A   1      40.530  28.287  29.090  1.00  0.00     0.049 A 
ATOM     31  N   UNL A   1      42.153  28.041  31.610  1.00  0.00    -0.248 NA
ATOM     32  C   UNL A   1      43.641  26.668  30.449  1.00  0.00     0.031 C 
ATOM     33  C   UNL A   1      39.672  28.426  27.914  1.00  0.00     0.029 A 
ATOM     34  N   UNL A   1      40.021  29.204  29.979  1.00  0.00    -0.354 N 
ATOM     35  C   UNL A   1      43.185  27.661  32.460  1.00  0.00     0.074 A 
ATOM     36  C   UNL A   1      44.053  26.784  31.704  1.00  0.00     0.031 C 
ATOM     37  C   UNL A   1      38.774  29.398  28.134  1.00  0.00     0.029 A 
ATOM     38  C   UNL A   1      38.930  29.887  29.499  1.00  0.00     0.049 A 
ATOM     39  H   UNL A   1      40.403  29.357  30.873  1.00  0.00     0.167 HD
ATOM     40  C   UNL A   1      43.388  28.012  33.754  1.00  0.00     0.037 A 
ATOM     41  C   UNL A   1      38.113  30.774  30.101  1.00  0.00     0.037 A 
ATOM     42  C   UNL A   1      42.562  28.937  34.486  1.00  0.00     0.049 A 
ATOM     43  C   UNL A   1      38.346  31.130  31.542  1.00  0.00     0.074 A 
ATOM     44  C   UNL A   1      42.704  29.375  35.792  1.00  0.00     0.029 A 
ATOM     45  N   UNL A   1      41.447  29.580  33.970  1.00  0.00    -0.354 N 
ATOM     46  N   UNL A   1      39.290  30.722  32.353  1.00  0.00    -0.248 NA
ATOM     47  C   UNL A   1      37.381  32.052  32.159  1.00  0.00     0.031 C 
ATOM     48  C   UNL A   1      41.654  30.255  36.078  1.00  0.00     0.029 A 
ATOM     49  C   UNL A   1      40.884  30.400  34.935  1.00  0.00     0.049 A 
ATOM     50  H   UNL A   1      41.106  29.470  33.054  1.00  0.00     0.167 HD
ATOM     51  C   UNL A   1      39.041  31.339  33.571  1.00  0.00     0.074 A 
ATOM     52  C   UNL A   1      37.869  32.170  33.386  1.00  0.00     0.031 C 
ATOM     53  C   UNL A   1      39.717  31.222  34.738  1.00  0.00     0.037 A 
BRANCH  40  54
ATOM     54  C   UNL A   1      44.535  27.369  34.478  1.00  0.00     0.064 A 
ATOM     55  C   UNL A   1      44.399  26.149  35.157  1.00  0.00     0.173 A 
ATOM     56  C   UNL A   1      45.805  27.968  34.455  1.00  0.00     0.173 A 
ATOM     57  F   UNL A   1      43.205  25.541  35.219  1.00  0.00    -0.203 F 
ATOM     58  C   UNL A   1      45.484  25.566  35.807  1.00  0.00     0.198 A 
ATOM     59  C   UNL A   1      46.894  27.368  35.083  1.00  0.00     0.198 A 
ATOM     60  F   UNL A   1      45.993  29.131  33.814  1.00  0.00    -0.203 F 
ATOM     61  F   UNL A   1      45.320  24.423  36.488  1.00  0.00    -0.200 F 
ATOM     62  C   UNL A   1      46.732  26.173  35.764  1.00  0.00     0.200 A 
ATOM     63  F   UNL A   1      48.101  27.949  35.028  1.00  0.00    -0.200 F 
ATOM     64  F   UNL A   1      47.776  25.606  36.384  1.00  0.00    -0.200 F 
ENDBRANCH  40  54
BRANCH  41  65
ATOM     65  C   UNL A   1      36.971  31.354  29.346  1.00  0.00     0.064 A 
ATOM     66  C   UNL A   1      35.849  30.580  29.028  1.00  0.00     0.173 A 
ATOM     67  C   UNL A   1      36.976  32.697  28.936  1.00  0.00     0.173 A 
ATOM     68  F   UNL A   1      35.810  29.284  29.372  1.00  0.00    -0.203 F 
ATOM     69  C   UNL A   1      34.775  31.124  28.326  1.00  0.00     0.198 A 
ATOM     70  C   UNL A   1      35.889  33.248  28.262  1.00  0.00     0.198 A 
ATOM     71  F   UNL A   1      38.030  33.480  29.212  1.00  0.00    -0.203 F 
ATOM     72  F   UNL A   1      33.728  30.351  28.001  1.00  0.00    -0.200 F 
ATOM     73  C   UNL A   1      34.792  32.459  27.953  1.00  0.00     0.200 A 
ATOM     74  F   UNL A   1      35.904  34.542  27.916  1.00  0.00    -0.200 F 
ATOM     75  F   UNL A   1      33.754  32.985  27.288  1.00  0.00    -0.200 F 
ENDBRANCH  41  65
BRANCH  53  76
ATOM     76  C   UNL A   1      39.220  32.028  35.900  1.00  0.00     0.064 A 
ATOM     77  C   UNL A   1      38.282  31.507  36.805  1.00  0.00     0.173 A 
ATOM     78  C   UNL A   1      39.704  33.324  36.127  1.00  0.00     0.173 A 
ATOM     79  F   UNL A   1      37.776  30.278  36.620  1.00  0.00    -0.203 F 
ATOM     80  C   UNL A   1      37.831  32.265  37.881  1.00  0.00     0.198 A 
ATOM     81  C   UNL A   1      39.269  34.069  37.219  1.00  0.00     0.198 A 
ATOM     82  F   UNL A   1      40.605  33.864  35.293  1.00  0.00    -0.203 F 
ATOM     83  F   UNL A   1      36.900  31.765  38.708  1.00  0.00    -0.200 F 
ATOM     84  C   UNL A   1      38.329  33.543  38.091  1.00  0.00     0.200 A 
ATOM     85  F   UNL A   1      39.758  35.300  37.426  1.00  0.00    -0.200 F 
ATOM     86  F   UNL A   1      37.894  34.270  39.129  1.00  0.00    -0.200 F 
ENDBRANCH  53  76
ENDBRANCH  27  28
ENDBRANCH  20  22
ENDBRANCH  19  20
ENDBRANCH  18  19
ENDBRANCH   1  18
TORSDOF 14
ENDMDL
