MODEL 1
REMARK VINA RESULT:     -12.2      0.000      0.000
REMARK SMILES N#Cc1ccc2c(c1)C=C(C(=O)OCCOC(=O)c1ccc(-c3c4nc(c(-c5c(F)c(F)c(F)c(F)c5F)c5ccc([nH]5)c(-c5c(F)c(F)c(F)c(F)c5F)c5nc(c(-c6c(F)c(F)c(F)c(F)c6F)c6ccc3[nH]6)C=C5)C=C4)cc1)[C@@H](C(F)(F)F)O2
REMARK SMILES IDX 15 1 14 2 13 3 11 4 12 5 10 6 3 7 4 8 8 9 5 10 7 11 6 12
REMARK SMILES IDX 9 13 87 14 82 15 2 16 1 17 83 18 84 19 85 20 86 21 16 22
REMARK SMILES IDX 17 23 18 24 19 25 20 26 81 27 21 28 80 29 22 30 23 31 24 32
REMARK SMILES IDX 74 33 25 34 79 35 73 36 75 37 26 38 78 39 72 40 71 41 27 43
REMARK SMILES IDX 59 44 39 45 58 46 40 47 43 48 57 49 76 50 41 51 42 52 56 54
REMARK SMILES IDX 77 55 44 56 28 57 29 58 37 59 30 60 31 61 35 62 38 63 32 64
REMARK SMILES IDX 33 65 36 66 34 67 60 68 61 69 69 70 62 71 63 72 67 73 70 74
REMARK SMILES IDX 64 75 65 76 68 77 66 78 45 79 46 80 54 81 47 82 48 83 52 84
REMARK SMILES IDX 55 85 49 86 50 87 53 88 51 89
REMARK H PARENT 75 42 43 53
REMARK Flexibility Score: inf
ROOT
ATOM      1  C   UNL A   1      31.783  30.263  25.727  1.00  0.00     0.275 C 
ENDROOT
BRANCH   1   2
ATOM      2  C   UNL A   1      32.435  29.332  24.700  1.00  0.00     0.275 C 
BRANCH   2   3
ATOM      3  O   UNL A   1      32.840  28.077  25.297  1.00  0.00    -0.459 OA
BRANCH   3   4
ATOM      4  C   UNL A   1      32.076  27.005  24.988  1.00  0.00     0.338 C 
ATOM      5  O   UNL A   1      30.856  26.947  25.030  1.00  0.00    -0.246 OA
BRANCH   4   6
ATOM      6  C   UNL A   1      32.910  25.866  24.548  1.00  0.00     0.087 C 
ATOM      7  C   UNL A   1      36.939  23.283  25.132  1.00  0.00     0.053 A 
ATOM      8  C   UNL A   1      36.742  22.698  23.878  1.00  0.00     0.023 A 
ATOM      9  C   UNL A   1      35.992  24.182  25.622  1.00  0.00     0.031 A 
ATOM     10  C   UNL A   1      35.601  23.008  23.124  1.00  0.00     0.048 A 
ATOM     11  C   UNL A   1      34.868  24.506  24.849  1.00  0.00     0.019 A 
ATOM     12  C   UNL A   1      34.664  23.921  23.606  1.00  0.00     0.128 A 
ATOM     13  C   UNL A   1      33.935  25.500  25.325  1.00  0.00     0.027 C 
ATOM     14  O   UNL A   1      33.578  24.185  22.819  1.00  0.00    -0.475 OA
ATOM     15  C   UNL A   1      32.685  25.283  23.183  1.00  0.00     0.316 C 
BRANCH   7  16
ATOM     16  C   UNL A   1      38.110  22.991  25.906  1.00  0.00     0.099 C 
ATOM     17  N   UNL A   1      39.069  22.748  26.514  1.00  0.00    -0.192 NA
ENDBRANCH   7  16
BRANCH  15  18
ATOM     18  C   UNL A   1      32.777  26.376  22.107  1.00  0.00     0.430 C 
ATOM     19  F   UNL A   1      33.768  27.257  22.377  1.00  0.00    -0.167 F 
ATOM     20  F   UNL A   1      33.046  25.854  20.885  1.00  0.00    -0.167 F 
ATOM     21  F   UNL A   1      31.625  27.078  21.999  1.00  0.00    -0.167 F 
ENDBRANCH  15  18
ENDBRANCH   4   6
ENDBRANCH   3   4
ENDBRANCH   2   3
ENDBRANCH   1   2
BRANCH   1  22
ATOM     22  O   UNL A   1      32.545  30.309  26.947  1.00  0.00    -0.458 OA
BRANCH  22  23
ATOM     23  C   UNL A   1      33.152  31.490  27.189  1.00  0.00     0.338 C 
ATOM     24  O   UNL A   1      32.661  32.605  27.149  1.00  0.00    -0.246 OA
BRANCH  23  25
ATOM     25  C   UNL A   1      34.510  31.253  27.686  1.00  0.00     0.060 A 
ATOM     26  C   UNL A   1      35.383  32.287  27.984  1.00  0.00     0.016 A 
ATOM     27  C   UNL A   1      34.837  29.950  28.029  1.00  0.00     0.016 A 
ATOM     28  C   UNL A   1      36.594  31.980  28.616  1.00  0.00     0.010 A 
ATOM     29  C   UNL A   1      35.926  29.678  28.840  1.00  0.00     0.010 A 
ATOM     30  C   UNL A   1      36.863  30.678  29.090  1.00  0.00    -0.014 A 
BRANCH  30  31
ATOM     31  C   UNL A   1      38.124  30.340  29.805  1.00  0.00     0.031 A 
ATOM     32  C   UNL A   1      38.358  30.802  31.228  1.00  0.00     0.074 A 
ATOM     33  C   UNL A   1      39.073  29.628  29.166  1.00  0.00     0.049 A 
ATOM     34  N   UNL A   1      39.372  30.552  32.020  1.00  0.00    -0.248 NA
ATOM     35  C   UNL A   1      37.352  31.693  31.834  1.00  0.00     0.031 C 
ATOM     36  C   UNL A   1      39.015  29.213  27.763  1.00  0.00     0.029 A 
ATOM     37  N   UNL A   1      40.258  29.101  29.616  1.00  0.00    -0.354 N 
ATOM     38  C   UNL A   1      39.123  31.255  33.192  1.00  0.00     0.074 A 
ATOM     39  C   UNL A   1      37.923  32.026  32.980  1.00  0.00     0.031 C 
ATOM     40  C   UNL A   1      40.061  28.419  27.495  1.00  0.00     0.029 A 
ATOM     41  C   UNL A   1      40.896  28.315  28.687  1.00  0.00     0.049 A 
ATOM     42  H   UNL A   1      40.616  29.270  30.518  1.00  0.00     0.167 HD
ATOM     43  C   UNL A   1      39.794  31.218  34.367  1.00  0.00     0.037 A 
ATOM     44  C   UNL A   1      42.019  27.579  28.788  1.00  0.00     0.037 A 
ATOM     45  C   UNL A   1      40.964  30.413  34.589  1.00  0.00     0.049 A 
ATOM     46  C   UNL A   1      42.748  27.548  30.101  1.00  0.00     0.074 A 
ATOM     47  C   UNL A   1      41.686  30.248  35.757  1.00  0.00     0.029 A 
ATOM     48  N   UNL A   1      41.583  29.640  33.618  1.00  0.00    -0.354 N 
ATOM     49  N   UNL A   1      42.441  28.135  31.233  1.00  0.00    -0.248 NA
ATOM     50  C   UNL A   1      43.979  26.748  30.155  1.00  0.00     0.031 C 
ATOM     51  C   UNL A   1      42.778  29.423  35.477  1.00  0.00     0.029 A 
ATOM     52  C   UNL A   1      42.698  29.019  34.153  1.00  0.00     0.049 A 
ATOM     53  H   UNL A   1      41.275  29.548  32.688  1.00  0.00     0.167 HD
ATOM     54  C   UNL A   1      43.428  27.766  32.136  1.00  0.00     0.074 A 
ATOM     55  C   UNL A   1      44.328  26.879  31.429  1.00  0.00     0.031 C 
ATOM     56  C   UNL A   1      43.579  28.135  33.432  1.00  0.00     0.037 A 
BRANCH  43  57
ATOM     57  C   UNL A   1      39.261  32.034  35.513  1.00  0.00     0.064 A 
ATOM     58  C   UNL A   1      38.428  31.469  36.493  1.00  0.00     0.173 A 
ATOM     59  C   UNL A   1      39.635  33.376  35.673  1.00  0.00     0.173 A 
ATOM     60  F   UNL A   1      38.030  30.191  36.388  1.00  0.00    -0.203 F 
ATOM     61  C   UNL A   1      37.970  32.222  37.570  1.00  0.00     0.198 A 
ATOM     62  C   UNL A   1      39.206  34.116  36.773  1.00  0.00     0.198 A 
ATOM     63  F   UNL A   1      40.435  33.968  34.773  1.00  0.00    -0.203 F 
ATOM     64  F   UNL A   1      37.137  31.671  38.465  1.00  0.00    -0.200 F 
ATOM     65  C   UNL A   1      38.369  33.541  37.716  1.00  0.00     0.200 A 
ATOM     66  F   UNL A   1      39.608  35.386  36.923  1.00  0.00    -0.200 F 
ATOM     67  F   UNL A   1      37.944  34.259  38.765  1.00  0.00    -0.200 F 
ENDBRANCH  43  57
BRANCH  44  68
ATOM     68  C   UNL A   1      42.472  26.770  27.625  1.00  0.00     0.064 A 
ATOM     69  C   UNL A   1      43.413  27.276  26.718  1.00  0.00     0.173 A 
ATOM     70  C   UNL A   1      42.015  25.458  27.423  1.00  0.00     0.173 A 
ATOM     71  F   UNL A   1      43.871  28.529  26.858  1.00  0.00    -0.203 F 
ATOM     72  C   UNL A   1      43.873  26.507  25.651  1.00  0.00     0.198 A 
ATOM     73  C   UNL A   1      42.502  24.678  26.377  1.00  0.00     0.198 A 
ATOM     74  F   UNL A   1      41.122  24.920  28.267  1.00  0.00    -0.203 F 
ATOM     75  F   UNL A   1      44.751  27.028  24.782  1.00  0.00    -0.200 F 
ATOM     76  C   UNL A   1      43.427  25.204  25.488  1.00  0.00     0.200 A 
ATOM     77  F   UNL A   1      42.085  23.412  26.237  1.00  0.00    -0.200 F 
ATOM     78  F   UNL A   1      43.888  24.457  24.476  1.00  0.00    -0.200 F 
ENDBRANCH  44  68
BRANCH  56  79
ATOM     79  C   UNL A   1      44.754  27.577  34.182  1.00  0.00     0.064 A 
ATOM     80  C   UNL A   1      45.959  28.287  34.287  1.00  0.00     0.173 A 
ATOM     81  C   UNL A   1      44.643  26.362  34.876  1.00  0.00     0.173 A 
ATOM     82  F   UNL A   1      46.118  29.449  33.635  1.00  0.00    -0.203 F 
ATOM     83  C   UNL A   1      47.016  27.792  35.045  1.00  0.00     0.198 A 
ATOM     84  C   UNL A   1      45.687  25.890  35.663  1.00  0.00     0.198 A 
ATOM     85  F   UNL A   1      43.506  25.650  34.818  1.00  0.00    -0.203 F 
ATOM     86  F   UNL A   1      48.172  28.466  35.099  1.00  0.00    -0.200 F 
ATOM     87  C   UNL A   1      46.875  26.601  35.742  1.00  0.00     0.200 A 
ATOM     88  F   UNL A   1      45.540  24.751  36.354  1.00  0.00    -0.200 F 
ATOM     89  F   UNL A   1      47.886  26.138  36.491  1.00  0.00    -0.200 F 
ENDBRANCH  56  79
ENDBRANCH  30  31
ENDBRANCH  23  25
ENDBRANCH  22  23
ENDBRANCH   1  22
TORSDOF 13
ENDMDL
MODEL 2
REMARK VINA RESULT:     -12.1      0.340      1.257
REMARK SMILES N#Cc1ccc2c(c1)C=C(C(=O)OCCOC(=O)c1ccc(-c3c4nc(c(-c5c(F)c(F)c(F)c(F)c5F)c5ccc([nH]5)c(-c5c(F)c(F)c(F)c(F)c5F)c5nc(c(-c6c(F)c(F)c(F)c(F)c6F)c6ccc3[nH]6)C=C5)C=C4)cc1)[C@@H](C(F)(F)F)O2
REMARK SMILES IDX 15 1 14 2 13 3 11 4 12 5 10 6 3 7 4 8 8 9 5 10 7 11 6 12
REMARK SMILES IDX 9 13 87 14 82 15 2 16 1 17 83 18 84 19 85 20 86 21 16 22
REMARK SMILES IDX 17 23 18 24 19 25 20 26 81 27 21 28 80 29 22 30 23 31 24 32
REMARK SMILES IDX 74 33 25 34 79 35 73 36 75 37 26 38 78 39 72 40 71 41 27 43
REMARK SMILES IDX 59 44 39 45 58 46 40 47 43 48 57 49 76 50 41 51 42 52 56 54
REMARK SMILES IDX 77 55 44 56 28 57 29 58 37 59 30 60 31 61 35 62 38 63 32 64
REMARK SMILES IDX 33 65 36 66 34 67 60 68 61 69 69 70 62 71 63 72 67 73 70 74
REMARK SMILES IDX 64 75 65 76 68 77 66 78 45 79 46 80 54 81 47 82 48 83 52 84
REMARK SMILES IDX 55 85 49 86 50 87 53 88 51 89
REMARK H PARENT 75 42 43 53
REMARK Flexibility Score: inf
ROOT
ATOM      1  C   UNL A   1      31.642  30.327  25.745  1.00  0.00     0.275 C 
ENDROOT
BRANCH   1   2
ATOM      2  C   UNL A   1      31.753  29.302  24.612  1.00  0.00     0.275 C 
BRANCH   2   3
ATOM      3  O   UNL A   1      32.376  28.075  25.061  1.00  0.00    -0.459 OA
BRANCH   3   4
ATOM      4  C   UNL A   1      31.660  26.945  24.863  1.00  0.00     0.338 C 
ATOM      5  O   UNL A   1      30.449  26.826  24.967  1.00  0.00    -0.246 OA
BRANCH   4   6
ATOM      6  C   UNL A   1      32.537  25.823  24.462  1.00  0.00     0.087 C 
ATOM      7  C   UNL A   1      36.681  23.444  25.099  1.00  0.00     0.053 A 
ATOM      8  C   UNL A   1      36.491  22.792  23.876  1.00  0.00     0.023 A 
ATOM      9  C   UNL A   1      35.703  24.324  25.562  1.00  0.00     0.031 A 
ATOM     10  C   UNL A   1      35.327  23.018  23.128  1.00  0.00     0.048 A 
ATOM     11  C   UNL A   1      34.555  24.563  24.794  1.00  0.00     0.019 A 
ATOM     12  C   UNL A   1      34.358  23.912  23.583  1.00  0.00     0.128 A 
ATOM     13  C   UNL A   1      33.588  25.538  25.238  1.00  0.00     0.027 C 
ATOM     14  O   UNL A   1      33.250  24.092  22.803  1.00  0.00    -0.475 OA
ATOM     15  C   UNL A   1      32.317  25.167  23.130  1.00  0.00     0.316 C 
BRANCH   7  16
ATOM     16  C   UNL A   1      37.875  23.238  25.866  1.00  0.00     0.099 C 
ATOM     17  N   UNL A   1      38.831  23.081  26.506  1.00  0.00    -0.192 NA
ENDBRANCH   7  16
BRANCH  15  18
ATOM     18  C   UNL A   1      32.346  26.212  22.003  1.00  0.00     0.430 C 
ATOM     19  F   UNL A   1      32.519  25.632  20.793  1.00  0.00    -0.167 F 
ATOM     20  F   UNL A   1      31.185  26.908  21.936  1.00  0.00    -0.167 F 
ATOM     21  F   UNL A   1      33.344  27.110  22.172  1.00  0.00    -0.167 F 
ENDBRANCH  15  18
ENDBRANCH   4   6
ENDBRANCH   3   4
ENDBRANCH   2   3
ENDBRANCH   1   2
BRANCH   1  22
ATOM     22  O   UNL A   1      32.706  30.167  26.700  1.00  0.00    -0.458 OA
BRANCH  22  23
ATOM     23  C   UNL A   1      33.240  31.322  27.148  1.00  0.00     0.338 C 
ATOM     24  O   UNL A   1      32.693  32.407  27.256  1.00  0.00    -0.246 OA
BRANCH  23  25
ATOM     25  C   UNL A   1      34.588  31.073  27.668  1.00  0.00     0.060 A 
ATOM     26  C   UNL A   1      35.457  32.100  28.000  1.00  0.00     0.016 A 
ATOM     27  C   UNL A   1      34.905  29.764  27.994  1.00  0.00     0.016 A 
ATOM     28  C   UNL A   1      36.654  31.779  28.651  1.00  0.00     0.010 A 
ATOM     29  C   UNL A   1      35.977  29.475  28.821  1.00  0.00     0.010 A 
ATOM     30  C   UNL A   1      36.911  30.468  29.107  1.00  0.00    -0.014 A 
BRANCH  30  31
ATOM     31  C   UNL A   1      38.157  30.114  29.840  1.00  0.00     0.031 A 
ATOM     32  C   UNL A   1      38.386  30.591  31.259  1.00  0.00     0.074 A 
ATOM     33  C   UNL A   1      39.099  29.374  29.221  1.00  0.00     0.049 A 
ATOM     34  N   UNL A   1      39.386  30.331  32.066  1.00  0.00    -0.248 NA
ATOM     35  C   UNL A   1      37.391  31.510  31.842  1.00  0.00     0.031 C 
ATOM     36  C   UNL A   1      39.047  28.942  27.824  1.00  0.00     0.029 A 
ATOM     37  N   UNL A   1      40.268  28.830  29.692  1.00  0.00    -0.354 N 
ATOM     38  C   UNL A   1      39.138  31.055  33.226  1.00  0.00     0.074 A 
ATOM     39  C   UNL A   1      37.956  31.848  32.989  1.00  0.00     0.031 C 
ATOM     40  C   UNL A   1      40.079  28.124  27.577  1.00  0.00     0.029 A 
ATOM     41  C   UNL A   1      40.899  28.019  28.780  1.00  0.00     0.049 A 
ATOM     42  H   UNL A   1      40.619  29.004  30.595  1.00  0.00     0.167 HD
ATOM     43  C   UNL A   1      39.795  31.020  34.408  1.00  0.00     0.037 A 
ATOM     44  C   UNL A   1      42.006  27.261  28.903  1.00  0.00     0.037 A 
ATOM     45  C   UNL A   1      40.947  30.195  34.654  1.00  0.00     0.049 A 
ATOM     46  C   UNL A   1      42.720  27.234  30.225  1.00  0.00     0.074 A 
ATOM     47  C   UNL A   1      41.652  30.031  35.832  1.00  0.00     0.029 A 
ATOM     48  N   UNL A   1      41.560  29.397  33.700  1.00  0.00    -0.354 N 
ATOM     49  N   UNL A   1      42.413  27.842  31.345  1.00  0.00    -0.248 NA
ATOM     50  C   UNL A   1      43.934  26.410  30.304  1.00  0.00     0.031 C 
ATOM     51  C   UNL A   1      42.730  29.181  35.575  1.00  0.00     0.029 A 
ATOM     52  C   UNL A   1      42.656  28.760  34.256  1.00  0.00     0.049 A 
ATOM     53  H   UNL A   1      41.260  29.298  32.768  1.00  0.00     0.167 HD
ATOM     54  C   UNL A   1      43.382  27.466  32.264  1.00  0.00     0.074 A 
ATOM     55  C   UNL A   1      44.271  26.551  31.579  1.00  0.00     0.031 C 
ATOM     56  C   UNL A   1      43.527  27.849  33.557  1.00  0.00     0.037 A 
BRANCH  43  57
ATOM     57  C   UNL A   1      39.267  31.862  35.538  1.00  0.00     0.064 A 
ATOM     58  C   UNL A   1      38.380  31.339  36.492  1.00  0.00     0.173 A 
ATOM     59  C   UNL A   1      39.698  33.187  35.708  1.00  0.00     0.173 A 
ATOM     60  F   UNL A   1      37.925  30.081  36.376  1.00  0.00    -0.203 F 
ATOM     61  C   UNL A   1      37.924  32.115  37.555  1.00  0.00     0.198 A 
ATOM     62  C   UNL A   1      39.271  33.948  36.794  1.00  0.00     0.198 A 
ATOM     63  F   UNL A   1      40.551  33.739  34.832  1.00  0.00    -0.203 F 
ATOM     64  F   UNL A   1      37.040  31.605  38.424  1.00  0.00    -0.200 F 
ATOM     65  C   UNL A   1      38.380  33.414  37.712  1.00  0.00     0.200 A 
ATOM     66  F   UNL A   1      39.726  35.198  36.955  1.00  0.00    -0.200 F 
ATOM     67  F   UNL A   1      37.957  34.153  38.747  1.00  0.00    -0.200 F 
ENDBRANCH  43  57
BRANCH  44  68
ATOM     68  C   UNL A   1      42.455  26.428  27.757  1.00  0.00     0.064 A 
ATOM     69  C   UNL A   1      43.429  26.895  26.864  1.00  0.00     0.173 A 
ATOM     70  C   UNL A   1      41.960  25.129  27.557  1.00  0.00     0.173 A 
ATOM     71  F   UNL A   1      43.924  28.134  27.002  1.00  0.00    -0.203 F 
ATOM     72  C   UNL A   1      43.885  26.102  25.813  1.00  0.00     0.198 A 
ATOM     73  C   UNL A   1      42.442  24.325  26.527  1.00  0.00     0.198 A 
ATOM     74  F   UNL A   1      41.035  24.628  28.389  1.00  0.00    -0.203 F 
ATOM     75  F   UNL A   1      44.795  26.586  24.957  1.00  0.00    -0.200 F 
ATOM     76  C   UNL A   1      43.400  24.813  25.652  1.00  0.00     0.200 A 
ATOM     77  F   UNL A   1      41.988  23.072  26.390  1.00  0.00    -0.200 F 
ATOM     78  F   UNL A   1      43.856  24.042  24.656  1.00  0.00    -0.200 F 
ENDBRANCH  44  68
BRANCH  56  79
ATOM     79  C   UNL A   1      44.682  27.278  34.327  1.00  0.00     0.064 A 
ATOM     80  C   UNL A   1      44.583  26.046  34.988  1.00  0.00     0.173 A 
ATOM     81  C   UNL A   1      45.927  27.927  34.327  1.00  0.00     0.173 A 
ATOM     82  F   UNL A   1      43.412  25.390  35.024  1.00  0.00    -0.203 F 
ATOM     83  C   UNL A   1      45.682  25.493  35.638  1.00  0.00     0.198 A 
ATOM     84  C   UNL A   1      47.033  27.353  34.944  1.00  0.00     0.198 A 
ATOM     85  F   UNL A   1      46.078  29.103  33.698  1.00  0.00    -0.203 F 
ATOM     86  F   UNL A   1      45.555  24.334  36.298  1.00  0.00    -0.200 F 
ATOM     87  C   UNL A   1      46.908  26.140  35.604  1.00  0.00     0.200 A 
ATOM     88  F   UNL A   1      48.222  27.969  34.891  1.00  0.00    -0.200 F 
ATOM     89  F   UNL A   1      47.973  25.594  36.210  1.00  0.00    -0.200 F 
ENDBRANCH  56  79
ENDBRANCH  30  31
ENDBRANCH  23  25
ENDBRANCH  22  23
ENDBRANCH   1  22
TORSDOF 13
ENDMDL
MODEL 3
REMARK VINA RESULT:     -12.1      4.254      9.678
REMARK SMILES N#Cc1ccc2c(c1)C=C(C(=O)OCCOC(=O)c1ccc(-c3c4nc(c(-c5c(F)c(F)c(F)c(F)c5F)c5ccc([nH]5)c(-c5c(F)c(F)c(F)c(F)c5F)c5nc(c(-c6c(F)c(F)c(F)c(F)c6F)c6ccc3[nH]6)C=C5)C=C4)cc1)[C@@H](C(F)(F)F)O2
REMARK SMILES IDX 15 1 14 2 13 3 11 4 12 5 10 6 3 7 4 8 8 9 5 10 7 11 6 12
REMARK SMILES IDX 9 13 87 14 82 15 2 16 1 17 83 18 84 19 85 20 86 21 16 22
REMARK SMILES IDX 17 23 18 24 19 25 20 26 81 27 21 28 80 29 22 30 23 31 24 32
REMARK SMILES IDX 74 33 25 34 79 35 73 36 75 37 26 38 78 39 72 40 71 41 27 43
REMARK SMILES IDX 59 44 39 45 58 46 40 47 43 48 57 49 76 50 41 51 42 52 56 54
REMARK SMILES IDX 77 55 44 56 28 57 29 58 37 59 30 60 31 61 35 62 38 63 32 64
REMARK SMILES IDX 33 65 36 66 34 67 60 68 61 69 69 70 62 71 63 72 67 73 70 74
REMARK SMILES IDX 64 75 65 76 68 77 66 78 45 79 46 80 54 81 47 82 48 83 52 84
REMARK SMILES IDX 55 85 49 86 50 87 53 88 51 89
REMARK H PARENT 75 42 43 53
REMARK Flexibility Score: inf
ROOT
ATOM      1  C   UNL A   1      36.552  20.745  25.013  1.00  0.00     0.275 C 
ENDROOT
BRANCH   1   2
ATOM      2  C   UNL A   1      35.121  21.137  25.392  1.00  0.00     0.275 C 
BRANCH   2   3
ATOM      3  O   UNL A   1      34.897  22.558  25.240  1.00  0.00    -0.459 OA
BRANCH   3   4
ATOM      4  C   UNL A   1      33.879  22.910  24.422  1.00  0.00     0.338 C 
ATOM      5  O   UNL A   1      33.540  22.337  23.398  1.00  0.00    -0.246 OA
BRANCH   4   6
ATOM      6  C   UNL A   1      33.169  24.101  24.939  1.00  0.00     0.087 C 
ATOM      7  C   UNL A   1      33.450  28.507  26.874  1.00  0.00     0.053 A 
ATOM      8  C   UNL A   1      32.099  28.435  27.227  1.00  0.00     0.023 A 
ATOM      9  C   UNL A   1      34.028  27.454  26.167  1.00  0.00     0.031 A 
ATOM     10  C   UNL A   1      31.333  27.316  26.868  1.00  0.00     0.048 A 
ATOM     11  C   UNL A   1      33.261  26.328  25.836  1.00  0.00     0.019 A 
ATOM     12  C   UNL A   1      31.916  26.255  26.177  1.00  0.00     0.128 A 
ATOM     13  C   UNL A   1      33.885  25.205  25.178  1.00  0.00     0.027 C 
ATOM     14  O   UNL A   1      31.116  25.191  25.864  1.00  0.00    -0.475 OA
ATOM     15  C   UNL A   1      31.727  23.975  25.332  1.00  0.00     0.316 C 
BRANCH   7  16
ATOM     16  C   UNL A   1      34.250  29.636  27.251  1.00  0.00     0.099 C 
ATOM     17  N   UNL A   1      34.888  30.562  27.539  1.00  0.00    -0.192 NA
ENDBRANCH   7  16
BRANCH  15  18
ATOM     18  C   UNL A   1      31.542  22.839  26.352  1.00  0.00     0.430 C 
ATOM     19  F   UNL A   1      30.367  22.952  27.012  1.00  0.00    -0.167 F 
ATOM     20  F   UNL A   1      31.533  21.625  25.751  1.00  0.00    -0.167 F 
ATOM     21  F   UNL A   1      32.531  22.824  27.275  1.00  0.00    -0.167 F 
ENDBRANCH  15  18
ENDBRANCH   4   6
ENDBRANCH   3   4
ENDBRANCH   2   3
ENDBRANCH   1   2
BRANCH   1  22
ATOM     22  O   UNL A   1      37.473  21.819  25.272  1.00  0.00    -0.458 OA
BRANCH  22  23
ATOM     23  C   UNL A   1      38.635  21.441  25.844  1.00  0.00     0.338 C 
ATOM     24  O   UNL A   1      39.198  20.363  25.751  1.00  0.00    -0.246 OA
BRANCH  23  25
ATOM     25  C   UNL A   1      39.259  22.593  26.501  1.00  0.00     0.060 A 
ATOM     26  C   UNL A   1      40.378  22.470  27.309  1.00  0.00     0.016 A 
ATOM     27  C   UNL A   1      38.799  23.850  26.139  1.00  0.00     0.016 A 
ATOM     28  C   UNL A   1      41.012  23.636  27.755  1.00  0.00     0.010 A 
ATOM     29  C   UNL A   1      39.548  24.985  26.401  1.00  0.00     0.010 A 
ATOM     30  C   UNL A   1      40.630  24.908  27.274  1.00  0.00    -0.014 A 
BRANCH  30  31
ATOM     31  C   UNL A   1      41.320  26.156  27.700  1.00  0.00     0.031 A 
ATOM     32  C   UNL A   1      42.735  26.454  27.251  1.00  0.00     0.074 A 
ATOM     33  C   UNL A   1      40.677  27.019  28.512  1.00  0.00     0.049 A 
ATOM     34  N   UNL A   1      43.466  27.517  27.481  1.00  0.00    -0.248 NA
ATOM     35  C   UNL A   1      43.443  25.416  26.480  1.00  0.00     0.031 C 
ATOM     36  C   UNL A   1      39.354  26.799  29.099  1.00  0.00     0.029 A 
ATOM     37  N   UNL A   1      41.033  28.266  28.961  1.00  0.00    -0.354 N 
ATOM     38  C   UNL A   1      44.700  27.265  26.895  1.00  0.00     0.074 A 
ATOM     39  C   UNL A   1      44.665  25.914  26.391  1.00  0.00     0.031 C 
ATOM     40  C   UNL A   1      38.970  27.907  29.747  1.00  0.00     0.029 A 
ATOM     41  C   UNL A   1      40.041  28.895  29.673  1.00  0.00     0.049 A 
ATOM     42  H   UNL A   1      41.915  28.671  28.789  1.00  0.00     0.167 HD
ATOM     43  C   UNL A   1      45.753  28.100  26.732  1.00  0.00     0.037 A 
ATOM     44  C   UNL A   1      39.992  30.136  30.195  1.00  0.00     0.037 A 
ATOM     45  C   UNL A   1      45.768  29.461  27.197  1.00  0.00     0.049 A 
ATOM     46  C   UNL A   1      41.169  31.050  30.000  1.00  0.00     0.074 A 
ATOM     47  C   UNL A   1      46.753  30.416  27.029  1.00  0.00     0.029 A 
ATOM     48  N   UNL A   1      44.746  30.055  27.923  1.00  0.00    -0.354 N 
ATOM     49  N   UNL A   1      42.288  30.833  29.352  1.00  0.00    -0.248 NA
ATOM     50  C   UNL A   1      41.077  32.385  30.606  1.00  0.00     0.031 C 
ATOM     51  C   UNL A   1      46.355  31.570  27.707  1.00  0.00     0.029 A 
ATOM     52  C   UNL A   1      45.091  31.357  28.239  1.00  0.00     0.049 A 
ATOM     53  H   UNL A   1      43.903  29.615  28.176  1.00  0.00     0.167 HD
ATOM     54  C   UNL A   1      43.025  32.003  29.457  1.00  0.00     0.074 A 
ATOM     55  C   UNL A   1      42.214  32.940  30.206  1.00  0.00     0.031 C 
ATOM     56  C   UNL A   1      44.267  32.276  28.983  1.00  0.00     0.037 A 
BRANCH  43  57
ATOM     57  C   UNL A   1      46.956  27.587  25.988  1.00  0.00     0.064 A 
ATOM     58  C   UNL A   1      47.058  27.696  24.591  1.00  0.00     0.173 A 
ATOM     59  C   UNL A   1      48.047  27.039  26.680  1.00  0.00     0.173 A 
ATOM     60  F   UNL A   1      46.042  28.203  23.876  1.00  0.00    -0.203 F 
ATOM     61  C   UNL A   1      48.191  27.251  23.915  1.00  0.00     0.198 A 
ATOM     62  C   UNL A   1      49.195  26.632  26.004  1.00  0.00     0.198 A 
ATOM     63  F   UNL A   1      48.010  26.917  28.015  1.00  0.00    -0.203 F 
ATOM     64  F   UNL A   1      48.242  27.323  22.577  1.00  0.00    -0.200 F 
ATOM     65  C   UNL A   1      49.263  26.731  24.623  1.00  0.00     0.200 A 
ATOM     66  F   UNL A   1      50.239  26.146  26.690  1.00  0.00    -0.200 F 
ATOM     67  F   UNL A   1      50.363  26.324  23.972  1.00  0.00    -0.200 F 
ENDBRANCH  43  57
BRANCH  44  68
ATOM     68  C   UNL A   1      38.759  30.591  30.890  1.00  0.00     0.064 A 
ATOM     69  C   UNL A   1      38.640  30.492  32.283  1.00  0.00     0.173 A 
ATOM     70  C   UNL A   1      37.696  31.179  30.187  1.00  0.00     0.173 A 
ATOM     71  F   UNL A   1      39.621  29.925  33.001  1.00  0.00    -0.203 F 
ATOM     72  C   UNL A   1      37.504  30.955  32.945  1.00  0.00     0.198 A 
ATOM     73  C   UNL A   1      36.577  31.673  30.853  1.00  0.00     0.198 A 
ATOM     74  F   UNL A   1      37.763  31.308  28.854  1.00  0.00    -0.203 F 
ATOM     75  F   UNL A   1      37.404  30.820  34.275  1.00  0.00    -0.200 F 
ATOM     76  C   UNL A   1      36.479  31.557  32.231  1.00  0.00     0.200 A 
ATOM     77  F   UNL A   1      35.599  32.274  30.161  1.00  0.00    -0.200 F 
ATOM     78  F   UNL A   1      35.398  32.023  32.870  1.00  0.00    -0.200 F 
ENDBRANCH  44  68
BRANCH  56  79
ATOM     79  C   UNL A   1      44.828  33.642  29.246  1.00  0.00     0.064 A 
ATOM     80  C   UNL A   1      45.641  33.897  30.360  1.00  0.00     0.173 A 
ATOM     81  C   UNL A   1      44.624  34.684  28.328  1.00  0.00     0.173 A 
ATOM     82  F   UNL A   1      45.859  32.936  31.272  1.00  0.00    -0.203 F 
ATOM     83  C   UNL A   1      46.214  35.150  30.555  1.00  0.00     0.198 A 
ATOM     84  C   UNL A   1      45.230  35.923  28.506  1.00  0.00     0.198 A 
ATOM     85  F   UNL A   1      43.865  34.488  27.239  1.00  0.00    -0.203 F 
ATOM     86  F   UNL A   1      46.953  35.384  31.647  1.00  0.00    -0.200 F 
ATOM     87  C   UNL A   1      46.019  36.157  29.622  1.00  0.00     0.200 A 
ATOM     88  F   UNL A   1      45.059  36.887  27.591  1.00  0.00    -0.200 F 
ATOM     89  F   UNL A   1      46.592  37.356  29.798  1.00  0.00    -0.200 F 
ENDBRANCH  56  79
ENDBRANCH  30  31
ENDBRANCH  23  25
ENDBRANCH  22  23
ENDBRANCH   1  22
TORSDOF 13
ENDMDL
