MODEL 1
REMARK VINA RESULT:     -10.6      0.000      0.000
REMARK SMILES O=C(OCCOC(=O)[C@H]1CC1(c1ccccc1)c1ccccc1)c1ccc(-c2c3nc(c(-c4c(F)c(F)c(F)c(F)c4F)c4ccc([nH]4)c(-c4c(F)c(F)c(F)c(F)c4F)c4nc(c(-c5c(F)c(F)c(F)c(F)c5F)c5ccc2[nH]5)C=C4)C=C3)cc1
REMARK SMILES IDX 4 1 3 2 2 3 1 4 24 5 25 6 86 7 26 8 85 9 27 10 28 11 29 12
REMARK SMILES IDX 79 13 30 14 84 15 78 16 80 17 31 18 83 19 77 20 76 21 32 23
REMARK SMILES IDX 64 24 44 25 63 26 45 27 48 28 62 29 81 30 46 31 47 32 61 34
REMARK SMILES IDX 82 35 49 36 33 37 34 38 42 39 35 40 36 41 40 42 43 43 37 44
REMARK SMILES IDX 38 45 41 46 39 47 65 48 66 49 74 50 67 51 68 52 72 53 75 54
REMARK SMILES IDX 69 55 70 56 73 57 71 58 50 59 51 60 59 61 52 62 53 63 57 64
REMARK SMILES IDX 60 65 54 66 55 67 58 68 56 69 5 70 6 71 7 72 8 73 9 74 10 75
REMARK SMILES IDX 11 76 12 77 13 78 17 79 14 80 16 81 15 82 18 83 19 84 23 85
REMARK SMILES IDX 20 86 22 87 21 88
REMARK H PARENT 80 22 48 33
REMARK Flexibility Score: inf
ROOT
ATOM      1  C   UNL A   1      34.268  33.517  28.002  1.00  0.00     0.275 C 
ENDROOT
BRANCH   1   2
ATOM      2  O   UNL A   1      33.956  32.163  28.387  1.00  0.00    -0.458 OA
BRANCH   2   3
ATOM      3  C   UNL A   1      34.467  30.987  27.954  1.00  0.00     0.338 C 
ATOM      4  O   UNL A   1      33.793  30.302  27.185  1.00  0.00    -0.246 OA
BRANCH   3   5
ATOM      5  C   UNL A   1      35.756  30.394  28.436  1.00  0.00     0.060 A 
ATOM      6  C   UNL A   1      35.956  29.738  29.652  1.00  0.00     0.016 A 
ATOM      7  C   UNL A   1      36.873  30.566  27.592  1.00  0.00     0.016 A 
ATOM      8  C   UNL A   1      37.207  29.203  29.988  1.00  0.00     0.010 A 
ATOM      9  C   UNL A   1      38.128  30.045  27.929  1.00  0.00     0.010 A 
ATOM     10  C   UNL A   1      38.300  29.349  29.129  1.00  0.00    -0.014 A 
BRANCH  10  11
ATOM     11  C   UNL A   1      39.639  28.891  29.564  1.00  0.00     0.031 A 
ATOM     12  C   UNL A   1      40.365  29.694  30.602  1.00  0.00     0.074 A 
ATOM     13  C   UNL A   1      40.180  27.756  29.083  1.00  0.00     0.049 A 
ATOM     14  N   UNL A   1      41.478  29.421  31.229  1.00  0.00    -0.248 NA
ATOM     15  C   UNL A   1      39.739  30.965  31.002  1.00  0.00     0.031 C 
ATOM     16  C   UNL A   1      39.554  26.876  28.101  1.00  0.00     0.029 A 
ATOM     17  N   UNL A   1      41.377  27.145  29.354  1.00  0.00    -0.354 N 
ATOM     18  C   UNL A   1      41.664  30.462  32.126  1.00  0.00     0.074 A 
ATOM     19  C   UNL A   1      40.591  31.409  31.912  1.00  0.00     0.031 C 
ATOM     20  C   UNL A   1      40.379  25.853  27.827  1.00  0.00     0.029 A 
ATOM     21  C   UNL A   1      41.588  25.996  28.630  1.00  0.00     0.049 A 
ATOM     22  H   UNL A   1      42.025  27.497  30.008  1.00  0.00     0.167 HD
ATOM     23  C   UNL A   1      42.622  30.597  33.070  1.00  0.00     0.037 A 
ATOM     24  C   UNL A   1      42.633  25.147  28.631  1.00  0.00     0.037 A 
ATOM     25  C   UNL A   1      43.707  29.671  33.250  1.00  0.00     0.049 A 
ATOM     26  C   UNL A   1      43.750  25.380  29.612  1.00  0.00     0.074 A 
ATOM     27  C   UNL A   1      44.733  29.709  34.175  1.00  0.00     0.029 A 
ATOM     28  N   UNL A   1      43.913  28.546  32.465  1.00  0.00    -0.354 N 
ATOM     29  N   UNL A   1      43.868  26.317  30.521  1.00  0.00    -0.248 NA
ATOM     30  C   UNL A   1      44.861  24.420  29.591  1.00  0.00     0.031 C 
ATOM     31  C   UNL A   1      45.587  28.629  33.919  1.00  0.00     0.029 A 
ATOM     32  C   UNL A   1      45.068  27.895  32.863  1.00  0.00     0.049 A 
ATOM     33  H   UNL A   1      43.324  28.253  31.732  1.00  0.00     0.167 HD
ATOM     34  C   UNL A   1      45.036  26.034  31.214  1.00  0.00     0.074 A 
ATOM     35  C   UNL A   1      45.594  24.837  30.614  1.00  0.00     0.031 C 
ATOM     36  C   UNL A   1      45.590  26.694  32.260  1.00  0.00     0.037 A 
BRANCH  23  37
ATOM     37  C   UNL A   1      42.525  31.802  33.955  1.00  0.00     0.064 A 
ATOM     38  C   UNL A   1      43.160  33.008  33.614  1.00  0.00     0.173 A 
ATOM     39  C   UNL A   1      41.840  31.740  35.175  1.00  0.00     0.173 A 
ATOM     40  F   UNL A   1      43.850  33.107  32.468  1.00  0.00    -0.203 F 
ATOM     41  C   UNL A   1      43.143  34.096  34.482  1.00  0.00     0.198 A 
ATOM     42  C   UNL A   1      41.805  32.839  36.029  1.00  0.00     0.198 A 
ATOM     43  F   UNL A   1      41.224  30.609  35.548  1.00  0.00    -0.203 F 
ATOM     44  F   UNL A   1      43.810  35.214  34.167  1.00  0.00    -0.200 F 
ATOM     45  C   UNL A   1      42.464  34.011  35.689  1.00  0.00     0.200 A 
ATOM     46  F   UNL A   1      41.148  32.757  37.195  1.00  0.00    -0.200 F 
ATOM     47  F   UNL A   1      42.462  35.052  36.532  1.00  0.00    -0.200 F 
ENDBRANCH  23  37
BRANCH  24  48
ATOM     48  C   UNL A   1      42.646  23.976  27.715  1.00  0.00     0.064 A 
ATOM     49  C   UNL A   1      42.264  22.703  28.158  1.00  0.00     0.173 A 
ATOM     50  C   UNL A   1      43.049  24.106  26.377  1.00  0.00     0.173 A 
ATOM     51  F   UNL A   1      41.887  22.524  29.433  1.00  0.00    -0.203 F 
ATOM     52  C   UNL A   1      42.303  21.600  27.306  1.00  0.00     0.198 A 
ATOM     53  C   UNL A   1      43.066  23.007  25.519  1.00  0.00     0.198 A 
ATOM     54  F   UNL A   1      43.422  25.303  25.901  1.00  0.00    -0.203 F 
ATOM     55  F   UNL A   1      41.970  20.387  27.768  1.00  0.00    -0.200 F 
ATOM     56  C   UNL A   1      42.701  21.753  25.987  1.00  0.00     0.200 A 
ATOM     57  F   UNL A   1      43.440  23.162  24.242  1.00  0.00    -0.200 F 
ATOM     58  F   UNL A   1      42.737  20.694  25.168  1.00  0.00    -0.200 F 
ENDBRANCH  24  48
BRANCH  36  59
ATOM     59  C   UNL A   1      46.835  26.108  32.855  1.00  0.00     0.064 A 
ATOM     60  C   UNL A   1      46.783  25.123  33.852  1.00  0.00     0.173 A 
ATOM     61  C   UNL A   1      48.095  26.512  32.390  1.00  0.00     0.173 A 
ATOM     62  F   UNL A   1      45.601  24.718  34.339  1.00  0.00    -0.203 F 
ATOM     63  C   UNL A   1      47.951  24.578  34.377  1.00  0.00     0.198 A 
ATOM     64  C   UNL A   1      49.260  25.945  32.897  1.00  0.00     0.198 A 
ATOM     65  F   UNL A   1      48.196  27.449  31.434  1.00  0.00    -0.203 F 
ATOM     66  F   UNL A   1      47.881  23.670  35.359  1.00  0.00    -0.200 F 
ATOM     67  C   UNL A   1      49.187  24.984  33.895  1.00  0.00     0.200 A 
ATOM     68  F   UNL A   1      50.453  26.329  32.423  1.00  0.00    -0.200 F 
ATOM     69  F   UNL A   1      50.310  24.453  34.397  1.00  0.00    -0.200 F 
ENDBRANCH  36  59
ENDBRANCH  10  11
ENDBRANCH   3   5
ENDBRANCH   2   3
ENDBRANCH   1   2
BRANCH   1  70
ATOM     70  C   UNL A   1      33.972  34.558  29.081  1.00  0.00     0.274 C 
BRANCH  70  71
ATOM     71  O   UNL A   1      33.612  33.937  30.318  1.00  0.00    -0.462 OA
BRANCH  71  72
ATOM     72  C   UNL A   1      34.128  34.499  31.447  1.00  0.00     0.310 C 
ATOM     73  O   UNL A   1      33.983  35.657  31.808  1.00  0.00    -0.252 OA
BRANCH  72  74
ATOM     74  C   UNL A   1      34.773  33.491  32.313  1.00  0.00     0.115 C 
ATOM     75  C   UNL A   1      35.283  32.212  31.726  1.00  0.00     0.034 C 
ATOM     76  C   UNL A   1      36.274  33.188  32.342  1.00  0.00     0.034 C 
BRANCH  76  77
ATOM     77  C   UNL A   1      37.287  33.712  31.320  1.00  0.00    -0.037 A 
ATOM     78  C   UNL A   1      37.192  33.309  29.972  1.00  0.00     0.004 A 
ATOM     79  C   UNL A   1      38.389  34.504  31.678  1.00  0.00     0.004 A 
ATOM     80  C   UNL A   1      38.162  33.657  29.031  1.00  0.00     0.000 A 
ATOM     81  C   UNL A   1      39.361  34.860  30.740  1.00  0.00     0.000 A 
ATOM     82  C   UNL A   1      39.252  34.429  29.420  1.00  0.00     0.000 A 
ENDBRANCH  76  77
BRANCH  76  83
ATOM     83  C   UNL A   1      36.864  32.909  33.748  1.00  0.00    -0.037 A 
ATOM     84  C   UNL A   1      37.565  31.711  33.993  1.00  0.00     0.004 A 
ATOM     85  C   UNL A   1      36.729  33.787  34.842  1.00  0.00     0.004 A 
ATOM     86  C   UNL A   1      38.069  31.390  35.255  1.00  0.00     0.000 A 
ATOM     87  C   UNL A   1      37.248  33.480  36.106  1.00  0.00     0.000 A 
ATOM     88  C   UNL A   1      37.909  32.276  36.314  1.00  0.00     0.000 A 
ENDBRANCH  76  83
ENDBRANCH  72  74
ENDBRANCH  71  72
ENDBRANCH  70  71
ENDBRANCH   1  70
TORSDOF 13
ENDMDL
MODEL 2
REMARK VINA RESULT:     -10.6      4.308     11.111
REMARK SMILES O=C(OCCOC(=O)[C@H]1CC1(c1ccccc1)c1ccccc1)c1ccc(-c2c3nc(c(-c4c(F)c(F)c(F)c(F)c4F)c4ccc([nH]4)c(-c4c(F)c(F)c(F)c(F)c4F)c4nc(c(-c5c(F)c(F)c(F)c(F)c5F)c5ccc2[nH]5)C=C4)C=C3)cc1
REMARK SMILES IDX 4 1 3 2 2 3 1 4 24 5 25 6 86 7 26 8 85 9 27 10 28 11 29 12
REMARK SMILES IDX 79 13 30 14 84 15 78 16 80 17 31 18 83 19 77 20 76 21 32 23
REMARK SMILES IDX 64 24 44 25 63 26 45 27 48 28 62 29 81 30 46 31 47 32 61 34
REMARK SMILES IDX 82 35 49 36 33 37 34 38 42 39 35 40 36 41 40 42 43 43 37 44
REMARK SMILES IDX 38 45 41 46 39 47 65 48 66 49 74 50 67 51 68 52 72 53 75 54
REMARK SMILES IDX 69 55 70 56 73 57 71 58 50 59 51 60 59 61 52 62 53 63 57 64
REMARK SMILES IDX 60 65 54 66 55 67 58 68 56 69 5 70 6 71 7 72 8 73 9 74 10 75
REMARK SMILES IDX 11 76 12 77 13 78 17 79 14 80 16 81 15 82 18 83 19 84 23 85
REMARK SMILES IDX 20 86 22 87 21 88
REMARK H PARENT 80 22 48 33
REMARK Flexibility Score: inf
ROOT
ATOM      1  C   UNL A   1      40.640  20.655  26.786  1.00  0.00     0.275 C 
ENDROOT
BRANCH   1   2
ATOM      2  O   UNL A   1      40.147  21.729  25.961  1.00  0.00    -0.458 OA
BRANCH   2   3
ATOM      3  C   UNL A   1      39.243  22.701  26.232  1.00  0.00     0.338 C 
ATOM      4  O   UNL A   1      38.061  22.495  25.962  1.00  0.00    -0.246 OA
BRANCH   3   5
ATOM      5  C   UNL A   1      39.594  24.067  26.735  1.00  0.00     0.060 A 
ATOM      6  C   UNL A   1      40.229  25.074  26.006  1.00  0.00     0.016 A 
ATOM      7  C   UNL A   1      39.292  24.329  28.087  1.00  0.00     0.016 A 
ATOM      8  C   UNL A   1      40.489  26.328  26.577  1.00  0.00     0.010 A 
ATOM      9  C   UNL A   1      39.561  25.574  28.668  1.00  0.00     0.010 A 
ATOM     10  C   UNL A   1      40.154  26.588  27.909  1.00  0.00    -0.014 A 
BRANCH  10  11
ATOM     11  C   UNL A   1      40.557  27.872  28.527  1.00  0.00     0.031 A 
ATOM     12  C   UNL A   1      42.004  28.080  28.860  1.00  0.00     0.074 A 
ATOM     13  C   UNL A   1      39.661  28.854  28.744  1.00  0.00     0.049 A 
ATOM     14  N   UNL A   1      42.608  29.160  29.280  1.00  0.00    -0.248 NA
ATOM     15  C   UNL A   1      42.891  26.921  28.674  1.00  0.00     0.031 C 
ATOM     16  C   UNL A   1      38.239  28.780  28.428  1.00  0.00     0.029 A 
ATOM     17  N   UNL A   1      39.814  30.108  29.279  1.00  0.00    -0.354 N 
ATOM     18  C   UNL A   1      43.950  28.824  29.367  1.00  0.00     0.074 A 
ATOM     19  C   UNL A   1      44.064  27.421  29.028  1.00  0.00     0.031 C 
ATOM     20  C   UNL A   1      37.639  29.923  28.798  1.00  0.00     0.029 A 
ATOM     21  C   UNL A   1      38.641  30.819  29.363  1.00  0.00     0.049 A 
ATOM     22  H   UNL A   1      40.684  30.465  29.573  1.00  0.00     0.167 HD
ATOM     23  C   UNL A   1      44.999  29.624  29.664  1.00  0.00     0.037 A 
ATOM     24  C   UNL A   1      38.409  32.061  29.828  1.00  0.00     0.037 A 
ATOM     25  C   UNL A   1      44.875  31.006  30.036  1.00  0.00     0.049 A 
ATOM     26  C   UNL A   1      39.581  32.898  30.265  1.00  0.00     0.074 A 
ATOM     27  C   UNL A   1      45.869  31.910  30.358  1.00  0.00     0.029 A 
ATOM     28  N   UNL A   1      43.665  31.676  30.158  1.00  0.00    -0.354 N 
ATOM     29  N   UNL A   1      40.857  32.600  30.254  1.00  0.00    -0.248 NA
ATOM     30  C   UNL A   1      39.284  34.252  30.748  1.00  0.00     0.031 C 
ATOM     31  C   UNL A   1      45.257  33.117  30.719  1.00  0.00     0.029 A 
ATOM     32  C   UNL A   1      43.885  32.976  30.579  1.00  0.00     0.049 A 
ATOM     33  H   UNL A   1      42.781  31.285  29.972  1.00  0.00     0.167 HD
ATOM     34  C   UNL A   1      41.521  33.742  30.676  1.00  0.00     0.074 A 
ATOM     35  C   UNL A   1      40.502  34.739  30.943  1.00  0.00     0.031 C 
ATOM     36  C   UNL A   1      42.853  33.953  30.819  1.00  0.00     0.037 A 
BRANCH  23  37
ATOM     37  C   UNL A   1      46.358  28.995  29.606  1.00  0.00     0.064 A 
ATOM     38  C   UNL A   1      47.087  28.949  28.406  1.00  0.00     0.173 A 
ATOM     39  C   UNL A   1      46.916  28.389  30.739  1.00  0.00     0.173 A 
ATOM     40  F   UNL A   1      46.583  29.493  27.288  1.00  0.00    -0.203 F 
ATOM     41  C   UNL A   1      48.308  28.284  28.336  1.00  0.00     0.198 A 
ATOM     42  C   UNL A   1      48.149  27.746  30.670  1.00  0.00     0.198 A 
ATOM     43  F   UNL A   1      46.256  28.401  31.906  1.00  0.00    -0.203 F 
ATOM     44  F   UNL A   1      48.956  28.195  27.166  1.00  0.00    -0.200 F 
ATOM     45  C   UNL A   1      48.838  27.684  29.468  1.00  0.00     0.200 A 
ATOM     46  F   UNL A   1      48.662  27.167  31.765  1.00  0.00    -0.200 F 
ATOM     47  F   UNL A   1      50.006  27.030  29.397  1.00  0.00    -0.200 F 
ENDBRANCH  23  37
BRANCH  24  48
ATOM     48  C   UNL A   1      37.025  32.605  29.851  1.00  0.00     0.064 A 
ATOM     49  C   UNL A   1      36.501  33.305  28.757  1.00  0.00     0.173 A 
ATOM     50  C   UNL A   1      36.200  32.439  30.974  1.00  0.00     0.173 A 
ATOM     51  F   UNL A   1      37.256  33.504  27.666  1.00  0.00    -0.203 F 
ATOM     52  C   UNL A   1      35.213  33.838  28.791  1.00  0.00     0.198 A 
ATOM     53  C   UNL A   1      34.905  32.953  30.999  1.00  0.00     0.198 A 
ATOM     54  F   UNL A   1      36.652  31.775  32.048  1.00  0.00    -0.203 F 
ATOM     55  F   UNL A   1      34.752  34.538  27.746  1.00  0.00    -0.200 F 
ATOM     56  C   UNL A   1      34.415  33.659  29.911  1.00  0.00     0.200 A 
ATOM     57  F   UNL A   1      34.132  32.768  32.078  1.00  0.00    -0.200 F 
ATOM     58  F   UNL A   1      33.177  34.170  29.942  1.00  0.00    -0.200 F 
ENDBRANCH  24  48
BRANCH  36  59
ATOM     59  C   UNL A   1      43.285  35.328  31.233  1.00  0.00     0.064 A 
ATOM     60  C   UNL A   1      43.393  35.692  32.582  1.00  0.00     0.173 A 
ATOM     61  C   UNL A   1      43.632  36.279  30.261  1.00  0.00     0.173 A 
ATOM     62  F   UNL A   1      43.055  34.821  33.545  1.00  0.00    -0.203 F 
ATOM     63  C   UNL A   1      43.814  36.968  32.945  1.00  0.00     0.198 A 
ATOM     64  C   UNL A   1      44.080  37.544  30.628  1.00  0.00     0.198 A 
ATOM     65  F   UNL A   1      43.549  35.976  28.957  1.00  0.00    -0.203 F 
ATOM     66  F   UNL A   1      43.869  37.310  34.239  1.00  0.00    -0.200 F 
ATOM     67  C   UNL A   1      44.164  37.890  31.969  1.00  0.00     0.200 A 
ATOM     68  F   UNL A   1      44.428  38.430  29.685  1.00  0.00    -0.200 F 
ATOM     69  F   UNL A   1      44.576  39.116  32.321  1.00  0.00    -0.200 F 
ENDBRANCH  36  59
ENDBRANCH  10  11
ENDBRANCH   3   5
ENDBRANCH   2   3
ENDBRANCH   1   2
BRANCH   1  70
ATOM     70  C   UNL A   1      42.117  20.327  26.567  1.00  0.00     0.274 C 
BRANCH  70  71
ATOM     71  O   UNL A   1      42.590  20.861  25.327  1.00  0.00    -0.462 OA
BRANCH  71  72
ATOM     72  C   UNL A   1      43.915  21.177  25.275  1.00  0.00     0.310 C 
ATOM     73  O   UNL A   1      44.848  20.399  25.400  1.00  0.00    -0.252 OA
BRANCH  72  74
ATOM     74  C   UNL A   1      44.124  22.583  24.873  1.00  0.00     0.115 C 
ATOM     75  C   UNL A   1      43.026  23.586  25.046  1.00  0.00     0.034 C 
ATOM     76  C   UNL A   1      44.311  23.755  25.841  1.00  0.00     0.034 C 
BRANCH  76  77
ATOM     77  C   UNL A   1      44.076  23.682  27.352  1.00  0.00    -0.037 A 
ATOM     78  C   UNL A   1      45.170  23.793  28.236  1.00  0.00     0.004 A 
ATOM     79  C   UNL A   1      42.821  23.401  27.915  1.00  0.00     0.004 A 
ATOM     80  C   UNL A   1      45.024  23.607  29.611  1.00  0.00     0.000 A 
ATOM     81  C   UNL A   1      42.668  23.219  29.291  1.00  0.00     0.000 A 
ATOM     82  C   UNL A   1      43.771  23.313  30.137  1.00  0.00     0.000 A 
ENDBRANCH  76  77
BRANCH  76  83
ATOM     83  C   UNL A   1      45.359  24.811  25.405  1.00  0.00    -0.037 A 
ATOM     84  C   UNL A   1      46.654  24.404  25.028  1.00  0.00     0.004 A 
ATOM     85  C   UNL A   1      45.108  26.197  25.375  1.00  0.00     0.004 A 
ATOM     86  C   UNL A   1      47.649  25.321  24.677  1.00  0.00     0.000 A 
ATOM     87  C   UNL A   1      46.094  27.121  25.008  1.00  0.00     0.000 A 
ATOM     88  C   UNL A   1      47.368  26.681  24.669  1.00  0.00     0.000 A 
ENDBRANCH  76  83
ENDBRANCH  72  74
ENDBRANCH  71  72
ENDBRANCH  70  71
ENDBRANCH   1  70
TORSDOF 13
ENDMDL
MODEL 3
REMARK VINA RESULT:     -10.5      0.212      1.633
REMARK SMILES O=C(OCCOC(=O)[C@H]1CC1(c1ccccc1)c1ccccc1)c1ccc(-c2c3nc(c(-c4c(F)c(F)c(F)c(F)c4F)c4ccc([nH]4)c(-c4c(F)c(F)c(F)c(F)c4F)c4nc(c(-c5c(F)c(F)c(F)c(F)c5F)c5ccc2[nH]5)C=C4)C=C3)cc1
REMARK SMILES IDX 4 1 3 2 2 3 1 4 24 5 25 6 86 7 26 8 85 9 27 10 28 11 29 12
REMARK SMILES IDX 79 13 30 14 84 15 78 16 80 17 31 18 83 19 77 20 76 21 32 23
REMARK SMILES IDX 64 24 44 25 63 26 45 27 48 28 62 29 81 30 46 31 47 32 61 34
REMARK SMILES IDX 82 35 49 36 33 37 34 38 42 39 35 40 36 41 40 42 43 43 37 44
REMARK SMILES IDX 38 45 41 46 39 47 65 48 66 49 74 50 67 51 68 52 72 53 75 54
REMARK SMILES IDX 69 55 70 56 73 57 71 58 50 59 51 60 59 61 52 62 53 63 57 64
REMARK SMILES IDX 60 65 54 66 55 67 58 68 56 69 5 70 6 71 7 72 8 73 9 74 10 75
REMARK SMILES IDX 11 76 12 77 13 78 17 79 14 80 16 81 15 82 18 83 19 84 23 85
REMARK SMILES IDX 20 86 22 87 21 88
REMARK H PARENT 80 22 48 33
REMARK Flexibility Score: inf
ROOT
ATOM      1  C   UNL A   1      34.300  33.487  27.996  1.00  0.00     0.275 C 
ENDROOT
BRANCH   1   2
ATOM      2  O   UNL A   1      33.940  32.140  28.361  1.00  0.00    -0.458 OA
BRANCH   2   3
ATOM      3  C   UNL A   1      34.449  30.953  27.954  1.00  0.00     0.338 C 
ATOM      4  O   UNL A   1      33.778  30.257  27.193  1.00  0.00    -0.246 OA
BRANCH   3   5
ATOM      5  C   UNL A   1      35.732  30.365  28.456  1.00  0.00     0.060 A 
ATOM      6  C   UNL A   1      35.917  29.718  29.679  1.00  0.00     0.016 A 
ATOM      7  C   UNL A   1      36.859  30.531  27.625  1.00  0.00     0.016 A 
ATOM      8  C   UNL A   1      37.164  29.186  30.034  1.00  0.00     0.010 A 
ATOM      9  C   UNL A   1      38.111  30.014  27.980  1.00  0.00     0.010 A 
ATOM     10  C   UNL A   1      38.267  29.326  29.188  1.00  0.00    -0.014 A 
BRANCH  10  11
ATOM     11  C   UNL A   1      39.602  28.872  29.643  1.00  0.00     0.031 A 
ATOM     12  C   UNL A   1      40.292  29.654  30.720  1.00  0.00     0.074 A 
ATOM     13  C   UNL A   1      40.168  27.757  29.144  1.00  0.00     0.049 A 
ATOM     14  N   UNL A   1      41.393  29.376  31.366  1.00  0.00    -0.248 NA
ATOM     15  C   UNL A   1      39.641  30.906  31.140  1.00  0.00     0.031 C 
ATOM     16  C   UNL A   1      39.577  26.899  28.123  1.00  0.00     0.029 A 
ATOM     17  N   UNL A   1      41.366  27.153  29.427  1.00  0.00    -0.354 N 
ATOM     18  C   UNL A   1      41.544  30.394  32.296  1.00  0.00     0.074 A 
ATOM     19  C   UNL A   1      40.465  31.334  32.083  1.00  0.00     0.031 C 
ATOM     20  C   UNL A   1      40.422  25.893  27.841  1.00  0.00     0.029 A 
ATOM     21  C   UNL A   1      41.609  26.027  28.677  1.00  0.00     0.049 A 
ATOM     22  H   UNL A   1      41.994  27.494  30.107  1.00  0.00     0.167 HD
ATOM     23  C   UNL A   1      42.478  30.514  33.267  1.00  0.00     0.037 A 
ATOM     24  C   UNL A   1      42.664  25.191  28.680  1.00  0.00     0.037 A 
ATOM     25  C   UNL A   1      43.569  29.596  33.448  1.00  0.00     0.049 A 
ATOM     26  C   UNL A   1      43.754  25.410  29.694  1.00  0.00     0.074 A 
ATOM     27  C   UNL A   1      44.572  29.620  34.398  1.00  0.00     0.029 A 
ATOM     28  N   UNL A   1      43.808  28.496  32.637  1.00  0.00    -0.354 N 
ATOM     29  N   UNL A   1      43.838  26.322  30.631  1.00  0.00    -0.248 NA
ATOM     30  C   UNL A   1      44.877  24.464  29.674  1.00  0.00     0.031 C 
ATOM     31  C   UNL A   1      45.445  28.558  34.133  1.00  0.00     0.029 A 
ATOM     32  C   UNL A   1      44.961  27.848  33.046  1.00  0.00     0.049 A 
ATOM     33  H   UNL A   1      43.240  28.217  31.882  1.00  0.00     0.167 HD
ATOM     34  C   UNL A   1      44.992  26.033  31.345  1.00  0.00     0.074 A 
ATOM     35  C   UNL A   1      45.580  24.861  30.726  1.00  0.00     0.031 C 
ATOM     36  C   UNL A   1      45.512  26.671  32.422  1.00  0.00     0.037 A 
BRANCH  23  37
ATOM     37  C   UNL A   1      42.344  31.692  34.182  1.00  0.00     0.064 A 
ATOM     38  C   UNL A   1      42.912  32.935  33.856  1.00  0.00     0.173 A 
ATOM     39  C   UNL A   1      41.692  31.570  35.416  1.00  0.00     0.173 A 
ATOM     40  F   UNL A   1      43.569  33.094  32.697  1.00  0.00    -0.203 F 
ATOM     41  C   UNL A   1      42.863  34.001  34.750  1.00  0.00     0.198 A 
ATOM     42  C   UNL A   1      41.625  32.646  36.297  1.00  0.00     0.198 A 
ATOM     43  F   UNL A   1      41.139  30.402  35.776  1.00  0.00    -0.203 F 
ATOM     44  F   UNL A   1      43.468  35.157  34.446  1.00  0.00    -0.200 F 
ATOM     45  C   UNL A   1      42.219  33.855  35.970  1.00  0.00     0.200 A 
ATOM     46  F   UNL A   1      41.001  32.505  37.475  1.00  0.00    -0.200 F 
ATOM     47  F   UNL A   1      42.187  34.876  36.838  1.00  0.00    -0.200 F 
ENDBRANCH  23  37
BRANCH  24  48
ATOM     48  C   UNL A   1      42.714  24.047  27.732  1.00  0.00     0.064 A 
ATOM     49  C   UNL A   1      43.149  24.215  26.411  1.00  0.00     0.173 A 
ATOM     50  C   UNL A   1      42.321  22.759  28.129  1.00  0.00     0.173 A 
ATOM     51  F   UNL A   1      43.519  25.430  25.979  1.00  0.00    -0.203 F 
ATOM     52  C   UNL A   1      43.170  23.147  25.516  1.00  0.00     0.198 A 
ATOM     53  C   UNL A   1      42.364  21.686  27.240  1.00  0.00     0.198 A 
ATOM     54  F   UNL A   1      41.900  22.542  29.383  1.00  0.00    -0.203 F 
ATOM     55  F   UNL A   1      43.552  23.345  24.247  1.00  0.00    -0.200 F 
ATOM     56  C   UNL A   1      42.780  21.882  25.932  1.00  0.00     0.200 A 
ATOM     57  F   UNL A   1      41.998  20.464  27.649  1.00  0.00    -0.200 F 
ATOM     58  F   UNL A   1      42.802  20.855  25.072  1.00  0.00    -0.200 F 
ENDBRANCH  24  48
BRANCH  36  59
ATOM     59  C   UNL A   1      46.750  26.083  33.031  1.00  0.00     0.064 A 
ATOM     60  C   UNL A   1      48.031  26.516  32.663  1.00  0.00     0.173 A 
ATOM     61  C   UNL A   1      46.646  25.098  34.025  1.00  0.00     0.173 A 
ATOM     62  F   UNL A   1      48.180  27.444  31.704  1.00  0.00    -0.203 F 
ATOM     63  C   UNL A   1      49.166  25.970  33.253  1.00  0.00     0.198 A 
ATOM     64  C   UNL A   1      47.782  24.574  34.633  1.00  0.00     0.198 A 
ATOM     65  F   UNL A   1      45.441  24.653  34.414  1.00  0.00    -0.203 F 
ATOM     66  F   UNL A   1      50.382  26.368  32.856  1.00  0.00    -0.200 F 
ATOM     67  C   UNL A   1      49.041  25.006  34.243  1.00  0.00     0.200 A 
ATOM     68  F   UNL A   1      47.659  23.651  35.597  1.00  0.00    -0.200 F 
ATOM     69  F   UNL A   1      50.135  24.486  34.815  1.00  0.00    -0.200 F 
ENDBRANCH  36  59
ENDBRANCH  10  11
ENDBRANCH   3   5
ENDBRANCH   2   3
ENDBRANCH   1   2
BRANCH   1  70
ATOM     70  C   UNL A   1      34.075  34.517  29.103  1.00  0.00     0.274 C 
BRANCH  70  71
ATOM     71  O   UNL A   1      33.653  33.890  30.318  1.00  0.00    -0.462 OA
BRANCH  71  72
ATOM     72  C   UNL A   1      34.100  34.457  31.474  1.00  0.00     0.310 C 
ATOM     73  O   UNL A   1      33.894  35.603  31.842  1.00  0.00    -0.252 OA
BRANCH  72  74
ATOM     74  C   UNL A   1      34.747  33.463  32.354  1.00  0.00     0.115 C 
ATOM     75  C   UNL A   1      35.280  32.186  31.782  1.00  0.00     0.034 C 
ATOM     76  C   UNL A   1      36.251  33.179  32.402  1.00  0.00     0.034 C 
BRANCH  76  77
ATOM     77  C   UNL A   1      37.269  33.708  31.389  1.00  0.00    -0.037 A 
ATOM     78  C   UNL A   1      37.222  33.261  30.052  1.00  0.00     0.004 A 
ATOM     79  C   UNL A   1      38.332  34.552  31.748  1.00  0.00     0.004 A 
ATOM     80  C   UNL A   1      38.203  33.616  29.124  1.00  0.00     0.000 A 
ATOM     81  C   UNL A   1      39.314  34.915  30.822  1.00  0.00     0.000 A 
ATOM     82  C   UNL A   1      39.253  34.439  29.514  1.00  0.00     0.000 A 
ENDBRANCH  76  77
BRANCH  76  83
ATOM     83  C   UNL A   1      36.828  32.917  33.817  1.00  0.00    -0.037 A 
ATOM     84  C   UNL A   1      37.516  31.717  34.086  1.00  0.00     0.004 A 
ATOM     85  C   UNL A   1      36.693  33.813  34.896  1.00  0.00     0.004 A 
ATOM     86  C   UNL A   1      38.009  31.412  35.357  1.00  0.00     0.000 A 
ATOM     87  C   UNL A   1      37.200  33.522  36.168  1.00  0.00     0.000 A 
ATOM     88  C   UNL A   1      37.849  32.315  36.400  1.00  0.00     0.000 A 
ENDBRANCH  76  83
ENDBRANCH  72  74
ENDBRANCH  71  72
ENDBRANCH  70  71
ENDBRANCH   1  70
TORSDOF 13
ENDMDL
