MODEL 1
REMARK VINA RESULT:     -12.3      0.000      0.000
REMARK SMILES Cc1ccc(Cl)c(NC(=O)C[N@@H+]2CCC[C@H]2C(=O)OCCOC(=O)c2ccc(-c3c4nc(c(-c5c(F)c(F)c(F)c(F)c5F)c5ccc([nH]5)c(-c5c(F)c(F)c(F)c(F)c5F)c5nc(c(-c6c(F)c(F)c(F)c(F)c6F)c6ccc3[nH]6)C=C5)C=C4)cc2)c1Cl
REMARK SMILES IDX 20 1 19 2 17 3 18 4 16 5 12 6 13 7 14 9 15 10 11 11 9 12
REMARK SMILES IDX 8 13 10 15 7 16 1 17 2 18 3 19 88 20 4 21 89 22 5 23 6 24
REMARK SMILES IDX 21 25 22 26 23 27 24 28 25 29 26 30 87 31 27 32 86 33 28 34
REMARK SMILES IDX 29 35 30 36 80 37 31 38 85 39 79 40 81 41 32 42 84 43 78 44
REMARK SMILES IDX 77 45 33 47 65 48 45 49 64 50 46 51 49 52 63 53 82 54 47 55
REMARK SMILES IDX 48 56 62 58 83 59 50 60 34 61 35 62 43 63 36 64 37 65 41 66
REMARK SMILES IDX 44 67 38 68 39 69 42 70 40 71 66 72 67 73 75 74 68 75 69 76
REMARK SMILES IDX 73 77 76 78 70 79 71 80 74 81 72 82 51 83 52 84 60 85 53 86
REMARK SMILES IDX 54 87 58 88 61 89 55 90 56 91 59 92 57 93
REMARK H PARENT 12 8 8 14 81 46 49 57
REMARK Flexibility Score: inf
ROOT
ATOM      1  C   UNL A   1      35.934  20.047  25.000  1.00  0.00     0.274 C 
ENDROOT
BRANCH   1   2
ATOM      2  O   UNL A   1      34.543  20.274  24.695  1.00  0.00    -0.458 OA
BRANCH   2   3
ATOM      3  C   UNL A   1      33.790  20.913  25.639  1.00  0.00     0.365 C 
ATOM      4  O   UNL A   1      34.115  21.080  26.808  1.00  0.00    -0.245 OA
BRANCH   3   5
ATOM      5  C   UNL A   1      32.501  21.454  24.996  1.00  0.00     0.295 C 
ATOM      6  N   UNL A   1      32.402  22.926  25.162  1.00  0.00    -0.315 N 
ATOM      7  C   UNL A   1      33.201  23.443  24.027  1.00  0.00     0.263 C 
ATOM      8  H   UNL A   1      32.725  23.239  26.077  1.00  0.00     0.349 HD
ATOM      9  C   UNL A   1      32.916  22.520  22.853  1.00  0.00     0.068 C 
ATOM     10  C   UNL A   1      32.449  21.219  23.486  1.00  0.00     0.083 C 
BRANCH   6  11
ATOM     11  C   UNL A   1      30.993  23.392  25.034  1.00  0.00     0.364 C 
BRANCH  11  12
ATOM     12  C   UNL A   1      30.559  24.300  26.186  1.00  0.00     0.279 C 
ATOM     13  N   UNL A   1      30.477  25.660  26.136  1.00  0.00    -0.319 N 
ATOM     14  H   UNL A   1      30.144  26.044  26.979  1.00  0.00     0.170 HD
ATOM     15  O   UNL A   1      30.177  23.784  27.248  1.00  0.00    -0.268 OA
BRANCH  13  16
ATOM     16  C   UNL A   1      30.755  26.655  25.169  1.00  0.00     0.079 A 
ATOM     17  C   UNL A   1      29.185  29.179  22.731  1.00  0.00     0.046 C 
ATOM     18  C   UNL A   1      30.191  28.381  23.519  1.00  0.00    -0.030 A 
ATOM     19  C   UNL A   1      31.510  28.851  23.569  1.00  0.00     0.006 A 
ATOM     20  C   UNL A   1      29.839  27.233  24.269  1.00  0.00     0.069 A 
ATOM     21  C   UNL A   1      32.466  28.191  24.331  1.00  0.00     0.023 A 
ATOM     22  Cl  UNL A   1      28.353  26.428  23.873  1.00  0.00    -0.082 Cl
ATOM     23  C   UNL A   1      32.091  27.111  25.126  1.00  0.00     0.066 A 
ATOM     24  Cl  UNL A   1      33.319  26.398  26.123  1.00  0.00    -0.082 Cl
ENDBRANCH  13  16
ENDBRANCH  11  12
ENDBRANCH   6  11
ENDBRANCH   3   5
ENDBRANCH   2   3
ENDBRANCH   1   2
BRANCH   1  25
ATOM     25  C   UNL A   1      36.749  21.286  24.636  1.00  0.00     0.275 C 
BRANCH  25  26
ATOM     26  O   UNL A   1      37.329  21.834  25.835  1.00  0.00    -0.458 OA
BRANCH  26  27
ATOM     27  C   UNL A   1      38.629  21.551  26.055  1.00  0.00     0.338 C 
ATOM     28  O   UNL A   1      39.222  20.507  25.826  1.00  0.00    -0.246 OA
BRANCH  27  29
ATOM     29  C   UNL A   1      39.307  22.747  26.572  1.00  0.00     0.060 A 
ATOM     30  C   UNL A   1      38.886  23.995  26.127  1.00  0.00     0.016 A 
ATOM     31  C   UNL A   1      40.432  22.641  27.385  1.00  0.00     0.016 A 
ATOM     32  C   UNL A   1      39.640  25.131  26.404  1.00  0.00     0.010 A 
ATOM     33  C   UNL A   1      41.114  23.803  27.774  1.00  0.00     0.010 A 
ATOM     34  C   UNL A   1      40.740  25.062  27.270  1.00  0.00    -0.014 A 
BRANCH  34  35
ATOM     35  C   UNL A   1      41.467  26.307  27.662  1.00  0.00     0.031 A 
ATOM     36  C   UNL A   1      40.808  27.349  28.529  1.00  0.00     0.074 A 
ATOM     37  C   UNL A   1      42.736  26.507  27.248  1.00  0.00     0.049 A 
ATOM     38  N   UNL A   1      41.205  28.566  28.804  1.00  0.00    -0.248 NA
ATOM     39  C   UNL A   1      39.533  26.980  29.161  1.00  0.00     0.031 C 
ATOM     40  C   UNL A   1      43.520  25.574  26.436  1.00  0.00     0.029 A 
ATOM     41  N   UNL A   1      43.599  27.554  27.465  1.00  0.00    -0.354 N 
ATOM     42  C   UNL A   1      40.202  29.130  29.580  1.00  0.00     0.074 A 
ATOM     43  C   UNL A   1      39.183  28.116  29.751  1.00  0.00     0.031 C 
ATOM     44  C   UNL A   1      44.762  26.053  26.284  1.00  0.00     0.029 A 
ATOM     45  C   UNL A   1      44.832  27.379  26.885  1.00  0.00     0.049 A 
ATOM     46  H   UNL A   1      43.357  28.354  27.986  1.00  0.00     0.167 HD
ATOM     47  C   UNL A   1      40.135  30.383  30.093  1.00  0.00     0.037 A 
ATOM     48  C   UNL A   1      45.890  28.207  26.793  1.00  0.00     0.037 A 
ATOM     49  C   UNL A   1      41.178  31.370  29.976  1.00  0.00     0.049 A 
ATOM     50  C   UNL A   1      45.787  29.592  27.355  1.00  0.00     0.074 A 
ATOM     51  C   UNL A   1      41.205  32.663  30.470  1.00  0.00     0.029 A 
ATOM     52  N   UNL A   1      42.392  31.163  29.338  1.00  0.00    -0.354 N 
ATOM     53  N   UNL A   1      44.792  30.146  28.003  1.00  0.00    -0.248 NA
ATOM     54  C   UNL A   1      46.935  30.482  27.135  1.00  0.00     0.031 C 
ATOM     55  C   UNL A   1      42.423  33.248  30.107  1.00  0.00     0.029 A 
ATOM     56  C   UNL A   1      43.170  32.308  29.417  1.00  0.00     0.049 A 
ATOM     57  H   UNL A   1      42.662  30.327  28.894  1.00  0.00     0.167 HD
ATOM     58  C   UNL A   1      45.186  31.450  28.258  1.00  0.00     0.074 A 
ATOM     59  C   UNL A   1      46.525  31.598  27.724  1.00  0.00     0.031 C 
ATOM     60  C   UNL A   1      44.492  32.442  28.868  1.00  0.00     0.037 A 
BRANCH  47  61
ATOM     61  C   UNL A   1      38.872  30.784  30.797  1.00  0.00     0.064 A 
ATOM     62  C   UNL A   1      38.727  30.670  32.185  1.00  0.00     0.173 A 
ATOM     63  C   UNL A   1      37.812  31.347  30.069  1.00  0.00     0.173 A 
ATOM     64  F   UNL A   1      39.705  30.126  32.924  1.00  0.00    -0.203 F 
ATOM     65  C   UNL A   1      37.559  31.093  32.819  1.00  0.00     0.198 A 
ATOM     66  C   UNL A   1      36.657  31.789  30.707  1.00  0.00     0.198 A 
ATOM     67  F   UNL A   1      37.904  31.482  28.737  1.00  0.00    -0.203 F 
ATOM     68  F   UNL A   1      37.428  30.947  34.145  1.00  0.00    -0.200 F 
ATOM     69  C   UNL A   1      36.530  31.658  32.081  1.00  0.00     0.200 A 
ATOM     70  F   UNL A   1      35.668  32.343  29.992  1.00  0.00    -0.200 F 
ATOM     71  F   UNL A   1      35.412  32.073  32.694  1.00  0.00    -0.200 F 
ENDBRANCH  47  61
BRANCH  48  72
ATOM     72  C   UNL A   1      47.116  27.754  26.087  1.00  0.00     0.064 A 
ATOM     73  C   UNL A   1      48.201  27.221  26.795  1.00  0.00     0.173 A 
ATOM     74  C   UNL A   1      47.212  27.810  24.688  1.00  0.00     0.173 A 
ATOM     75  F   UNL A   1      48.165  27.174  28.135  1.00  0.00    -0.203 F 
ATOM     76  C   UNL A   1      49.333  26.755  26.132  1.00  0.00     0.198 A 
ATOM     77  C   UNL A   1      48.332  27.316  24.023  1.00  0.00     0.198 A 
ATOM     78  F   UNL A   1      46.201  28.313  23.965  1.00  0.00    -0.203 F 
ATOM     79  F   UNL A   1      50.367  26.273  26.833  1.00  0.00    -0.200 F 
ATOM     80  C   UNL A   1      49.392  26.791  24.746  1.00  0.00     0.200 A 
ATOM     81  F   UNL A   1      48.377  27.338  22.684  1.00  0.00    -0.200 F 
ATOM     82  F   UNL A   1      50.474  26.324  24.107  1.00  0.00    -0.200 F 
ENDBRANCH  48  72
BRANCH  60  83
ATOM     83  C   UNL A   1      45.174  33.771  28.983  1.00  0.00     0.064 A 
ATOM     84  C   UNL A   1      45.041  34.743  27.982  1.00  0.00     0.173 A 
ATOM     85  C   UNL A   1      45.949  34.081  30.109  1.00  0.00     0.173 A 
ATOM     86  F   UNL A   1      44.324  34.482  26.878  1.00  0.00    -0.203 F 
ATOM     87  C   UNL A   1      45.678  35.975  28.096  1.00  0.00     0.198 A 
ATOM     88  C   UNL A   1      46.568  35.320  30.229  1.00  0.00     0.198 A 
ATOM     89  F   UNL A   1      46.103  33.180  31.092  1.00  0.00    -0.203 F 
ATOM     90  F   UNL A   1      45.570  36.878  27.111  1.00  0.00    -0.200 F 
ATOM     91  C   UNL A   1      46.437  36.264  29.221  1.00  0.00     0.200 A 
ATOM     92  F   UNL A   1      47.299  35.601  31.317  1.00  0.00    -0.200 F 
ATOM     93  F   UNL A   1      47.051  37.451  29.329  1.00  0.00    -0.200 F 
ENDBRANCH  60  83
ENDBRANCH  34  35
ENDBRANCH  27  29
ENDBRANCH  26  27
ENDBRANCH  25  26
ENDBRANCH   1  25
TORSDOF 14
ENDMDL
MODEL 2
REMARK VINA RESULT:     -12.3      0.287      1.616
REMARK SMILES Cc1ccc(Cl)c(NC(=O)C[N@@H+]2CCC[C@H]2C(=O)OCCOC(=O)c2ccc(-c3c4nc(c(-c5c(F)c(F)c(F)c(F)c5F)c5ccc([nH]5)c(-c5c(F)c(F)c(F)c(F)c5F)c5nc(c(-c6c(F)c(F)c(F)c(F)c6F)c6ccc3[nH]6)C=C5)C=C4)cc2)c1Cl
REMARK SMILES IDX 20 1 19 2 17 3 18 4 16 5 12 6 13 7 14 9 15 10 11 11 9 12
REMARK SMILES IDX 8 13 10 15 7 16 1 17 2 18 3 19 88 20 4 21 89 22 5 23 6 24
REMARK SMILES IDX 21 25 22 26 23 27 24 28 25 29 26 30 87 31 27 32 86 33 28 34
REMARK SMILES IDX 29 35 30 36 80 37 31 38 85 39 79 40 81 41 32 42 84 43 78 44
REMARK SMILES IDX 77 45 33 47 65 48 45 49 64 50 46 51 49 52 63 53 82 54 47 55
REMARK SMILES IDX 48 56 62 58 83 59 50 60 34 61 35 62 43 63 36 64 37 65 41 66
REMARK SMILES IDX 44 67 38 68 39 69 42 70 40 71 66 72 67 73 75 74 68 75 69 76
REMARK SMILES IDX 73 77 76 78 70 79 71 80 74 81 72 82 51 83 52 84 60 85 53 86
REMARK SMILES IDX 54 87 58 88 61 89 55 90 56 91 59 92 57 93
REMARK H PARENT 12 8 8 14 81 46 49 57
REMARK Flexibility Score: inf
ROOT
ATOM      1  C   UNL A   1      35.978  20.071  25.031  1.00  0.00     0.274 C 
ENDROOT
BRANCH   1   2
ATOM      2  O   UNL A   1      34.600  20.354  24.714  1.00  0.00    -0.458 OA
BRANCH   2   3
ATOM      3  C   UNL A   1      33.863  21.016  25.655  1.00  0.00     0.365 C 
ATOM      4  O   UNL A   1      34.221  21.240  26.805  1.00  0.00    -0.245 OA
BRANCH   3   5
ATOM      5  C   UNL A   1      32.542  21.503  25.033  1.00  0.00     0.295 C 
ATOM      6  N   UNL A   1      32.400  22.973  25.172  1.00  0.00    -0.315 N 
ATOM      7  C   UNL A   1      33.154  23.492  24.009  1.00  0.00     0.263 C 
ATOM      8  H   UNL A   1      32.734  23.315  26.073  1.00  0.00     0.349 HD
ATOM      9  C   UNL A   1      32.872  22.536  22.860  1.00  0.00     0.068 C 
ATOM     10  C   UNL A   1      32.463  21.235  23.529  1.00  0.00     0.083 C 
BRANCH   6  11
ATOM     11  C   UNL A   1      30.973  23.391  25.069  1.00  0.00     0.364 C 
BRANCH  11  12
ATOM     12  C   UNL A   1      30.538  24.310  26.213  1.00  0.00     0.279 C 
ATOM     13  N   UNL A   1      30.477  25.670  26.157  1.00  0.00    -0.319 N 
ATOM     14  H   UNL A   1      30.138  26.063  26.993  1.00  0.00     0.170 HD
ATOM     15  O   UNL A   1      30.133  23.803  27.271  1.00  0.00    -0.268 OA
BRANCH  13  16
ATOM     16  C   UNL A   1      30.784  26.658  25.190  1.00  0.00     0.079 A 
ATOM     17  C   UNL A   1      29.286  29.179  22.705  1.00  0.00     0.046 C 
ATOM     18  C   UNL A   1      30.269  28.378  23.519  1.00  0.00    -0.030 A 
ATOM     19  C   UNL A   1      31.590  28.839  23.594  1.00  0.00     0.006 A 
ATOM     20  C   UNL A   1      29.891  27.237  24.268  1.00  0.00     0.069 A 
ATOM     21  C   UNL A   1      32.524  28.176  24.381  1.00  0.00     0.023 A 
ATOM     22  Cl  UNL A   1      28.409  26.440  23.843  1.00  0.00    -0.082 Cl
ATOM     23  C   UNL A   1      32.124  27.104  25.174  1.00  0.00     0.066 A 
ATOM     24  Cl  UNL A   1      33.324  26.387  26.201  1.00  0.00    -0.082 Cl
ENDBRANCH  13  16
ENDBRANCH  11  12
ENDBRANCH   6  11
ENDBRANCH   3   5
ENDBRANCH   2   3
ENDBRANCH   1   2
BRANCH   1  25
ATOM     25  C   UNL A   1      36.847  21.272  24.662  1.00  0.00     0.275 C 
BRANCH  25  26
ATOM     26  O   UNL A   1      37.418  21.824  25.865  1.00  0.00    -0.458 OA
BRANCH  26  27
ATOM     27  C   UNL A   1      38.705  21.510  26.115  1.00  0.00     0.338 C 
ATOM     28  O   UNL A   1      39.271  20.443  25.923  1.00  0.00    -0.246 OA
BRANCH  27  29
ATOM     29  C   UNL A   1      39.409  22.698  26.612  1.00  0.00     0.060 A 
ATOM     30  C   UNL A   1      39.009  23.948  26.152  1.00  0.00     0.016 A 
ATOM     31  C   UNL A   1      40.536  22.582  27.420  1.00  0.00     0.016 A 
ATOM     32  C   UNL A   1      39.786  25.074  26.410  1.00  0.00     0.010 A 
ATOM     33  C   UNL A   1      41.243  23.735  27.789  1.00  0.00     0.010 A 
ATOM     34  C   UNL A   1      40.890  24.995  27.271  1.00  0.00    -0.014 A 
BRANCH  34  35
ATOM     35  C   UNL A   1      41.643  26.231  27.642  1.00  0.00     0.031 A 
ATOM     36  C   UNL A   1      41.026  27.275  28.535  1.00  0.00     0.074 A 
ATOM     37  C   UNL A   1      42.899  26.420  27.184  1.00  0.00     0.049 A 
ATOM     38  N   UNL A   1      41.445  28.488  28.801  1.00  0.00    -0.248 NA
ATOM     39  C   UNL A   1      39.770  26.916  29.211  1.00  0.00     0.031 C 
ATOM     40  C   UNL A   1      43.644  25.483  26.342  1.00  0.00     0.029 A 
ATOM     41  N   UNL A   1      43.780  27.457  27.375  1.00  0.00    -0.354 N 
ATOM     42  C   UNL A   1      40.475  29.058  29.615  1.00  0.00     0.074 A 
ATOM     43  C   UNL A   1      39.452  28.053  29.817  1.00  0.00     0.031 C 
ATOM     44  C   UNL A   1      44.885  25.950  26.148  1.00  0.00     0.029 A 
ATOM     45  C   UNL A   1      44.989  27.273  26.751  1.00  0.00     0.049 A 
ATOM     46  H   UNL A   1      43.564  28.257  27.907  1.00  0.00     0.167 HD
ATOM     47  C   UNL A   1      40.439  30.309  30.134  1.00  0.00     0.037 A 
ATOM     48  C   UNL A   1      46.053  28.089  26.625  1.00  0.00     0.037 A 
ATOM     49  C   UNL A   1      41.488  31.286  29.985  1.00  0.00     0.049 A 
ATOM     50  C   UNL A   1      45.983  29.474  27.196  1.00  0.00     0.074 A 
ATOM     51  C   UNL A   1      41.545  32.577  30.482  1.00  0.00     0.029 A 
ATOM     52  N   UNL A   1      42.676  31.070  29.303  1.00  0.00    -0.354 N 
ATOM     53  N   UNL A   1      45.018  30.034  27.881  1.00  0.00    -0.248 NA
ATOM     54  C   UNL A   1      47.132  30.353  26.940  1.00  0.00     0.031 C 
ATOM     55  C   UNL A   1      42.756  33.151  30.080  1.00  0.00     0.029 A 
ATOM     56  C   UNL A   1      43.468  32.207  29.360  1.00  0.00     0.049 A 
ATOM     57  H   UNL A   1      42.922  30.233  28.847  1.00  0.00     0.167 HD
ATOM     58  C   UNL A   1      45.434  31.334  28.127  1.00  0.00     0.074 A 
ATOM     59  C   UNL A   1      46.754  31.470  27.547  1.00  0.00     0.031 C 
ATOM     60  C   UNL A   1      44.772  32.330  28.765  1.00  0.00     0.037 A 
BRANCH  47  61
ATOM     61  C   UNL A   1      39.206  30.720  30.884  1.00  0.00     0.064 A 
ATOM     62  C   UNL A   1      38.101  31.292  30.240  1.00  0.00     0.173 A 
ATOM     63  C   UNL A   1      39.112  30.480  32.264  1.00  0.00     0.173 A 
ATOM     64  F   UNL A   1      38.146  31.554  28.926  1.00  0.00    -0.203 F 
ATOM     65  C   UNL A   1      36.949  31.622  30.954  1.00  0.00     0.198 A 
ATOM     66  C   UNL A   1      37.954  30.791  32.970  1.00  0.00     0.198 A 
ATOM     67  F   UNL A   1      40.142  29.930  32.925  1.00  0.00    -0.203 F 
ATOM     68  F   UNL A   1      35.915  32.197  30.326  1.00  0.00    -0.200 F 
ATOM     69  C   UNL A   1      36.874  31.364  32.315  1.00  0.00     0.200 A 
ATOM     70  F   UNL A   1      37.880  30.532  34.283  1.00  0.00    -0.200 F 
ATOM     71  F   UNL A   1      35.763  31.674  32.997  1.00  0.00    -0.200 F 
ENDBRANCH  47  61
BRANCH  48  72
ATOM     72  C   UNL A   1      47.248  27.628  25.874  1.00  0.00     0.064 A 
ATOM     73  C   UNL A   1      47.303  27.725  24.478  1.00  0.00     0.173 A 
ATOM     74  C   UNL A   1      48.373  27.118  26.539  1.00  0.00     0.173 A 
ATOM     75  F   UNL A   1      46.240  28.180  23.797  1.00  0.00    -0.203 F 
ATOM     76  C   UNL A   1      48.440  27.335  23.775  1.00  0.00     0.198 A 
ATOM     77  C   UNL A   1      49.521  26.756  25.838  1.00  0.00     0.198 A 
ATOM     78  F   UNL A   1      48.369  27.003  27.876  1.00  0.00    -0.203 F 
ATOM     79  F   UNL A   1      48.458  27.413  22.438  1.00  0.00    -0.200 F 
ATOM     80  C   UNL A   1      49.553  26.862  24.457  1.00  0.00     0.200 A 
ATOM     81  F   UNL A   1      50.598  26.316  26.503  1.00  0.00    -0.200 F 
ATOM     82  F   UNL A   1      50.654  26.506  23.781  1.00  0.00    -0.200 F 
ENDBRANCH  48  72
BRANCH  60  83
ATOM     83  C   UNL A   1      45.470  33.651  28.862  1.00  0.00     0.064 A 
ATOM     84  C   UNL A   1      45.286  34.642  27.887  1.00  0.00     0.173 A 
ATOM     85  C   UNL A   1      46.315  33.935  29.943  1.00  0.00     0.173 A 
ATOM     86  F   UNL A   1      44.501  34.406  26.825  1.00  0.00    -0.203 F 
ATOM     87  C   UNL A   1      45.940  35.867  27.983  1.00  0.00     0.198 A 
ATOM     88  C   UNL A   1      46.951  35.167  30.047  1.00  0.00     0.198 A 
ATOM     89  F   UNL A   1      46.520  33.016  30.900  1.00  0.00    -0.203 F 
ATOM     90  F   UNL A   1      45.780  36.787  27.023  1.00  0.00    -0.200 F 
ATOM     91  C   UNL A   1      46.767  36.130  29.065  1.00  0.00     0.200 A 
ATOM     92  F   UNL A   1      47.748  35.423  31.094  1.00  0.00    -0.200 F 
ATOM     93  F   UNL A   1      47.397  37.310  29.156  1.00  0.00    -0.200 F 
ENDBRANCH  60  83
ENDBRANCH  34  35
ENDBRANCH  27  29
ENDBRANCH  26  27
ENDBRANCH  25  26
ENDBRANCH   1  25
TORSDOF 14
ENDMDL
MODEL 3
REMARK VINA RESULT:     -12.3      4.326      9.708
REMARK SMILES Cc1ccc(Cl)c(NC(=O)C[N@@H+]2CCC[C@H]2C(=O)OCCOC(=O)c2ccc(-c3c4nc(c(-c5c(F)c(F)c(F)c(F)c5F)c5ccc([nH]5)c(-c5c(F)c(F)c(F)c(F)c5F)c5nc(c(-c6c(F)c(F)c(F)c(F)c6F)c6ccc3[nH]6)C=C5)C=C4)cc2)c1Cl
REMARK SMILES IDX 20 1 19 2 17 3 18 4 16 5 12 6 13 7 14 9 15 10 11 11 9 12
REMARK SMILES IDX 8 13 10 15 7 16 1 17 2 18 3 19 88 20 4 21 89 22 5 23 6 24
REMARK SMILES IDX 21 25 22 26 23 27 24 28 25 29 26 30 87 31 27 32 86 33 28 34
REMARK SMILES IDX 29 35 30 36 80 37 31 38 85 39 79 40 81 41 32 42 84 43 78 44
REMARK SMILES IDX 77 45 33 47 65 48 45 49 64 50 46 51 49 52 63 53 82 54 47 55
REMARK SMILES IDX 48 56 62 58 83 59 50 60 34 61 35 62 43 63 36 64 37 65 41 66
REMARK SMILES IDX 44 67 38 68 39 69 42 70 40 71 66 72 67 73 75 74 68 75 69 76
REMARK SMILES IDX 73 77 76 78 70 79 71 80 74 81 72 82 51 83 52 84 60 85 53 86
REMARK SMILES IDX 54 87 58 88 61 89 55 90 56 91 59 92 57 93
REMARK H PARENT 12 8 8 14 81 46 49 57
REMARK Flexibility Score: inf
ROOT
ATOM      1  C   UNL A   1      31.127  29.332  24.813  1.00  0.00     0.274 C 
ENDROOT
BRANCH   1   2
ATOM      2  O   UNL A   1      31.796  28.244  24.144  1.00  0.00    -0.458 OA
BRANCH   2   3
ATOM      3  C   UNL A   1      31.334  26.982  24.382  1.00  0.00     0.365 C 
ATOM      4  O   UNL A   1      30.202  26.702  24.760  1.00  0.00    -0.245 OA
BRANCH   3   5
ATOM      5  C   UNL A   1      32.426  25.954  24.035  1.00  0.00     0.295 C 
ATOM      6  N   UNL A   1      31.853  24.799  23.299  1.00  0.00    -0.315 N 
ATOM      7  C   UNL A   1      31.836  25.273  21.897  1.00  0.00     0.263 C 
ATOM      8  H   UNL A   1      30.940  24.520  23.658  1.00  0.00     0.349 HD
ATOM      9  C   UNL A   1      33.109  26.085  21.708  1.00  0.00     0.068 C 
ATOM     10  C   UNL A   1      33.501  26.524  23.109  1.00  0.00     0.083 C 
BRANCH   6  11
ATOM     11  C   UNL A   1      32.730  23.599  23.409  1.00  0.00     0.364 C 
BRANCH  11  12
ATOM     12  C   UNL A   1      32.516  22.823  24.711  1.00  0.00     0.279 C 
ATOM     13  N   UNL A   1      33.499  22.263  25.470  1.00  0.00    -0.319 N 
ATOM     14  H   UNL A   1      33.145  21.839  26.285  1.00  0.00     0.170 HD
ATOM     15  O   UNL A   1      31.370  22.738  25.179  1.00  0.00    -0.268 OA
BRANCH  13  16
ATOM     16  C   UNL A   1      34.906  22.139  25.373  1.00  0.00     0.079 A 
ATOM     17  C   UNL A   1      38.263  23.814  26.213  1.00  0.00     0.046 C 
ATOM     18  C   UNL A   1      37.234  22.831  25.716  1.00  0.00    -0.030 A 
ATOM     19  C   UNL A   1      37.659  21.529  25.419  1.00  0.00     0.006 A 
ATOM     20  C   UNL A   1      35.858  23.148  25.619  1.00  0.00     0.069 A 
ATOM     21  C   UNL A   1      36.744  20.563  25.018  1.00  0.00     0.023 A 
ATOM     22  Cl  UNL A   1      35.411  24.824  25.570  1.00  0.00    -0.082 Cl
ATOM     23  C   UNL A   1      35.385  20.863  25.003  1.00  0.00     0.066 A 
ATOM     24  Cl  UNL A   1      34.296  19.579  24.583  1.00  0.00    -0.082 Cl
ENDBRANCH  13  16
ENDBRANCH  11  12
ENDBRANCH   6  11
ENDBRANCH   3   5
ENDBRANCH   2   3
ENDBRANCH   1   2
BRANCH   1  25
ATOM     25  C   UNL A   1      31.760  29.559  26.185  1.00  0.00     0.275 C 
BRANCH  25  26
ATOM     26  O   UNL A   1      33.017  30.243  26.013  1.00  0.00    -0.458 OA
BRANCH  26  27
ATOM     27  C   UNL A   1      33.278  31.241  26.881  1.00  0.00     0.338 C 
ATOM     28  O   UNL A   1      32.569  32.196  27.167  1.00  0.00    -0.246 OA
BRANCH  27  29
ATOM     29  C   UNL A   1      34.568  30.992  27.537  1.00  0.00     0.060 A 
ATOM     30  C   UNL A   1      34.880  29.692  27.917  1.00  0.00     0.016 A 
ATOM     31  C   UNL A   1      35.409  32.042  27.894  1.00  0.00     0.016 A 
ATOM     32  C   UNL A   1      35.975  29.444  28.740  1.00  0.00     0.010 A 
ATOM     33  C   UNL A   1      36.584  31.773  28.610  1.00  0.00     0.010 A 
ATOM     34  C   UNL A   1      36.871  30.472  29.063  1.00  0.00    -0.014 A 
BRANCH  34  35
ATOM     35  C   UNL A   1      38.110  30.173  29.842  1.00  0.00     0.031 A 
ATOM     36  C   UNL A   1      39.206  29.320  29.257  1.00  0.00     0.074 A 
ATOM     37  C   UNL A   1      38.266  30.676  31.084  1.00  0.00     0.049 A 
ATOM     38  N   UNL A   1      40.250  28.795  29.848  1.00  0.00    -0.248 NA
ATOM     39  C   UNL A   1      39.112  29.006  27.823  1.00  0.00     0.031 C 
ATOM     40  C   UNL A   1      37.311  31.549  31.771  1.00  0.00     0.029 A 
ATOM     41  N   UNL A   1      39.292  30.542  31.988  1.00  0.00    -0.354 N 
ATOM     42  C   UNL A   1      40.897  28.037  28.881  1.00  0.00     0.074 A 
ATOM     43  C   UNL A   1      40.139  28.183  27.657  1.00  0.00     0.031 C 
ATOM     44  C   UNL A   1      37.823  31.926  32.950  1.00  0.00     0.029 A 
ATOM     45  C   UNL A   1      39.088  31.233  33.158  1.00  0.00     0.049 A 
ATOM     46  H   UNL A   1      40.096  30.002  31.814  1.00  0.00     0.167 HD
ATOM     47  C   UNL A   1      42.014  27.281  29.012  1.00  0.00     0.037 A 
ATOM     48  C   UNL A   1      39.804  31.271  34.297  1.00  0.00     0.037 A 
ATOM     49  C   UNL A   1      42.803  27.188  30.214  1.00  0.00     0.049 A 
ATOM     50  C   UNL A   1      41.028  30.414  34.422  1.00  0.00     0.074 A 
ATOM     51  C   UNL A   1      43.956  26.454  30.438  1.00  0.00     0.029 A 
ATOM     52  N   UNL A   1      42.531  27.870  31.390  1.00  0.00    -0.354 N 
ATOM     53  N   UNL A   1      41.575  29.626  33.531  1.00  0.00    -0.248 NA
ATOM     54  C   UNL A   1      41.709  30.420  35.723  1.00  0.00     0.031 C 
ATOM     55  C   UNL A   1      44.367  26.672  31.757  1.00  0.00     0.029 A 
ATOM     56  C   UNL A   1      43.489  27.567  32.346  1.00  0.00     0.049 A 
ATOM     57  H   UNL A   1      41.771  28.479  31.527  1.00  0.00     0.167 HD
ATOM     58  C   UNL A   1      42.655  29.031  34.164  1.00  0.00     0.074 A 
ATOM     59  C   UNL A   1      42.708  29.575  35.505  1.00  0.00     0.031 C 
ATOM     60  C   UNL A   1      43.518  28.104  33.679  1.00  0.00     0.037 A 
BRANCH  47  61
ATOM     61  C   UNL A   1      42.439  26.453  27.834  1.00  0.00     0.064 A 
ATOM     62  C   UNL A   1      41.871  25.201  27.562  1.00  0.00     0.173 A 
ATOM     63  C   UNL A   1      43.391  26.953  26.932  1.00  0.00     0.173 A 
ATOM     64  F   UNL A   1      40.968  24.673  28.401  1.00  0.00    -0.203 F 
ATOM     65  C   UNL A   1      42.251  24.474  26.435  1.00  0.00     0.198 A 
ATOM     66  C   UNL A   1      43.752  26.234  25.796  1.00  0.00     0.198 A 
ATOM     67  F   UNL A   1      43.961  28.149  27.146  1.00  0.00    -0.203 F 
ATOM     68  F   UNL A   1      41.718  23.265  26.210  1.00  0.00    -0.200 F 
ATOM     69  C   UNL A   1      43.184  24.993  25.551  1.00  0.00     0.200 A 
ATOM     70  F   UNL A   1      44.647  26.743  24.939  1.00  0.00    -0.200 F 
ATOM     71  F   UNL A   1      43.541  24.295  24.463  1.00  0.00    -0.200 F 
ENDBRANCH  47  61
BRANCH  48  72
ATOM     72  C   UNL A   1      39.337  32.111  35.430  1.00  0.00     0.064 A 
ATOM     73  C   UNL A   1      38.489  31.587  36.414  1.00  0.00     0.173 A 
ATOM     74  C   UNL A   1      39.760  33.442  35.571  1.00  0.00     0.173 A 
ATOM     75  F   UNL A   1      38.038  30.329  36.306  1.00  0.00    -0.203 F 
ATOM     76  C   UNL A   1      38.087  32.359  37.501  1.00  0.00     0.198 A 
ATOM     77  C   UNL A   1      39.380  34.204  36.673  1.00  0.00     0.198 A 
ATOM     78  F   UNL A   1      40.570  33.990  34.654  1.00  0.00    -0.203 F 
ATOM     79  F   UNL A   1      37.255  31.843  38.415  1.00  0.00    -0.200 F 
ATOM     80  C   UNL A   1      38.542  33.663  37.636  1.00  0.00     0.200 A 
ATOM     81  F   UNL A   1      39.837  35.457  36.807  1.00  0.00    -0.200 F 
ATOM     82  F   UNL A   1      38.170  34.399  38.692  1.00  0.00    -0.200 F 
ENDBRANCH  48  72
BRANCH  60  83
ATOM     83  C   UNL A   1      44.587  27.624  34.612  1.00  0.00     0.064 A 
ATOM     84  C   UNL A   1      45.805  28.307  34.731  1.00  0.00     0.173 A 
ATOM     85  C   UNL A   1      44.385  26.486  35.403  1.00  0.00     0.173 A 
ATOM     86  F   UNL A   1      46.048  29.391  33.977  1.00  0.00    -0.203 F 
ATOM     87  C   UNL A   1      46.795  27.853  35.598  1.00  0.00     0.198 A 
ATOM     88  C   UNL A   1      45.368  26.046  36.284  1.00  0.00     0.198 A 
ATOM     89  F   UNL A   1      43.234  25.801  35.323  1.00  0.00    -0.203 F 
ATOM     90  F   UNL A   1      47.967  28.498  35.670  1.00  0.00    -0.200 F 
ATOM     91  C   UNL A   1      46.574  26.728  36.377  1.00  0.00     0.200 A 
ATOM     92  F   UNL A   1      45.154  24.960  37.039  1.00  0.00    -0.200 F 
ATOM     93  F   UNL A   1      47.528  26.291  37.212  1.00  0.00    -0.200 F 
ENDBRANCH  60  83
ENDBRANCH  34  35
ENDBRANCH  27  29
ENDBRANCH  26  27
ENDBRANCH  25  26
ENDBRANCH   1  25
TORSDOF 14
ENDMDL
