MODEL 1
REMARK VINA RESULT:     -11.7      0.000      0.000
REMARK SMILES CCCc1cc(=O)[nH]c(S[C@@H]2CC[C@@]([NH2+]C)(C(=O)OCCOC(=O)c3ccc(-c4c5nc(c(-c6c(F)c(F)c(F)c(F)c6F)c6ccc([nH]6)c(-c6c(F)c(F)c(F)c(F)c6F)c6nc(c(-c7c(F)c(F)c(F)c(F)c7F)c7ccc4[nH]7)C=C6)C=C5)cc3)C2)n1
REMARK SMILES IDX 20 1 19 2 17 3 18 4 14 5 11 6 12 7 88 8 13 9 10 10 9 11 4 12
REMARK SMILES IDX 5 13 89 14 6 15 7 16 8 17 3 19 2 20 1 21 15 22 16 23 21 26
REMARK SMILES IDX 22 27 23 28 24 29 25 30 26 31 87 32 27 33 86 34 28 35 29 36
REMARK SMILES IDX 30 37 80 38 31 39 85 40 79 41 81 42 32 43 84 44 78 45 77 46
REMARK SMILES IDX 33 48 65 49 45 50 64 51 46 52 49 53 63 54 82 55 47 56 48 57
REMARK SMILES IDX 62 59 83 60 50 61 34 62 35 63 43 64 36 65 37 66 41 67 44 68
REMARK SMILES IDX 38 69 39 70 42 71 40 72 66 73 67 74 75 75 68 76 69 77 73 78
REMARK SMILES IDX 76 79 70 80 71 81 74 82 72 83 51 84 52 85 60 86 53 87 54 88
REMARK SMILES IDX 58 89 61 90 55 91 56 92 59 93 57 94
REMARK H PARENT 8 18 15 24 15 25 81 47 49 58
REMARK Flexibility Score: inf
ROOT
ATOM      1  C   UNL A   1      31.506  29.387  24.909  1.00  0.00     0.274 C 
ENDROOT
BRANCH   1   2
ATOM      2  O   UNL A   1      31.521  28.145  25.640  1.00  0.00    -0.457 OA
BRANCH   2   3
ATOM      3  C   UNL A   1      32.511  27.271  25.314  1.00  0.00     0.368 C 
ATOM      4  O   UNL A   1      33.707  27.552  25.359  1.00  0.00    -0.245 OA
BRANCH   3   5
ATOM      5  C   UNL A   1      31.987  25.881  24.828  1.00  0.00     0.195 C 
ATOM      6  C   UNL A   1      31.961  24.356  26.719  1.00  0.00     0.062 C 
ATOM      7  C   UNL A   1      30.548  24.350  26.167  1.00  0.00     0.022 C 
ATOM      8  C   UNL A   1      32.808  24.754  25.512  1.00  0.00     0.096 C 
ATOM      9  C   UNL A   1      30.517  25.574  25.244  1.00  0.00     0.082 C 
BRANCH   6  10
ATOM     10  S   UNL A   1      32.454  22.882  27.655  1.00  0.00    -0.084 SA
BRANCH  10  11
ATOM     11  C   UNL A   1      33.248  21.854  26.509  1.00  0.00     0.168 A 
ATOM     12  C   UNL A   1      35.016  21.028  25.331  1.00  0.00     0.049 A 
ATOM     13  C   UNL A   1      34.248  20.155  24.664  1.00  0.00     0.095 A 
ATOM     14  N   UNL A   1      34.509  21.909  26.258  1.00  0.00    -0.229 NA
ATOM     15  C   UNL A   1      32.808  20.109  24.968  1.00  0.00     0.251 A 
ATOM     16  O   UNL A   1      32.064  19.320  24.401  1.00  0.00    -0.269 OA
ATOM     17  N   UNL A   1      32.387  20.994  25.909  1.00  0.00    -0.301 N 
ATOM     18  H   UNL A   1      31.435  21.010  26.162  1.00  0.00     0.172 HD
BRANCH  12  19
ATOM     19  C   UNL A   1      36.510  21.162  25.104  1.00  0.00     0.056 C 
BRANCH  19  20
ATOM     20  C   UNL A   1      37.014  22.488  24.521  1.00  0.00     0.003 C 
ATOM     21  C   UNL A   1      36.348  22.894  23.214  1.00  0.00     0.004 C 
ENDBRANCH  19  20
ENDBRANCH  12  19
ENDBRANCH  10  11
ENDBRANCH   6  10
BRANCH   5  22
ATOM     22  N   UNL A   1      32.086  25.805  23.342  1.00  0.00    -0.335 N 
ATOM     23  C   UNL A   1      33.274  25.111  22.850  1.00  0.00     0.331 C 
ATOM     24  H   UNL A   1      32.097  26.756  22.974  1.00  0.00     0.347 HD
ATOM     25  H   UNL A   1      31.282  25.264  23.025  1.00  0.00     0.347 HD
ENDBRANCH   5  22
ENDBRANCH   3   5
ENDBRANCH   2   3
ENDBRANCH   1   2
BRANCH   1  26
ATOM     26  C   UNL A   1      31.404  30.583  25.854  1.00  0.00     0.275 C 
BRANCH  26  27
ATOM     27  O   UNL A   1      32.375  30.457  26.909  1.00  0.00    -0.458 OA
BRANCH  27  28
ATOM     28  C   UNL A   1      33.077  31.574  27.206  1.00  0.00     0.338 C 
ATOM     29  O   UNL A   1      32.664  32.721  27.233  1.00  0.00    -0.246 OA
BRANCH  28  30
ATOM     30  C   UNL A   1      34.463  31.226  27.584  1.00  0.00     0.060 A 
ATOM     31  C   UNL A   1      34.803  29.897  27.804  1.00  0.00     0.016 A 
ATOM     32  C   UNL A   1      35.370  32.231  27.917  1.00  0.00     0.016 A 
ATOM     33  C   UNL A   1      35.961  29.579  28.508  1.00  0.00     0.010 A 
ATOM     34  C   UNL A   1      36.600  31.895  28.501  1.00  0.00     0.010 A 
ATOM     35  C   UNL A   1      36.884  30.569  28.876  1.00  0.00    -0.014 A 
BRANCH  35  36
ATOM     36  C   UNL A   1      38.077  30.223  29.714  1.00  0.00     0.031 A 
ATOM     37  C   UNL A   1      39.203  29.390  29.142  1.00  0.00     0.074 A 
ATOM     38  C   UNL A   1      38.206  30.692  30.974  1.00  0.00     0.049 A 
ATOM     39  N   UNL A   1      40.217  28.830  29.756  1.00  0.00    -0.248 NA
ATOM     40  C   UNL A   1      39.178  29.139  27.693  1.00  0.00     0.031 C 
ATOM     41  C   UNL A   1      37.243  31.549  31.665  1.00  0.00     0.029 A 
ATOM     42  N   UNL A   1      39.217  30.534  31.892  1.00  0.00    -0.354 N 
ATOM     43  C   UNL A   1      40.887  28.085  28.792  1.00  0.00     0.074 A 
ATOM     44  C   UNL A   1      40.177  28.279  27.546  1.00  0.00     0.031 C 
ATOM     45  C   UNL A   1      37.743  31.909  32.854  1.00  0.00     0.029 A 
ATOM     46  C   UNL A   1      39.007  31.215  33.067  1.00  0.00     0.049 A 
ATOM     47  H   UNL A   1      40.017  29.985  31.723  1.00  0.00     0.167 HD
ATOM     48  C   UNL A   1      41.987  27.305  28.934  1.00  0.00     0.037 A 
ATOM     49  C   UNL A   1      39.720  31.247  34.210  1.00  0.00     0.037 A 
ATOM     50  C   UNL A   1      42.755  27.189  30.148  1.00  0.00     0.049 A 
ATOM     51  C   UNL A   1      40.954  30.401  34.336  1.00  0.00     0.074 A 
ATOM     52  C   UNL A   1      43.890  26.430  30.383  1.00  0.00     0.029 A 
ATOM     53  N   UNL A   1      42.491  27.881  31.320  1.00  0.00    -0.354 N 
ATOM     54  N   UNL A   1      41.507  29.609  33.451  1.00  0.00    -0.248 NA
ATOM     55  C   UNL A   1      41.643  30.429  35.633  1.00  0.00     0.031 C 
ATOM     56  C   UNL A   1      44.299  26.646  31.704  1.00  0.00     0.029 A 
ATOM     57  C   UNL A   1      43.443  27.570  32.278  1.00  0.00     0.049 A 
ATOM     58  H   UNL A   1      41.738  28.502  31.451  1.00  0.00     0.167 HD
ATOM     59  C   UNL A   1      42.609  29.048  34.081  1.00  0.00     0.074 A 
ATOM     60  C   UNL A   1      42.662  29.611  35.414  1.00  0.00     0.031 C 
ATOM     61  C   UNL A   1      43.489  28.136  33.600  1.00  0.00     0.037 A 
BRANCH  48  62
ATOM     62  C   UNL A   1      42.413  26.476  27.756  1.00  0.00     0.064 A 
ATOM     63  C   UNL A   1      41.862  25.216  27.488  1.00  0.00     0.173 A 
ATOM     64  C   UNL A   1      43.360  26.983  26.850  1.00  0.00     0.173 A 
ATOM     65  F   UNL A   1      40.965  24.679  28.328  1.00  0.00    -0.203 F 
ATOM     66  C   UNL A   1      42.260  24.483  26.371  1.00  0.00     0.198 A 
ATOM     67  C   UNL A   1      43.734  26.262  25.720  1.00  0.00     0.198 A 
ATOM     68  F   UNL A   1      43.912  28.189  27.054  1.00  0.00    -0.203 F 
ATOM     69  F   UNL A   1      41.753  23.261  26.158  1.00  0.00    -0.200 F 
ATOM     70  C   UNL A   1      43.188  25.010  25.485  1.00  0.00     0.200 A 
ATOM     71  F   UNL A   1      44.619  26.780  24.858  1.00  0.00    -0.200 F 
ATOM     72  F   UNL A   1      43.563  24.307  24.406  1.00  0.00    -0.200 F 
ENDBRANCH  48  62
BRANCH  49  73
ATOM     73  C   UNL A   1      39.255  32.087  35.346  1.00  0.00     0.064 A 
ATOM     74  C   UNL A   1      38.461  31.546  36.366  1.00  0.00     0.173 A 
ATOM     75  C   UNL A   1      39.606  33.442  35.442  1.00  0.00     0.173 A 
ATOM     76  F   UNL A   1      38.075  30.262  36.304  1.00  0.00    -0.203 F 
ATOM     77  C   UNL A   1      38.035  32.327  37.437  1.00  0.00     0.198 A 
ATOM     78  C   UNL A   1      39.208  34.214  36.530  1.00  0.00     0.198 A 
ATOM     79  F   UNL A   1      40.361  34.010  34.490  1.00  0.00    -0.203 F 
ATOM     80  F   UNL A   1      37.247  31.796  38.380  1.00  0.00    -0.200 F 
ATOM     81  C   UNL A   1      38.418  33.658  37.524  1.00  0.00     0.200 A 
ATOM     82  F   UNL A   1      39.595  35.494  36.618  1.00  0.00    -0.200 F 
ATOM     83  F   UNL A   1      38.022  34.405  38.563  1.00  0.00    -0.200 F 
ENDBRANCH  49  73
BRANCH  61  84
ATOM     84  C   UNL A   1      44.599  27.714  34.515  1.00  0.00     0.064 A 
ATOM     85  C   UNL A   1      44.471  26.601  35.360  1.00  0.00     0.173 A 
ATOM     86  C   UNL A   1      45.808  28.426  34.542  1.00  0.00     0.173 A 
ATOM     87  F   UNL A   1      43.328  25.899  35.381  1.00  0.00    -0.203 F 
ATOM     88  C   UNL A   1      45.502  26.234  36.220  1.00  0.00     0.198 A 
ATOM     89  C   UNL A   1      46.846  28.040  35.386  1.00  0.00     0.198 A 
ATOM     90  F   UNL A   1      45.982  29.494  33.749  1.00  0.00    -0.203 F 
ATOM     91  F   UNL A   1      45.339  25.198  37.055  1.00  0.00    -0.200 F 
ATOM     92  C   UNL A   1      46.690  26.952  36.229  1.00  0.00     0.200 A 
ATOM     93  F   UNL A   1      47.996  28.730  35.389  1.00  0.00    -0.200 F 
ATOM     94  F   UNL A   1      47.679  26.599  37.061  1.00  0.00    -0.200 F 
ENDBRANCH  61  84
ENDBRANCH  35  36
ENDBRANCH  28  30
ENDBRANCH  27  28
ENDBRANCH  26  27
ENDBRANCH   1  26
TORSDOF 16
ENDMDL
MODEL 2
REMARK VINA RESULT:     -11.5      1.366      7.615
REMARK SMILES CCCc1cc(=O)[nH]c(S[C@@H]2CC[C@@]([NH2+]C)(C(=O)OCCOC(=O)c3ccc(-c4c5nc(c(-c6c(F)c(F)c(F)c(F)c6F)c6ccc([nH]6)c(-c6c(F)c(F)c(F)c(F)c6F)c6nc(c(-c7c(F)c(F)c(F)c(F)c7F)c7ccc4[nH]7)C=C6)C=C5)cc3)C2)n1
REMARK SMILES IDX 20 1 19 2 17 3 18 4 14 5 11 6 12 7 88 8 13 9 10 10 9 11 4 12
REMARK SMILES IDX 5 13 89 14 6 15 7 16 8 17 3 19 2 20 1 21 15 22 16 23 21 26
REMARK SMILES IDX 22 27 23 28 24 29 25 30 26 31 87 32 27 33 86 34 28 35 29 36
REMARK SMILES IDX 30 37 80 38 31 39 85 40 79 41 81 42 32 43 84 44 78 45 77 46
REMARK SMILES IDX 33 48 65 49 45 50 64 51 46 52 49 53 63 54 82 55 47 56 48 57
REMARK SMILES IDX 62 59 83 60 50 61 34 62 35 63 43 64 36 65 37 66 41 67 44 68
REMARK SMILES IDX 38 69 39 70 42 71 40 72 66 73 67 74 75 75 68 76 69 77 73 78
REMARK SMILES IDX 76 79 70 80 71 81 74 82 72 83 51 84 52 85 60 86 53 87 54 88
REMARK SMILES IDX 58 89 61 90 55 91 56 92 59 93 57 94
REMARK H PARENT 8 18 15 24 15 25 81 47 49 58
REMARK Flexibility Score: inf
ROOT
ATOM      1  C   UNL A   1      31.046  31.331  25.971  1.00  0.00     0.274 C 
ENDROOT
BRANCH   1   2
ATOM      2  O   UNL A   1      32.145  30.446  25.674  1.00  0.00    -0.457 OA
BRANCH   2   3
ATOM      3  C   UNL A   1      31.822  29.141  25.464  1.00  0.00     0.368 C 
ATOM      4  O   UNL A   1      31.403  28.395  26.347  1.00  0.00    -0.245 OA
BRANCH   3   5
ATOM      5  C   UNL A   1      32.077  28.659  24.000  1.00  0.00     0.195 C 
ATOM      6  C   UNL A   1      30.845  26.598  23.635  1.00  0.00     0.062 C 
ATOM      7  C   UNL A   1      30.385  27.549  22.547  1.00  0.00     0.022 C 
ATOM      8  C   UNL A   1      32.239  27.114  23.988  1.00  0.00     0.096 C 
ATOM      9  C   UNL A   1      30.887  28.915  23.029  1.00  0.00     0.082 C 
BRANCH   6  10
ATOM     10  S   UNL A   1      30.660  24.829  23.273  1.00  0.00    -0.084 SA
BRANCH  10  11
ATOM     11  C   UNL A   1      31.252  24.008  24.678  1.00  0.00     0.168 A 
ATOM     12  C   UNL A   1      32.818  23.000  25.994  1.00  0.00     0.049 A 
ATOM     13  C   UNL A   1      31.926  22.727  26.958  1.00  0.00     0.095 A 
ATOM     14  N   UNL A   1      32.476  23.636  24.823  1.00  0.00    -0.229 NA
ATOM     15  C   UNL A   1      30.533  23.161  26.771  1.00  0.00     0.251 A 
ATOM     16  O   UNL A   1      29.682  22.953  27.626  1.00  0.00    -0.269 OA
ATOM     17  N   UNL A   1      30.278  23.802  25.600  1.00  0.00    -0.301 N 
ATOM     18  H   UNL A   1      29.365  24.123  25.416  1.00  0.00     0.172 HD
BRANCH  12  19
ATOM     19  C   UNL A   1      34.279  22.604  26.079  1.00  0.00     0.056 C 
BRANCH  19  20
ATOM     20  C   UNL A   1      34.796  21.605  25.035  1.00  0.00     0.003 C 
ATOM     21  C   UNL A   1      34.032  20.289  24.994  1.00  0.00     0.004 C 
ENDBRANCH  19  20
ENDBRANCH  12  19
ENDBRANCH  10  11
ENDBRANCH   6  10
BRANCH   5  22
ATOM     22  N   UNL A   1      33.289  29.339  23.458  1.00  0.00    -0.335 N 
ATOM     23  C   UNL A   1      34.030  28.559  22.469  1.00  0.00     0.331 C 
ATOM     24  H   UNL A   1      33.915  29.545  24.236  1.00  0.00     0.347 HD
ATOM     25  H   UNL A   1      32.960  30.178  22.978  1.00  0.00     0.347 HD
ENDBRANCH   5  22
ENDBRANCH   3   5
ENDBRANCH   2   3
ENDBRANCH   1   2
BRANCH   1  26
ATOM     26  C   UNL A   1      31.511  32.531  26.795  1.00  0.00     0.275 C 
BRANCH  26  27
ATOM     27  O   UNL A   1      32.626  32.153  27.623  1.00  0.00    -0.458 OA
BRANCH  27  28
ATOM     28  C   UNL A   1      33.630  33.054  27.713  1.00  0.00     0.338 C 
ATOM     29  O   UNL A   1      33.544  34.267  27.626  1.00  0.00    -0.246 OA
BRANCH  28  30
ATOM     30  C   UNL A   1      34.907  32.375  28.017  1.00  0.00     0.060 A 
ATOM     31  C   UNL A   1      34.929  30.996  28.185  1.00  0.00     0.016 A 
ATOM     32  C   UNL A   1      36.040  33.123  28.334  1.00  0.00     0.016 A 
ATOM     33  C   UNL A   1      36.006  30.387  28.825  1.00  0.00     0.010 A 
ATOM     34  C   UNL A   1      37.176  32.484  28.851  1.00  0.00     0.010 A 
ATOM     35  C   UNL A   1      37.151  31.116  29.176  1.00  0.00    -0.014 A 
BRANCH  35  36
ATOM     36  C   UNL A   1      38.259  30.467  29.948  1.00  0.00     0.031 A 
ATOM     37  C   UNL A   1      38.428  30.740  31.427  1.00  0.00     0.074 A 
ATOM     38  C   UNL A   1      39.094  29.583  29.362  1.00  0.00     0.049 A 
ATOM     39  N   UNL A   1      39.425  30.430  32.220  1.00  0.00    -0.248 NA
ATOM     40  C   UNL A   1      37.342  31.470  32.099  1.00  0.00     0.031 C 
ATOM     41  C   UNL A   1      39.044  29.164  27.961  1.00  0.00     0.029 A 
ATOM     42  N   UNL A   1      40.138  28.852  29.882  1.00  0.00    -0.354 N 
ATOM     43  C   UNL A   1      39.133  31.012  33.449  1.00  0.00     0.074 A 
ATOM     44  C   UNL A   1      37.855  31.676  33.304  1.00  0.00     0.031 C 
ATOM     45  C   UNL A   1      39.948  28.197  27.755  1.00  0.00     0.029 A 
ATOM     46  C   UNL A   1      40.728  28.008  28.972  1.00  0.00     0.049 A 
ATOM     47  H   UNL A   1      40.434  28.927  30.818  1.00  0.00     0.167 HD
ATOM     48  C   UNL A   1      39.866  30.999  34.590  1.00  0.00     0.037 A 
ATOM     49  C   UNL A   1      41.802  27.203  29.080  1.00  0.00     0.037 A 
ATOM     50  C   UNL A   1      41.087  30.256  34.769  1.00  0.00     0.049 A 
ATOM     51  C   UNL A   1      42.583  27.179  30.363  1.00  0.00     0.074 A 
ATOM     52  C   UNL A   1      41.894  30.175  35.892  1.00  0.00     0.029 A 
ATOM     53  N   UNL A   1      41.658  29.431  33.811  1.00  0.00    -0.354 N 
ATOM     54  N   UNL A   1      42.358  27.828  31.478  1.00  0.00    -0.248 NA
ATOM     55  C   UNL A   1      43.784  26.334  30.389  1.00  0.00     0.031 C 
ATOM     56  C   UNL A   1      42.965  29.320  35.606  1.00  0.00     0.029 A 
ATOM     57  C   UNL A   1      42.803  28.837  34.319  1.00  0.00     0.049 A 
ATOM     58  H   UNL A   1      41.303  29.290  32.903  1.00  0.00     0.167 HD
ATOM     59  C   UNL A   1      43.386  27.469  32.339  1.00  0.00     0.074 A 
ATOM     60  C   UNL A   1      44.219  26.523  31.626  1.00  0.00     0.031 C 
ATOM     61  C   UNL A   1      43.624  27.896  33.603  1.00  0.00     0.037 A 
BRANCH  48  62
ATOM     62  C   UNL A   1      39.391  31.848  35.735  1.00  0.00     0.064 A 
ATOM     63  C   UNL A   1      39.820  33.170  35.915  1.00  0.00     0.173 A 
ATOM     64  C   UNL A   1      38.447  31.337  36.640  1.00  0.00     0.173 A 
ATOM     65  F   UNL A   1      40.732  33.703  35.088  1.00  0.00    -0.203 F 
ATOM     66  C   UNL A   1      39.340  33.940  36.974  1.00  0.00     0.198 A 
ATOM     67  C   UNL A   1      37.947  32.117  37.678  1.00  0.00     0.198 A 
ATOM     68  F   UNL A   1      37.995  30.080  36.507  1.00  0.00    -0.203 F 
ATOM     69  F   UNL A   1      39.798  35.187  37.154  1.00  0.00    -0.200 F 
ATOM     70  C   UNL A   1      38.399  33.416  37.848  1.00  0.00     0.200 A 
ATOM     71  F   UNL A   1      37.027  31.613  38.512  1.00  0.00    -0.200 F 
ATOM     72  F   UNL A   1      37.932  34.162  38.859  1.00  0.00    -0.200 F 
ENDBRANCH  48  62
BRANCH  49  73
ATOM     73  C   UNL A   1      42.229  26.381  27.916  1.00  0.00     0.064 A 
ATOM     74  C   UNL A   1      41.682  25.110  27.693  1.00  0.00     0.173 A 
ATOM     75  C   UNL A   1      43.178  26.853  26.998  1.00  0.00     0.173 A 
ATOM     76  F   UNL A   1      40.792  24.602  28.558  1.00  0.00    -0.203 F 
ATOM     77  C   UNL A   1      42.071  24.343  26.597  1.00  0.00     0.198 A 
ATOM     78  C   UNL A   1      43.541  26.100  25.886  1.00  0.00     0.198 A 
ATOM     79  F   UNL A   1      43.734  28.062  27.169  1.00  0.00    -0.203 F 
ATOM     80  F   UNL A   1      41.561  23.116  26.426  1.00  0.00    -0.200 F 
ATOM     81  C   UNL A   1      42.992  24.842  25.688  1.00  0.00     0.200 A 
ATOM     82  F   UNL A   1      44.418  26.595  25.001  1.00  0.00    -0.200 F 
ATOM     83  F   UNL A   1      43.353  24.111  24.626  1.00  0.00    -0.200 F 
ENDBRANCH  49  73
BRANCH  61  84
ATOM     84  C   UNL A   1      44.819  27.323  34.302  1.00  0.00     0.064 A 
ATOM     85  C   UNL A   1      46.075  27.946  34.242  1.00  0.00     0.173 A 
ATOM     86  C   UNL A   1      44.707  26.139  35.048  1.00  0.00     0.173 A 
ATOM     87  F   UNL A   1      46.235  29.070  33.527  1.00  0.00    -0.203 F 
ATOM     88  C   UNL A   1      47.181  27.389  34.877  1.00  0.00     0.198 A 
ATOM     89  C   UNL A   1      45.810  25.599  35.702  1.00  0.00     0.198 A 
ATOM     90  F   UNL A   1      43.527  25.508  35.141  1.00  0.00    -0.203 F 
ATOM     91  F   UNL A   1      48.382  27.974  34.764  1.00  0.00    -0.200 F 
ATOM     92  C   UNL A   1      47.047  26.218  35.610  1.00  0.00     0.200 A 
ATOM     93  F   UNL A   1      45.678  24.472  36.416  1.00  0.00    -0.200 F 
ATOM     94  F   UNL A   1      48.114  25.682  36.218  1.00  0.00    -0.200 F 
ENDBRANCH  61  84
ENDBRANCH  35  36
ENDBRANCH  28  30
ENDBRANCH  27  28
ENDBRANCH  26  27
ENDBRANCH   1  26
TORSDOF 16
ENDMDL
MODEL 3
REMARK VINA RESULT:     -11.3      1.271      2.369
REMARK SMILES CCCc1cc(=O)[nH]c(S[C@@H]2CC[C@@]([NH2+]C)(C(=O)OCCOC(=O)c3ccc(-c4c5nc(c(-c6c(F)c(F)c(F)c(F)c6F)c6ccc([nH]6)c(-c6c(F)c(F)c(F)c(F)c6F)c6nc(c(-c7c(F)c(F)c(F)c(F)c7F)c7ccc4[nH]7)C=C6)C=C5)cc3)C2)n1
REMARK SMILES IDX 20 1 19 2 17 3 18 4 14 5 11 6 12 7 88 8 13 9 10 10 9 11 4 12
REMARK SMILES IDX 5 13 89 14 6 15 7 16 8 17 3 19 2 20 1 21 15 22 16 23 21 26
REMARK SMILES IDX 22 27 23 28 24 29 25 30 26 31 87 32 27 33 86 34 28 35 29 36
REMARK SMILES IDX 30 37 80 38 31 39 85 40 79 41 81 42 32 43 84 44 78 45 77 46
REMARK SMILES IDX 33 48 65 49 45 50 64 51 46 52 49 53 63 54 82 55 47 56 48 57
REMARK SMILES IDX 62 59 83 60 50 61 34 62 35 63 43 64 36 65 37 66 41 67 44 68
REMARK SMILES IDX 38 69 39 70 42 71 40 72 66 73 67 74 75 75 68 76 69 77 73 78
REMARK SMILES IDX 76 79 70 80 71 81 74 82 72 83 51 84 52 85 60 86 53 87 54 88
REMARK SMILES IDX 58 89 61 90 55 91 56 92 59 93 57 94
REMARK H PARENT 8 18 15 24 15 25 81 47 49 58
REMARK Flexibility Score: inf
ROOT
ATOM      1  C   UNL A   1      31.795  28.530  27.424  1.00  0.00     0.274 C 
ENDROOT
BRANCH   1   2
ATOM      2  O   UNL A   1      32.539  27.608  26.602  1.00  0.00    -0.457 OA
BRANCH   2   3
ATOM      3  C   UNL A   1      31.834  26.970  25.629  1.00  0.00     0.368 C 
ATOM      4  O   UNL A   1      30.781  26.370  25.836  1.00  0.00    -0.245 OA
BRANCH   3   5
ATOM      5  C   UNL A   1      32.509  27.029  24.221  1.00  0.00     0.195 C 
ATOM      6  C   UNL A   1      32.981  24.762  23.490  1.00  0.00     0.062 C 
ATOM      7  C   UNL A   1      32.140  25.381  22.390  1.00  0.00     0.022 C 
ATOM      8  C   UNL A   1      33.643  25.970  24.149  1.00  0.00     0.096 C 
ATOM      9  C   UNL A   1      31.564  26.642  23.045  1.00  0.00     0.082 C 
BRANCH   6  10
ATOM     10  S   UNL A   1      34.043  23.377  22.992  1.00  0.00    -0.084 SA
BRANCH  10  11
ATOM     11  C   UNL A   1      33.725  22.119  24.138  1.00  0.00     0.168 A 
ATOM     12  C   UNL A   1      33.083  20.040  24.821  1.00  0.00     0.049 A 
ATOM     13  C   UNL A   1      33.289  20.330  26.113  1.00  0.00     0.095 A 
ATOM     14  N   UNL A   1      33.285  20.953  23.812  1.00  0.00    -0.229 NA
ATOM     15  C   UNL A   1      33.791  21.669  26.463  1.00  0.00     0.251 A 
ATOM     16  O   UNL A   1      34.013  21.981  27.626  1.00  0.00    -0.269 OA
ATOM     17  N   UNL A   1      33.987  22.506  25.411  1.00  0.00    -0.301 N 
ATOM     18  H   UNL A   1      34.327  23.415  25.578  1.00  0.00     0.172 HD
BRANCH  12  19
ATOM     19  C   UNL A   1      32.571  18.695  24.343  1.00  0.00     0.056 C 
BRANCH  19  20
ATOM     20  C   UNL A   1      33.523  17.499  24.469  1.00  0.00     0.003 C 
ATOM     21  C   UNL A   1      34.019  16.948  23.139  1.00  0.00     0.004 C 
ENDBRANCH  19  20
ENDBRANCH  12  19
ENDBRANCH  10  11
ENDBRANCH   6  10
BRANCH   5  22
ATOM     22  N   UNL A   1      33.031  28.406  23.979  1.00  0.00    -0.335 N 
ATOM     23  C   UNL A   1      33.810  28.550  22.752  1.00  0.00     0.331 C 
ATOM     24  H   UNL A   1      33.624  28.666  24.766  1.00  0.00     0.347 HD
ATOM     25  H   UNL A   1      32.215  29.011  23.877  1.00  0.00     0.347 HD
ENDBRANCH   5  22
ENDBRANCH   3   5
ENDBRANCH   2   3
ENDBRANCH   1   2
BRANCH   1  26
ATOM     26  C   UNL A   1      31.626  29.879  26.727  1.00  0.00     0.275 C 
BRANCH  26  27
ATOM     27  O   UNL A   1      32.916  30.411  26.372  1.00  0.00    -0.458 OA
BRANCH  27  28
ATOM     28  C   UNL A   1      33.412  31.362  27.195  1.00  0.00     0.338 C 
ATOM     29  O   UNL A   1      32.830  32.341  27.629  1.00  0.00    -0.246 OA
BRANCH  28  30
ATOM     30  C   UNL A   1      34.797  31.030  27.590  1.00  0.00     0.060 A 
ATOM     31  C   UNL A   1      35.168  29.700  27.747  1.00  0.00     0.016 A 
ATOM     32  C   UNL A   1      35.668  32.038  28.002  1.00  0.00     0.016 A 
ATOM     33  C   UNL A   1      36.317  29.375  28.463  1.00  0.00     0.010 A 
ATOM     34  C   UNL A   1      36.892  31.703  28.599  1.00  0.00     0.010 A 
ATOM     35  C   UNL A   1      37.203  30.366  28.908  1.00  0.00    -0.014 A 
BRANCH  35  36
ATOM     36  C   UNL A   1      38.384  30.006  29.758  1.00  0.00     0.031 A 
ATOM     37  C   UNL A   1      39.508  29.166  29.194  1.00  0.00     0.074 A 
ATOM     38  C   UNL A   1      38.502  30.468  31.021  1.00  0.00     0.049 A 
ATOM     39  N   UNL A   1      40.511  28.594  29.817  1.00  0.00    -0.248 NA
ATOM     40  C   UNL A   1      39.497  28.921  27.744  1.00  0.00     0.031 C 
ATOM     41  C   UNL A   1      37.540  31.331  31.706  1.00  0.00     0.029 A 
ATOM     42  N   UNL A   1      39.503  30.297  31.950  1.00  0.00    -0.354 N 
ATOM     43  C   UNL A   1      41.184  27.847  28.857  1.00  0.00     0.074 A 
ATOM     44  C   UNL A   1      40.489  28.053  27.604  1.00  0.00     0.031 C 
ATOM     45  C   UNL A   1      38.031  31.681  32.902  1.00  0.00     0.029 A 
ATOM     46  C   UNL A   1      39.286  30.975  33.125  1.00  0.00     0.049 A 
ATOM     47  H   UNL A   1      40.299  29.742  31.787  1.00  0.00     0.167 HD
ATOM     48  C   UNL A   1      42.275  27.056  29.007  1.00  0.00     0.037 A 
ATOM     49  C   UNL A   1      39.986  30.996  34.276  1.00  0.00     0.037 A 
ATOM     50  C   UNL A   1      43.029  26.928  30.229  1.00  0.00     0.049 A 
ATOM     51  C   UNL A   1      41.211  30.138  34.412  1.00  0.00     0.074 A 
ATOM     52  C   UNL A   1      44.155  26.158  30.473  1.00  0.00     0.029 A 
ATOM     53  N   UNL A   1      42.759  27.618  31.401  1.00  0.00    -0.354 N 
ATOM     54  N   UNL A   1      41.766  29.345  33.530  1.00  0.00    -0.248 NA
ATOM     55  C   UNL A   1      41.887  30.154  35.716  1.00  0.00     0.031 C 
ATOM     56  C   UNL A   1      44.551  26.364  31.799  1.00  0.00     0.029 A 
ATOM     57  C   UNL A   1      43.697  27.294  32.368  1.00  0.00     0.049 A 
ATOM     58  H   UNL A   1      42.010  28.245  31.527  1.00  0.00     0.167 HD
ATOM     59  C   UNL A   1      42.856  28.771  34.169  1.00  0.00     0.074 A 
ATOM     60  C   UNL A   1      42.900  29.327  35.505  1.00  0.00     0.031 C 
ATOM     61  C   UNL A   1      43.734  27.854  33.694  1.00  0.00     0.037 A 
BRANCH  48  62
ATOM     62  C   UNL A   1      42.707  26.229  27.830  1.00  0.00     0.064 A 
ATOM     63  C   UNL A   1      43.695  26.658  26.935  1.00  0.00     0.173 A 
ATOM     64  C   UNL A   1      42.148  24.956  27.628  1.00  0.00     0.173 A 
ATOM     65  F   UNL A   1      44.251  27.871  27.073  1.00  0.00    -0.203 F 
ATOM     66  C   UNL A   1      44.092  25.854  25.867  1.00  0.00     0.198 A 
ATOM     67  C   UNL A   1      42.567  24.143  26.579  1.00  0.00     0.198 A 
ATOM     68  F   UNL A   1      41.205  24.492  28.462  1.00  0.00    -0.203 F 
ATOM     69  F   UNL A   1      45.007  26.303  24.997  1.00  0.00    -0.200 F 
ATOM     70  C   UNL A   1      43.534  24.596  25.695  1.00  0.00     0.200 A 
ATOM     71  F   UNL A   1      42.037  22.922  26.425  1.00  0.00    -0.200 F 
ATOM     72  F   UNL A   1      43.924  23.821  24.673  1.00  0.00    -0.200 F 
ENDBRANCH  48  62
BRANCH  49  73
ATOM     73  C   UNL A   1      39.517  31.835  35.410  1.00  0.00     0.064 A 
ATOM     74  C   UNL A   1      39.957  33.156  35.561  1.00  0.00     0.173 A 
ATOM     75  C   UNL A   1      38.609  31.338  36.358  1.00  0.00     0.173 A 
ATOM     76  F   UNL A   1      40.847  33.668  34.697  1.00  0.00    -0.203 F 
ATOM     77  C   UNL A   1      39.510  33.948  36.616  1.00  0.00     0.198 A 
ATOM     78  C   UNL A   1      38.136  32.140  37.392  1.00  0.00     0.198 A 
ATOM     79  F   UNL A   1      38.159  30.078  36.261  1.00  0.00    -0.203 F 
ATOM     80  F   UNL A   1      39.975  35.196  36.758  1.00  0.00    -0.200 F 
ATOM     81  C   UNL A   1      38.592  33.444  37.525  1.00  0.00     0.200 A 
ATOM     82  F   UNL A   1      37.236  31.654  38.257  1.00  0.00    -0.200 F 
ATOM     83  F   UNL A   1      38.149  34.211  38.529  1.00  0.00    -0.200 F 
ENDBRANCH  49  73
BRANCH  61  84
ATOM     84  C   UNL A   1      44.830  27.417  34.618  1.00  0.00     0.064 A 
ATOM     85  C   UNL A   1      44.683  26.301  35.456  1.00  0.00     0.173 A 
ATOM     86  C   UNL A   1      46.045  28.118  34.661  1.00  0.00     0.173 A 
ATOM     87  F   UNL A   1      43.534  25.610  35.462  1.00  0.00    -0.203 F 
ATOM     88  C   UNL A   1      45.702  25.922  36.326  1.00  0.00     0.198 A 
ATOM     89  C   UNL A   1      47.070  27.720  35.515  1.00  0.00     0.198 A 
ATOM     90  F   UNL A   1      46.236  29.188  33.876  1.00  0.00    -0.203 F 
ATOM     91  F   UNL A   1      45.521  24.883  37.154  1.00  0.00    -0.200 F 
ATOM     92  C   UNL A   1      46.895  26.629  36.352  1.00  0.00     0.200 A 
ATOM     93  F   UNL A   1      48.226  28.400  35.534  1.00  0.00    -0.200 F 
ATOM     94  F   UNL A   1      47.872  26.264  37.192  1.00  0.00    -0.200 F 
ENDBRANCH  61  84
ENDBRANCH  35  36
ENDBRANCH  28  30
ENDBRANCH  27  28
ENDBRANCH  26  27
ENDBRANCH   1  26
TORSDOF 16
ENDMDL
