MODEL 1
REMARK VINA RESULT:     -12.6      0.000      0.000
REMARK SMILES COc1cc2cc(C(=O)OCCOC(=O)c3ccc(-c4c5nc(c(-c6c(F)c(F)c(F)c(F)c6F)c6ccc([nH]6)c(-c6c(F)c(F)c(F)c(F)c6F)c6nc(c(-c7c(F)c(F)c(F)c(F)c7F)c7ccc4[nH]7)C=C6)C=C5)cc3)n(Cc3ccccc3)c2c(OC)c1OC
REMARK SMILES IDX 11 1 10 2 8 3 9 4 7 5 3 6 4 7 91 8 5 9 88 10 6 11 87 12
REMARK SMILES IDX 79 13 2 14 1 15 92 16 93 17 89 18 90 19 80 20 81 21 82 22
REMARK SMILES IDX 86 23 83 24 85 25 84 26 12 27 13 28 14 29 15 30 16 31 17 32
REMARK SMILES IDX 78 33 18 34 77 35 19 36 20 37 21 38 71 39 22 40 76 41 70 42
REMARK SMILES IDX 72 43 23 44 75 45 69 46 68 47 24 49 56 50 36 51 55 52 37 53
REMARK SMILES IDX 40 54 54 55 73 56 38 57 39 58 53 60 74 61 41 62 25 63 26 64
REMARK SMILES IDX 34 65 27 66 28 67 32 68 35 69 29 70 30 71 33 72 31 73 57 74
REMARK SMILES IDX 58 75 66 76 59 77 60 78 64 79 67 80 61 81 62 82 65 83 63 84
REMARK SMILES IDX 42 85 43 86 51 87 44 88 45 89 49 90 52 91 46 92 47 93 50 94
REMARK SMILES IDX 48 95
REMARK H PARENT 72 48 40 59
REMARK Flexibility Score: inf
ROOT
ATOM      1  C   UNL A   1      38.149  21.847  25.921  1.00  0.00     0.275 C 
ENDROOT
BRANCH   1   2
ATOM      2  O   UNL A   1      37.373  21.925  24.696  1.00  0.00    -0.457 OA
BRANCH   2   3
ATOM      3  C   UNL A   1      36.198  21.252  24.669  1.00  0.00     0.355 C 
ATOM      4  O   UNL A   1      36.116  20.058  24.965  1.00  0.00    -0.244 OA
BRANCH   3   5
ATOM      5  C   UNL A   1      35.036  22.095  24.386  1.00  0.00     0.129 A 
ATOM      6  C   UNL A   1      32.232  25.518  22.878  1.00  0.00     0.165 A 
ATOM      7  C   UNL A   1      33.550  25.091  22.847  1.00  0.00     0.061 A 
ATOM      8  C   UNL A   1      31.295  24.824  23.661  1.00  0.00     0.205 A 
ATOM      9  C   UNL A   1      33.905  23.916  23.532  1.00  0.00     0.008 A 
ATOM     10  C   UNL A   1      31.656  23.618  24.349  1.00  0.00     0.189 A 
ATOM     11  C   UNL A   1      35.131  23.312  23.761  1.00  0.00     0.044 A 
ATOM     12  C   UNL A   1      32.980  23.133  24.209  1.00  0.00     0.096 A 
ATOM     13  N   UNL A   1      33.670  21.975  24.632  1.00  0.00    -0.327 N 
BRANCH   6  14
ATOM     14  O   UNL A   1      31.824  26.537  22.055  1.00  0.00    -0.493 OA
ATOM     15  C   UNL A   1      32.164  27.847  22.503  1.00  0.00     0.278 C 
ENDBRANCH   6  14
BRANCH   8  16
ATOM     16  O   UNL A   1      29.982  25.235  23.763  1.00  0.00    -0.490 OA
ATOM     17  C   UNL A   1      29.722  26.251  24.732  1.00  0.00     0.278 C 
ENDBRANCH   8  16
BRANCH  10  18
ATOM     18  O   UNL A   1      30.785  22.910  25.139  1.00  0.00    -0.491 OA
ATOM     19  C   UNL A   1      30.819  23.279  26.516  1.00  0.00     0.278 C 
ENDBRANCH  10  18
BRANCH  13  20
ATOM     20  C   UNL A   1      33.097  20.856  25.363  1.00  0.00     0.158 C 
BRANCH  20  21
ATOM     21  C   UNL A   1      32.820  19.625  24.528  1.00  0.00    -0.028 A 
ATOM     22  C   UNL A   1      32.334  19.658  23.210  1.00  0.00     0.005 A 
ATOM     23  C   UNL A   1      33.225  18.388  25.047  1.00  0.00     0.005 A 
ATOM     24  C   UNL A   1      32.348  18.517  22.406  1.00  0.00     0.000 A 
ATOM     25  C   UNL A   1      33.200  17.238  24.257  1.00  0.00     0.000 A 
ATOM     26  C   UNL A   1      32.791  17.308  22.928  1.00  0.00     0.000 A 
ENDBRANCH  20  21
ENDBRANCH  13  20
ENDBRANCH   3   5
ENDBRANCH   2   3
ENDBRANCH   1   2
BRANCH   1  27
ATOM     27  C   UNL A   1      39.483  21.113  25.708  1.00  0.00     0.275 C 
BRANCH  27  28
ATOM     28  O   UNL A   1      40.561  22.006  26.026  1.00  0.00    -0.458 OA
BRANCH  28  29
ATOM     29  C   UNL A   1      40.768  22.304  27.327  1.00  0.00     0.338 C 
ATOM     30  O   UNL A   1      40.890  21.515  28.257  1.00  0.00    -0.246 OA
BRANCH  29  31
ATOM     31  C   UNL A   1      41.200  23.718  27.347  1.00  0.00     0.060 A 
ATOM     32  C   UNL A   1      42.084  24.187  28.331  1.00  0.00     0.016 A 
ATOM     33  C   UNL A   1      40.440  24.611  26.603  1.00  0.00     0.016 A 
ATOM     34  C   UNL A   1      41.990  25.505  28.773  1.00  0.00     0.010 A 
ATOM     35  C   UNL A   1      40.410  25.938  27.004  1.00  0.00     0.010 A 
ATOM     36  C   UNL A   1      41.050  26.352  28.194  1.00  0.00    -0.014 A 
BRANCH  36  37
ATOM     37  C   UNL A   1      40.834  27.719  28.720  1.00  0.00     0.031 A 
ATOM     38  C   UNL A   1      41.846  28.622  28.159  1.00  0.00     0.074 A 
ATOM     39  C   UNL A   1      39.875  28.279  29.510  1.00  0.00     0.049 A 
ATOM     40  N   UNL A   1      42.960  28.914  28.737  1.00  0.00    -0.248 NA
ATOM     41  C   UNL A   1      41.731  29.076  26.770  1.00  0.00     0.031 C 
ATOM     42  C   UNL A   1      38.630  27.731  30.055  1.00  0.00     0.029 A 
ATOM     43  N   UNL A   1      39.796  29.584  29.939  1.00  0.00    -0.354 N 
ATOM     44  C   UNL A   1      43.606  29.758  27.861  1.00  0.00     0.074 A 
ATOM     45  C   UNL A   1      42.941  29.610  26.592  1.00  0.00     0.031 C 
ATOM     46  C   UNL A   1      37.809  28.723  30.478  1.00  0.00     0.029 A 
ATOM     47  C   UNL A   1      38.569  29.954  30.491  1.00  0.00     0.049 A 
ATOM     48  H   UNL A   1      40.551  30.212  29.862  1.00  0.00     0.167 HD
ATOM     49  C   UNL A   1      44.434  30.722  28.335  1.00  0.00     0.037 A 
ATOM     50  C   UNL A   1      38.219  31.154  31.019  1.00  0.00     0.037 A 
ATOM     51  C   UNL A   1      44.756  30.502  29.729  1.00  0.00     0.049 A 
ATOM     52  C   UNL A   1      39.475  31.802  31.449  1.00  0.00     0.074 A 
ATOM     53  C   UNL A   1      45.302  29.455  30.451  1.00  0.00     0.029 A 
ATOM     54  N   UNL A   1      44.141  31.304  30.659  1.00  0.00    -0.354 N 
ATOM     55  N   UNL A   1      40.198  31.389  32.451  1.00  0.00    -0.248 NA
ATOM     56  C   UNL A   1      40.134  32.704  30.522  1.00  0.00     0.031 C 
ATOM     57  C   UNL A   1      44.606  29.447  31.698  1.00  0.00     0.029 A 
ATOM     58  C   UNL A   1      43.707  30.513  31.691  1.00  0.00     0.049 A 
ATOM     59  H   UNL A   1      44.031  32.281  30.595  1.00  0.00     0.167 HD
ATOM     60  C   UNL A   1      41.500  31.595  32.035  1.00  0.00     0.074 A 
ATOM     61  C   UNL A   1      41.397  32.528  30.916  1.00  0.00     0.031 C 
ATOM     62  C   UNL A   1      42.500  30.763  32.445  1.00  0.00     0.037 A 
BRANCH  49  63
ATOM     63  C   UNL A   1      44.619  32.053  27.659  1.00  0.00     0.064 A 
ATOM     64  C   UNL A   1      45.779  32.262  26.895  1.00  0.00     0.173 A 
ATOM     65  C   UNL A   1      43.852  33.209  27.936  1.00  0.00     0.173 A 
ATOM     66  F   UNL A   1      46.598  31.239  26.607  1.00  0.00    -0.203 F 
ATOM     67  C   UNL A   1      46.175  33.539  26.494  1.00  0.00     0.198 A 
ATOM     68  C   UNL A   1      44.214  34.470  27.476  1.00  0.00     0.198 A 
ATOM     69  F   UNL A   1      42.797  33.196  28.759  1.00  0.00    -0.203 F 
ATOM     70  F   UNL A   1      47.356  33.705  25.886  1.00  0.00    -0.200 F 
ATOM     71  C   UNL A   1      45.391  34.640  26.783  1.00  0.00     0.200 A 
ATOM     72  F   UNL A   1      43.451  35.527  27.789  1.00  0.00    -0.200 F 
ATOM     73  F   UNL A   1      45.795  35.871  26.447  1.00  0.00    -0.200 F 
ENDBRANCH  49  63
BRANCH  50  74
ATOM     74  C   UNL A   1      36.924  31.875  31.087  1.00  0.00     0.064 A 
ATOM     75  C   UNL A   1      36.216  31.986  32.299  1.00  0.00     0.173 A 
ATOM     76  C   UNL A   1      36.537  32.750  30.056  1.00  0.00     0.173 A 
ATOM     77  F   UNL A   1      36.539  31.213  33.345  1.00  0.00    -0.203 F 
ATOM     78  C   UNL A   1      35.223  32.954  32.488  1.00  0.00     0.198 A 
ATOM     79  C   UNL A   1      35.541  33.715  30.245  1.00  0.00     0.198 A 
ATOM     80  F   UNL A   1      37.195  32.758  28.888  1.00  0.00    -0.203 F 
ATOM     81  F   UNL A   1      34.634  33.083  33.685  1.00  0.00    -0.200 F 
ATOM     82  C   UNL A   1      34.900  33.829  31.467  1.00  0.00     0.200 A 
ATOM     83  F   UNL A   1      35.263  34.584  29.264  1.00  0.00    -0.200 F 
ATOM     84  F   UNL A   1      34.010  34.811  31.672  1.00  0.00    -0.200 F 
ENDBRANCH  50  74
BRANCH  62  85
ATOM     85  C   UNL A   1      42.230  29.866  33.624  1.00  0.00     0.064 A 
ATOM     86  C   UNL A   1      41.745  28.549  33.531  1.00  0.00     0.173 A 
ATOM     87  C   UNL A   1      42.615  30.318  34.893  1.00  0.00     0.173 A 
ATOM     88  F   UNL A   1      41.425  28.012  32.349  1.00  0.00    -0.203 F 
ATOM     89  C   UNL A   1      41.632  27.737  34.661  1.00  0.00     0.198 A 
ATOM     90  C   UNL A   1      42.534  29.495  36.014  1.00  0.00     0.198 A 
ATOM     91  F   UNL A   1      43.118  31.554  35.041  1.00  0.00    -0.203 F 
ATOM     92  F   UNL A   1      41.162  26.486  34.546  1.00  0.00    -0.200 F 
ATOM     93  C   UNL A   1      42.039  28.207  35.898  1.00  0.00     0.200 A 
ATOM     94  F   UNL A   1      42.966  29.941  37.201  1.00  0.00    -0.200 F 
ATOM     95  F   UNL A   1      41.977  27.411  36.975  1.00  0.00    -0.200 F 
ENDBRANCH  62  85
ENDBRANCH  36  37
ENDBRANCH  29  31
ENDBRANCH  28  29
ENDBRANCH  27  28
ENDBRANCH   1  27
TORSDOF 16
ENDMDL
MODEL 2
REMARK VINA RESULT:     -12.6      3.482      9.218
REMARK SMILES COc1cc2cc(C(=O)OCCOC(=O)c3ccc(-c4c5nc(c(-c6c(F)c(F)c(F)c(F)c6F)c6ccc([nH]6)c(-c6c(F)c(F)c(F)c(F)c6F)c6nc(c(-c7c(F)c(F)c(F)c(F)c7F)c7ccc4[nH]7)C=C6)C=C5)cc3)n(Cc3ccccc3)c2c(OC)c1OC
REMARK SMILES IDX 11 1 10 2 8 3 9 4 7 5 3 6 4 7 91 8 5 9 88 10 6 11 87 12
REMARK SMILES IDX 79 13 2 14 1 15 92 16 93 17 89 18 90 19 80 20 81 21 82 22
REMARK SMILES IDX 86 23 83 24 85 25 84 26 12 27 13 28 14 29 15 30 16 31 17 32
REMARK SMILES IDX 78 33 18 34 77 35 19 36 20 37 21 38 71 39 22 40 76 41 70 42
REMARK SMILES IDX 72 43 23 44 75 45 69 46 68 47 24 49 56 50 36 51 55 52 37 53
REMARK SMILES IDX 40 54 54 55 73 56 38 57 39 58 53 60 74 61 41 62 25 63 26 64
REMARK SMILES IDX 34 65 27 66 28 67 32 68 35 69 29 70 30 71 33 72 31 73 57 74
REMARK SMILES IDX 58 75 66 76 59 77 60 78 64 79 67 80 61 81 62 82 65 83 63 84
REMARK SMILES IDX 42 85 43 86 51 87 44 88 45 89 49 90 52 91 46 92 47 93 50 94
REMARK SMILES IDX 48 95
REMARK H PARENT 72 48 40 59
REMARK Flexibility Score: inf
ROOT
ATOM      1  C   UNL A   1      33.811  30.306  27.186  1.00  0.00     0.275 C 
ENDROOT
BRANCH   1   2
ATOM      2  O   UNL A   1      32.431  29.863  27.286  1.00  0.00    -0.457 OA
BRANCH   2   3
ATOM      3  C   UNL A   1      31.739  29.742  26.129  1.00  0.00     0.355 C 
ATOM      4  O   UNL A   1      31.385  30.720  25.467  1.00  0.00    -0.244 OA
BRANCH   3   5
ATOM      5  C   UNL A   1      31.568  28.359  25.680  1.00  0.00     0.129 A 
ATOM      6  C   UNL A   1      31.024  23.719  25.537  1.00  0.00     0.165 A 
ATOM      7  C   UNL A   1      31.133  24.781  26.422  1.00  0.00     0.061 A 
ATOM      8  C   UNL A   1      31.190  23.942  24.161  1.00  0.00     0.205 A 
ATOM      9  C   UNL A   1      31.321  26.078  25.914  1.00  0.00     0.008 A 
ATOM     10  C   UNL A   1      31.368  25.268  23.643  1.00  0.00     0.189 A 
ATOM     11  C   UNL A   1      31.559  27.291  26.539  1.00  0.00     0.044 A 
ATOM     12  C   UNL A   1      31.359  26.353  24.554  1.00  0.00     0.096 A 
ATOM     13  N   UNL A   1      31.404  27.760  24.432  1.00  0.00    -0.327 N 
BRANCH   6  14
ATOM     14  O   UNL A   1      30.637  22.485  25.995  1.00  0.00    -0.493 OA
ATOM     15  C   UNL A   1      29.629  22.504  27.004  1.00  0.00     0.278 C 
ENDBRANCH   6  14
BRANCH   8  16
ATOM     16  O   UNL A   1      31.137  22.913  23.244  1.00  0.00    -0.490 OA
ATOM     17  C   UNL A   1      32.343  22.167  23.076  1.00  0.00     0.278 C 
ENDBRANCH   8  16
BRANCH  10  18
ATOM     18  O   UNL A   1      31.549  25.540  22.311  1.00  0.00    -0.491 OA
ATOM     19  C   UNL A   1      32.916  25.568  21.905  1.00  0.00     0.278 C 
ENDBRANCH  10  18
BRANCH  13  20
ATOM     20  C   UNL A   1      31.433  28.512  23.188  1.00  0.00     0.158 C 
BRANCH  20  21
ATOM     21  C   UNL A   1      30.079  28.969  22.689  1.00  0.00    -0.028 A 
ATOM     22  C   UNL A   1      28.855  28.429  23.121  1.00  0.00     0.005 A 
ATOM     23  C   UNL A   1      30.043  30.104  21.869  1.00  0.00     0.005 A 
ATOM     24  C   UNL A   1      27.645  29.061  22.830  1.00  0.00     0.000 A 
ATOM     25  C   UNL A   1      28.830  30.712  21.542  1.00  0.00     0.000 A 
ATOM     26  C   UNL A   1      27.634  30.208  22.047  1.00  0.00     0.000 A 
ENDBRANCH  20  21
ENDBRANCH  13  20
ENDBRANCH   3   5
ENDBRANCH   2   3
ENDBRANCH   1   2
BRANCH   1  27
ATOM     27  C   UNL A   1      33.980  31.761  27.652  1.00  0.00     0.275 C 
BRANCH  27  28
ATOM     28  O   UNL A   1      35.381  32.063  27.733  1.00  0.00    -0.458 OA
BRANCH  28  29
ATOM     29  C   UNL A   1      35.802  32.824  28.766  1.00  0.00     0.338 C 
ATOM     30  O   UNL A   1      35.275  33.840  29.201  1.00  0.00    -0.246 OA
BRANCH  29  31
ATOM     31  C   UNL A   1      36.781  31.991  29.498  1.00  0.00     0.060 A 
ATOM     32  C   UNL A   1      38.063  32.480  29.793  1.00  0.00     0.016 A 
ATOM     33  C   UNL A   1      36.517  30.628  29.559  1.00  0.00     0.016 A 
ATOM     34  C   UNL A   1      39.140  31.598  29.853  1.00  0.00     0.010 A 
ATOM     35  C   UNL A   1      37.589  29.760  29.695  1.00  0.00     0.010 A 
ATOM     36  C   UNL A   1      38.919  30.237  29.668  1.00  0.00    -0.014 A 
BRANCH  36  37
ATOM     37  C   UNL A   1      40.052  29.285  29.601  1.00  0.00     0.031 A 
ATOM     38  C   UNL A   1      40.506  28.972  30.960  1.00  0.00     0.074 A 
ATOM     39  C   UNL A   1      40.654  28.617  28.578  1.00  0.00     0.049 A 
ATOM     40  N   UNL A   1      41.465  29.585  31.564  1.00  0.00    -0.248 NA
ATOM     41  C   UNL A   1      39.720  28.068  31.805  1.00  0.00     0.031 C 
ATOM     42  C   UNL A   1      40.324  28.528  27.153  1.00  0.00     0.029 A 
ATOM     43  N   UNL A   1      41.722  27.753  28.652  1.00  0.00    -0.354 N 
ATOM     44  C   UNL A   1      41.536  28.998  32.809  1.00  0.00     0.074 A 
ATOM     45  C   UNL A   1      40.301  28.279  32.987  1.00  0.00     0.031 C 
ATOM     46  C   UNL A   1      40.960  27.483  26.572  1.00  0.00     0.029 A 
ATOM     47  C   UNL A   1      41.951  26.992  27.505  1.00  0.00     0.049 A 
ATOM     48  H   UNL A   1      42.285  27.678  29.457  1.00  0.00     0.167 HD
ATOM     49  C   UNL A   1      42.728  28.911  33.451  1.00  0.00     0.037 A 
ATOM     50  C   UNL A   1      42.942  26.090  27.285  1.00  0.00     0.037 A 
ATOM     51  C   UNL A   1      43.724  29.759  32.831  1.00  0.00     0.049 A 
ATOM     52  C   UNL A   1      44.051  26.463  28.186  1.00  0.00     0.074 A 
ATOM     53  C   UNL A   1      43.806  31.107  32.527  1.00  0.00     0.029 A 
ATOM     54  N   UNL A   1      44.686  29.153  32.060  1.00  0.00    -0.354 N 
ATOM     55  N   UNL A   1      44.775  27.536  28.042  1.00  0.00    -0.248 NA
ATOM     56  C   UNL A   1      44.123  25.822  29.487  1.00  0.00     0.031 C 
ATOM     57  C   UNL A   1      44.490  31.175  31.275  1.00  0.00     0.029 A 
ATOM     58  C   UNL A   1      44.830  29.874  30.904  1.00  0.00     0.049 A 
ATOM     59  H   UNL A   1      45.187  28.338  32.299  1.00  0.00     0.167 HD
ATOM     60  C   UNL A   1      45.014  27.958  29.337  1.00  0.00     0.074 A 
ATOM     61  C   UNL A   1      44.716  26.800  30.174  1.00  0.00     0.031 C 
ATOM     62  C   UNL A   1      45.142  29.286  29.621  1.00  0.00     0.037 A 
BRANCH  49  63
ATOM     63  C   UNL A   1      43.086  27.775  34.370  1.00  0.00     0.064 A 
ATOM     64  C   UNL A   1      43.309  28.057  35.728  1.00  0.00     0.173 A 
ATOM     65  C   UNL A   1      43.475  26.486  33.940  1.00  0.00     0.173 A 
ATOM     66  F   UNL A   1      43.011  29.264  36.232  1.00  0.00    -0.203 F 
ATOM     67  C   UNL A   1      43.932  27.140  36.575  1.00  0.00     0.198 A 
ATOM     68  C   UNL A   1      44.033  25.550  34.804  1.00  0.00     0.198 A 
ATOM     69  F   UNL A   1      43.451  26.115  32.655  1.00  0.00    -0.203 F 
ATOM     70  F   UNL A   1      44.246  27.502  37.826  1.00  0.00    -0.200 F 
ATOM     71  C   UNL A   1      44.291  25.887  36.113  1.00  0.00     0.200 A 
ATOM     72  F   UNL A   1      44.395  24.350  34.328  1.00  0.00    -0.200 F 
ATOM     73  F   UNL A   1      44.938  25.027  36.909  1.00  0.00    -0.200 F 
ENDBRANCH  49  63
BRANCH  50  74
ATOM     74  C   UNL A   1      43.002  24.854  26.467  1.00  0.00     0.064 A 
ATOM     75  C   UNL A   1      43.878  24.750  25.370  1.00  0.00     0.173 A 
ATOM     76  C   UNL A   1      42.463  23.649  26.952  1.00  0.00     0.173 A 
ATOM     77  F   UNL A   1      44.462  25.845  24.863  1.00  0.00    -0.203 F 
ATOM     78  C   UNL A   1      44.239  23.511  24.829  1.00  0.00     0.198 A 
ATOM     79  C   UNL A   1      42.822  22.411  26.407  1.00  0.00     0.198 A 
ATOM     80  F   UNL A   1      41.669  23.644  28.032  1.00  0.00    -0.203 F 
ATOM     81  F   UNL A   1      45.143  23.450  23.840  1.00  0.00    -0.200 F 
ATOM     82  C   UNL A   1      43.726  22.342  25.360  1.00  0.00     0.200 A 
ATOM     83  F   UNL A   1      42.351  21.281  26.954  1.00  0.00    -0.200 F 
ATOM     84  F   UNL A   1      44.134  21.151  24.899  1.00  0.00    -0.200 F 
ENDBRANCH  50  74
BRANCH  62  85
ATOM     85  C   UNL A   1      45.384  30.232  28.475  1.00  0.00     0.064 A 
ATOM     86  C   UNL A   1      44.371  30.862  27.731  1.00  0.00     0.173 A 
ATOM     87  C   UNL A   1      46.705  30.622  28.214  1.00  0.00     0.173 A 
ATOM     88  F   UNL A   1      43.079  30.605  27.966  1.00  0.00    -0.203 F 
ATOM     89  C   UNL A   1      44.672  31.818  26.760  1.00  0.00     0.198 A 
ATOM     90  C   UNL A   1      47.001  31.601  27.270  1.00  0.00     0.198 A 
ATOM     91  F   UNL A   1      47.714  30.081  28.916  1.00  0.00    -0.203 F 
ATOM     92  F   UNL A   1      43.686  32.401  26.060  1.00  0.00    -0.200 F 
ATOM     93  C   UNL A   1      45.986  32.195  26.539  1.00  0.00     0.200 A 
ATOM     94  F   UNL A   1      48.270  31.990  27.088  1.00  0.00    -0.200 F 
ATOM     95  F   UNL A   1      46.272  33.149  25.641  1.00  0.00    -0.200 F 
ENDBRANCH  62  85
ENDBRANCH  36  37
ENDBRANCH  29  31
ENDBRANCH  28  29
ENDBRANCH  27  28
ENDBRANCH   1  27
TORSDOF 16
ENDMDL
MODEL 3
REMARK VINA RESULT:     -11.9      4.216      7.809
REMARK SMILES COc1cc2cc(C(=O)OCCOC(=O)c3ccc(-c4c5nc(c(-c6c(F)c(F)c(F)c(F)c6F)c6ccc([nH]6)c(-c6c(F)c(F)c(F)c(F)c6F)c6nc(c(-c7c(F)c(F)c(F)c(F)c7F)c7ccc4[nH]7)C=C6)C=C5)cc3)n(Cc3ccccc3)c2c(OC)c1OC
REMARK SMILES IDX 11 1 10 2 8 3 9 4 7 5 3 6 4 7 91 8 5 9 88 10 6 11 87 12
REMARK SMILES IDX 79 13 2 14 1 15 92 16 93 17 89 18 90 19 80 20 81 21 82 22
REMARK SMILES IDX 86 23 83 24 85 25 84 26 12 27 13 28 14 29 15 30 16 31 17 32
REMARK SMILES IDX 78 33 18 34 77 35 19 36 20 37 21 38 71 39 22 40 76 41 70 42
REMARK SMILES IDX 72 43 23 44 75 45 69 46 68 47 24 49 56 50 36 51 55 52 37 53
REMARK SMILES IDX 40 54 54 55 73 56 38 57 39 58 53 60 74 61 41 62 25 63 26 64
REMARK SMILES IDX 34 65 27 66 28 67 32 68 35 69 29 70 30 71 33 72 31 73 57 74
REMARK SMILES IDX 58 75 66 76 59 77 60 78 64 79 67 80 61 81 62 82 65 83 63 84
REMARK SMILES IDX 42 85 43 86 51 87 44 88 45 89 49 90 52 91 46 92 47 93 50 94
REMARK SMILES IDX 48 95
REMARK H PARENT 72 48 40 59
REMARK Flexibility Score: inf
ROOT
ATOM      1  C   UNL A   1      42.306  20.699  26.071  1.00  0.00     0.275 C 
ENDROOT
BRANCH   1   2
ATOM      2  O   UNL A   1      42.823  22.032  25.809  1.00  0.00    -0.457 OA
BRANCH   2   3
ATOM      3  C   UNL A   1      44.169  22.179  25.807  1.00  0.00     0.355 C 
ATOM      4  O   UNL A   1      44.873  21.790  24.874  1.00  0.00    -0.244 OA
BRANCH   3   5
ATOM      5  C   UNL A   1      44.684  22.947  26.941  1.00  0.00     0.129 A 
ATOM      6  C   UNL A   1      45.272  24.897  31.149  1.00  0.00     0.165 A 
ATOM      7  C   UNL A   1      44.442  24.034  30.449  1.00  0.00     0.061 A 
ATOM      8  C   UNL A   1      46.308  25.563  30.475  1.00  0.00     0.205 A 
ATOM      9  C   UNL A   1      44.710  23.776  29.094  1.00  0.00     0.008 A 
ATOM     10  C   UNL A   1      46.588  25.288  29.095  1.00  0.00     0.189 A 
ATOM     11  C   UNL A   1      44.018  23.056  28.134  1.00  0.00     0.044 A 
ATOM     12  C   UNL A   1      45.803  24.315  28.429  1.00  0.00     0.096 A 
ATOM     13  N   UNL A   1      45.828  23.715  27.150  1.00  0.00    -0.327 N 
BRANCH   6  14
ATOM     14  O   UNL A   1      45.154  25.003  32.512  1.00  0.00    -0.493 OA
ATOM     15  C   UNL A   1      44.126  25.883  32.962  1.00  0.00     0.278 C 
ENDBRANCH   6  14
BRANCH   8  16
ATOM     16  O   UNL A   1      47.131  26.467  31.114  1.00  0.00    -0.490 OA
ATOM     17  C   UNL A   1      48.291  25.917  31.741  1.00  0.00     0.278 C 
ENDBRANCH   8  16
BRANCH  10  18
ATOM     18  O   UNL A   1      47.578  25.920  28.385  1.00  0.00    -0.491 OA
ATOM     19  C   UNL A   1      48.831  25.238  28.402  1.00  0.00     0.278 C 
ENDBRANCH  10  18
BRANCH  13  20
ATOM     20  C   UNL A   1      46.814  23.958  26.110  1.00  0.00     0.158 C 
BRANCH  20  21
ATOM     21  C   UNL A   1      46.637  25.258  25.355  1.00  0.00    -0.028 A 
ATOM     22  C   UNL A   1      45.482  26.058  25.421  1.00  0.00     0.005 A 
ATOM     23  C   UNL A   1      47.752  25.771  24.681  1.00  0.00     0.005 A 
ATOM     24  C   UNL A   1      45.477  27.361  24.921  1.00  0.00     0.000 A 
ATOM     25  C   UNL A   1      47.734  27.058  24.143  1.00  0.00     0.000 A 
ATOM     26  C   UNL A   1      46.608  27.864  24.290  1.00  0.00     0.000 A 
ENDBRANCH  20  21
ENDBRANCH  13  20
ENDBRANCH   3   5
ENDBRANCH   2   3
ENDBRANCH   1   2
BRANCH   1  27
ATOM     27  C   UNL A   1      40.796  20.717  26.356  1.00  0.00     0.275 C 
BRANCH  27  28
ATOM     28  O   UNL A   1      40.495  21.835  27.204  1.00  0.00    -0.458 OA
BRANCH  28  29
ATOM     29  C   UNL A   1      39.738  22.829  26.691  1.00  0.00     0.338 C 
ATOM     30  O   UNL A   1      38.562  22.765  26.353  1.00  0.00    -0.246 OA
BRANCH  29  31
ATOM     31  C   UNL A   1      40.476  24.078  26.975  1.00  0.00     0.060 A 
ATOM     32  C   UNL A   1      41.040  24.309  28.240  1.00  0.00     0.016 A 
ATOM     33  C   UNL A   1      40.283  25.131  26.089  1.00  0.00     0.016 A 
ATOM     34  C   UNL A   1      41.130  25.611  28.728  1.00  0.00     0.010 A 
ATOM     35  C   UNL A   1      40.449  26.423  26.563  1.00  0.00     0.010 A 
ATOM     36  C   UNL A   1      40.705  26.669  27.931  1.00  0.00    -0.014 A 
BRANCH  36  37
ATOM     37  C   UNL A   1      40.669  28.052  28.460  1.00  0.00     0.031 A 
ATOM     38  C   UNL A   1      41.802  28.810  27.918  1.00  0.00     0.074 A 
ATOM     39  C   UNL A   1      39.783  28.734  29.238  1.00  0.00     0.049 A 
ATOM     40  N   UNL A   1      42.936  28.946  28.513  1.00  0.00    -0.248 NA
ATOM     41  C   UNL A   1      41.771  29.279  26.529  1.00  0.00     0.031 C 
ATOM     42  C   UNL A   1      38.467  28.359  29.762  1.00  0.00     0.029 A 
ATOM     43  N   UNL A   1      39.875  30.037  29.672  1.00  0.00    -0.354 N 
ATOM     44  C   UNL A   1      43.704  29.697  27.650  1.00  0.00     0.074 A 
ATOM     45  C   UNL A   1      43.044  29.645  26.371  1.00  0.00     0.031 C 
ATOM     46  C   UNL A   1      37.782  29.452  30.179  1.00  0.00     0.029 A 
ATOM     47  C   UNL A   1      38.701  30.568  30.209  1.00  0.00     0.049 A 
ATOM     48  H   UNL A   1      40.709  30.556  29.609  1.00  0.00     0.167 HD
ATOM     49  C   UNL A   1      44.648  30.539  28.141  1.00  0.00     0.037 A 
ATOM     50  C   UNL A   1      38.510  31.804  30.736  1.00  0.00     0.037 A 
ATOM     51  C   UNL A   1      44.916  30.274  29.538  1.00  0.00     0.049 A 
ATOM     52  C   UNL A   1      39.835  32.273  31.188  1.00  0.00     0.074 A 
ATOM     53  C   UNL A   1      45.305  29.161  30.263  1.00  0.00     0.029 A 
ATOM     54  N   UNL A   1      44.402  31.150  30.463  1.00  0.00    -0.354 N 
ATOM     55  N   UNL A   1      40.480  31.764  32.198  1.00  0.00    -0.248 NA
ATOM     56  C   UNL A   1      40.625  33.080  30.275  1.00  0.00     0.031 C 
ATOM     57  C   UNL A   1      44.595  29.244  31.499  1.00  0.00     0.029 A 
ATOM     58  C   UNL A   1      43.850  30.422  31.484  1.00  0.00     0.049 A 
ATOM     59  H   UNL A   1      44.427  32.133  30.402  1.00  0.00     0.167 HD
ATOM     60  C   UNL A   1      41.805  31.793  31.801  1.00  0.00     0.074 A 
ATOM     61  C   UNL A   1      41.846  32.734  30.686  1.00  0.00     0.031 C 
ATOM     62  C   UNL A   1      42.676  30.832  32.223  1.00  0.00     0.037 A 
BRANCH  49  63
ATOM     63  C   UNL A   1      45.021  31.835  27.473  1.00  0.00     0.064 A 
ATOM     64  C   UNL A   1      46.312  31.962  26.932  1.00  0.00     0.173 A 
ATOM     65  C   UNL A   1      44.277  33.033  27.571  1.00  0.00     0.173 A 
ATOM     66  F   UNL A   1      47.116  30.894  26.829  1.00  0.00    -0.203 F 
ATOM     67  C   UNL A   1      46.839  33.204  26.576  1.00  0.00     0.198 A 
ATOM     68  C   UNL A   1      44.781  34.259  27.151  1.00  0.00     0.198 A 
ATOM     69  F   UNL A   1      43.090  33.098  28.184  1.00  0.00    -0.203 F 
ATOM     70  F   UNL A   1      48.118  33.295  26.193  1.00  0.00    -0.200 F 
ATOM     71  C   UNL A   1      46.073  34.350  26.684  1.00  0.00     0.200 A 
ATOM     72  F   UNL A   1      44.029  35.360  27.287  1.00  0.00    -0.200 F 
ATOM     73  F   UNL A   1      46.594  35.549  26.394  1.00  0.00    -0.200 F 
ENDBRANCH  49  63
BRANCH  50  74
ATOM     74  C   UNL A   1      37.323  32.693  30.789  1.00  0.00     0.064 A 
ATOM     75  C   UNL A   1      36.967  33.496  29.688  1.00  0.00     0.173 A 
ATOM     76  C   UNL A   1      36.337  32.512  31.775  1.00  0.00     0.173 A 
ATOM     77  F   UNL A   1      37.835  33.696  28.687  1.00  0.00    -0.203 F 
ATOM     78  C   UNL A   1      35.683  34.035  29.554  1.00  0.00     0.198 A 
ATOM     79  C   UNL A   1      35.054  33.055  31.640  1.00  0.00     0.198 A 
ATOM     80  F   UNL A   1      36.565  31.714  32.827  1.00  0.00    -0.203 F 
ATOM     81  F   UNL A   1      35.358  34.722  28.448  1.00  0.00    -0.200 F 
ATOM     82  C   UNL A   1      34.722  33.799  30.520  1.00  0.00     0.200 A 
ATOM     83  F   UNL A   1      34.118  32.788  32.561  1.00  0.00    -0.200 F 
ATOM     84  F   UNL A   1      33.468  34.243  30.353  1.00  0.00    -0.200 F 
ENDBRANCH  50  74
BRANCH  62  85
ATOM     85  C   UNL A   1      42.270  29.976  33.393  1.00  0.00     0.064 A 
ATOM     86  C   UNL A   1      41.691  28.699  33.286  1.00  0.00     0.173 A 
ATOM     87  C   UNL A   1      42.614  30.418  34.678  1.00  0.00     0.173 A 
ATOM     88  F   UNL A   1      41.400  28.169  32.093  1.00  0.00    -0.203 F 
ATOM     89  C   UNL A   1      41.450  27.916  34.416  1.00  0.00     0.198 A 
ATOM     90  C   UNL A   1      42.405  29.621  35.801  1.00  0.00     0.198 A 
ATOM     91  F   UNL A   1      43.201  31.614  34.842  1.00  0.00    -0.203 F 
ATOM     92  F   UNL A   1      40.892  26.702  34.288  1.00  0.00    -0.200 F 
ATOM     93  C   UNL A   1      41.819  28.373  35.671  1.00  0.00     0.200 A 
ATOM     94  F   UNL A   1      42.799  30.051  37.006  1.00  0.00    -0.200 F 
ATOM     95  F   UNL A   1      41.632  27.600  36.751  1.00  0.00    -0.200 F 
ENDBRANCH  62  85
ENDBRANCH  36  37
ENDBRANCH  29  31
ENDBRANCH  28  29
ENDBRANCH  27  28
ENDBRANCH   1  27
TORSDOF 16
ENDMDL
