MODEL 1
REMARK VINA RESULT:     -11.7      0.000      0.000
REMARK SMILES CO[C@H]1CN(C(=O)c2cn(C(C)C)cc(C(=O)OCCOC(=O)c3ccc(-c4c5nc(c(-c6c(F)c(F)c(F)c(F)c6F)c6ccc([nH]6)c(-c6c(F)c(F)c(F)c(F)c6F)c6nc(c(-c7c(F)c(F)c(F)c(F)c7F)c7ccc4[nH]7)C=C6)C=C5)cc3)c2=O)CC[C@H]1[NH3+]
REMARK SMILES IDX 19 1 18 2 16 3 17 4 15 5 8 6 9 7 87 8 10 9 88 10 14 11 6 12
REMARK SMILES IDX 7 13 5 14 3 15 4 16 91 17 90 18 89 19 2 20 1 21 92 22 11 26
REMARK SMILES IDX 12 27 13 28 20 29 21 30 22 31 23 32 24 33 25 34 86 35 26 36
REMARK SMILES IDX 85 37 27 38 28 39 29 40 79 41 30 42 84 43 78 44 80 45 31 46
REMARK SMILES IDX 83 47 77 48 76 49 32 51 64 52 44 53 63 54 45 55 48 56 62 57
REMARK SMILES IDX 81 58 46 59 47 60 61 62 82 63 49 64 33 65 34 66 42 67 35 68
REMARK SMILES IDX 36 69 40 70 43 71 37 72 38 73 41 74 39 75 65 76 66 77 74 78
REMARK SMILES IDX 67 79 68 80 72 81 75 82 69 83 70 84 73 85 71 86 50 87 51 88
REMARK SMILES IDX 59 89 52 90 53 91 57 92 60 93 54 94 55 95 58 96 56 97
REMARK H PARENT 92 23 92 24 92 25 80 50 48 61
REMARK Flexibility Score: inf
ROOT
ATOM      1  C   UNL A   1      31.487  31.846  26.702  1.00  0.00     0.275 C 
ENDROOT
BRANCH   1   2
ATOM      2  O   UNL A   1      32.346  30.835  26.143  1.00  0.00    -0.458 OA
BRANCH   2   3
ATOM      3  C   UNL A   1      31.958  29.548  26.277  1.00  0.00     0.343 C 
ATOM      4  O   UNL A   1      31.668  28.998  27.332  1.00  0.00    -0.246 OA
BRANCH   3   5
ATOM      5  C   UNL A   1      31.805  28.892  24.966  1.00  0.00     0.124 A 
ATOM      6  C   UNL A   1      32.374  27.278  23.108  1.00  0.00     0.104 A 
ATOM      7  C   UNL A   1      31.229  27.644  22.509  1.00  0.00     0.103 A 
ATOM      8  C   UNL A   1      32.820  28.019  24.322  1.00  0.00     0.208 A 
ATOM      9  N   UNL A   1      30.372  28.615  23.015  1.00  0.00    -0.350 N 
ATOM     10  O   UNL A   1      33.923  27.811  24.818  1.00  0.00    -0.288 OA
ATOM     11  C   UNL A   1      30.654  29.080  24.295  1.00  0.00     0.105 A 
BRANCH   6  12
ATOM     12  C   UNL A   1      33.035  26.051  22.621  1.00  0.00     0.259 C 
ATOM     13  O   UNL A   1      33.645  26.071  21.553  1.00  0.00    -0.269 OA
BRANCH  12  14
ATOM     14  N   UNL A   1      32.827  24.892  23.368  1.00  0.00    -0.335 N 
ATOM     15  C   UNL A   1      33.113  23.865  25.624  1.00  0.00     0.195 C 
ATOM     16  C   UNL A   1      33.786  24.314  24.324  1.00  0.00     0.158 C 
ATOM     17  C   UNL A   1      31.925  22.907  25.346  1.00  0.00     0.213 C 
ATOM     18  C   UNL A   1      30.958  23.607  24.373  1.00  0.00     0.089 C 
ATOM     19  C   UNL A   1      31.645  24.081  23.090  1.00  0.00     0.126 C 
BRANCH  15  20
ATOM     20  O   UNL A   1      34.013  23.421  26.649  1.00  0.00    -0.373 OA
ATOM     21  C   UNL A   1      35.182  22.738  26.225  1.00  0.00     0.195 C 
ENDBRANCH  15  20
BRANCH  17  22
ATOM     22  N   UNL A   1      32.302  21.582  24.827  1.00  0.00    -0.353 N 
ATOM     23  H   UNL A   1      32.322  21.610  23.807  1.00  0.00     0.344 HD
ATOM     24  H   UNL A   1      31.620  20.889  25.135  1.00  0.00     0.344 HD
ATOM     25  H   UNL A   1      33.226  21.330  25.177  1.00  0.00     0.344 HD
ENDBRANCH  17  22
ENDBRANCH  12  14
ENDBRANCH   6  12
BRANCH   9  26
ATOM     26  C   UNL A   1      29.187  29.124  22.278  1.00  0.00     0.080 C 
ATOM     27  C   UNL A   1      27.882  28.770  22.994  1.00  0.00     0.031 C 
ATOM     28  C   UNL A   1      29.311  30.620  22.019  1.00  0.00     0.031 C 
ENDBRANCH   9  26
ENDBRANCH   3   5
ENDBRANCH   2   3
ENDBRANCH   1   2
BRANCH   1  29
ATOM     29  C   UNL A   1      32.251  33.156  26.915  1.00  0.00     0.275 C 
BRANCH  29  30
ATOM     30  O   UNL A   1      32.133  33.613  28.278  1.00  0.00    -0.458 OA
BRANCH  30  31
ATOM     31  C   UNL A   1      32.978  34.605  28.634  1.00  0.00     0.338 C 
ATOM     32  O   UNL A   1      32.738  35.800  28.714  1.00  0.00    -0.246 OA
BRANCH  31  33
ATOM     33  C   UNL A   1      34.230  34.014  29.126  1.00  0.00     0.060 A 
ATOM     34  C   UNL A   1      35.484  34.533  28.823  1.00  0.00     0.016 A 
ATOM     35  C   UNL A   1      34.114  32.930  29.989  1.00  0.00     0.016 A 
ATOM     36  C   UNL A   1      36.620  33.925  29.377  1.00  0.00     0.010 A 
ATOM     37  C   UNL A   1      35.232  32.341  30.565  1.00  0.00     0.010 A 
ATOM     38  C   UNL A   1      36.504  32.824  30.250  1.00  0.00    -0.014 A 
BRANCH  38  39
ATOM     39  C   UNL A   1      37.696  32.190  30.869  1.00  0.00     0.031 A 
ATOM     40  C   UNL A   1      38.145  32.574  32.253  1.00  0.00     0.074 A 
ATOM     41  C   UNL A   1      38.412  31.304  30.153  1.00  0.00     0.049 A 
ATOM     42  N   UNL A   1      39.141  32.096  32.960  1.00  0.00    -0.248 NA
ATOM     43  C   UNL A   1      37.408  33.658  32.921  1.00  0.00     0.031 C 
ATOM     44  C   UNL A   1      38.143  30.930  28.764  1.00  0.00     0.029 A 
ATOM     45  N   UNL A   1      39.507  30.549  30.495  1.00  0.00    -0.354 N 
ATOM     46  C   UNL A   1      39.146  32.818  34.146  1.00  0.00     0.074 A 
ATOM     47  C   UNL A   1      38.100  33.810  34.042  1.00  0.00     0.031 C 
ATOM     48  C   UNL A   1      39.007  29.973  28.393  1.00  0.00     0.029 A 
ATOM     49  C   UNL A   1      39.902  29.681  29.509  1.00  0.00     0.049 A 
ATOM     50  H   UNL A   1      39.963  30.624  31.364  1.00  0.00     0.167 HD
ATOM     51  C   UNL A   1      39.930  32.643  35.238  1.00  0.00     0.037 A 
ATOM     52  C   UNL A   1      40.861  28.735  29.514  1.00  0.00     0.037 A 
ATOM     53  C   UNL A   1      40.943  31.628  35.354  1.00  0.00     0.049 A 
ATOM     54  C   UNL A   1      41.678  28.521  30.757  1.00  0.00     0.074 A 
ATOM     55  C   UNL A   1      41.736  31.321  36.446  1.00  0.00     0.029 A 
ATOM     56  N   UNL A   1      41.297  30.749  34.343  1.00  0.00    -0.354 N 
ATOM     57  N   UNL A   1      41.613  29.149  31.905  1.00  0.00    -0.248 NA
ATOM     58  C   UNL A   1      42.695  27.462  30.708  1.00  0.00     0.031 C 
ATOM     59  C   UNL A   1      42.589  30.273  36.087  1.00  0.00     0.029 A 
ATOM     60  C   UNL A   1      42.303  29.904  34.783  1.00  0.00     0.049 A 
ATOM     61  H   UNL A   1      40.894  30.727  33.445  1.00  0.00     0.167 HD
ATOM     62  C   UNL A   1      42.567  28.553  32.720  1.00  0.00     0.074 A 
ATOM     63  C   UNL A   1      43.183  27.499  31.942  1.00  0.00     0.031 C 
ATOM     64  C   UNL A   1      42.903  28.859  33.996  1.00  0.00     0.037 A 
BRANCH  51  65
ATOM     65  C   UNL A   1      39.698  33.540  36.421  1.00  0.00     0.064 A 
ATOM     66  C   UNL A   1      40.286  34.811  36.493  1.00  0.00     0.173 A 
ATOM     67  C   UNL A   1      38.823  33.162  37.449  1.00  0.00     0.173 A 
ATOM     68  F   UNL A   1      41.136  35.218  35.537  1.00  0.00    -0.203 F 
ATOM     69  C   UNL A   1      40.021  35.665  37.560  1.00  0.00     0.198 A 
ATOM     70  C   UNL A   1      38.537  34.029  38.501  1.00  0.00     0.198 A 
ATOM     71  F   UNL A   1      38.225  31.961  37.424  1.00  0.00    -0.203 F 
ATOM     72  F   UNL A   1      40.619  36.862  37.623  1.00  0.00    -0.200 F 
ATOM     73  C   UNL A   1      39.139  35.277  38.558  1.00  0.00     0.200 A 
ATOM     74  F   UNL A   1      37.675  33.660  39.458  1.00  0.00    -0.200 F 
ATOM     75  F   UNL A   1      38.871  36.107  39.576  1.00  0.00    -0.200 F 
ENDBRANCH  51  65
BRANCH  52  76
ATOM     76  C   UNL A   1      41.038  27.866  28.323  1.00  0.00     0.064 A 
ATOM     77  C   UNL A   1      40.371  26.636  28.235  1.00  0.00     0.173 A 
ATOM     78  C   UNL A   1      41.844  28.252  27.245  1.00  0.00     0.173 A 
ATOM     79  F   UNL A   1      39.601  26.219  29.251  1.00  0.00    -0.203 F 
ATOM     80  C   UNL A   1      40.513  25.819  27.116  1.00  0.00     0.198 A 
ATOM     81  C   UNL A   1      41.968  27.445  26.116  1.00  0.00     0.198 A 
ATOM     82  F   UNL A   1      42.496  29.423  27.279  1.00  0.00    -0.203 F 
ATOM     83  F   UNL A   1      39.888  24.634  27.071  1.00  0.00    -0.200 F 
ATOM     84  C   UNL A   1      41.305  26.227  26.055  1.00  0.00     0.200 A 
ATOM     85  F   UNL A   1      42.723  27.848  25.085  1.00  0.00    -0.200 F 
ATOM     86  F   UNL A   1      41.433  25.446  24.974  1.00  0.00    -0.200 F 
ENDBRANCH  52  76
BRANCH  64  87
ATOM     87  C   UNL A   1      43.984  28.043  34.640  1.00  0.00     0.064 A 
ATOM     88  C   UNL A   1      45.315  28.482  34.659  1.00  0.00     0.173 A 
ATOM     89  C   UNL A   1      43.674  26.847  35.304  1.00  0.00     0.173 A 
ATOM     90  F   UNL A   1      45.660  29.613  34.026  1.00  0.00    -0.203 F 
ATOM     91  C   UNL A   1      46.300  27.748  35.311  1.00  0.00     0.198 A 
ATOM     92  C   UNL A   1      44.657  26.127  35.977  1.00  0.00     0.198 A 
ATOM     93  F   UNL A   1      42.413  26.389  35.320  1.00  0.00    -0.203 F 
ATOM     94  F   UNL A   1      47.572  28.171  35.293  1.00  0.00    -0.200 F 
ATOM     95  C   UNL A   1      45.970  26.577  35.978  1.00  0.00     0.200 A 
ATOM     96  F   UNL A   1      44.335  25.002  36.631  1.00  0.00    -0.200 F 
ATOM     97  F   UNL A   1      46.918  25.879  36.618  1.00  0.00    -0.200 F 
ENDBRANCH  64  87
ENDBRANCH  38  39
ENDBRANCH  31  33
ENDBRANCH  30  31
ENDBRANCH  29  30
ENDBRANCH   1  29
TORSDOF 16
ENDMDL
MODEL 2
REMARK VINA RESULT:     -11.6      5.278     10.543
REMARK SMILES CO[C@H]1CN(C(=O)c2cn(C(C)C)cc(C(=O)OCCOC(=O)c3ccc(-c4c5nc(c(-c6c(F)c(F)c(F)c(F)c6F)c6ccc([nH]6)c(-c6c(F)c(F)c(F)c(F)c6F)c6nc(c(-c7c(F)c(F)c(F)c(F)c7F)c7ccc4[nH]7)C=C6)C=C5)cc3)c2=O)CC[C@H]1[NH3+]
REMARK SMILES IDX 19 1 18 2 16 3 17 4 15 5 8 6 9 7 87 8 10 9 88 10 14 11 6 12
REMARK SMILES IDX 7 13 5 14 3 15 4 16 91 17 90 18 89 19 2 20 1 21 92 22 11 26
REMARK SMILES IDX 12 27 13 28 20 29 21 30 22 31 23 32 24 33 25 34 86 35 26 36
REMARK SMILES IDX 85 37 27 38 28 39 29 40 79 41 30 42 84 43 78 44 80 45 31 46
REMARK SMILES IDX 83 47 77 48 76 49 32 51 64 52 44 53 63 54 45 55 48 56 62 57
REMARK SMILES IDX 81 58 46 59 47 60 61 62 82 63 49 64 33 65 34 66 42 67 35 68
REMARK SMILES IDX 36 69 40 70 43 71 37 72 38 73 41 74 39 75 65 76 66 77 74 78
REMARK SMILES IDX 67 79 68 80 72 81 75 82 69 83 70 84 73 85 71 86 50 87 51 88
REMARK SMILES IDX 59 89 52 90 53 91 57 92 60 93 54 94 55 95 58 96 56 97
REMARK H PARENT 92 23 92 24 92 25 80 50 48 61
REMARK Flexibility Score: inf
ROOT
ATOM      1  C   UNL A   1      39.355  20.975  25.756  1.00  0.00     0.275 C 
ENDROOT
BRANCH   1   2
ATOM      2  O   UNL A   1      37.987  20.897  25.316  1.00  0.00    -0.458 OA
BRANCH   2   3
ATOM      3  C   UNL A   1      37.202  21.975  25.534  1.00  0.00     0.343 C 
ATOM      4  O   UNL A   1      37.570  23.035  26.026  1.00  0.00    -0.246 OA
BRANCH   3   5
ATOM      5  C   UNL A   1      35.846  21.774  24.993  1.00  0.00     0.124 A 
ATOM      6  C   UNL A   1      33.715  22.415  23.799  1.00  0.00     0.104 A 
ATOM      7  C   UNL A   1      33.343  21.127  23.879  1.00  0.00     0.103 A 
ATOM      8  C   UNL A   1      34.947  22.854  24.513  1.00  0.00     0.208 A 
ATOM      9  N   UNL A   1      34.098  20.146  24.512  1.00  0.00    -0.350 N 
ATOM     10  O   UNL A   1      35.247  24.042  24.581  1.00  0.00    -0.288 OA
ATOM     11  C   UNL A   1      35.379  20.515  24.911  1.00  0.00     0.105 A 
BRANCH   6  12
ATOM     12  C   UNL A   1      32.970  23.281  22.863  1.00  0.00     0.259 C 
ATOM     13  O   UNL A   1      33.345  23.379  21.696  1.00  0.00    -0.269 OA
BRANCH  12  14
ATOM     14  N   UNL A   1      31.930  24.036  23.404  1.00  0.00    -0.335 N 
ATOM     15  C   UNL A   1      30.819  24.709  25.535  1.00  0.00     0.195 C 
ATOM     16  C   UNL A   1      31.048  23.603  24.500  1.00  0.00     0.158 C 
ATOM     17  C   UNL A   1      30.315  26.015  24.868  1.00  0.00     0.213 C 
ATOM     18  C   UNL A   1      31.316  26.412  23.767  1.00  0.00     0.089 C 
ATOM     19  C   UNL A   1      31.563  25.291  22.755  1.00  0.00     0.126 C 
BRANCH  15  20
ATOM     20  O   UNL A   1      30.081  24.306  26.697  1.00  0.00    -0.373 OA
ATOM     21  C   UNL A   1      30.025  22.915  26.972  1.00  0.00     0.195 C 
ENDBRANCH  15  20
BRANCH  17  22
ATOM     22  N   UNL A   1      28.951  25.946  24.318  1.00  0.00    -0.353 N 
ATOM     23  H   UNL A   1      28.950  25.356  23.485  1.00  0.00     0.344 HD
ATOM     24  H   UNL A   1      28.637  26.884  24.070  1.00  0.00     0.344 HD
ATOM     25  H   UNL A   1      28.323  25.549  25.016  1.00  0.00     0.344 HD
ENDBRANCH  17  22
ENDBRANCH  12  14
ENDBRANCH   6  12
BRANCH   9  26
ATOM     26  C   UNL A   1      33.617  18.758  24.731  1.00  0.00     0.080 C 
ATOM     27  C   UNL A   1      32.271  18.512  24.048  1.00  0.00     0.031 C 
ATOM     28  C   UNL A   1      34.671  17.745  24.302  1.00  0.00     0.031 C 
ENDBRANCH   9  26
ENDBRANCH   3   5
ENDBRANCH   2   3
ENDBRANCH   1   2
BRANCH   1  29
ATOM     29  C   UNL A   1      39.909  19.581  26.066  1.00  0.00     0.275 C 
BRANCH  29  30
ATOM     30  O   UNL A   1      41.130  19.331  25.339  1.00  0.00    -0.458 OA
BRANCH  30  31
ATOM     31  C   UNL A   1      42.252  19.268  26.089  1.00  0.00     0.338 C 
ATOM     32  O   UNL A   1      42.936  18.286  26.332  1.00  0.00    -0.246 OA
BRANCH  31  33
ATOM     33  C   UNL A   1      42.675  20.632  26.433  1.00  0.00     0.060 A 
ATOM     34  C   UNL A   1      43.127  21.547  25.489  1.00  0.00     0.016 A 
ATOM     35  C   UNL A   1      42.536  21.015  27.763  1.00  0.00     0.016 A 
ATOM     36  C   UNL A   1      43.466  22.842  25.908  1.00  0.00     0.010 A 
ATOM     37  C   UNL A   1      42.842  22.303  28.181  1.00  0.00     0.010 A 
ATOM     38  C   UNL A   1      43.329  23.230  27.256  1.00  0.00    -0.014 A 
BRANCH  38  39
ATOM     39  C   UNL A   1      43.654  24.606  27.709  1.00  0.00     0.031 A 
ATOM     40  C   UNL A   1      45.083  25.067  27.817  1.00  0.00     0.074 A 
ATOM     41  C   UNL A   1      42.655  25.426  28.082  1.00  0.00     0.049 A 
ATOM     42  N   UNL A   1      45.546  26.245  28.160  1.00  0.00    -0.248 NA
ATOM     43  C   UNL A   1      46.131  24.073  27.540  1.00  0.00     0.031 C 
ATOM     44  C   UNL A   1      41.238  25.061  28.126  1.00  0.00     0.029 A 
ATOM     45  N   UNL A   1      42.673  26.738  28.486  1.00  0.00    -0.354 N 
ATOM     46  C   UNL A   1      46.930  26.131  28.139  1.00  0.00     0.074 A 
ATOM     47  C   UNL A   1      47.235  24.755  27.814  1.00  0.00     0.031 C 
ATOM     48  C   UNL A   1      40.519  26.139  28.473  1.00  0.00     0.029 A 
ATOM     49  C   UNL A   1      41.423  27.264  28.694  1.00  0.00     0.049 A 
ATOM     50  H   UNL A   1      43.503  27.252  28.612  1.00  0.00     0.167 HD
ATOM     51  C   UNL A   1      47.860  27.096  28.336  1.00  0.00     0.037 A 
ATOM     52  C   UNL A   1      41.046  28.520  29.003  1.00  0.00     0.037 A 
ATOM     53  C   UNL A   1      47.552  28.473  28.618  1.00  0.00     0.049 A 
ATOM     54  C   UNL A   1      42.095  29.586  29.159  1.00  0.00     0.074 A 
ATOM     55  C   UNL A   1      48.422  29.541  28.757  1.00  0.00     0.029 A 
ATOM     56  N   UNL A   1      46.273  28.974  28.796  1.00  0.00    -0.354 N 
ATOM     57  N   UNL A   1      43.396  29.486  29.046  1.00  0.00    -0.248 NA
ATOM     58  C   UNL A   1      41.621  30.941  29.475  1.00  0.00     0.031 C 
ATOM     59  C   UNL A   1      47.671  30.683  29.046  1.00  0.00     0.029 A 
ATOM     60  C   UNL A   1      46.330  30.334  29.052  1.00  0.00     0.049 A 
ATOM     61  H   UNL A   1      45.446  28.442  28.747  1.00  0.00     0.167 HD
ATOM     62  C   UNL A   1      43.896  30.763  29.262  1.00  0.00     0.074 A 
ATOM     63  C   UNL A   1      42.756  31.626  29.491  1.00  0.00     0.031 C 
ATOM     64  C   UNL A   1      45.185  31.178  29.275  1.00  0.00     0.037 A 
BRANCH  51  65
ATOM     65  C   UNL A   1      49.308  26.713  28.210  1.00  0.00     0.064 A 
ATOM     66  C   UNL A   1      49.949  26.702  26.963  1.00  0.00     0.173 A 
ATOM     67  C   UNL A   1      50.078  26.432  29.347  1.00  0.00     0.173 A 
ATOM     68  F   UNL A   1      49.254  26.959  25.844  1.00  0.00    -0.203 F 
ATOM     69  C   UNL A   1      51.306  26.407  26.856  1.00  0.00     0.198 A 
ATOM     70  C   UNL A   1      51.441  26.164  29.240  1.00  0.00     0.198 A 
ATOM     71  F   UNL A   1      49.517  26.439  30.566  1.00  0.00    -0.203 F 
ATOM     72  F   UNL A   1      51.889  26.373  25.650  1.00  0.00    -0.200 F 
ATOM     73  C   UNL A   1      52.053  26.149  27.995  1.00  0.00     0.200 A 
ATOM     74  F   UNL A   1      52.166  25.928  30.342  1.00  0.00    -0.200 F 
ATOM     75  F   UNL A   1      53.363  25.882  27.893  1.00  0.00    -0.200 F 
ENDBRANCH  51  65
BRANCH  52  76
ATOM     76  C   UNL A   1      39.602  28.848  29.100  1.00  0.00     0.064 A 
ATOM     77  C   UNL A   1      38.935  28.767  30.330  1.00  0.00     0.173 A 
ATOM     78  C   UNL A   1      38.869  29.273  27.984  1.00  0.00     0.173 A 
ATOM     79  F   UNL A   1      39.592  28.349  31.421  1.00  0.00    -0.203 F 
ATOM     80  C   UNL A   1      37.584  29.089  30.438  1.00  0.00     0.198 A 
ATOM     81  C   UNL A   1      37.523  29.618  28.098  1.00  0.00     0.198 A 
ATOM     82  F   UNL A   1      39.465  29.374  26.787  1.00  0.00    -0.203 F 
ATOM     83  F   UNL A   1      36.963  28.973  31.620  1.00  0.00    -0.200 F 
ATOM     84  C   UNL A   1      36.881  29.521  29.324  1.00  0.00     0.200 A 
ATOM     85  F   UNL A   1      36.850  30.049  27.023  1.00  0.00    -0.200 F 
ATOM     86  F   UNL A   1      35.585  29.841  29.431  1.00  0.00    -0.200 F 
ENDBRANCH  52  76
BRANCH  64  87
ATOM     87  C   UNL A   1      45.440  32.632  29.540  1.00  0.00     0.064 A 
ATOM     88  C   UNL A   1      45.698  33.101  30.835  1.00  0.00     0.173 A 
ATOM     89  C   UNL A   1      45.498  33.550  28.481  1.00  0.00     0.173 A 
ATOM     90  F   UNL A   1      45.642  32.262  31.881  1.00  0.00    -0.203 F 
ATOM     91  C   UNL A   1      45.993  34.442  31.064  1.00  0.00     0.198 A 
ATOM     92  C   UNL A   1      45.818  34.886  28.710  1.00  0.00     0.198 A 
ATOM     93  F   UNL A   1      45.266  33.147  27.223  1.00  0.00    -0.203 F 
ATOM     94  F   UNL A   1      46.209  34.876  32.313  1.00  0.00    -0.200 F 
ATOM     95  C   UNL A   1      46.062  35.331  30.001  1.00  0.00     0.200 A 
ATOM     96  F   UNL A   1      45.896  35.741  27.681  1.00  0.00    -0.200 F 
ATOM     97  F   UNL A   1      46.361  36.618  30.221  1.00  0.00    -0.200 F 
ENDBRANCH  64  87
ENDBRANCH  38  39
ENDBRANCH  31  33
ENDBRANCH  30  31
ENDBRANCH  29  30
ENDBRANCH   1  29
TORSDOF 16
ENDMDL
MODEL 3
REMARK VINA RESULT:     -11.5      0.345      1.603
REMARK SMILES CO[C@H]1CN(C(=O)c2cn(C(C)C)cc(C(=O)OCCOC(=O)c3ccc(-c4c5nc(c(-c6c(F)c(F)c(F)c(F)c6F)c6ccc([nH]6)c(-c6c(F)c(F)c(F)c(F)c6F)c6nc(c(-c7c(F)c(F)c(F)c(F)c7F)c7ccc4[nH]7)C=C6)C=C5)cc3)c2=O)CC[C@H]1[NH3+]
REMARK SMILES IDX 19 1 18 2 16 3 17 4 15 5 8 6 9 7 87 8 10 9 88 10 14 11 6 12
REMARK SMILES IDX 7 13 5 14 3 15 4 16 91 17 90 18 89 19 2 20 1 21 92 22 11 26
REMARK SMILES IDX 12 27 13 28 20 29 21 30 22 31 23 32 24 33 25 34 86 35 26 36
REMARK SMILES IDX 85 37 27 38 28 39 29 40 79 41 30 42 84 43 78 44 80 45 31 46
REMARK SMILES IDX 83 47 77 48 76 49 32 51 64 52 44 53 63 54 45 55 48 56 62 57
REMARK SMILES IDX 81 58 46 59 47 60 61 62 82 63 49 64 33 65 34 66 42 67 35 68
REMARK SMILES IDX 36 69 40 70 43 71 37 72 38 73 41 74 39 75 65 76 66 77 74 78
REMARK SMILES IDX 67 79 68 80 72 81 75 82 69 83 70 84 73 85 71 86 50 87 51 88
REMARK SMILES IDX 59 89 52 90 53 91 57 92 60 93 54 94 55 95 58 96 56 97
REMARK H PARENT 92 23 92 24 92 25 80 50 48 61
REMARK Flexibility Score: inf
ROOT
ATOM      1  C   UNL A   1      31.850  31.824  27.103  1.00  0.00     0.275 C 
ENDROOT
BRANCH   1   2
ATOM      2  O   UNL A   1      32.504  30.856  26.263  1.00  0.00    -0.458 OA
BRANCH   2   3
ATOM      3  C   UNL A   1      32.056  29.582  26.317  1.00  0.00     0.343 C 
ATOM      4  O   UNL A   1      31.740  28.982  27.336  1.00  0.00    -0.246 OA
BRANCH   3   5
ATOM      5  C   UNL A   1      31.871  29.018  24.967  1.00  0.00     0.124 A 
ATOM      6  C   UNL A   1      32.405  27.549  22.983  1.00  0.00     0.104 A 
ATOM      7  C   UNL A   1      31.236  27.937  22.447  1.00  0.00     0.103 A 
ATOM      8  C   UNL A   1      32.878  28.210  24.233  1.00  0.00     0.208 A 
ATOM      9  N   UNL A   1      30.382  28.856  23.046  1.00  0.00    -0.350 N 
ATOM     10  O   UNL A   1      33.999  27.986  24.679  1.00  0.00    -0.288 OA
ATOM     11  C   UNL A   1      30.697  29.234  24.347  1.00  0.00     0.105 A 
BRANCH   6  12
ATOM     12  C   UNL A   1      33.067  26.370  22.391  1.00  0.00     0.259 C 
ATOM     13  O   UNL A   1      33.582  26.458  21.277  1.00  0.00    -0.269 OA
BRANCH  12  14
ATOM     14  N   UNL A   1      32.969  25.176  23.103  1.00  0.00    -0.335 N 
ATOM     15  C   UNL A   1      33.654  24.014  25.203  1.00  0.00     0.195 C 
ATOM     16  C   UNL A   1      34.077  24.522  23.820  1.00  0.00     0.158 C 
ATOM     17  C   UNL A   1      32.403  23.102  25.114  1.00  0.00     0.213 C 
ATOM     18  C   UNL A   1      31.290  23.879  24.388  1.00  0.00     0.089 C 
ATOM     19  C   UNL A   1      31.729  24.410  23.021  1.00  0.00     0.126 C 
BRANCH  15  20
ATOM     20  O   UNL A   1      34.721  23.491  26.006  1.00  0.00    -0.373 OA
ATOM     21  C   UNL A   1      36.037  23.908  25.677  1.00  0.00     0.195 C 
ENDBRANCH  15  20
BRANCH  17  22
ATOM     22  N   UNL A   1      32.626  21.800  24.463  1.00  0.00    -0.353 N 
ATOM     23  H   UNL A   1      33.087  21.168  25.117  1.00  0.00     0.344 HD
ATOM     24  H   UNL A   1      33.216  21.928  23.641  1.00  0.00     0.344 HD
ATOM     25  H   UNL A   1      31.730  21.403  24.182  1.00  0.00     0.344 HD
ENDBRANCH  17  22
ENDBRANCH  12  14
ENDBRANCH   6  12
BRANCH   9  26
ATOM     26  C   UNL A   1      29.167  29.395  22.383  1.00  0.00     0.080 C 
ATOM     27  C   UNL A   1      27.892  28.745  22.924  1.00  0.00     0.031 C 
ATOM     28  C   UNL A   1      29.123  30.915  22.486  1.00  0.00     0.031 C 
ENDBRANCH   9  26
ENDBRANCH   3   5
ENDBRANCH   2   3
ENDBRANCH   1   2
BRANCH   1  29
ATOM     29  C   UNL A   1      32.705  33.085  27.251  1.00  0.00     0.275 C 
BRANCH  29  30
ATOM     30  O   UNL A   1      32.125  34.000  28.205  1.00  0.00    -0.458 OA
BRANCH  30  31
ATOM     31  C   UNL A   1      32.966  34.934  28.700  1.00  0.00     0.338 C 
ATOM     32  O   UNL A   1      32.735  36.116  28.904  1.00  0.00    -0.246 OA
BRANCH  31  33
ATOM     33  C   UNL A   1      34.192  34.275  29.170  1.00  0.00     0.060 A 
ATOM     34  C   UNL A   1      35.451  34.559  28.654  1.00  0.00     0.016 A 
ATOM     35  C   UNL A   1      34.057  33.381  30.227  1.00  0.00     0.016 A 
ATOM     36  C   UNL A   1      36.569  33.910  29.199  1.00  0.00     0.010 A 
ATOM     37  C   UNL A   1      35.161  32.756  30.791  1.00  0.00     0.010 A 
ATOM     38  C   UNL A   1      36.433  33.002  30.269  1.00  0.00    -0.014 A 
BRANCH  38  39
ATOM     39  C   UNL A   1      37.610  32.330  30.876  1.00  0.00     0.031 A 
ATOM     40  C   UNL A   1      38.081  32.695  32.259  1.00  0.00     0.074 A 
ATOM     41  C   UNL A   1      38.294  31.426  30.151  1.00  0.00     0.049 A 
ATOM     42  N   UNL A   1      39.067  32.184  32.956  1.00  0.00    -0.248 NA
ATOM     43  C   UNL A   1      37.381  33.797  32.936  1.00  0.00     0.031 C 
ATOM     44  C   UNL A   1      38.004  31.067  28.762  1.00  0.00     0.029 A 
ATOM     45  N   UNL A   1      39.368  30.638  30.482  1.00  0.00    -0.354 N 
ATOM     46  C   UNL A   1      39.103  32.901  34.145  1.00  0.00     0.074 A 
ATOM     47  C   UNL A   1      38.085  33.924  34.053  1.00  0.00     0.031 C 
ATOM     48  C   UNL A   1      38.836  30.086  28.381  1.00  0.00     0.029 A 
ATOM     49  C   UNL A   1      39.731  29.762  29.489  1.00  0.00     0.049 A 
ATOM     50  H   UNL A   1      39.833  30.695  31.348  1.00  0.00     0.167 HD
ATOM     51  C   UNL A   1      39.889  32.698  35.230  1.00  0.00     0.037 A 
ATOM     52  C   UNL A   1      40.661  28.789  29.483  1.00  0.00     0.037 A 
ATOM     53  C   UNL A   1      40.873  31.652  35.334  1.00  0.00     0.049 A 
ATOM     54  C   UNL A   1      41.481  28.545  30.719  1.00  0.00     0.074 A 
ATOM     55  C   UNL A   1      41.664  31.317  36.419  1.00  0.00     0.029 A 
ATOM     56  N   UNL A   1      41.193  30.767  34.317  1.00  0.00    -0.354 N 
ATOM     57  N   UNL A   1      41.443  29.169  31.870  1.00  0.00    -0.248 NA
ATOM     58  C   UNL A   1      42.465  27.456  30.658  1.00  0.00     0.031 C 
ATOM     59  C   UNL A   1      42.483  30.246  36.050  1.00  0.00     0.029 A 
ATOM     60  C   UNL A   1      42.177  29.891  34.746  1.00  0.00     0.049 A 
ATOM     61  H   UNL A   1      40.782  30.762  33.422  1.00  0.00     0.167 HD
ATOM     62  C   UNL A   1      42.384  28.542  32.675  1.00  0.00     0.074 A 
ATOM     63  C   UNL A   1      42.963  27.474  31.888  1.00  0.00     0.031 C 
ATOM     64  C   UNL A   1      42.739  28.832  33.950  1.00  0.00     0.037 A 
BRANCH  51  65
ATOM     65  C   UNL A   1      39.693  33.596  36.418  1.00  0.00     0.064 A 
ATOM     66  C   UNL A   1      40.291  34.863  36.476  1.00  0.00     0.173 A 
ATOM     67  C   UNL A   1      38.841  33.223  37.468  1.00  0.00     0.173 A 
ATOM     68  F   UNL A   1      41.119  35.264  35.499  1.00  0.00    -0.203 F 
ATOM     69  C   UNL A   1      40.058  35.718  37.550  1.00  0.00     0.198 A 
ATOM     70  C   UNL A   1      38.587  34.092  38.527  1.00  0.00     0.198 A 
ATOM     71  F   UNL A   1      38.234  32.027  37.457  1.00  0.00    -0.203 F 
ATOM     72  F   UNL A   1      40.666  36.912  37.597  1.00  0.00    -0.200 F 
ATOM     73  C   UNL A   1      39.199  35.337  38.569  1.00  0.00     0.200 A 
ATOM     74  F   UNL A   1      37.746  33.729  39.505  1.00  0.00    -0.200 F 
ATOM     75  F   UNL A   1      38.961  36.168  39.593  1.00  0.00    -0.200 F 
ENDBRANCH  51  65
BRANCH  52  76
ATOM     76  C   UNL A   1      40.803  27.920  28.288  1.00  0.00     0.064 A 
ATOM     77  C   UNL A   1      41.624  28.307  27.220  1.00  0.00     0.173 A 
ATOM     78  C   UNL A   1      40.153  26.682  28.198  1.00  0.00     0.173 A 
ATOM     79  F   UNL A   1      42.253  29.491  27.255  1.00  0.00    -0.203 F 
ATOM     80  C   UNL A   1      41.780  27.493  26.101  1.00  0.00     0.198 A 
ATOM     81  C   UNL A   1      40.328  25.857  27.089  1.00  0.00     0.198 A 
ATOM     82  F   UNL A   1      39.363  26.264  29.199  1.00  0.00    -0.203 F 
ATOM     83  F   UNL A   1      42.547  27.901  25.080  1.00  0.00    -0.200 F 
ATOM     84  C   UNL A   1      41.138  26.266  26.039  1.00  0.00     0.200 A 
ATOM     85  F   UNL A   1      39.718  24.666  27.038  1.00  0.00    -0.200 F 
ATOM     86  F   UNL A   1      41.297  25.478  24.967  1.00  0.00    -0.200 F 
ENDBRANCH  52  76
BRANCH  64  87
ATOM     87  C   UNL A   1      43.800  27.982  34.582  1.00  0.00     0.064 A 
ATOM     88  C   UNL A   1      43.482  26.775  35.220  1.00  0.00     0.173 A 
ATOM     89  C   UNL A   1      45.152  28.342  34.488  1.00  0.00     0.173 A 
ATOM     90  F   UNL A   1      42.201  26.395  35.345  1.00  0.00    -0.203 F 
ATOM     91  C   UNL A   1      44.479  25.962  35.750  1.00  0.00     0.198 A 
ATOM     92  C   UNL A   1      46.150  27.516  34.997  1.00  0.00     0.198 A 
ATOM     93  F   UNL A   1      45.507  29.485  33.880  1.00  0.00    -0.203 F 
ATOM     94  F   UNL A   1      44.152  24.826  36.381  1.00  0.00    -0.200 F 
ATOM     95  C   UNL A   1      45.812  26.328  35.631  1.00  0.00     0.200 A 
ATOM     96  F   UNL A   1      47.438  27.864  34.871  1.00  0.00    -0.200 F 
ATOM     97  F   UNL A   1      46.772  25.538  36.129  1.00  0.00    -0.200 F 
ENDBRANCH  64  87
ENDBRANCH  38  39
ENDBRANCH  31  33
ENDBRANCH  30  31
ENDBRANCH  29  30
ENDBRANCH   1  29
TORSDOF 16
ENDMDL
