MODEL 1
REMARK VINA RESULT:     -13.4      0.000      0.000
REMARK SMILES O=C(OCCOC(=O)[C@H]1CCN(c2ccc(F)cc2)[C@@H]1c1ccc(C(F)(F)F)cc1)c1ccc(-c2c3nc(c(-c4c(F)c(F)c(F)c(F)c4F)c4ccc([nH]4)c(-c4c(F)c(F)c(F)c(F)c4F)c4nc(c(-c5c(F)c(F)c(F)c(F)c5F)c5ccc2[nH]5)C=C4)C=C3)cc1
REMARK SMILES IDX 4 1 3 2 2 3 1 4 31 5 32 6 93 7 33 8 92 9 34 10 35 11 36 12
REMARK SMILES IDX 86 13 37 14 91 15 85 16 87 17 38 18 90 19 84 20 83 21 39 23
REMARK SMILES IDX 71 24 51 25 70 26 52 27 55 28 69 29 88 30 53 31 54 32 68 34
REMARK SMILES IDX 89 35 56 36 40 37 41 38 49 39 42 40 43 41 47 42 50 43 44 44
REMARK SMILES IDX 45 45 48 46 46 47 72 48 73 49 81 50 74 51 75 52 79 53 82 54
REMARK SMILES IDX 76 55 77 56 80 57 78 58 57 59 58 60 66 61 59 62 60 63 64 64
REMARK SMILES IDX 67 65 61 66 62 67 65 68 63 69 5 70 6 71 7 72 8 73 9 74 10 75
REMARK SMILES IDX 20 76 11 77 12 78 21 79 22 80 30 81 23 82 29 83 24 84 25 85
REMARK SMILES IDX 26 86 27 87 28 88 13 89 14 90 19 91 15 92 18 93 16 94 17 95
REMARK H PARENT 87 22 55 33
REMARK Flexibility Score: inf
ROOT
ATOM      1  C   UNL A   1      31.492  32.242  26.921  1.00  0.00     0.275 C 
ENDROOT
BRANCH   1   2
ATOM      2  O   UNL A   1      32.575  33.178  26.908  1.00  0.00    -0.458 OA
BRANCH   2   3
ATOM      3  C   UNL A   1      33.287  33.639  27.959  1.00  0.00     0.338 C 
ATOM      4  O   UNL A   1      32.977  34.709  28.482  1.00  0.00    -0.246 OA
BRANCH   3   5
ATOM      5  C   UNL A   1      34.559  32.991  28.392  1.00  0.00     0.060 A 
ATOM      6  C   UNL A   1      35.863  33.458  28.177  1.00  0.00     0.016 A 
ATOM      7  C   UNL A   1      34.404  31.795  29.089  1.00  0.00     0.016 A 
ATOM      8  C   UNL A   1      36.975  32.830  28.771  1.00  0.00     0.010 A 
ATOM      9  C   UNL A   1      35.510  31.172  29.655  1.00  0.00     0.010 A 
ATOM     10  C   UNL A   1      36.806  31.690  29.550  1.00  0.00    -0.014 A 
BRANCH  10  11
ATOM     11  C   UNL A   1      37.924  30.939  30.194  1.00  0.00     0.031 A 
ATOM     12  C   UNL A   1      38.345  31.340  31.588  1.00  0.00     0.074 A 
ATOM     13  C   UNL A   1      38.634  29.997  29.532  1.00  0.00     0.049 A 
ATOM     14  N   UNL A   1      39.369  30.941  32.298  1.00  0.00    -0.248 NA
ATOM     15  C   UNL A   1      37.505  32.346  32.267  1.00  0.00     0.031 C 
ATOM     16  C   UNL A   1      38.363  29.500  28.182  1.00  0.00     0.029 A 
ATOM     17  N   UNL A   1      39.774  29.314  29.900  1.00  0.00    -0.354 N 
ATOM     18  C   UNL A   1      39.276  31.633  33.500  1.00  0.00     0.074 A 
ATOM     19  C   UNL A   1      38.197  32.580  33.369  1.00  0.00     0.031 C 
ATOM     20  C   UNL A   1      39.331  28.635  27.821  1.00  0.00     0.029 A 
ATOM     21  C   UNL A   1      40.304  28.527  28.900  1.00  0.00     0.049 A 
ATOM     22  H   UNL A   1      40.175  29.383  30.797  1.00  0.00     0.167 HD
ATOM     23  C   UNL A   1      39.953  31.426  34.652  1.00  0.00     0.037 A 
ATOM     24  C   UNL A   1      41.452  27.821  28.860  1.00  0.00     0.037 A 
ATOM     25  C   UNL A   1      40.991  30.449  34.805  1.00  0.00     0.049 A 
ATOM     26  C   UNL A   1      42.273  27.698  30.115  1.00  0.00     0.074 A 
ATOM     27  C   UNL A   1      41.662  30.072  35.952  1.00  0.00     0.029 A 
ATOM     28  N   UNL A   1      41.506  29.694  33.765  1.00  0.00    -0.354 N 
ATOM     29  N   UNL A   1      42.116  28.291  31.271  1.00  0.00    -0.248 NA
ATOM     30  C   UNL A   1      43.387  26.736  30.076  1.00  0.00     0.031 C 
ATOM     31  C   UNL A   1      42.611  29.108  35.600  1.00  0.00     0.029 A 
ATOM     32  C   UNL A   1      42.494  28.854  34.244  1.00  0.00     0.049 A 
ATOM     33  H   UNL A   1      41.214  29.747  32.826  1.00  0.00     0.167 HD
ATOM     34  C   UNL A   1      43.053  27.715  32.116  1.00  0.00     0.074 A 
ATOM     35  C   UNL A   1      43.811  26.767  31.329  1.00  0.00     0.031 C 
ATOM     36  C   UNL A   1      43.231  27.914  33.444  1.00  0.00     0.037 A 
BRANCH  23  37
ATOM     37  C   UNL A   1      39.512  32.202  35.858  1.00  0.00     0.064 A 
ATOM     38  C   UNL A   1      38.496  31.727  36.696  1.00  0.00     0.173 A 
ATOM     39  C   UNL A   1      40.086  33.450  36.159  1.00  0.00     0.173 A 
ATOM     40  F   UNL A   1      37.906  30.548  36.448  1.00  0.00    -0.203 F 
ATOM     41  C   UNL A   1      38.074  32.471  37.796  1.00  0.00     0.198 A 
ATOM     42  C   UNL A   1      39.685  34.173  37.276  1.00  0.00     0.198 A 
ATOM     43  F   UNL A   1      41.068  33.945  35.391  1.00  0.00    -0.203 F 
ATOM     44  F   UNL A   1      37.086  32.010  38.575  1.00  0.00    -0.200 F 
ATOM     45  C   UNL A   1      38.674  33.687  38.089  1.00  0.00     0.200 A 
ATOM     46  F   UNL A   1      40.288  35.333  37.572  1.00  0.00    -0.200 F 
ATOM     47  F   UNL A   1      38.281  34.390  39.160  1.00  0.00    -0.200 F 
ENDBRANCH  23  37
BRANCH  24  48
ATOM     48  C   UNL A   1      41.915  27.094  27.645  1.00  0.00     0.064 A 
ATOM     49  C   UNL A   1      42.855  27.679  26.784  1.00  0.00     0.173 A 
ATOM     50  C   UNL A   1      41.577  25.755  27.426  1.00  0.00     0.173 A 
ATOM     51  F   UNL A   1      43.253  28.943  26.989  1.00  0.00    -0.203 F 
ATOM     52  C   UNL A   1      43.432  26.955  25.740  1.00  0.00     0.198 A 
ATOM     53  C   UNL A   1      42.161  25.026  26.386  1.00  0.00     0.198 A 
ATOM     54  F   UNL A   1      40.737  25.131  28.264  1.00  0.00    -0.203 F 
ATOM     55  F   UNL A   1      44.340  27.536  24.945  1.00  0.00    -0.200 F 
ATOM     56  C   UNL A   1      43.088  25.627  25.545  1.00  0.00     0.200 A 
ATOM     57  F   UNL A   1      41.862  23.730  26.231  1.00  0.00    -0.200 F 
ATOM     58  F   UNL A   1      43.669  24.918  24.567  1.00  0.00    -0.200 F 
ENDBRANCH  24  48
BRANCH  36  59
ATOM     59  C   UNL A   1      44.219  27.039  34.147  1.00  0.00     0.064 A 
ATOM     60  C   UNL A   1      43.782  25.859  34.771  1.00  0.00     0.173 A 
ATOM     61  C   UNL A   1      45.571  27.387  34.261  1.00  0.00     0.173 A 
ATOM     62  F   UNL A   1      42.497  25.485  34.684  1.00  0.00    -0.203 F 
ATOM     63  C   UNL A   1      44.660  25.072  35.506  1.00  0.00     0.198 A 
ATOM     64  C   UNL A   1      46.453  26.579  34.971  1.00  0.00     0.198 A 
ATOM     65  F   UNL A   1      46.037  28.490  33.658  1.00  0.00    -0.203 F 
ATOM     66  F   UNL A   1      44.213  23.971  36.125  1.00  0.00    -0.200 F 
ATOM     67  C   UNL A   1      45.996  25.431  35.603  1.00  0.00     0.200 A 
ATOM     68  F   UNL A   1      47.751  26.908  35.038  1.00  0.00    -0.200 F 
ATOM     69  F   UNL A   1      46.845  24.667  36.303  1.00  0.00    -0.200 F 
ENDBRANCH  36  59
ENDBRANCH  10  11
ENDBRANCH   3   5
ENDBRANCH   2   3
ENDBRANCH   1   2
BRANCH   1  70
ATOM     70  C   UNL A   1      31.808  30.825  26.417  1.00  0.00     0.274 C 
BRANCH  70  71
ATOM     71  O   UNL A   1      32.169  29.846  27.420  1.00  0.00    -0.462 OA
BRANCH  71  72
ATOM     72  C   UNL A   1      31.874  28.565  27.080  1.00  0.00     0.311 C 
ATOM     73  O   UNL A   1      31.291  27.789  27.834  1.00  0.00    -0.252 OA
BRANCH  72  74
ATOM     74  C   UNL A   1      32.366  28.098  25.724  1.00  0.00     0.128 C 
ATOM     75  C   UNL A   1      33.680  27.350  25.872  1.00  0.00     0.039 C 
ATOM     76  C   UNL A   1      31.503  27.190  24.796  1.00  0.00     0.127 C 
ATOM     77  C   UNL A   1      33.897  26.821  24.467  1.00  0.00     0.118 C 
ATOM     78  N   UNL A   1      32.564  26.379  24.038  1.00  0.00    -0.364 N 
BRANCH  76  79
ATOM     79  C   UNL A   1      30.602  28.046  23.880  1.00  0.00    -0.025 A 
ATOM     80  C   UNL A   1      31.122  29.151  23.215  1.00  0.00     0.006 A 
ATOM     81  C   UNL A   1      29.255  27.753  23.590  1.00  0.00     0.006 A 
ATOM     82  C   UNL A   1      30.335  30.043  22.487  1.00  0.00     0.013 A 
ATOM     83  C   UNL A   1      28.464  28.598  22.791  1.00  0.00     0.013 A 
ATOM     84  C   UNL A   1      28.990  29.778  22.262  1.00  0.00     0.056 A 
BRANCH  84  85
ATOM     85  C   UNL A   1      28.187  30.707  21.396  1.00  0.00     0.416 C 
ATOM     86  F   UNL A   1      27.211  31.361  22.083  1.00  0.00    -0.166 F 
ATOM     87  F   UNL A   1      28.972  31.686  20.856  1.00  0.00    -0.166 F 
ATOM     88  F   UNL A   1      27.573  30.098  20.347  1.00  0.00    -0.166 F 
ENDBRANCH  84  85
ENDBRANCH  76  79
BRANCH  78  89
ATOM     89  C   UNL A   1      32.461  25.058  23.598  1.00  0.00     0.037 A 
ATOM     90  C   UNL A   1      33.308  24.507  22.613  1.00  0.00     0.029 A 
ATOM     91  C   UNL A   1      31.437  24.199  24.023  1.00  0.00     0.029 A 
ATOM     92  C   UNL A   1      33.222  23.163  22.199  1.00  0.00     0.041 A 
ATOM     93  C   UNL A   1      31.366  22.842  23.668  1.00  0.00     0.041 A 
ATOM     94  C   UNL A   1      32.273  22.330  22.763  1.00  0.00     0.123 A 
ATOM     95  F   UNL A   1      32.208  21.043  22.398  1.00  0.00    -0.207 F 
ENDBRANCH  78  89
ENDBRANCH  72  74
ENDBRANCH  71  72
ENDBRANCH  70  71
ENDBRANCH   1  70
TORSDOF 14
ENDMDL
MODEL 2
REMARK VINA RESULT:     -12.9      3.796      8.697
REMARK SMILES O=C(OCCOC(=O)[C@H]1CCN(c2ccc(F)cc2)[C@@H]1c1ccc(C(F)(F)F)cc1)c1ccc(-c2c3nc(c(-c4c(F)c(F)c(F)c(F)c4F)c4ccc([nH]4)c(-c4c(F)c(F)c(F)c(F)c4F)c4nc(c(-c5c(F)c(F)c(F)c(F)c5F)c5ccc2[nH]5)C=C4)C=C3)cc1
REMARK SMILES IDX 4 1 3 2 2 3 1 4 31 5 32 6 93 7 33 8 92 9 34 10 35 11 36 12
REMARK SMILES IDX 86 13 37 14 91 15 85 16 87 17 38 18 90 19 84 20 83 21 39 23
REMARK SMILES IDX 71 24 51 25 70 26 52 27 55 28 69 29 88 30 53 31 54 32 68 34
REMARK SMILES IDX 89 35 56 36 40 37 41 38 49 39 42 40 43 41 47 42 50 43 44 44
REMARK SMILES IDX 45 45 48 46 46 47 72 48 73 49 81 50 74 51 75 52 79 53 82 54
REMARK SMILES IDX 76 55 77 56 80 57 78 58 57 59 58 60 66 61 59 62 60 63 64 64
REMARK SMILES IDX 67 65 61 66 62 67 65 68 63 69 5 70 6 71 7 72 8 73 9 74 10 75
REMARK SMILES IDX 20 76 11 77 12 78 21 79 22 80 30 81 23 82 29 83 24 84 25 85
REMARK SMILES IDX 26 86 27 87 28 88 13 89 14 90 19 91 15 92 18 93 16 94 17 95
REMARK H PARENT 87 22 55 33
REMARK Flexibility Score: inf
ROOT
ATOM      1  C   UNL A   1      36.891  23.690  24.988  1.00  0.00     0.275 C 
ENDROOT
BRANCH   1   2
ATOM      2  O   UNL A   1      37.637  23.088  26.052  1.00  0.00    -0.458 OA
BRANCH   2   3
ATOM      3  C   UNL A   1      38.953  23.223  26.323  1.00  0.00     0.338 C 
ATOM      4  O   UNL A   1      39.695  22.245  26.240  1.00  0.00    -0.246 OA
BRANCH   3   5
ATOM      5  C   UNL A   1      39.511  24.477  26.908  1.00  0.00     0.060 A 
ATOM      6  C   UNL A   1      40.301  25.435  26.259  1.00  0.00     0.016 A 
ATOM      7  C   UNL A   1      39.189  24.697  28.245  1.00  0.00     0.016 A 
ATOM      8  C   UNL A   1      40.636  26.653  26.881  1.00  0.00     0.010 A 
ATOM      9  C   UNL A   1      39.541  25.895  28.856  1.00  0.00     0.010 A 
ATOM     10  C   UNL A   1      40.229  26.913  28.186  1.00  0.00    -0.014 A 
BRANCH  10  11
ATOM     11  C   UNL A   1      40.561  28.159  28.938  1.00  0.00     0.031 A 
ATOM     12  C   UNL A   1      41.904  28.242  29.626  1.00  0.00     0.074 A 
ATOM     13  C   UNL A   1      39.664  29.156  29.110  1.00  0.00     0.049 A 
ATOM     14  N   UNL A   1      42.364  29.148  30.451  1.00  0.00    -0.248 NA
ATOM     15  C   UNL A   1      42.848  27.139  29.366  1.00  0.00     0.031 C 
ATOM     16  C   UNL A   1      38.327  29.227  28.520  1.00  0.00     0.029 A 
ATOM     17  N   UNL A   1      39.733  30.295  29.884  1.00  0.00    -0.354 N 
ATOM     18  C   UNL A   1      43.647  28.728  30.780  1.00  0.00     0.074 A 
ATOM     19  C   UNL A   1      43.836  27.422  30.198  1.00  0.00     0.031 C 
ATOM     20  C   UNL A   1      37.689  30.318  28.988  1.00  0.00     0.029 A 
ATOM     21  C   UNL A   1      38.558  31.016  29.927  1.00  0.00     0.049 A 
ATOM     22  H   UNL A   1      40.547  30.570  30.364  1.00  0.00     0.167 HD
ATOM     23  C   UNL A   1      44.626  29.410  31.418  1.00  0.00     0.037 A 
ATOM     24  C   UNL A   1      38.224  32.100  30.656  1.00  0.00     0.037 A 
ATOM     25  C   UNL A   1      44.461  30.729  31.952  1.00  0.00     0.049 A 
ATOM     26  C   UNL A   1      39.289  32.784  31.470  1.00  0.00     0.074 A 
ATOM     27  C   UNL A   1      45.413  31.561  32.512  1.00  0.00     0.029 A 
ATOM     28  N   UNL A   1      43.254  31.408  31.992  1.00  0.00    -0.354 N 
ATOM     29  N   UNL A   1      40.525  32.418  31.696  1.00  0.00    -0.248 NA
ATOM     30  C   UNL A   1      38.927  34.084  32.059  1.00  0.00     0.031 C 
ATOM     31  C   UNL A   1      44.773  32.735  32.922  1.00  0.00     0.029 A 
ATOM     32  C   UNL A   1      43.436  32.649  32.573  1.00  0.00     0.049 A 
ATOM     33  H   UNL A   1      42.397  31.059  31.657  1.00  0.00     0.167 HD
ATOM     34  C   UNL A   1      41.108  33.475  32.379  1.00  0.00     0.074 A 
ATOM     35  C   UNL A   1      40.080  34.471  32.580  1.00  0.00     0.031 C 
ATOM     36  C   UNL A   1      42.399  33.628  32.757  1.00  0.00     0.037 A 
BRANCH  23  37
ATOM     37  C   UNL A   1      45.984  28.776  31.471  1.00  0.00     0.064 A 
ATOM     38  C   UNL A   1      46.389  28.014  32.574  1.00  0.00     0.173 A 
ATOM     39  C   UNL A   1      46.904  28.962  30.424  1.00  0.00     0.173 A 
ATOM     40  F   UNL A   1      45.554  27.817  33.605  1.00  0.00    -0.203 F 
ATOM     41  C   UNL A   1      47.664  27.456  32.624  1.00  0.00     0.198 A 
ATOM     42  C   UNL A   1      48.164  28.375  30.464  1.00  0.00     0.198 A 
ATOM     43  F   UNL A   1      46.563  29.677  29.342  1.00  0.00    -0.203 F 
ATOM     44  F   UNL A   1      48.040  26.747  33.698  1.00  0.00    -0.200 F 
ATOM     45  C   UNL A   1      48.545  27.629  31.567  1.00  0.00     0.200 A 
ATOM     46  F   UNL A   1      49.001  28.520  29.428  1.00  0.00    -0.200 F 
ATOM     47  F   UNL A   1      49.764  27.072  31.610  1.00  0.00    -0.200 F 
ENDBRANCH  23  37
BRANCH  24  48
ATOM     48  C   UNL A   1      36.860  32.696  30.643  1.00  0.00     0.064 A 
ATOM     49  C   UNL A   1      35.983  32.488  31.718  1.00  0.00     0.173 A 
ATOM     50  C   UNL A   1      36.480  33.622  29.665  1.00  0.00     0.173 A 
ATOM     51  F   UNL A   1      36.329  31.653  32.709  1.00  0.00    -0.203 F 
ATOM     52  C   UNL A   1      34.771  33.174  31.810  1.00  0.00     0.198 A 
ATOM     53  C   UNL A   1      35.271  34.316  29.762  1.00  0.00     0.198 A 
ATOM     54  F   UNL A   1      37.315  33.909  28.656  1.00  0.00    -0.203 F 
ATOM     55  F   UNL A   1      33.964  32.965  32.858  1.00  0.00    -0.200 F 
ATOM     56  C   UNL A   1      34.418  34.090  30.834  1.00  0.00     0.200 A 
ATOM     57  F   UNL A   1      34.956  35.236  28.841  1.00  0.00    -0.200 F 
ATOM     58  F   UNL A   1      33.273  34.778  30.939  1.00  0.00    -0.200 F 
ENDBRANCH  24  48
BRANCH  36  59
ATOM     59  C   UNL A   1      42.795  34.945  33.345  1.00  0.00     0.064 A 
ATOM     60  C   UNL A   1      42.660  35.157  34.727  1.00  0.00     0.173 A 
ATOM     61  C   UNL A   1      43.242  36.009  32.552  1.00  0.00     0.173 A 
ATOM     62  F   UNL A   1      42.240  34.164  35.526  1.00  0.00    -0.203 F 
ATOM     63  C   UNL A   1      42.936  36.397  35.289  1.00  0.00     0.198 A 
ATOM     64  C   UNL A   1      43.547  37.240  33.124  1.00  0.00     0.198 A 
ATOM     65  F   UNL A   1      43.410  35.843  31.233  1.00  0.00    -0.203 F 
ATOM     66  F   UNL A   1      42.764  36.589  36.604  1.00  0.00    -0.200 F 
ATOM     67  C   UNL A   1      43.382  37.437  34.488  1.00  0.00     0.200 A 
ATOM     68  F   UNL A   1      44.009  38.236  32.355  1.00  0.00    -0.200 F 
ATOM     69  F   UNL A   1      43.657  38.630  35.032  1.00  0.00    -0.200 F 
ENDBRANCH  36  59
ENDBRANCH  10  11
ENDBRANCH   3   5
ENDBRANCH   2   3
ENDBRANCH   1   2
BRANCH   1  70
ATOM     70  C   UNL A   1      35.602  24.424  25.388  1.00  0.00     0.274 C 
BRANCH  70  71
ATOM     71  O   UNL A   1      34.419  23.609  25.564  1.00  0.00    -0.462 OA
BRANCH  71  72
ATOM     72  C   UNL A   1      33.303  24.310  25.890  1.00  0.00     0.311 C 
ATOM     73  O   UNL A   1      32.606  24.043  26.866  1.00  0.00    -0.252 OA
BRANCH  72  74
ATOM     74  C   UNL A   1      32.902  25.419  24.937  1.00  0.00     0.128 C 
ATOM     75  C   UNL A   1      32.368  24.831  23.642  1.00  0.00     0.039 C 
ATOM     76  C   UNL A   1      31.862  26.513  25.328  1.00  0.00     0.127 C 
ATOM     77  C   UNL A   1      31.863  26.067  22.923  1.00  0.00     0.118 C 
ATOM     78  N   UNL A   1      31.216  26.858  23.978  1.00  0.00    -0.364 N 
BRANCH  76  79
ATOM     79  C   UNL A   1      32.559  27.709  26.010  1.00  0.00    -0.025 A 
ATOM     80  C   UNL A   1      31.810  28.674  26.676  1.00  0.00     0.006 A 
ATOM     81  C   UNL A   1      33.955  27.881  26.083  1.00  0.00     0.006 A 
ATOM     82  C   UNL A   1      32.363  29.846  27.191  1.00  0.00     0.013 A 
ATOM     83  C   UNL A   1      34.537  29.018  26.670  1.00  0.00     0.013 A 
ATOM     84  C   UNL A   1      33.739  30.035  27.197  1.00  0.00     0.056 A 
BRANCH  84  85
ATOM     85  C   UNL A   1      34.315  31.264  27.843  1.00  0.00     0.416 C 
ATOM     86  F   UNL A   1      34.512  31.117  29.181  1.00  0.00    -0.166 F 
ATOM     87  F   UNL A   1      35.542  31.569  27.325  1.00  0.00    -0.166 F 
ATOM     88  F   UNL A   1      33.556  32.381  27.689  1.00  0.00    -0.166 F 
ENDBRANCH  84  85
ENDBRANCH  76  79
BRANCH  78  89
ATOM     89  C   UNL A   1      29.890  27.231  23.749  1.00  0.00     0.037 A 
ATOM     90  C   UNL A   1      28.792  26.409  24.080  1.00  0.00     0.029 A 
ATOM     91  C   UNL A   1      29.544  28.410  23.073  1.00  0.00     0.029 A 
ATOM     92  C   UNL A   1      27.455  26.806  23.880  1.00  0.00     0.041 A 
ATOM     93  C   UNL A   1      28.219  28.852  22.914  1.00  0.00     0.041 A 
ATOM     94  C   UNL A   1      27.181  28.046  23.332  1.00  0.00     0.123 A 
ATOM     95  F   UNL A   1      25.912  28.442  23.170  1.00  0.00    -0.207 F 
ENDBRANCH  78  89
ENDBRANCH  72  74
ENDBRANCH  71  72
ENDBRANCH  70  71
ENDBRANCH   1  70
TORSDOF 14
ENDMDL
MODEL 3
REMARK VINA RESULT:     -12.8      4.487      9.364
REMARK SMILES O=C(OCCOC(=O)[C@H]1CCN(c2ccc(F)cc2)[C@@H]1c1ccc(C(F)(F)F)cc1)c1ccc(-c2c3nc(c(-c4c(F)c(F)c(F)c(F)c4F)c4ccc([nH]4)c(-c4c(F)c(F)c(F)c(F)c4F)c4nc(c(-c5c(F)c(F)c(F)c(F)c5F)c5ccc2[nH]5)C=C4)C=C3)cc1
REMARK SMILES IDX 4 1 3 2 2 3 1 4 31 5 32 6 93 7 33 8 92 9 34 10 35 11 36 12
REMARK SMILES IDX 86 13 37 14 91 15 85 16 87 17 38 18 90 19 84 20 83 21 39 23
REMARK SMILES IDX 71 24 51 25 70 26 52 27 55 28 69 29 88 30 53 31 54 32 68 34
REMARK SMILES IDX 89 35 56 36 40 37 41 38 49 39 42 40 43 41 47 42 50 43 44 44
REMARK SMILES IDX 45 45 48 46 46 47 72 48 73 49 81 50 74 51 75 52 79 53 82 54
REMARK SMILES IDX 76 55 77 56 80 57 78 58 57 59 58 60 66 61 59 62 60 63 64 64
REMARK SMILES IDX 67 65 61 66 62 67 65 68 63 69 5 70 6 71 7 72 8 73 9 74 10 75
REMARK SMILES IDX 20 76 11 77 12 78 21 79 22 80 30 81 23 82 29 83 24 84 25 85
REMARK SMILES IDX 26 86 27 87 28 88 13 89 14 90 19 91 15 92 18 93 16 94 17 95
REMARK H PARENT 87 22 55 33
REMARK Flexibility Score: inf
ROOT
ATOM      1  C   UNL A   1      36.592  22.625  25.876  1.00  0.00     0.275 C 
ENDROOT
BRANCH   1   2
ATOM      2  O   UNL A   1      37.965  22.402  25.536  1.00  0.00    -0.458 OA
BRANCH   2   3
ATOM      3  C   UNL A   1      39.058  22.662  26.285  1.00  0.00     0.338 C 
ATOM      4  O   UNL A   1      39.801  21.739  26.617  1.00  0.00    -0.246 OA
BRANCH   3   5
ATOM      5  C   UNL A   1      39.297  24.005  26.888  1.00  0.00     0.060 A 
ATOM      6  C   UNL A   1      38.992  24.412  28.194  1.00  0.00     0.016 A 
ATOM      7  C   UNL A   1      39.896  24.934  26.041  1.00  0.00     0.016 A 
ATOM      8  C   UNL A   1      39.409  25.662  28.690  1.00  0.00     0.010 A 
ATOM      9  C   UNL A   1      40.287  26.173  26.534  1.00  0.00     0.010 A 
ATOM     10  C   UNL A   1      40.095  26.551  27.869  1.00  0.00    -0.014 A 
BRANCH  10  11
ATOM     11  C   UNL A   1      40.550  27.908  28.293  1.00  0.00     0.031 A 
ATOM     12  C   UNL A   1      42.032  28.143  28.468  1.00  0.00     0.074 A 
ATOM     13  C   UNL A   1      39.680  28.887  28.628  1.00  0.00     0.049 A 
ATOM     14  N   UNL A   1      42.661  29.180  28.961  1.00  0.00    -0.248 NA
ATOM     15  C   UNL A   1      42.928  27.047  28.049  1.00  0.00     0.031 C 
ATOM     16  C   UNL A   1      38.221  28.820  28.523  1.00  0.00     0.029 A 
ATOM     17  N   UNL A   1      39.902  30.133  29.176  1.00  0.00    -0.354 N 
ATOM     18  C   UNL A   1      44.011  28.860  28.887  1.00  0.00     0.074 A 
ATOM     19  C   UNL A   1      44.107  27.489  28.452  1.00  0.00     0.031 C 
ATOM     20  C   UNL A   1      37.684  29.946  29.032  1.00  0.00     0.029 A 
ATOM     21  C   UNL A   1      38.751  30.808  29.520  1.00  0.00     0.049 A 
ATOM     22  H   UNL A   1      40.803  30.506  29.310  1.00  0.00     0.167 HD
ATOM     23  C   UNL A   1      45.084  29.666  29.060  1.00  0.00     0.037 A 
ATOM     24  C   UNL A   1      38.587  31.978  30.171  1.00  0.00     0.037 A 
ATOM     25  C   UNL A   1      44.994  31.045  29.441  1.00  0.00     0.049 A 
ATOM     26  C   UNL A   1      39.798  32.816  30.477  1.00  0.00     0.074 A 
ATOM     27  C   UNL A   1      46.003  31.985  29.530  1.00  0.00     0.029 A 
ATOM     28  N   UNL A   1      43.815  31.678  29.798  1.00  0.00    -0.354 N 
ATOM     29  N   UNL A   1      41.065  32.533  30.317  1.00  0.00    -0.248 NA
ATOM     30  C   UNL A   1      39.542  34.176  30.979  1.00  0.00     0.031 C 
ATOM     31  C   UNL A   1      45.438  33.184  29.975  1.00  0.00     0.029 A 
ATOM     32  C   UNL A   1      44.072  32.998  30.115  1.00  0.00     0.049 A 
ATOM     33  H   UNL A   1      42.928  31.252  29.823  1.00  0.00     0.167 HD
ATOM     34  C   UNL A   1      41.750  33.701  30.616  1.00  0.00     0.074 A 
ATOM     35  C   UNL A   1      40.766  34.680  31.022  1.00  0.00     0.031 C 
ATOM     36  C   UNL A   1      43.076  33.956  30.510  1.00  0.00     0.037 A 
BRANCH  23  37
ATOM     37  C   UNL A   1      46.432  29.097  28.731  1.00  0.00     0.064 A 
ATOM     38  C   UNL A   1      46.927  29.108  27.421  1.00  0.00     0.173 A 
ATOM     39  C   UNL A   1      47.222  28.501  29.730  1.00  0.00     0.173 A 
ATOM     40  F   UNL A   1      46.207  29.652  26.429  1.00  0.00    -0.203 F 
ATOM     41  C   UNL A   1      48.167  28.548  27.124  1.00  0.00     0.198 A 
ATOM     42  C   UNL A   1      48.474  27.974  29.434  1.00  0.00     0.198 A 
ATOM     43  F   UNL A   1      46.797  28.471  31.002  1.00  0.00    -0.203 F 
ATOM     44  F   UNL A   1      48.615  28.550  25.860  1.00  0.00    -0.200 F 
ATOM     45  C   UNL A   1      48.942  27.991  28.130  1.00  0.00     0.200 A 
ATOM     46  F   UNL A   1      49.232  27.463  30.414  1.00  0.00    -0.200 F 
ATOM     47  F   UNL A   1      50.145  27.473  27.844  1.00  0.00    -0.200 F 
ENDBRANCH  23  37
BRANCH  24  48
ATOM     48  C   UNL A   1      37.249  32.517  30.543  1.00  0.00     0.064 A 
ATOM     49  C   UNL A   1      36.692  32.229  31.798  1.00  0.00     0.173 A 
ATOM     50  C   UNL A   1      36.598  33.463  29.745  1.00  0.00     0.173 A 
ATOM     51  F   UNL A   1      37.311  31.370  32.622  1.00  0.00    -0.203 F 
ATOM     52  C   UNL A   1      35.527  32.858  32.237  1.00  0.00     0.198 A 
ATOM     53  C   UNL A   1      35.436  34.101  30.188  1.00  0.00     0.198 A 
ATOM     54  F   UNL A   1      37.129  33.825  28.569  1.00  0.00    -0.203 F 
ATOM     55  F   UNL A   1      35.029  32.574  33.447  1.00  0.00    -0.200 F 
ATOM     56  C   UNL A   1      34.902  33.797  31.433  1.00  0.00     0.200 A 
ATOM     57  F   UNL A   1      34.862  35.043  29.428  1.00  0.00    -0.200 F 
ATOM     58  F   UNL A   1      33.804  34.432  31.867  1.00  0.00    -0.200 F 
ENDBRANCH  24  48
BRANCH  36  59
ATOM     59  C   UNL A   1      43.530  35.361  30.751  1.00  0.00     0.064 A 
ATOM     60  C   UNL A   1      43.889  35.762  32.048  1.00  0.00     0.173 A 
ATOM     61  C   UNL A   1      43.552  36.320  29.731  1.00  0.00     0.173 A 
ATOM     62  F   UNL A   1      43.886  34.875  33.055  1.00  0.00    -0.203 F 
ATOM     63  C   UNL A   1      44.230  37.081  32.320  1.00  0.00     0.198 A 
ATOM     64  C   UNL A   1      43.926  37.633  30.001  1.00  0.00     0.198 A 
ATOM     65  F   UNL A   1      43.244  35.975  28.473  1.00  0.00    -0.203 F 
ATOM     66  F   UNL A   1      44.532  37.450  33.572  1.00  0.00    -0.200 F 
ATOM     67  C   UNL A   1      44.251  38.015  31.295  1.00  0.00     0.200 A 
ATOM     68  F   UNL A   1      43.978  38.529  29.005  1.00  0.00    -0.200 F 
ATOM     69  F   UNL A   1      44.590  39.285  31.555  1.00  0.00    -0.200 F 
ENDBRANCH  36  59
ENDBRANCH  10  11
ENDBRANCH   3   5
ENDBRANCH   2   3
ENDBRANCH   1   2
BRANCH   1  70
ATOM     70  C   UNL A   1      36.061  24.052  25.673  1.00  0.00     0.274 C 
BRANCH  70  71
ATOM     71  O   UNL A   1      35.080  24.237  24.626  1.00  0.00    -0.462 OA
BRANCH  71  72
ATOM     72  C   UNL A   1      33.880  24.701  25.061  1.00  0.00     0.311 C 
ATOM     73  O   UNL A   1      33.253  24.178  25.979  1.00  0.00    -0.252 OA
BRANCH  72  74
ATOM     74  C   UNL A   1      33.299  25.878  24.303  1.00  0.00     0.128 C 
ATOM     75  C   UNL A   1      32.746  25.420  22.964  1.00  0.00     0.039 C 
ATOM     76  C   UNL A   1      32.175  26.778  24.902  1.00  0.00     0.127 C 
ATOM     77  C   UNL A   1      32.063  26.677  22.462  1.00  0.00     0.118 C 
ATOM     78  N   UNL A   1      31.406  27.232  23.652  1.00  0.00    -0.364 N 
BRANCH  76  79
ATOM     79  C   UNL A   1      32.783  27.940  25.717  1.00  0.00    -0.025 A 
ATOM     80  C   UNL A   1      31.990  29.011  26.114  1.00  0.00     0.006 A 
ATOM     81  C   UNL A   1      34.113  27.979  26.176  1.00  0.00     0.006 A 
ATOM     82  C   UNL A   1      32.503  30.153  26.728  1.00  0.00     0.013 A 
ATOM     83  C   UNL A   1      34.630  29.088  26.869  1.00  0.00     0.013 A 
ATOM     84  C   UNL A   1      33.836  30.208  27.118  1.00  0.00     0.056 A 
BRANCH  84  85
ATOM     85  C   UNL A   1      34.341  31.411  27.862  1.00  0.00     0.416 C 
ATOM     86  F   UNL A   1      34.563  31.164  29.182  1.00  0.00    -0.166 F 
ATOM     87  F   UNL A   1      35.540  31.836  27.364  1.00  0.00    -0.166 F 
ATOM     88  F   UNL A   1      33.512  32.486  27.809  1.00  0.00    -0.166 F 
ENDBRANCH  84  85
ENDBRANCH  76  79
BRANCH  78  89
ATOM     89  C   UNL A   1      30.036  27.475  23.548  1.00  0.00     0.037 A 
ATOM     90  C   UNL A   1      29.056  26.537  23.936  1.00  0.00     0.029 A 
ATOM     91  C   UNL A   1      29.519  28.633  22.949  1.00  0.00     0.029 A 
ATOM     92  C   UNL A   1      27.675  26.803  23.862  1.00  0.00     0.041 A 
ATOM     93  C   UNL A   1      28.149  28.944  22.917  1.00  0.00     0.041 A 
ATOM     94  C   UNL A   1      27.235  28.025  23.387  1.00  0.00     0.123 A 
ATOM     95  F   UNL A   1      25.924  28.296  23.346  1.00  0.00    -0.207 F 
ENDBRANCH  78  89
ENDBRANCH  72  74
ENDBRANCH  71  72
ENDBRANCH  70  71
ENDBRANCH   1  70
TORSDOF 14
ENDMDL
