MODEL 1
REMARK VINA RESULT:     -11.7      0.000      0.000
REMARK SMILES CCC[C@@]1(C(=O)OCCOC(=O)c2ccc(-c3c4nc(c(-c5c(F)c(F)c(F)c(F)c5F)c5ccc([nH]5)c(-c5c(F)c(F)c(F)c(F)c5F)c5nc(c(-c6c(F)c(F)c(F)c(F)c6F)c6ccc3[nH]6)C=C5)C=C4)cc2)CCCN(C(=O)CCn2cncn2)C1
REMARK SMILES IDX 8 1 7 2 5 3 6 4 4 5 76 6 89 7 77 8 79 9 78 10 3 11 2 12 1 13
REMARK SMILES IDX 80 14 81 15 82 16 83 17 84 18 85 19 88 20 86 21 87 22 9 23
REMARK SMILES IDX 10 24 11 25 12 26 13 27 14 28 75 29 15 30 74 31 16 32 17 33
REMARK SMILES IDX 18 34 68 35 19 36 73 37 67 38 69 39 20 40 72 41 66 42 65 43
REMARK SMILES IDX 21 45 53 46 33 47 52 48 34 49 37 50 51 51 70 52 35 53 36 54
REMARK SMILES IDX 50 56 71 57 38 58 22 59 23 60 31 61 24 62 25 63 29 64 32 65
REMARK SMILES IDX 26 66 27 67 30 68 28 69 54 70 55 71 63 72 56 73 57 74 61 75
REMARK SMILES IDX 64 76 58 77 59 78 62 79 60 80 39 81 40 82 48 83 41 84 42 85
REMARK SMILES IDX 46 86 49 87 43 88 44 89 47 90 45 91
REMARK H PARENT 69 44 37 55
REMARK Flexibility Score: inf
ROOT
ATOM      1  C   UNL A   1      31.620  28.780  26.954  1.00  0.00     0.274 C 
ENDROOT
BRANCH   1   2
ATOM      2  O   UNL A   1      32.365  27.648  26.462  1.00  0.00    -0.462 OA
BRANCH   2   3
ATOM      3  C   UNL A   1      31.652  26.509  26.226  1.00  0.00     0.314 C 
ATOM      4  O   UNL A   1      30.543  26.278  26.687  1.00  0.00    -0.252 OA
BRANCH   3   5
ATOM      5  C   UNL A   1      32.425  25.542  25.311  1.00  0.00     0.086 C 
ATOM      6  C   UNL A   1      33.641  26.267  24.653  1.00  0.00     0.022 C 
ATOM      7  C   UNL A   1      31.421  25.129  24.215  1.00  0.00     0.138 C 
ATOM      8  C   UNL A   1      33.275  27.322  23.602  1.00  0.00     0.023 C 
ATOM      9  N   UNL A   1      31.069  26.303  23.398  1.00  0.00    -0.341 N 
ATOM     10  C   UNL A   1      32.195  26.841  22.641  1.00  0.00     0.119 C 
BRANCH   5  11
ATOM     11  C   UNL A   1      32.969  24.383  26.206  1.00  0.00     0.020 C 
BRANCH  11  12
ATOM     12  C   UNL A   1      32.023  23.255  26.622  1.00  0.00    -0.002 C 
ATOM     13  C   UNL A   1      32.248  21.931  25.913  1.00  0.00     0.004 C 
ENDBRANCH  11  12
ENDBRANCH   5  11
BRANCH   9  14
ATOM     14  C   UNL A   1      29.849  26.926  23.611  1.00  0.00     0.224 C 
ATOM     15  O   UNL A   1      28.859  26.297  23.994  1.00  0.00    -0.275 OA
BRANCH  14  16
ATOM     16  C   UNL A   1      29.704  28.419  23.402  1.00  0.00     0.124 C 
BRANCH  16  17
ATOM     17  C   UNL A   1      28.310  28.779  22.889  1.00  0.00     0.156 C 
BRANCH  17  18
ATOM     18  N   UNL A   1      28.164  30.130  22.387  1.00  0.00    -0.252 N 
ATOM     19  C   UNL A   1      27.963  31.280  23.089  1.00  0.00     0.219 A 
ATOM     20  N   UNL A   1      28.351  30.401  21.084  1.00  0.00    -0.160 NA
ATOM     21  N   UNL A   1      27.897  32.297  22.261  1.00  0.00    -0.224 NA
ATOM     22  C   UNL A   1      28.145  31.719  21.050  1.00  0.00     0.246 A 
ENDBRANCH  17  18
ENDBRANCH  16  17
ENDBRANCH  14  16
ENDBRANCH   9  14
ENDBRANCH   3   5
ENDBRANCH   2   3
ENDBRANCH   1   2
BRANCH   1  23
ATOM     23  C   UNL A   1      31.792  29.962  26.006  1.00  0.00     0.275 C 
BRANCH  23  24
ATOM     24  O   UNL A   1      33.156  30.402  26.078  1.00  0.00    -0.458 OA
BRANCH  24  25
ATOM     25  C   UNL A   1      33.432  31.365  26.984  1.00  0.00     0.338 C 
ATOM     26  O   UNL A   1      32.732  32.321  27.285  1.00  0.00    -0.246 OA
BRANCH  25  27
ATOM     27  C   UNL A   1      34.736  31.078  27.616  1.00  0.00     0.060 A 
ATOM     28  C   UNL A   1      35.075  29.773  27.974  1.00  0.00     0.016 A 
ATOM     29  C   UNL A   1      35.593  32.125  27.938  1.00  0.00     0.016 A 
ATOM     30  C   UNL A   1      36.228  29.509  28.704  1.00  0.00     0.010 A 
ATOM     31  C   UNL A   1      36.797  31.854  28.597  1.00  0.00     0.010 A 
ATOM     32  C   UNL A   1      37.115  30.545  29.008  1.00  0.00    -0.014 A 
BRANCH  32  33
ATOM     33  C   UNL A   1      38.341  30.285  29.805  1.00  0.00     0.031 A 
ATOM     34  C   UNL A   1      39.432  29.438  29.217  1.00  0.00     0.074 A 
ATOM     35  C   UNL A   1      38.489  30.798  31.042  1.00  0.00     0.049 A 
ATOM     36  N   UNL A   1      40.429  28.837  29.812  1.00  0.00    -0.248 NA
ATOM     37  C   UNL A   1      39.383  29.227  27.761  1.00  0.00     0.031 C 
ATOM     38  C   UNL A   1      37.558  31.709  31.707  1.00  0.00     0.029 A 
ATOM     39  N   UNL A   1      39.491  30.618  31.964  1.00  0.00    -0.354 N 
ATOM     40  C   UNL A   1      41.075  28.112  28.820  1.00  0.00     0.074 A 
ATOM     41  C   UNL A   1      40.376  28.369  27.580  1.00  0.00     0.031 C 
ATOM     42  C   UNL A   1      38.042  32.030  32.916  1.00  0.00     0.029 A 
ATOM     43  C   UNL A   1      39.265  31.271  33.152  1.00  0.00     0.049 A 
ATOM     44  H   UNL A   1      40.293  30.074  31.791  1.00  0.00     0.167 HD
ATOM     45  C   UNL A   1      42.144  27.293  28.947  1.00  0.00     0.037 A 
ATOM     46  C   UNL A   1      39.936  31.216  34.318  1.00  0.00     0.037 A 
ATOM     47  C   UNL A   1      42.869  27.098  30.175  1.00  0.00     0.049 A 
ATOM     48  C   UNL A   1      41.112  30.288  34.443  1.00  0.00     0.074 A 
ATOM     49  C   UNL A   1      43.951  26.272  30.421  1.00  0.00     0.029 A 
ATOM     50  N   UNL A   1      42.598  27.768  31.358  1.00  0.00    -0.354 N 
ATOM     51  N   UNL A   1      41.642  29.500  33.538  1.00  0.00    -0.248 NA
ATOM     52  C   UNL A   1      41.759  30.215  35.759  1.00  0.00     0.031 C 
ATOM     53  C   UNL A   1      44.327  26.433  31.760  1.00  0.00     0.029 A 
ATOM     54  C   UNL A   1      43.498  27.381  32.337  1.00  0.00     0.049 A 
ATOM     55  H   UNL A   1      41.873  28.422  31.484  1.00  0.00     0.167 HD
ATOM     56  C   UNL A   1      42.684  28.840  34.173  1.00  0.00     0.074 A 
ATOM     57  C   UNL A   1      42.727  29.337  35.534  1.00  0.00     0.031 C 
ATOM     58  C   UNL A   1      43.522  27.897  33.680  1.00  0.00     0.037 A 
BRANCH  45  59
ATOM     59  C   UNL A   1      42.562  26.508  27.741  1.00  0.00     0.064 A 
ATOM     60  C   UNL A   1      43.553  26.967  26.862  1.00  0.00     0.173 A 
ATOM     61  C   UNL A   1      41.976  25.260  27.479  1.00  0.00     0.173 A 
ATOM     62  F   UNL A   1      44.127  28.163  27.058  1.00  0.00    -0.203 F 
ATOM     63  C   UNL A   1      43.929  26.212  25.753  1.00  0.00     0.198 A 
ATOM     64  C   UNL A   1      42.371  24.498  26.383  1.00  0.00     0.198 A 
ATOM     65  F   UNL A   1      41.023  24.778  28.290  1.00  0.00    -0.203 F 
ATOM     66  F   UNL A   1      44.849  26.687  24.903  1.00  0.00    -0.200 F 
ATOM     67  C   UNL A   1      43.343  24.977  25.519  1.00  0.00     0.200 A 
ATOM     68  F   UNL A   1      41.809  23.301  26.163  1.00  0.00    -0.200 F 
ATOM     69  F   UNL A   1      43.711  24.250  24.454  1.00  0.00    -0.200 F 
ENDBRANCH  45  59
BRANCH  46  70
ATOM     70  C   UNL A   1      39.470  32.019  35.478  1.00  0.00     0.064 A 
ATOM     71  C   UNL A   1      39.920  33.332  35.669  1.00  0.00     0.173 A 
ATOM     72  C   UNL A   1      38.569  31.494  36.416  1.00  0.00     0.173 A 
ATOM     73  F   UNL A   1      40.805  33.867  34.816  1.00  0.00    -0.203 F 
ATOM     74  C   UNL A   1      39.486  34.090  36.756  1.00  0.00     0.198 A 
ATOM     75  C   UNL A   1      38.115  32.262  37.486  1.00  0.00     0.198 A 
ATOM     76  F   UNL A   1      38.114  30.240  36.282  1.00  0.00    -0.203 F 
ATOM     77  F   UNL A   1      39.960  35.330  36.934  1.00  0.00    -0.200 F 
ATOM     78  C   UNL A   1      38.578  33.557  37.658  1.00  0.00     0.200 A 
ATOM     79  F   UNL A   1      37.229  31.747  38.349  1.00  0.00    -0.200 F 
ATOM     80  F   UNL A   1      38.156  34.289  38.698  1.00  0.00    -0.200 F 
ENDBRANCH  46  70
BRANCH  58  81
ATOM     81  C   UNL A   1      44.569  27.366  34.610  1.00  0.00     0.064 A 
ATOM     82  C   UNL A   1      45.811  28.001  34.749  1.00  0.00     0.173 A 
ATOM     83  C   UNL A   1      44.312  26.233  35.394  1.00  0.00     0.173 A 
ATOM     84  F   UNL A   1      46.104  29.079  34.007  1.00  0.00    -0.203 F 
ATOM     85  C   UNL A   1      46.768  27.506  35.629  1.00  0.00     0.198 A 
ATOM     86  C   UNL A   1      45.265  25.752  36.288  1.00  0.00     0.198 A 
ATOM     87  F   UNL A   1      43.135  25.595  35.297  1.00  0.00    -0.203 F 
ATOM     88  F   UNL A   1      47.964  28.104  35.721  1.00  0.00    -0.200 F 
ATOM     89  C   UNL A   1      46.493  26.385  36.400  1.00  0.00     0.200 A 
ATOM     90  F   UNL A   1      44.995  24.674  37.037  1.00  0.00    -0.200 F 
ATOM     91  F   UNL A   1      47.417  25.911  37.248  1.00  0.00    -0.200 F 
ENDBRANCH  58  81
ENDBRANCH  32  33
ENDBRANCH  25  27
ENDBRANCH  24  25
ENDBRANCH  23  24
ENDBRANCH   1  23
TORSDOF 17
ENDMDL
MODEL 2
REMARK VINA RESULT:     -11.6      0.443      2.013
REMARK SMILES CCC[C@@]1(C(=O)OCCOC(=O)c2ccc(-c3c4nc(c(-c5c(F)c(F)c(F)c(F)c5F)c5ccc([nH]5)c(-c5c(F)c(F)c(F)c(F)c5F)c5nc(c(-c6c(F)c(F)c(F)c(F)c6F)c6ccc3[nH]6)C=C5)C=C4)cc2)CCCN(C(=O)CCn2cncn2)C1
REMARK SMILES IDX 8 1 7 2 5 3 6 4 4 5 76 6 89 7 77 8 79 9 78 10 3 11 2 12 1 13
REMARK SMILES IDX 80 14 81 15 82 16 83 17 84 18 85 19 88 20 86 21 87 22 9 23
REMARK SMILES IDX 10 24 11 25 12 26 13 27 14 28 75 29 15 30 74 31 16 32 17 33
REMARK SMILES IDX 18 34 68 35 19 36 73 37 67 38 69 39 20 40 72 41 66 42 65 43
REMARK SMILES IDX 21 45 53 46 33 47 52 48 34 49 37 50 51 51 70 52 35 53 36 54
REMARK SMILES IDX 50 56 71 57 38 58 22 59 23 60 31 61 24 62 25 63 29 64 32 65
REMARK SMILES IDX 26 66 27 67 30 68 28 69 54 70 55 71 63 72 56 73 57 74 61 75
REMARK SMILES IDX 64 76 58 77 59 78 62 79 60 80 39 81 40 82 48 83 41 84 42 85
REMARK SMILES IDX 46 86 49 87 43 88 44 89 47 90 45 91
REMARK H PARENT 69 44 37 55
REMARK Flexibility Score: inf
ROOT
ATOM      1  C   UNL A   1      31.669  28.504  26.988  1.00  0.00     0.274 C 
ENDROOT
BRANCH   1   2
ATOM      2  O   UNL A   1      32.567  27.517  26.440  1.00  0.00    -0.462 OA
BRANCH   2   3
ATOM      3  C   UNL A   1      32.053  26.267  26.253  1.00  0.00     0.314 C 
ATOM      4  O   UNL A   1      31.052  25.839  26.810  1.00  0.00    -0.252 OA
BRANCH   3   5
ATOM      5  C   UNL A   1      32.901  25.455  25.257  1.00  0.00     0.086 C 
ATOM      6  C   UNL A   1      34.047  26.337  24.670  1.00  0.00     0.022 C 
ATOM      7  C   UNL A   1      31.930  25.059  24.125  1.00  0.00     0.138 C 
ATOM      8  C   UNL A   1      33.588  27.447  23.717  1.00  0.00     0.023 C 
ATOM      9  N   UNL A   1      31.476  26.268  23.416  1.00  0.00    -0.341 N 
ATOM     10  C   UNL A   1      32.549  26.965  22.714  1.00  0.00     0.119 C 
BRANCH   5  11
ATOM     11  C   UNL A   1      33.545  24.270  26.045  1.00  0.00     0.020 C 
BRANCH  11  12
ATOM     12  C   UNL A   1      34.834  23.637  25.517  1.00  0.00    -0.002 C 
ATOM     13  C   UNL A   1      35.170  22.276  26.101  1.00  0.00     0.004 C 
ENDBRANCH  11  12
ENDBRANCH   5  11
BRANCH   9  14
ATOM     14  C   UNL A   1      30.208  26.763  23.682  1.00  0.00     0.224 C 
ATOM     15  O   UNL A   1      29.290  26.028  24.056  1.00  0.00    -0.275 OA
BRANCH  14  16
ATOM     16  C   UNL A   1      29.920  28.244  23.544  1.00  0.00     0.124 C 
BRANCH  16  17
ATOM     17  C   UNL A   1      28.550  28.491  22.914  1.00  0.00     0.156 C 
BRANCH  17  18
ATOM     18  N   UNL A   1      28.300  29.853  22.488  1.00  0.00    -0.252 N 
ATOM     19  C   UNL A   1      28.006  30.942  23.252  1.00  0.00     0.219 A 
ATOM     20  N   UNL A   1      28.470  30.212  21.204  1.00  0.00    -0.160 NA
ATOM     21  N   UNL A   1      27.863  31.996  22.483  1.00  0.00    -0.224 NA
ATOM     22  C   UNL A   1      28.160  31.510  21.243  1.00  0.00     0.246 A 
ENDBRANCH  17  18
ENDBRANCH  16  17
ENDBRANCH  14  16
ENDBRANCH   9  14
ENDBRANCH   3   5
ENDBRANCH   2   3
ENDBRANCH   1   2
BRANCH   1  23
ATOM     23  C   UNL A   1      31.765  29.793  26.180  1.00  0.00     0.275 C 
BRANCH  23  24
ATOM     24  O   UNL A   1      33.134  30.224  26.182  1.00  0.00    -0.458 OA
BRANCH  24  25
ATOM     25  C   UNL A   1      33.443  31.245  27.010  1.00  0.00     0.338 C 
ATOM     26  O   UNL A   1      32.767  32.234  27.251  1.00  0.00    -0.246 OA
BRANCH  25  27
ATOM     27  C   UNL A   1      34.752  30.979  27.640  1.00  0.00     0.060 A 
ATOM     28  C   UNL A   1      35.115  29.679  27.993  1.00  0.00     0.016 A 
ATOM     29  C   UNL A   1      35.590  32.041  27.968  1.00  0.00     0.016 A 
ATOM     30  C   UNL A   1      36.273  29.433  28.722  1.00  0.00     0.010 A 
ATOM     31  C   UNL A   1      36.799  31.789  28.625  1.00  0.00     0.010 A 
ATOM     32  C   UNL A   1      37.141  30.483  29.030  1.00  0.00    -0.014 A 
BRANCH  32  33
ATOM     33  C   UNL A   1      38.371  30.243  29.827  1.00  0.00     0.031 A 
ATOM     34  C   UNL A   1      39.464  29.391  29.248  1.00  0.00     0.074 A 
ATOM     35  C   UNL A   1      38.522  30.776  31.054  1.00  0.00     0.049 A 
ATOM     36  N   UNL A   1      40.466  28.805  29.848  1.00  0.00    -0.248 NA
ATOM     37  C   UNL A   1      39.410  29.156  27.796  1.00  0.00     0.031 C 
ATOM     38  C   UNL A   1      37.589  31.694  31.708  1.00  0.00     0.029 A 
ATOM     39  N   UNL A   1      39.529  30.617  31.975  1.00  0.00    -0.354 N 
ATOM     40  C   UNL A   1      41.111  28.066  28.866  1.00  0.00     0.074 A 
ATOM     41  C   UNL A   1      40.405  28.299  27.625  1.00  0.00     0.031 C 
ATOM     42  C   UNL A   1      38.077  32.038  32.910  1.00  0.00     0.029 A 
ATOM     43  C   UNL A   1      39.305  31.288  33.153  1.00  0.00     0.049 A 
ATOM     44  H   UNL A   1      40.332  30.073  31.807  1.00  0.00     0.167 HD
ATOM     45  C   UNL A   1      42.184  27.254  29.002  1.00  0.00     0.037 A 
ATOM     46  C   UNL A   1      39.981  31.255  34.316  1.00  0.00     0.037 A 
ATOM     47  C   UNL A   1      42.916  27.083  30.230  1.00  0.00     0.049 A 
ATOM     48  C   UNL A   1      41.161  30.335  34.451  1.00  0.00     0.074 A 
ATOM     49  C   UNL A   1      44.003  26.265  30.485  1.00  0.00     0.029 A 
ATOM     50  N   UNL A   1      42.646  27.771  31.402  1.00  0.00    -0.354 N 
ATOM     51  N   UNL A   1      41.692  29.535  33.558  1.00  0.00    -0.248 NA
ATOM     52  C   UNL A   1      41.815  30.287  35.766  1.00  0.00     0.031 C 
ATOM     53  C   UNL A   1      44.383  26.451  31.820  1.00  0.00     0.029 A 
ATOM     54  C   UNL A   1      43.552  27.404  32.384  1.00  0.00     0.049 A 
ATOM     55  H   UNL A   1      41.919  28.424  31.521  1.00  0.00     0.167 HD
ATOM     56  C   UNL A   1      42.739  28.890  34.200  1.00  0.00     0.074 A 
ATOM     57  C   UNL A   1      42.786  29.410  35.551  1.00  0.00     0.031 C 
ATOM     58  C   UNL A   1      43.580  27.942  33.718  1.00  0.00     0.037 A 
BRANCH  45  59
ATOM     59  C   UNL A   1      42.601  26.451  27.807  1.00  0.00     0.064 A 
ATOM     60  C   UNL A   1      42.048  25.193  27.527  1.00  0.00     0.173 A 
ATOM     61  C   UNL A   1      43.553  26.965  26.914  1.00  0.00     0.173 A 
ATOM     62  F   UNL A   1      41.151  24.650  28.362  1.00  0.00    -0.203 F 
ATOM     63  C   UNL A   1      42.448  24.472  26.404  1.00  0.00     0.198 A 
ATOM     64  C   UNL A   1      43.933  26.252  25.781  1.00  0.00     0.198 A 
ATOM     65  F   UNL A   1      44.113  28.164  27.139  1.00  0.00    -0.203 F 
ATOM     66  F   UNL A   1      41.936  23.255  26.175  1.00  0.00    -0.200 F 
ATOM     67  C   UNL A   1      43.383  25.004  25.529  1.00  0.00     0.200 A 
ATOM     68  F   UNL A   1      44.831  26.772  24.933  1.00  0.00    -0.200 F 
ATOM     69  F   UNL A   1      43.761  24.311  24.446  1.00  0.00    -0.200 F 
ENDBRANCH  45  59
BRANCH  46  70
ATOM     70  C   UNL A   1      39.516  32.076  35.465  1.00  0.00     0.064 A 
ATOM     71  C   UNL A   1      38.605  31.559  36.395  1.00  0.00     0.173 A 
ATOM     72  C   UNL A   1      39.974  33.388  35.658  1.00  0.00     0.173 A 
ATOM     73  F   UNL A   1      38.116  30.321  36.235  1.00  0.00    -0.203 F 
ATOM     74  C   UNL A   1      38.166  32.325  37.474  1.00  0.00     0.198 A 
ATOM     75  C   UNL A   1      39.556  34.143  36.752  1.00  0.00     0.198 A 
ATOM     76  F   UNL A   1      40.842  33.931  34.792  1.00  0.00    -0.203 F 
ATOM     77  F   UNL A   1      37.266  31.819  38.328  1.00  0.00    -0.200 F 
ATOM     78  C   UNL A   1      38.649  33.612  37.655  1.00  0.00     0.200 A 
ATOM     79  F   UNL A   1      40.034  35.381  36.930  1.00  0.00    -0.200 F 
ATOM     80  F   UNL A   1      38.232  34.344  38.698  1.00  0.00    -0.200 F 
ENDBRANCH  46  70
BRANCH  58  81
ATOM     81  C   UNL A   1      44.632  27.432  34.653  1.00  0.00     0.064 A 
ATOM     82  C   UNL A   1      44.415  26.298  35.447  1.00  0.00     0.173 A 
ATOM     83  C   UNL A   1      45.881  28.064  34.727  1.00  0.00     0.173 A 
ATOM     84  F   UNL A   1      43.229  25.672  35.419  1.00  0.00    -0.203 F 
ATOM     85  C   UNL A   1      45.408  25.825  36.300  1.00  0.00     0.198 A 
ATOM     86  C   UNL A   1      46.879  27.577  35.567  1.00  0.00     0.198 A 
ATOM     87  F   UNL A   1      46.135  29.151  33.982  1.00  0.00    -0.203 F 
ATOM     88  F   UNL A   1      45.168  24.762  37.080  1.00  0.00    -0.200 F 
ATOM     89  C   UNL A   1      46.639  26.462  36.356  1.00  0.00     0.200 A 
ATOM     90  F   UNL A   1      48.070  28.189  35.615  1.00  0.00    -0.200 F 
ATOM     91  F   UNL A   1      47.594  26.004  37.177  1.00  0.00    -0.200 F 
ENDBRANCH  58  81
ENDBRANCH  32  33
ENDBRANCH  25  27
ENDBRANCH  24  25
ENDBRANCH  23  24
ENDBRANCH   1  23
TORSDOF 17
ENDMDL
MODEL 3
REMARK VINA RESULT:     -11.6      4.867     10.231
REMARK SMILES CCC[C@@]1(C(=O)OCCOC(=O)c2ccc(-c3c4nc(c(-c5c(F)c(F)c(F)c(F)c5F)c5ccc([nH]5)c(-c5c(F)c(F)c(F)c(F)c5F)c5nc(c(-c6c(F)c(F)c(F)c(F)c6F)c6ccc3[nH]6)C=C5)C=C4)cc2)CCCN(C(=O)CCn2cncn2)C1
REMARK SMILES IDX 8 1 7 2 5 3 6 4 4 5 76 6 89 7 77 8 79 9 78 10 3 11 2 12 1 13
REMARK SMILES IDX 80 14 81 15 82 16 83 17 84 18 85 19 88 20 86 21 87 22 9 23
REMARK SMILES IDX 10 24 11 25 12 26 13 27 14 28 75 29 15 30 74 31 16 32 17 33
REMARK SMILES IDX 18 34 68 35 19 36 73 37 67 38 69 39 20 40 72 41 66 42 65 43
REMARK SMILES IDX 21 45 53 46 33 47 52 48 34 49 37 50 51 51 70 52 35 53 36 54
REMARK SMILES IDX 50 56 71 57 38 58 22 59 23 60 31 61 24 62 25 63 29 64 32 65
REMARK SMILES IDX 26 66 27 67 30 68 28 69 54 70 55 71 63 72 56 73 57 74 61 75
REMARK SMILES IDX 64 76 58 77 59 78 62 79 60 80 39 81 40 82 48 83 41 84 42 85
REMARK SMILES IDX 46 86 49 87 43 88 44 89 47 90 45 91
REMARK H PARENT 69 44 37 55
REMARK Flexibility Score: inf
ROOT
ATOM      1  C   UNL A   1      36.584  22.630  23.604  1.00  0.00     0.274 C 
ENDROOT
BRANCH   1   2
ATOM      2  O   UNL A   1      35.684  23.522  24.290  1.00  0.00    -0.462 OA
BRANCH   2   3
ATOM      3  C   UNL A   1      34.563  23.897  23.607  1.00  0.00     0.314 C 
ATOM      4  O   UNL A   1      34.372  23.682  22.419  1.00  0.00    -0.252 OA
BRANCH   3   5
ATOM      5  C   UNL A   1      33.569  24.635  24.522  1.00  0.00     0.086 C 
ATOM      6  C   UNL A   1      33.994  24.494  26.018  1.00  0.00     0.022 C 
ATOM      7  C   UNL A   1      32.215  23.927  24.308  1.00  0.00     0.138 C 
ATOM      8  C   UNL A   1      33.836  23.087  26.608  1.00  0.00     0.023 C 
ATOM      9  N   UNL A   1      32.299  22.539  24.796  1.00  0.00    -0.341 N 
ATOM     10  C   UNL A   1      32.506  22.444  26.238  1.00  0.00     0.119 C 
BRANCH   5  11
ATOM     11  C   UNL A   1      33.612  26.148  24.139  1.00  0.00     0.020 C 
BRANCH  11  12
ATOM     12  C   UNL A   1      32.921  27.168  25.047  1.00  0.00    -0.002 C 
ATOM     13  C   UNL A   1      33.840  28.207  25.665  1.00  0.00     0.004 C 
ENDBRANCH  11  12
ENDBRANCH   5  11
BRANCH   9  14
ATOM     14  C   UNL A   1      32.440  21.513  23.875  1.00  0.00     0.224 C 
ATOM     15  O   UNL A   1      32.015  21.614  22.721  1.00  0.00    -0.275 OA
BRANCH  14  16
ATOM     16  C   UNL A   1      33.154  20.232  24.258  1.00  0.00     0.124 C 
BRANCH  16  17
ATOM     17  C   UNL A   1      32.613  19.035  23.478  1.00  0.00     0.156 C 
BRANCH  17  18
ATOM     18  N   UNL A   1      32.779  17.749  24.123  1.00  0.00    -0.252 N 
ATOM     19  C   UNL A   1      33.553  16.697  23.733  1.00  0.00     0.219 A 
ATOM     20  N   UNL A   1      32.231  17.508  25.326  1.00  0.00    -0.160 NA
ATOM     21  N   UNL A   1      33.437  15.717  24.599  1.00  0.00    -0.224 NA
ATOM     22  C   UNL A   1      32.626  16.254  25.557  1.00  0.00     0.246 A 
ENDBRANCH  17  18
ENDBRANCH  16  17
ENDBRANCH  14  16
ENDBRANCH   9  14
ENDBRANCH   3   5
ENDBRANCH   2   3
ENDBRANCH   1   2
BRANCH   1  23
ATOM     23  C   UNL A   1      36.868  21.412  24.476  1.00  0.00     0.275 C 
BRANCH  23  24
ATOM     24  O   UNL A   1      37.374  21.871  25.738  1.00  0.00    -0.458 OA
BRANCH  24  25
ATOM     25  C   UNL A   1      38.652  21.544  26.030  1.00  0.00     0.338 C 
ATOM     26  O   UNL A   1      39.195  20.462  25.864  1.00  0.00    -0.246 OA
BRANCH  25  27
ATOM     27  C   UNL A   1      39.346  22.731  26.567  1.00  0.00     0.060 A 
ATOM     28  C   UNL A   1      38.935  24.014  26.204  1.00  0.00     0.016 A 
ATOM     29  C   UNL A   1      40.472  22.570  27.369  1.00  0.00     0.016 A 
ATOM     30  C   UNL A   1      39.671  25.133  26.579  1.00  0.00     0.010 A 
ATOM     31  C   UNL A   1      41.166  23.697  27.821  1.00  0.00     0.010 A 
ATOM     32  C   UNL A   1      40.785  24.990  27.410  1.00  0.00    -0.014 A 
BRANCH  32  33
ATOM     33  C   UNL A   1      41.595  26.171  27.804  1.00  0.00     0.031 A 
ATOM     34  C   UNL A   1      40.984  27.216  28.693  1.00  0.00     0.074 A 
ATOM     35  C   UNL A   1      42.864  26.319  27.379  1.00  0.00     0.049 A 
ATOM     36  N   UNL A   1      41.370  28.444  28.919  1.00  0.00    -0.248 NA
ATOM     37  C   UNL A   1      39.762  26.826  29.415  1.00  0.00     0.031 C 
ATOM     38  C   UNL A   1      43.619  25.347  26.588  1.00  0.00     0.029 A 
ATOM     39  N   UNL A   1      43.746  27.356  27.557  1.00  0.00    -0.354 N 
ATOM     40  C   UNL A   1      40.397  28.998  29.738  1.00  0.00     0.074 A 
ATOM     41  C   UNL A   1      39.416  27.966  29.995  1.00  0.00     0.031 C 
ATOM     42  C   UNL A   1      44.856  25.819  26.371  1.00  0.00     0.029 A 
ATOM     43  C   UNL A   1      44.950  27.168  26.921  1.00  0.00     0.049 A 
ATOM     44  H   UNL A   1      43.537  28.158  28.089  1.00  0.00     0.167 HD
ATOM     45  C   UNL A   1      40.327  30.263  30.214  1.00  0.00     0.037 A 
ATOM     46  C   UNL A   1      45.986  28.008  26.750  1.00  0.00     0.037 A 
ATOM     47  C   UNL A   1      41.343  31.260  30.005  1.00  0.00     0.049 A 
ATOM     48  C   UNL A   1      45.883  29.414  27.273  1.00  0.00     0.074 A 
ATOM     49  C   UNL A   1      41.362  32.580  30.420  1.00  0.00     0.029 A 
ATOM     50  N   UNL A   1      42.539  31.030  29.343  1.00  0.00    -0.354 N 
ATOM     51  N   UNL A   1      44.902  29.978  27.936  1.00  0.00    -0.248 NA
ATOM     52  C   UNL A   1      47.014  30.308  26.994  1.00  0.00     0.031 C 
ATOM     53  C   UNL A   1      42.567  33.153  29.997  1.00  0.00     0.029 A 
ATOM     54  C   UNL A   1      43.308  32.182  29.345  1.00  0.00     0.049 A 
ATOM     55  H   UNL A   1      42.803  30.176  28.931  1.00  0.00     0.167 HD
ATOM     56  C   UNL A   1      45.296  31.291  28.153  1.00  0.00     0.074 A 
ATOM     57  C   UNL A   1      46.617  31.433  27.574  1.00  0.00     0.031 C 
ATOM     58  C   UNL A   1      44.621  32.293  28.766  1.00  0.00     0.037 A 
BRANCH  45  59
ATOM     59  C   UNL A   1      39.089  30.653  30.964  1.00  0.00     0.064 A 
ATOM     60  C   UNL A   1      38.976  30.484  32.351  1.00  0.00     0.173 A 
ATOM     61  C   UNL A   1      38.009  31.232  30.280  1.00  0.00     0.173 A 
ATOM     62  F   UNL A   1      39.973  29.917  33.045  1.00  0.00    -0.203 F 
ATOM     63  C   UNL A   1      37.817  30.865  33.024  1.00  0.00     0.198 A 
ATOM     64  C   UNL A   1      36.862  31.633  30.959  1.00  0.00     0.198 A 
ATOM     65  F   UNL A   1      38.069  31.413  28.952  1.00  0.00    -0.203 F 
ATOM     66  F   UNL A   1      37.713  30.659  34.344  1.00  0.00    -0.200 F 
ATOM     67  C   UNL A   1      36.765  31.444  32.329  1.00  0.00     0.200 A 
ATOM     68  F   UNL A   1      35.850  32.199  30.288  1.00  0.00    -0.200 F 
ATOM     69  F   UNL A   1      35.654  31.815  32.981  1.00  0.00    -0.200 F 
ENDBRANCH  45  59
BRANCH  46  70
ATOM     70  C   UNL A   1      47.186  27.561  25.997  1.00  0.00     0.064 A 
ATOM     71  C   UNL A   1      47.257  27.707  24.605  1.00  0.00     0.173 A 
ATOM     72  C   UNL A   1      48.285  26.981  26.649  1.00  0.00     0.173 A 
ATOM     73  F   UNL A   1      46.219  28.227  23.934  1.00  0.00    -0.203 F 
ATOM     74  C   UNL A   1      48.380  27.288  23.894  1.00  0.00     0.198 A 
ATOM     75  C   UNL A   1      49.419  26.589  25.941  1.00  0.00     0.198 A 
ATOM     76  F   UNL A   1      48.264  26.814  27.980  1.00  0.00    -0.203 F 
ATOM     77  F   UNL A   1      48.406  27.406  22.560  1.00  0.00    -0.200 F 
ATOM     78  C   UNL A   1      49.462  26.738  24.563  1.00  0.00     0.200 A 
ATOM     79  F   UNL A   1      50.466  26.068  26.593  1.00  0.00    -0.200 F 
ATOM     80  F   UNL A   1      50.545  26.343  23.879  1.00  0.00    -0.200 F 
ENDBRANCH  46  70
BRANCH  58  81
ATOM     81  C   UNL A   1      45.314  33.617  28.861  1.00  0.00     0.064 A 
ATOM     82  C   UNL A   1      45.120  34.613  27.893  1.00  0.00     0.173 A 
ATOM     83  C   UNL A   1      46.150  33.904  29.949  1.00  0.00     0.173 A 
ATOM     84  F   UNL A   1      44.341  34.375  26.828  1.00  0.00    -0.203 F 
ATOM     85  C   UNL A   1      45.758  35.844  28.002  1.00  0.00     0.198 A 
ATOM     86  C   UNL A   1      46.771  35.144  30.065  1.00  0.00     0.198 A 
ATOM     87  F   UNL A   1      46.361  32.983  30.901  1.00  0.00    -0.203 F 
ATOM     88  F   UNL A   1      45.591  36.770  27.047  1.00  0.00    -0.200 F 
ATOM     89  C   UNL A   1      46.578  36.111  29.089  1.00  0.00     0.200 A 
ATOM     90  F   UNL A   1      47.558  35.403  31.119  1.00  0.00    -0.200 F 
ATOM     91  F   UNL A   1      47.191  37.299  29.192  1.00  0.00    -0.200 F 
ENDBRANCH  58  81
ENDBRANCH  32  33
ENDBRANCH  25  27
ENDBRANCH  24  25
ENDBRANCH  23  24
ENDBRANCH   1  23
TORSDOF 17
ENDMDL
