MODEL 1
REMARK VINA RESULT:     -13.0      0.000      0.000
REMARK SMILES C[C@@H]1Cc2ccccc2N1S(=O)(=O)c1c[nH]c(C(=O)OCCOC(=O)c2ccc(-c3c4nc(c(-c5c(F)c(F)c(F)c(F)c5F)c5ccc([nH]5)c(-c5c(F)c(F)c(F)c(F)c5F)c5nc(c(-c6c(F)c(F)c(F)c(F)c6F)c6ccc3[nH]6)C=C5)C=C4)cc2)c1
REMARK SMILES IDX 21 1 20 2 18 3 19 4 17 5 14 6 15 7 89 8 16 9 11 11 12 12
REMARK SMILES IDX 13 13 10 14 1 15 2 16 3 17 4 18 9 19 5 20 8 21 6 22 7 23
REMARK SMILES IDX 22 24 23 25 24 26 25 27 26 28 27 29 88 30 28 31 87 32 29 33
REMARK SMILES IDX 30 34 31 35 81 36 32 37 86 38 80 39 82 40 33 41 85 42 79 43
REMARK SMILES IDX 78 44 34 46 66 47 46 48 65 49 47 50 50 51 64 52 83 53 48 54
REMARK SMILES IDX 49 55 63 57 84 58 51 59 35 60 36 61 44 62 37 63 38 64 42 65
REMARK SMILES IDX 45 66 39 67 40 68 43 69 41 70 67 71 68 72 76 73 69 74 70 75
REMARK SMILES IDX 74 76 77 77 71 78 72 79 75 80 73 81 52 82 53 83 61 84 54 85
REMARK SMILES IDX 55 86 59 87 62 88 56 89 57 90 60 91 58 92
REMARK H PARENT 16 10 82 45 50 56
REMARK Flexibility Score: inf
ROOT
ATOM      1  C   UNL A   1      39.703  21.297  26.133  1.00  0.00     0.275 C 
ENDROOT
BRANCH   1   2
ATOM      2  O   UNL A   1      38.549  21.654  25.333  1.00  0.00    -0.457 OA
BRANCH   2   3
ATOM      3  C   UNL A   1      37.714  20.629  25.001  1.00  0.00     0.354 C 
ATOM      4  O   UNL A   1      38.008  19.441  25.039  1.00  0.00    -0.244 OA
BRANCH   3   5
ATOM      5  C   UNL A   1      36.379  21.108  24.707  1.00  0.00     0.126 A 
ATOM      6  C   UNL A   1      34.461  22.172  24.094  1.00  0.00     0.106 A 
ATOM      7  C   UNL A   1      34.129  21.057  24.840  1.00  0.00     0.105 A 
ATOM      8  C   UNL A   1      35.887  22.226  24.040  1.00  0.00     0.057 A 
ATOM      9  N   UNL A   1      35.277  20.356  25.062  1.00  0.00    -0.354 N 
ATOM     10  H   UNL A   1      35.314  19.441  25.424  1.00  0.00     0.166 HD
BRANCH   6  11
ATOM     11  S   UNL A   1      33.301  23.158  23.265  1.00  0.00     0.266 S 
ATOM     12  O   UNL A   1      32.118  22.316  23.233  1.00  0.00    -0.201 OA
ATOM     13  O   UNL A   1      33.988  23.490  22.033  1.00  0.00    -0.201 OA
BRANCH  11  14
ATOM     14  N   UNL A   1      32.869  24.622  24.016  1.00  0.00    -0.263 N 
ATOM     15  C   UNL A   1      32.104  23.977  26.334  1.00  0.00     0.032 C 
ATOM     16  C   UNL A   1      33.208  24.612  25.507  1.00  0.00     0.101 C 
ATOM     17  C   UNL A   1      33.466  26.076  25.906  1.00  0.00     0.063 C 
ATOM     18  C   UNL A   1      33.660  26.738  24.581  1.00  0.00    -0.021 A 
ATOM     19  C   UNL A   1      33.345  25.884  23.523  1.00  0.00     0.055 A 
ATOM     20  C   UNL A   1      34.005  28.067  24.372  1.00  0.00     0.006 A 
ATOM     21  C   UNL A   1      33.298  26.376  22.231  1.00  0.00     0.027 A 
ATOM     22  C   UNL A   1      34.006  28.553  23.066  1.00  0.00     0.000 A 
ATOM     23  C   UNL A   1      33.647  27.714  22.003  1.00  0.00     0.002 A 
ENDBRANCH  11  14
ENDBRANCH   6  11
ENDBRANCH   3   5
ENDBRANCH   2   3
ENDBRANCH   1   2
BRANCH   1  24
ATOM     24  C   UNL A   1      40.472  22.542  26.599  1.00  0.00     0.275 C 
BRANCH  24  25
ATOM     25  O   UNL A   1      39.633  23.294  27.491  1.00  0.00    -0.458 OA
BRANCH  25  26
ATOM     26  C   UNL A   1      38.997  24.354  26.927  1.00  0.00     0.338 C 
ATOM     27  O   UNL A   1      38.052  24.347  26.179  1.00  0.00    -0.246 OA
BRANCH  26  28
ATOM     28  C   UNL A   1      39.403  25.494  27.769  1.00  0.00     0.060 A 
ATOM     29  C   UNL A   1      38.967  25.650  29.088  1.00  0.00     0.016 A 
ATOM     30  C   UNL A   1      40.044  26.529  27.091  1.00  0.00     0.016 A 
ATOM     31  C   UNL A   1      39.135  26.881  29.719  1.00  0.00     0.010 A 
ATOM     32  C   UNL A   1      40.142  27.768  27.700  1.00  0.00     0.010 A 
ATOM     33  C   UNL A   1      39.692  27.957  29.013  1.00  0.00    -0.014 A 
BRANCH  33  34
ATOM     34  C   UNL A   1      39.926  29.269  29.673  1.00  0.00     0.031 A 
ATOM     35  C   UNL A   1      38.741  30.240  29.524  1.00  0.00     0.074 A 
ATOM     36  C   UNL A   1      41.122  29.445  30.317  1.00  0.00     0.049 A 
ATOM     37  N   UNL A   1      38.686  31.516  29.762  1.00  0.00    -0.248 NA
ATOM     38  C   UNL A   1      37.424  29.736  29.038  1.00  0.00     0.031 C 
ATOM     39  C   UNL A   1      42.147  28.393  30.474  1.00  0.00     0.029 A 
ATOM     40  N   UNL A   1      41.728  30.513  30.962  1.00  0.00    -0.354 N 
ATOM     41  C   UNL A   1      37.344  31.917  29.610  1.00  0.00     0.074 A 
ATOM     42  C   UNL A   1      36.612  30.785  29.146  1.00  0.00     0.031 C 
ATOM     43  C   UNL A   1      43.261  28.888  31.054  1.00  0.00     0.029 A 
ATOM     44  C   UNL A   1      43.074  30.291  31.366  1.00  0.00     0.049 A 
ATOM     45  H   UNL A   1      41.260  31.363  31.128  1.00  0.00     0.167 HD
ATOM     46  C   UNL A   1      36.883  33.156  29.921  1.00  0.00     0.037 A 
ATOM     47  C   UNL A   1      43.989  31.176  31.878  1.00  0.00     0.037 A 
ATOM     48  C   UNL A   1      37.946  34.027  30.269  1.00  0.00     0.049 A 
ATOM     49  C   UNL A   1      43.248  32.422  32.118  1.00  0.00     0.074 A 
ATOM     50  C   UNL A   1      38.902  34.637  29.503  1.00  0.00     0.029 A 
ATOM     51  N   UNL A   1      38.318  34.085  31.586  1.00  0.00    -0.354 N 
ATOM     52  N   UNL A   1      42.439  32.623  33.115  1.00  0.00    -0.248 NA
ATOM     53  C   UNL A   1      43.391  33.523  31.157  1.00  0.00     0.031 C 
ATOM     54  C   UNL A   1      40.030  34.695  30.341  1.00  0.00     0.029 A 
ATOM     55  C   UNL A   1      39.683  34.241  31.617  1.00  0.00     0.049 A 
ATOM     56  H   UNL A   1      37.720  34.025  32.365  1.00  0.00     0.167 HD
ATOM     57  C   UNL A   1      41.749  33.740  32.707  1.00  0.00     0.074 A 
ATOM     58  C   UNL A   1      42.572  34.403  31.723  1.00  0.00     0.031 C 
ATOM     59  C   UNL A   1      40.395  33.737  32.766  1.00  0.00     0.037 A 
BRANCH  46  60
ATOM     60  C   UNL A   1      35.484  33.662  30.044  1.00  0.00     0.064 A 
ATOM     61  C   UNL A   1      34.891  34.308  28.938  1.00  0.00     0.173 A 
ATOM     62  C   UNL A   1      34.853  33.820  31.284  1.00  0.00     0.173 A 
ATOM     63  F   UNL A   1      35.419  34.186  27.710  1.00  0.00    -0.203 F 
ATOM     64  C   UNL A   1      33.787  35.143  29.083  1.00  0.00     0.198 A 
ATOM     65  C   UNL A   1      33.724  34.631  31.420  1.00  0.00     0.198 A 
ATOM     66  F   UNL A   1      35.372  33.271  32.392  1.00  0.00    -0.203 F 
ATOM     67  F   UNL A   1      33.320  35.822  28.026  1.00  0.00    -0.200 F 
ATOM     68  C   UNL A   1      33.213  35.317  30.329  1.00  0.00     0.200 A 
ATOM     69  F   UNL A   1      33.170  34.802  32.629  1.00  0.00    -0.200 F 
ATOM     70  F   UNL A   1      32.189  36.167  30.484  1.00  0.00    -0.200 F 
ENDBRANCH  46  60
BRANCH  47  71
ATOM     71  C   UNL A   1      45.480  31.230  32.177  1.00  0.00     0.064 A 
ATOM     72  C   UNL A   1      46.081  31.071  33.432  1.00  0.00     0.173 A 
ATOM     73  C   UNL A   1      46.422  31.377  31.112  1.00  0.00     0.173 A 
ATOM     74  F   UNL A   1      45.353  31.053  34.553  1.00  0.00    -0.203 F 
ATOM     75  C   UNL A   1      47.477  30.944  33.589  1.00  0.00     0.198 A 
ATOM     76  C   UNL A   1      47.799  31.207  31.259  1.00  0.00     0.198 A 
ATOM     77  F   UNL A   1      46.039  31.693  29.868  1.00  0.00    -0.203 F 
ATOM     78  F   UNL A   1      47.992  30.779  34.816  1.00  0.00    -0.200 F 
ATOM     79  C   UNL A   1      48.329  30.971  32.501  1.00  0.00     0.200 A 
ATOM     80  F   UNL A   1      48.594  31.257  30.179  1.00  0.00    -0.200 F 
ATOM     81  F   UNL A   1      49.647  30.784  32.649  1.00  0.00    -0.200 F 
ENDBRANCH  47  71
BRANCH  59  82
ATOM     82  C   UNL A   1      39.844  32.816  33.827  1.00  0.00     0.064 A 
ATOM     83  C   UNL A   1      39.226  31.617  33.442  1.00  0.00     0.173 A 
ATOM     84  C   UNL A   1      39.779  33.147  35.190  1.00  0.00     0.173 A 
ATOM     85  F   UNL A   1      39.243  31.241  32.154  1.00  0.00    -0.203 F 
ATOM     86  C   UNL A   1      38.579  30.800  34.370  1.00  0.00     0.198 A 
ATOM     87  C   UNL A   1      39.142  32.326  36.123  1.00  0.00     0.198 A 
ATOM     88  F   UNL A   1      40.319  34.280  35.643  1.00  0.00    -0.203 F 
ATOM     89  F   UNL A   1      37.993  29.665  33.964  1.00  0.00    -0.200 F 
ATOM     90  C   UNL A   1      38.539  31.153  35.709  1.00  0.00     0.200 A 
ATOM     91  F   UNL A   1      39.113  32.679  37.417  1.00  0.00    -0.200 F 
ATOM     92  F   UNL A   1      37.923  30.362  36.600  1.00  0.00    -0.200 F 
ENDBRANCH  59  82
ENDBRANCH  33  34
ENDBRANCH  26  28
ENDBRANCH  25  26
ENDBRANCH  24  25
ENDBRANCH   1  24
TORSDOF 13
ENDMDL
MODEL 2
REMARK VINA RESULT:     -13.0      2.935      8.615
REMARK SMILES C[C@@H]1Cc2ccccc2N1S(=O)(=O)c1c[nH]c(C(=O)OCCOC(=O)c2ccc(-c3c4nc(c(-c5c(F)c(F)c(F)c(F)c5F)c5ccc([nH]5)c(-c5c(F)c(F)c(F)c(F)c5F)c5nc(c(-c6c(F)c(F)c(F)c(F)c6F)c6ccc3[nH]6)C=C5)C=C4)cc2)c1
REMARK SMILES IDX 21 1 20 2 18 3 19 4 17 5 14 6 15 7 89 8 16 9 11 11 12 12
REMARK SMILES IDX 13 13 10 14 1 15 2 16 3 17 4 18 9 19 5 20 8 21 6 22 7 23
REMARK SMILES IDX 22 24 23 25 24 26 25 27 26 28 27 29 88 30 28 31 87 32 29 33
REMARK SMILES IDX 30 34 31 35 81 36 32 37 86 38 80 39 82 40 33 41 85 42 79 43
REMARK SMILES IDX 78 44 34 46 66 47 46 48 65 49 47 50 50 51 64 52 83 53 48 54
REMARK SMILES IDX 49 55 63 57 84 58 51 59 35 60 36 61 44 62 37 63 38 64 42 65
REMARK SMILES IDX 45 66 39 67 40 68 43 69 41 70 67 71 68 72 76 73 69 74 70 75
REMARK SMILES IDX 74 76 77 77 71 78 72 79 75 80 73 81 52 82 53 83 61 84 54 85
REMARK SMILES IDX 55 86 59 87 62 88 56 89 57 90 60 91 58 92
REMARK H PARENT 16 10 82 45 50 56
REMARK Flexibility Score: inf
ROOT
ATOM      1  C   UNL A   1      42.536  20.240  26.104  1.00  0.00     0.275 C 
ENDROOT
BRANCH   1   2
ATOM      2  O   UNL A   1      41.295  20.894  25.740  1.00  0.00    -0.457 OA
BRANCH   2   3
ATOM      3  C   UNL A   1      40.412  21.103  26.757  1.00  0.00     0.354 C 
ATOM      4  O   UNL A   1      40.592  20.780  27.924  1.00  0.00    -0.244 OA
BRANCH   3   5
ATOM      5  C   UNL A   1      39.267  21.872  26.313  1.00  0.00     0.126 A 
ATOM      6  C   UNL A   1      37.399  22.781  25.380  1.00  0.00     0.106 A 
ATOM      7  C   UNL A   1      37.996  23.730  26.187  1.00  0.00     0.105 A 
ATOM      8  C   UNL A   1      38.223  21.615  25.430  1.00  0.00     0.057 A 
ATOM      9  N   UNL A   1      39.017  23.119  26.851  1.00  0.00    -0.354 N 
ATOM     10  H   UNL A   1      39.507  23.512  27.610  1.00  0.00     0.166 HD
BRANCH   6  11
ATOM     11  S   UNL A   1      35.849  22.987  24.631  1.00  0.00     0.266 S 
ATOM     12  O   UNL A   1      36.084  22.553  23.265  1.00  0.00    -0.201 OA
ATOM     13  O   UNL A   1      35.544  24.377  24.908  1.00  0.00    -0.201 OA
BRANCH  11  14
ATOM     14  N   UNL A   1      34.570  22.054  25.254  1.00  0.00    -0.263 N 
ATOM     15  C   UNL A   1      32.926  23.726  26.190  1.00  0.00     0.032 C 
ATOM     16  C   UNL A   1      33.222  22.749  25.065  1.00  0.00     0.101 C 
ATOM     17  C   UNL A   1      32.165  21.633  24.971  1.00  0.00     0.063 C 
ATOM     18  C   UNL A   1      33.001  20.425  24.701  1.00  0.00    -0.021 A 
ATOM     19  C   UNL A   1      34.364  20.696  24.838  1.00  0.00     0.055 A 
ATOM     20  C   UNL A   1      32.531  19.143  24.448  1.00  0.00     0.006 A 
ATOM     21  C   UNL A   1      35.279  19.660  24.797  1.00  0.00     0.027 A 
ATOM     22  C   UNL A   1      33.455  18.105  24.358  1.00  0.00     0.000 A 
ATOM     23  C   UNL A   1      34.821  18.360  24.538  1.00  0.00     0.002 A 
ENDBRANCH  11  14
ENDBRANCH   6  11
ENDBRANCH   3   5
ENDBRANCH   2   3
ENDBRANCH   1   2
BRANCH   1  24
ATOM     24  C   UNL A   1      43.756  21.027  25.601  1.00  0.00     0.275 C 
BRANCH  24  25
ATOM     25  O   UNL A   1      43.688  22.363  26.126  1.00  0.00    -0.458 OA
BRANCH  25  26
ATOM     26  C   UNL A   1      43.556  23.343  25.194  1.00  0.00     0.338 C 
ATOM     27  O   UNL A   1      43.517  23.232  23.994  1.00  0.00    -0.246 OA
BRANCH  26  28
ATOM     28  C   UNL A   1      43.016  24.482  25.958  1.00  0.00     0.060 A 
ATOM     29  C   UNL A   1      43.519  25.780  25.831  1.00  0.00     0.016 A 
ATOM     30  C   UNL A   1      42.146  24.141  26.991  1.00  0.00     0.016 A 
ATOM     31  C   UNL A   1      43.180  26.738  26.785  1.00  0.00     0.010 A 
ATOM     32  C   UNL A   1      41.872  25.077  27.972  1.00  0.00     0.010 A 
ATOM     33  C   UNL A   1      42.382  26.379  27.881  1.00  0.00    -0.014 A 
BRANCH  33  34
ATOM     34  C   UNL A   1      41.965  27.388  28.889  1.00  0.00     0.031 A 
ATOM     35  C   UNL A   1      42.777  27.310  30.195  1.00  0.00     0.074 A 
ATOM     36  C   UNL A   1      40.951  28.241  28.544  1.00  0.00     0.049 A 
ATOM     37  N   UNL A   1      42.543  27.862  31.346  1.00  0.00    -0.248 NA
ATOM     38  C   UNL A   1      44.031  26.502  30.243  1.00  0.00     0.031 C 
ATOM     39  C   UNL A   1      40.311  28.281  27.213  1.00  0.00     0.029 A 
ATOM     40  N   UNL A   1      40.248  29.233  29.212  1.00  0.00    -0.354 N 
ATOM     41  C   UNL A   1      43.654  27.606  32.173  1.00  0.00     0.074 A 
ATOM     42  C   UNL A   1      44.534  26.749  31.450  1.00  0.00     0.031 C 
ATOM     43  C   UNL A   1      39.273  29.143  27.203  1.00  0.00     0.029 A 
ATOM     44  C   UNL A   1      39.144  29.778  28.500  1.00  0.00     0.049 A 
ATOM     45  H   UNL A   1      40.496  29.538  30.115  1.00  0.00     0.167 HD
ATOM     46  C   UNL A   1      43.825  28.152  33.406  1.00  0.00     0.037 A 
ATOM     47  C   UNL A   1      38.170  30.645  28.927  1.00  0.00     0.037 A 
ATOM     48  C   UNL A   1      42.679  28.884  33.806  1.00  0.00     0.049 A 
ATOM     49  C   UNL A   1      38.584  31.080  30.268  1.00  0.00     0.074 A 
ATOM     50  C   UNL A   1      41.443  28.469  34.224  1.00  0.00     0.029 A 
ATOM     51  N   UNL A   1      42.623  30.212  33.476  1.00  0.00    -0.354 N 
ATOM     52  N   UNL A   1      39.519  31.951  30.509  1.00  0.00    -0.248 NA
ATOM     53  C   UNL A   1      37.931  30.478  31.437  1.00  0.00     0.031 C 
ATOM     54  C   UNL A   1      40.568  29.465  33.751  1.00  0.00     0.029 A 
ATOM     55  C   UNL A   1      41.312  30.504  33.182  1.00  0.00     0.049 A 
ATOM     56  H   UNL A   1      43.379  30.841  33.453  1.00  0.00     0.167 HD
ATOM     57  C   UNL A   1      39.769  31.743  31.845  1.00  0.00     0.074 A 
ATOM     58  C   UNL A   1      38.593  31.115  32.398  1.00  0.00     0.031 C 
ATOM     59  C   UNL A   1      41.050  31.580  32.259  1.00  0.00     0.037 A 
BRANCH  46  60
ATOM     60  C   UNL A   1      45.025  28.175  34.292  1.00  0.00     0.064 A 
ATOM     61  C   UNL A   1      45.101  27.261  35.365  1.00  0.00     0.173 A 
ATOM     62  C   UNL A   1      45.916  29.255  34.315  1.00  0.00     0.173 A 
ATOM     63  F   UNL A   1      44.299  26.185  35.404  1.00  0.00    -0.203 F 
ATOM     64  C   UNL A   1      45.951  27.470  36.447  1.00  0.00     0.198 A 
ATOM     65  C   UNL A   1      46.792  29.444  35.387  1.00  0.00     0.198 A 
ATOM     66  F   UNL A   1      45.886  30.189  33.354  1.00  0.00    -0.203 F 
ATOM     67  F   UNL A   1      45.915  26.636  37.495  1.00  0.00    -0.200 F 
ATOM     68  C   UNL A   1      46.786  28.571  36.465  1.00  0.00     0.200 A 
ATOM     69  F   UNL A   1      47.600  30.514  35.404  1.00  0.00    -0.200 F 
ATOM     70  F   UNL A   1      47.561  28.810  37.531  1.00  0.00    -0.200 F 
ENDBRANCH  46  60
BRANCH  47  71
ATOM     71  C   UNL A   1      36.831  31.185  28.445  1.00  0.00     0.064 A 
ATOM     72  C   UNL A   1      35.696  30.429  28.128  1.00  0.00     0.173 A 
ATOM     73  C   UNL A   1      36.617  32.596  28.357  1.00  0.00     0.173 A 
ATOM     74  F   UNL A   1      35.754  29.098  28.029  1.00  0.00    -0.203 F 
ATOM     75  C   UNL A   1      34.442  31.022  27.874  1.00  0.00     0.198 A 
ATOM     76  C   UNL A   1      35.368  33.183  28.151  1.00  0.00     0.198 A 
ATOM     77  F   UNL A   1      37.622  33.474  28.472  1.00  0.00    -0.203 F 
ATOM     78  F   UNL A   1      33.387  30.245  27.591  1.00  0.00    -0.200 F 
ATOM     79  C   UNL A   1      34.270  32.393  27.927  1.00  0.00     0.200 A 
ATOM     80  F   UNL A   1      35.246  34.519  28.193  1.00  0.00    -0.200 F 
ATOM     81  F   UNL A   1      33.064  32.947  27.750  1.00  0.00    -0.200 F 
ENDBRANCH  47  71
BRANCH  59  82
ATOM     82  C   UNL A   1      42.058  32.258  31.365  1.00  0.00     0.064 A 
ATOM     83  C   UNL A   1      42.192  33.653  31.414  1.00  0.00     0.173 A 
ATOM     84  C   UNL A   1      42.787  31.591  30.366  1.00  0.00     0.173 A 
ATOM     85  F   UNL A   1      41.519  34.356  32.338  1.00  0.00    -0.203 F 
ATOM     86  C   UNL A   1      43.007  34.340  30.513  1.00  0.00     0.198 A 
ATOM     87  C   UNL A   1      43.612  32.275  29.471  1.00  0.00     0.198 A 
ATOM     88  F   UNL A   1      42.703  30.267  30.230  1.00  0.00    -0.203 F 
ATOM     89  F   UNL A   1      43.103  35.675  30.586  1.00  0.00    -0.200 F 
ATOM     90  C   UNL A   1      43.718  33.652  29.543  1.00  0.00     0.200 A 
ATOM     91  F   UNL A   1      44.298  31.595  28.538  1.00  0.00    -0.200 F 
ATOM     92  F   UNL A   1      44.506  34.313  28.684  1.00  0.00    -0.200 F 
ENDBRANCH  59  82
ENDBRANCH  33  34
ENDBRANCH  26  28
ENDBRANCH  25  26
ENDBRANCH  24  25
ENDBRANCH   1  24
TORSDOF 13
ENDMDL
MODEL 3
REMARK VINA RESULT:     -13.0      3.369      5.388
REMARK SMILES C[C@@H]1Cc2ccccc2N1S(=O)(=O)c1c[nH]c(C(=O)OCCOC(=O)c2ccc(-c3c4nc(c(-c5c(F)c(F)c(F)c(F)c5F)c5ccc([nH]5)c(-c5c(F)c(F)c(F)c(F)c5F)c5nc(c(-c6c(F)c(F)c(F)c(F)c6F)c6ccc3[nH]6)C=C5)C=C4)cc2)c1
REMARK SMILES IDX 21 1 20 2 18 3 19 4 17 5 14 6 15 7 89 8 16 9 11 11 12 12
REMARK SMILES IDX 13 13 10 14 1 15 2 16 3 17 4 18 9 19 5 20 8 21 6 22 7 23
REMARK SMILES IDX 22 24 23 25 24 26 25 27 26 28 27 29 88 30 28 31 87 32 29 33
REMARK SMILES IDX 30 34 31 35 81 36 32 37 86 38 80 39 82 40 33 41 85 42 79 43
REMARK SMILES IDX 78 44 34 46 66 47 46 48 65 49 47 50 50 51 64 52 83 53 48 54
REMARK SMILES IDX 49 55 63 57 84 58 51 59 35 60 36 61 44 62 37 63 38 64 42 65
REMARK SMILES IDX 45 66 39 67 40 68 43 69 41 70 67 71 68 72 76 73 69 74 70 75
REMARK SMILES IDX 74 76 77 77 71 78 72 79 75 80 73 81 52 82 53 83 61 84 54 85
REMARK SMILES IDX 55 86 59 87 62 88 56 89 57 90 60 91 58 92
REMARK H PARENT 16 10 82 45 50 56
REMARK Flexibility Score: inf
ROOT
ATOM      1  C   UNL A   1      40.540  20.909  27.163  1.00  0.00     0.275 C 
ENDROOT
BRANCH   1   2
ATOM      2  O   UNL A   1      41.983  20.819  27.248  1.00  0.00    -0.457 OA
BRANCH   2   3
ATOM      3  C   UNL A   1      42.634  20.552  26.080  1.00  0.00     0.354 C 
ATOM      4  O   UNL A   1      42.405  19.598  25.349  1.00  0.00    -0.244 OA
BRANCH   3   5
ATOM      5  C   UNL A   1      43.564  21.610  25.739  1.00  0.00     0.126 A 
ATOM      6  C   UNL A   1      44.951  23.407  25.559  1.00  0.00     0.106 A 
ATOM      7  C   UNL A   1      44.872  22.785  24.328  1.00  0.00     0.105 A 
ATOM      8  C   UNL A   1      44.094  22.685  26.446  1.00  0.00     0.057 A 
ATOM      9  N   UNL A   1      44.165  21.632  24.496  1.00  0.00    -0.354 N 
ATOM     10  H   UNL A   1      44.095  20.914  23.825  1.00  0.00     0.166 HD
BRANCH   6  11
ATOM     11  S   UNL A   1      46.048  24.701  25.918  1.00  0.00     0.266 S 
ATOM     12  O   UNL A   1      46.161  25.396  24.648  1.00  0.00    -0.201 OA
ATOM     13  O   UNL A   1      47.194  24.003  26.468  1.00  0.00    -0.201 OA
BRANCH  11  14
ATOM     14  N   UNL A   1      45.538  25.834  27.081  1.00  0.00    -0.263 N 
ATOM     15  C   UNL A   1      47.083  25.502  29.050  1.00  0.00     0.032 C 
ATOM     16  C   UNL A   1      46.717  26.394  27.876  1.00  0.00     0.101 C 
ATOM     17  C   UNL A   1      46.308  27.808  28.326  1.00  0.00     0.063 C 
ATOM     18  C   UNL A   1      45.144  28.101  27.436  1.00  0.00    -0.021 A 
ATOM     19  C   UNL A   1      44.745  26.973  26.717  1.00  0.00     0.055 A 
ATOM     20  C   UNL A   1      44.441  29.297  27.373  1.00  0.00     0.006 A 
ATOM     21  C   UNL A   1      43.578  27.008  25.974  1.00  0.00     0.027 A 
ATOM     22  C   UNL A   1      43.293  29.349  26.587  1.00  0.00     0.000 A 
ATOM     23  C   UNL A   1      42.859  28.209  25.897  1.00  0.00     0.002 A 
ENDBRANCH  11  14
ENDBRANCH   6  11
ENDBRANCH   3   5
ENDBRANCH   2   3
ENDBRANCH   1   2
BRANCH   1  24
ATOM     24  C   UNL A   1      40.097  22.201  26.460  1.00  0.00     0.275 C 
BRANCH  24  25
ATOM     25  O   UNL A   1      39.611  23.120  27.452  1.00  0.00    -0.458 OA
BRANCH  25  26
ATOM     26  C   UNL A   1      38.870  24.151  26.970  1.00  0.00     0.338 C 
ATOM     27  O   UNL A   1      37.842  24.102  26.341  1.00  0.00    -0.246 OA
BRANCH  26  28
ATOM     28  C   UNL A   1      39.328  25.310  27.756  1.00  0.00     0.060 A 
ATOM     29  C   UNL A   1      38.946  25.519  29.084  1.00  0.00     0.016 A 
ATOM     30  C   UNL A   1      39.961  26.309  27.019  1.00  0.00     0.016 A 
ATOM     31  C   UNL A   1      39.160  26.768  29.666  1.00  0.00     0.010 A 
ATOM     32  C   UNL A   1      40.105  27.565  27.581  1.00  0.00     0.010 A 
ATOM     33  C   UNL A   1      39.709  27.808  28.902  1.00  0.00    -0.014 A 
BRANCH  33  34
ATOM     34  C   UNL A   1      39.992  29.136  29.507  1.00  0.00     0.031 A 
ATOM     35  C   UNL A   1      38.806  30.112  29.406  1.00  0.00     0.074 A 
ATOM     36  C   UNL A   1      41.227  29.322  30.069  1.00  0.00     0.049 A 
ATOM     37  N   UNL A   1      38.773  31.394  29.610  1.00  0.00    -0.248 NA
ATOM     38  C   UNL A   1      37.457  29.604  29.019  1.00  0.00     0.031 C 
ATOM     39  C   UNL A   1      42.255  28.267  30.191  1.00  0.00     0.029 A 
ATOM     40  N   UNL A   1      41.879  30.403  30.643  1.00  0.00    -0.354 N 
ATOM     41  C   UNL A   1      37.427  31.800  29.532  1.00  0.00     0.074 A 
ATOM     42  C   UNL A   1      36.659  30.662  29.148  1.00  0.00     0.031 C 
ATOM     43  C   UNL A   1      43.406  28.770  30.685  1.00  0.00     0.029 A 
ATOM     44  C   UNL A   1      43.247  30.183  30.967  1.00  0.00     0.049 A 
ATOM     45  H   UNL A   1      41.428  31.261  30.813  1.00  0.00     0.167 HD
ATOM     46  C   UNL A   1      36.993  33.052  29.835  1.00  0.00     0.037 A 
ATOM     47  C   UNL A   1      44.198  31.075  31.393  1.00  0.00     0.037 A 
ATOM     48  C   UNL A   1      38.081  33.924  30.089  1.00  0.00     0.049 A 
ATOM     49  C   UNL A   1      43.481  32.333  31.644  1.00  0.00     0.074 A 
ATOM     50  C   UNL A   1      38.990  34.505  29.246  1.00  0.00     0.029 A 
ATOM     51  N   UNL A   1      38.536  34.017  31.378  1.00  0.00    -0.354 N 
ATOM     52  N   UNL A   1      42.738  32.569  32.684  1.00  0.00    -0.248 NA
ATOM     53  C   UNL A   1      43.569  33.405  30.644  1.00  0.00     0.031 C 
ATOM     54  C   UNL A   1      40.169  34.578  30.009  1.00  0.00     0.029 A 
ATOM     55  C   UNL A   1      39.902  34.164  31.318  1.00  0.00     0.049 A 
ATOM     56  H   UNL A   1      37.989  33.984  32.195  1.00  0.00     0.167 HD
ATOM     57  C   UNL A   1      42.030  33.679  32.288  1.00  0.00     0.074 A 
ATOM     58  C   UNL A   1      42.792  34.308  31.235  1.00  0.00     0.031 C 
ATOM     59  C   UNL A   1      40.682  33.688  32.433  1.00  0.00     0.037 A 
BRANCH  46  60
ATOM     60  C   UNL A   1      35.608  33.571  30.032  1.00  0.00     0.064 A 
ATOM     61  C   UNL A   1      34.957  34.207  28.953  1.00  0.00     0.173 A 
ATOM     62  C   UNL A   1      35.051  33.751  31.303  1.00  0.00     0.173 A 
ATOM     63  F   UNL A   1      35.412  34.063  27.698  1.00  0.00    -0.203 F 
ATOM     64  C   UNL A   1      33.869  35.054  29.150  1.00  0.00     0.198 A 
ATOM     65  C   UNL A   1      33.939  34.575  31.493  1.00  0.00     0.198 A 
ATOM     66  F   UNL A   1      35.629  33.213  32.387  1.00  0.00    -0.203 F 
ATOM     67  F   UNL A   1      33.347  35.722  28.112  1.00  0.00    -0.200 F 
ATOM     68  C   UNL A   1      33.370  35.250  30.424  1.00  0.00     0.200 A 
ATOM     69  F   UNL A   1      33.457  34.767  32.730  1.00  0.00    -0.200 F 
ATOM     70  F   UNL A   1      32.363  36.111  30.626  1.00  0.00    -0.200 F 
ENDBRANCH  46  60
BRANCH  47  71
ATOM     71  C   UNL A   1      45.705  31.127  31.596  1.00  0.00     0.064 A 
ATOM     72  C   UNL A   1      46.382  31.031  32.818  1.00  0.00     0.173 A 
ATOM     73  C   UNL A   1      46.580  31.202  30.468  1.00  0.00     0.173 A 
ATOM     74  F   UNL A   1      45.727  31.085  33.981  1.00  0.00    -0.203 F 
ATOM     75  C   UNL A   1      47.784  30.895  32.895  1.00  0.00     0.198 A 
ATOM     76  C   UNL A   1      47.962  31.023  30.538  1.00  0.00     0.198 A 
ATOM     77  F   UNL A   1      46.123  31.453  29.234  1.00  0.00    -0.203 F 
ATOM     78  F   UNL A   1      48.374  30.791  34.094  1.00  0.00    -0.200 F 
ATOM     79  C   UNL A   1      48.567  30.849  31.756  1.00  0.00     0.200 A 
ATOM     80  F   UNL A   1      48.688  31.002  29.410  1.00  0.00    -0.200 F 
ATOM     81  F   UNL A   1      49.889  30.654  31.832  1.00  0.00    -0.200 F 
ENDBRANCH  47  71
BRANCH  59  82
ATOM     82  C   UNL A   1      40.195  32.802  33.553  1.00  0.00     0.064 A 
ATOM     83  C   UNL A   1      39.576  31.582  33.244  1.00  0.00     0.173 A 
ATOM     84  C   UNL A   1      40.190  33.185  34.905  1.00  0.00     0.173 A 
ATOM     85  F   UNL A   1      39.536  31.157  31.972  1.00  0.00    -0.203 F 
ATOM     86  C   UNL A   1      38.984  30.793  34.232  1.00  0.00     0.198 A 
ATOM     87  C   UNL A   1      39.609  32.393  35.897  1.00  0.00     0.198 A 
ATOM     88  F   UNL A   1      40.735  34.341  35.287  1.00  0.00    -0.203 F 
ATOM     89  F   UNL A   1      38.395  29.637  33.898  1.00  0.00    -0.200 F 
ATOM     90  C   UNL A   1      39.003  31.197  35.558  1.00  0.00     0.200 A 
ATOM     91  F   UNL A   1      39.637  32.795  37.177  1.00  0.00    -0.200 F 
ATOM     92  F   UNL A   1      38.441  30.434  36.506  1.00  0.00    -0.200 F 
ENDBRANCH  59  82
ENDBRANCH  33  34
ENDBRANCH  26  28
ENDBRANCH  25  26
ENDBRANCH  24  25
ENDBRANCH   1  24
TORSDOF 13
ENDMDL
