MODEL 1
REMARK VINA RESULT:     -12.4      0.000      0.000
REMARK SMILES CC[NH2+][C@@]1(C(=O)OCCOC(=O)c2ccc(-c3c4nc(c(-c5c(F)c(F)c(F)c(F)c5F)c5ccc([nH]5)c(-c5c(F)c(F)c(F)c(F)c5F)c5nc(c(-c6c(F)c(F)c(F)c(F)c6F)c6ccc3[nH]6)C=C5)C=C4)cc2)CC[C@H](Oc2ccc3c(c2)OCO3)C1
REMARK SMILES IDX 8 1 7 2 5 3 6 4 4 5 76 6 89 7 77 8 78 9 3 10 2 13 1 14 79 15
REMARK SMILES IDX 80 16 81 17 85 18 82 19 84 20 83 21 86 22 88 23 87 24 9 25
REMARK SMILES IDX 10 26 11 27 12 28 13 29 14 30 75 31 15 32 74 33 16 34 17 35
REMARK SMILES IDX 18 36 68 37 19 38 73 39 67 40 69 41 20 42 72 43 66 44 65 45
REMARK SMILES IDX 21 47 53 48 33 49 52 50 34 51 37 52 51 53 70 54 35 55 36 56
REMARK SMILES IDX 50 58 71 59 38 60 22 61 23 62 31 63 24 64 25 65 29 66 32 67
REMARK SMILES IDX 26 68 27 69 30 70 28 71 54 72 55 73 63 74 56 75 57 76 61 77
REMARK SMILES IDX 64 78 58 79 59 80 62 81 60 82 39 83 40 84 48 85 41 86 42 87
REMARK SMILES IDX 46 88 49 89 43 90 44 91 47 92 45 93
REMARK H PARENT 3 11 3 12 69 46 37 57
REMARK Flexibility Score: inf
ROOT
ATOM      1  C   UNL A   1      31.939  28.241  27.319  1.00  0.00     0.274 C 
ENDROOT
BRANCH   1   2
ATOM      2  O   UNL A   1      32.442  27.418  26.251  1.00  0.00    -0.457 OA
BRANCH   2   3
ATOM      3  C   UNL A   1      31.544  26.794  25.451  1.00  0.00     0.368 C 
ATOM      4  O   UNL A   1      30.402  26.510  25.800  1.00  0.00    -0.245 OA
BRANCH   3   5
ATOM      5  C   UNL A   1      32.126  26.453  24.031  1.00  0.00     0.198 C 
ATOM      6  C   UNL A   1      33.174  27.532  23.722  1.00  0.00     0.085 C 
ATOM      7  C   UNL A   1      31.149  26.637  22.856  1.00  0.00     0.126 C 
ATOM      8  C   UNL A   1      32.327  28.736  23.300  1.00  0.00     0.052 C 
ATOM      9  C   UNL A   1      31.091  28.153  22.597  1.00  0.00     0.180 C 
BRANCH   5  10
ATOM     10  N   UNL A   1      32.582  25.046  24.103  1.00  0.00    -0.332 N 
ATOM     11  H   UNL A   1      33.541  25.054  24.449  1.00  0.00     0.347 HD
ATOM     12  H   UNL A   1      31.899  24.587  24.706  1.00  0.00     0.347 HD
BRANCH  10  13
ATOM     13  C   UNL A   1      32.570  24.264  22.877  1.00  0.00     0.257 C 
ATOM     14  C   UNL A   1      33.801  23.364  22.855  1.00  0.00     0.071 C 
ENDBRANCH  10  13
ENDBRANCH   5  10
BRANCH   9  15
ATOM     15  O   UNL A   1      29.875  28.603  23.184  1.00  0.00    -0.490 OA
BRANCH  15  16
ATOM     16  C   UNL A   1      29.398  29.852  22.953  1.00  0.00     0.123 A 
ATOM     17  C   UNL A   1      29.338  30.904  23.878  1.00  0.00     0.050 A 
ATOM     18  C   UNL A   1      28.922  30.029  21.648  1.00  0.00     0.097 A 
ATOM     19  C   UNL A   1      28.795  32.140  23.506  1.00  0.00     0.054 A 
ATOM     20  C   UNL A   1      28.401  31.254  21.307  1.00  0.00     0.169 A 
ATOM     21  C   UNL A   1      28.338  32.284  22.212  1.00  0.00     0.166 A 
ATOM     22  O   UNL A   1      27.904  31.596  20.089  1.00  0.00    -0.453 OA
ATOM     23  O   UNL A   1      27.792  33.408  21.677  1.00  0.00    -0.454 OA
ATOM     24  C   UNL A   1      27.571  32.981  20.316  1.00  0.00     0.468 C 
ENDBRANCH  15  16
ENDBRANCH   9  15
ENDBRANCH   3   5
ENDBRANCH   2   3
ENDBRANCH   1   2
BRANCH   1  25
ATOM     25  C   UNL A   1      31.793  29.679  26.834  1.00  0.00     0.275 C 
BRANCH  25  26
ATOM     26  O   UNL A   1      33.080  30.185  26.446  1.00  0.00    -0.458 OA
BRANCH  26  27
ATOM     27  C   UNL A   1      33.508  31.252  27.154  1.00  0.00     0.338 C 
ATOM     28  O   UNL A   1      32.911  32.285  27.409  1.00  0.00    -0.246 OA
BRANCH  27  29
ATOM     29  C   UNL A   1      34.852  30.976  27.663  1.00  0.00     0.060 A 
ATOM     30  C   UNL A   1      35.196  29.662  27.983  1.00  0.00     0.016 A 
ATOM     31  C   UNL A   1      35.713  32.031  27.951  1.00  0.00     0.016 A 
ATOM     32  C   UNL A   1      36.370  29.405  28.682  1.00  0.00     0.010 A 
ATOM     33  C   UNL A   1      36.930  31.760  28.575  1.00  0.00     0.010 A 
ATOM     34  C   UNL A   1      37.255  30.449  28.978  1.00  0.00    -0.014 A 
BRANCH  34  35
ATOM     35  C   UNL A   1      38.503  30.208  29.742  1.00  0.00     0.031 A 
ATOM     36  C   UNL A   1      39.567  29.324  29.157  1.00  0.00     0.074 A 
ATOM     37  C   UNL A   1      38.676  30.747  30.963  1.00  0.00     0.049 A 
ATOM     38  N   UNL A   1      40.577  28.738  29.744  1.00  0.00    -0.248 NA
ATOM     39  C   UNL A   1      39.470  29.050  27.713  1.00  0.00     0.031 C 
ATOM     40  C   UNL A   1      37.763  31.685  31.616  1.00  0.00     0.029 A 
ATOM     41  N   UNL A   1      39.681  30.567  31.880  1.00  0.00    -0.354 N 
ATOM     42  C   UNL A   1      41.196  27.978  28.761  1.00  0.00     0.074 A 
ATOM     43  C   UNL A   1      40.459  28.188  27.533  1.00  0.00     0.031 C 
ATOM     44  C   UNL A   1      38.252  32.005  32.824  1.00  0.00     0.029 A 
ATOM     45  C   UNL A   1      39.462  31.227  33.064  1.00  0.00     0.049 A 
ATOM     46  H   UNL A   1      40.480  30.019  31.707  1.00  0.00     0.167 HD
ATOM     47  C   UNL A   1      42.273  27.167  28.886  1.00  0.00     0.037 A 
ATOM     48  C   UNL A   1      40.128  31.166  34.233  1.00  0.00     0.037 A 
ATOM     49  C   UNL A   1      43.024  27.005  30.103  1.00  0.00     0.049 A 
ATOM     50  C   UNL A   1      41.300  30.235  34.358  1.00  0.00     0.074 A 
ATOM     51  C   UNL A   1      44.116  26.191  30.347  1.00  0.00     0.029 A 
ATOM     52  N   UNL A   1      42.767  27.695  31.279  1.00  0.00    -0.354 N 
ATOM     53  N   UNL A   1      41.823  29.438  33.458  1.00  0.00    -0.248 NA
ATOM     54  C   UNL A   1      41.962  30.176  35.670  1.00  0.00     0.031 C 
ATOM     55  C   UNL A   1      44.511  26.375  31.677  1.00  0.00     0.029 A 
ATOM     56  C   UNL A   1      43.684  27.329  32.250  1.00  0.00     0.049 A 
ATOM     57  H   UNL A   1      42.042  28.348  31.404  1.00  0.00     0.167 HD
ATOM     58  C   UNL A   1      42.879  28.795  34.085  1.00  0.00     0.074 A 
ATOM     59  C   UNL A   1      42.931  29.301  35.442  1.00  0.00     0.031 C 
ATOM     60  C   UNL A   1      43.726  27.864  33.585  1.00  0.00     0.037 A 
BRANCH  47  61
ATOM     61  C   UNL A   1      42.679  26.362  27.688  1.00  0.00     0.064 A 
ATOM     62  C   UNL A   1      43.671  26.800  26.802  1.00  0.00     0.173 A 
ATOM     63  C   UNL A   1      42.085  25.113  27.446  1.00  0.00     0.173 A 
ATOM     64  F   UNL A   1      44.256  27.995  26.980  1.00  0.00    -0.203 F 
ATOM     65  C   UNL A   1      44.044  26.025  25.706  1.00  0.00     0.198 A 
ATOM     66  C   UNL A   1      42.477  24.330  26.364  1.00  0.00     0.198 A 
ATOM     67  F   UNL A   1      41.132  24.647  28.268  1.00  0.00    -0.203 F 
ATOM     68  F   UNL A   1      44.969  26.479  24.850  1.00  0.00    -0.200 F 
ATOM     69  C   UNL A   1      43.452  24.789  25.492  1.00  0.00     0.200 A 
ATOM     70  F   UNL A   1      41.909  23.133  26.164  1.00  0.00    -0.200 F 
ATOM     71  F   UNL A   1      43.817  24.042  24.441  1.00  0.00    -0.200 F 
ENDBRANCH  47  61
BRANCH  48  72
ATOM     72  C   UNL A   1      39.663  31.976  35.386  1.00  0.00     0.064 A 
ATOM     73  C   UNL A   1      40.149  33.274  35.593  1.00  0.00     0.173 A 
ATOM     74  C   UNL A   1      38.711  31.482  36.290  1.00  0.00     0.173 A 
ATOM     75  F   UNL A   1      41.079  33.780  34.771  1.00  0.00    -0.203 F 
ATOM     76  C   UNL A   1      39.702  34.046  36.665  1.00  0.00     0.198 A 
ATOM     77  C   UNL A   1      38.246  32.264  37.345  1.00  0.00     0.198 A 
ATOM     78  F   UNL A   1      38.217  30.244  36.135  1.00  0.00    -0.203 F 
ATOM     79  F   UNL A   1      40.205  35.272  36.860  1.00  0.00    -0.200 F 
ATOM     80  C   UNL A   1      38.745  33.543  37.534  1.00  0.00     0.200 A 
ATOM     81  F   UNL A   1      37.312  31.778  38.174  1.00  0.00    -0.200 F 
ATOM     82  F   UNL A   1      38.307  34.290  38.556  1.00  0.00    -0.200 F 
ENDBRANCH  48  72
BRANCH  60  83
ATOM     83  C   UNL A   1      44.811  27.370  34.492  1.00  0.00     0.064 A 
ATOM     84  C   UNL A   1      44.636  26.231  35.288  1.00  0.00     0.173 A 
ATOM     85  C   UNL A   1      46.055  28.016  34.520  1.00  0.00     0.173 A 
ATOM     86  F   UNL A   1      43.457  25.591  35.302  1.00  0.00    -0.203 F 
ATOM     87  C   UNL A   1      45.670  25.760  36.091  1.00  0.00     0.198 A 
ATOM     88  C   UNL A   1      47.092  27.533  35.311  1.00  0.00     0.198 A 
ATOM     89  F   UNL A   1      46.267  29.109  33.771  1.00  0.00    -0.203 F 
ATOM     90  F   UNL A   1      45.477  24.684  36.867  1.00  0.00    -0.200 F 
ATOM     91  C   UNL A   1      46.898  26.407  36.098  1.00  0.00     0.200 A 
ATOM     92  F   UNL A   1      48.279  28.154  35.311  1.00  0.00    -0.200 F 
ATOM     93  F   UNL A   1      47.894  25.948  36.868  1.00  0.00    -0.200 F 
ENDBRANCH  60  83
ENDBRANCH  34  35
ENDBRANCH  27  29
ENDBRANCH  26  27
ENDBRANCH  25  26
ENDBRANCH   1  25
TORSDOF 15
ENDMDL
MODEL 2
REMARK VINA RESULT:     -12.3      0.396      1.641
REMARK SMILES CC[NH2+][C@@]1(C(=O)OCCOC(=O)c2ccc(-c3c4nc(c(-c5c(F)c(F)c(F)c(F)c5F)c5ccc([nH]5)c(-c5c(F)c(F)c(F)c(F)c5F)c5nc(c(-c6c(F)c(F)c(F)c(F)c6F)c6ccc3[nH]6)C=C5)C=C4)cc2)CC[C@H](Oc2ccc3c(c2)OCO3)C1
REMARK SMILES IDX 8 1 7 2 5 3 6 4 4 5 76 6 89 7 77 8 78 9 3 10 2 13 1 14 79 15
REMARK SMILES IDX 80 16 81 17 85 18 82 19 84 20 83 21 86 22 88 23 87 24 9 25
REMARK SMILES IDX 10 26 11 27 12 28 13 29 14 30 75 31 15 32 74 33 16 34 17 35
REMARK SMILES IDX 18 36 68 37 19 38 73 39 67 40 69 41 20 42 72 43 66 44 65 45
REMARK SMILES IDX 21 47 53 48 33 49 52 50 34 51 37 52 51 53 70 54 35 55 36 56
REMARK SMILES IDX 50 58 71 59 38 60 22 61 23 62 31 63 24 64 25 65 29 66 32 67
REMARK SMILES IDX 26 68 27 69 30 70 28 71 54 72 55 73 63 74 56 75 57 76 61 77
REMARK SMILES IDX 64 78 58 79 59 80 62 81 60 82 39 83 40 84 48 85 41 86 42 87
REMARK SMILES IDX 46 88 49 89 43 90 44 91 47 92 45 93
REMARK H PARENT 3 11 3 12 69 46 37 57
REMARK Flexibility Score: inf
ROOT
ATOM      1  C   UNL A   1      31.828  28.234  27.243  1.00  0.00     0.274 C 
ENDROOT
BRANCH   1   2
ATOM      2  O   UNL A   1      32.391  27.414  26.203  1.00  0.00    -0.457 OA
BRANCH   2   3
ATOM      3  C   UNL A   1      31.540  26.724  25.404  1.00  0.00     0.368 C 
ATOM      4  O   UNL A   1      30.406  26.394  25.740  1.00  0.00    -0.245 OA
BRANCH   3   5
ATOM      5  C   UNL A   1      32.166  26.375  24.004  1.00  0.00     0.198 C 
ATOM      6  C   UNL A   1      33.194  27.475  23.703  1.00  0.00     0.085 C 
ATOM      7  C   UNL A   1      31.213  26.514  22.803  1.00  0.00     0.126 C 
ATOM      8  C   UNL A   1      32.328  28.650  23.240  1.00  0.00     0.052 C 
ATOM      9  C   UNL A   1      31.125  28.024  22.517  1.00  0.00     0.180 C 
BRANCH   5  10
ATOM     10  N   UNL A   1      32.655  24.982  24.112  1.00  0.00    -0.332 N 
ATOM     11  H   UNL A   1      32.096  24.517  24.828  1.00  0.00     0.347 HD
ATOM     12  H   UNL A   1      32.564  24.605  23.169  1.00  0.00     0.347 HD
BRANCH  10  13
ATOM     13  C   UNL A   1      34.053  24.777  24.454  1.00  0.00     0.257 C 
ATOM     14  C   UNL A   1      34.134  23.900  25.698  1.00  0.00     0.071 C 
ENDBRANCH  10  13
ENDBRANCH   5  10
BRANCH   9  15
ATOM     15  O   UNL A   1      29.884  28.453  23.066  1.00  0.00    -0.490 OA
BRANCH  15  16
ATOM     16  C   UNL A   1      29.442  29.727  22.906  1.00  0.00     0.123 A 
ATOM     17  C   UNL A   1      29.482  30.747  23.866  1.00  0.00     0.050 A 
ATOM     18  C   UNL A   1      28.891  29.964  21.641  1.00  0.00     0.097 A 
ATOM     19  C   UNL A   1      28.964  32.015  23.569  1.00  0.00     0.054 A 
ATOM     20  C   UNL A   1      28.398  31.219  21.373  1.00  0.00     0.169 A 
ATOM     21  C   UNL A   1      28.432  32.219  22.312  1.00  0.00     0.166 A 
ATOM     22  O   UNL A   1      27.837  31.620  20.201  1.00  0.00    -0.453 OA
ATOM     23  O   UNL A   1      27.897  33.380  21.849  1.00  0.00    -0.454 OA
ATOM     24  C   UNL A   1      27.574  33.007  20.493  1.00  0.00     0.468 C 
ENDBRANCH  15  16
ENDBRANCH   9  15
ENDBRANCH   3   5
ENDBRANCH   2   3
ENDBRANCH   1   2
BRANCH   1  25
ATOM     25  C   UNL A   1      31.764  29.684  26.775  1.00  0.00     0.275 C 
BRANCH  25  26
ATOM     26  O   UNL A   1      33.086  30.136  26.441  1.00  0.00    -0.458 OA
BRANCH  26  27
ATOM     27  C   UNL A   1      33.510  31.215  27.134  1.00  0.00     0.338 C 
ATOM     28  O   UNL A   1      32.909  32.251  27.370  1.00  0.00    -0.246 OA
BRANCH  27  29
ATOM     29  C   UNL A   1      34.851  30.949  27.653  1.00  0.00     0.060 A 
ATOM     30  C   UNL A   1      35.206  29.637  27.965  1.00  0.00     0.016 A 
ATOM     31  C   UNL A   1      35.698  32.012  27.957  1.00  0.00     0.016 A 
ATOM     32  C   UNL A   1      36.378  29.387  28.672  1.00  0.00     0.010 A 
ATOM     33  C   UNL A   1      36.913  31.748  28.590  1.00  0.00     0.010 A 
ATOM     34  C   UNL A   1      37.248  30.438  28.985  1.00  0.00    -0.014 A 
BRANCH  34  35
ATOM     35  C   UNL A   1      38.492  30.204  29.759  1.00  0.00     0.031 A 
ATOM     36  C   UNL A   1      39.561  29.317  29.187  1.00  0.00     0.074 A 
ATOM     37  C   UNL A   1      38.657  30.753  30.976  1.00  0.00     0.049 A 
ATOM     38  N   UNL A   1      40.568  28.737  29.785  1.00  0.00    -0.248 NA
ATOM     39  C   UNL A   1      39.472  29.033  27.745  1.00  0.00     0.031 C 
ATOM     40  C   UNL A   1      37.738  31.694  31.617  1.00  0.00     0.029 A 
ATOM     41  N   UNL A   1      39.656  30.581  31.901  1.00  0.00    -0.354 N 
ATOM     42  C   UNL A   1      41.193  27.970  28.811  1.00  0.00     0.074 A 
ATOM     43  C   UNL A   1      40.464  28.170  27.577  1.00  0.00     0.031 C 
ATOM     44  C   UNL A   1      38.220  32.024  32.825  1.00  0.00     0.029 A 
ATOM     45  C   UNL A   1      39.429  31.249  33.079  1.00  0.00     0.049 A 
ATOM     46  H   UNL A   1      40.457  30.032  31.737  1.00  0.00     0.167 HD
ATOM     47  C   UNL A   1      42.271  27.162  28.949  1.00  0.00     0.037 A 
ATOM     48  C   UNL A   1      40.087  31.197  34.252  1.00  0.00     0.037 A 
ATOM     49  C   UNL A   1      43.014  27.010  30.171  1.00  0.00     0.049 A 
ATOM     50  C   UNL A   1      41.261  30.269  34.392  1.00  0.00     0.074 A 
ATOM     51  C   UNL A   1      44.106  26.199  30.428  1.00  0.00     0.029 A 
ATOM     52  N   UNL A   1      42.750  27.708  31.340  1.00  0.00    -0.354 N 
ATOM     53  N   UNL A   1      41.790  29.466  33.501  1.00  0.00    -0.248 NA
ATOM     54  C   UNL A   1      41.914  30.221  35.708  1.00  0.00     0.031 C 
ATOM     55  C   UNL A   1      44.492  26.394  31.759  1.00  0.00     0.029 A 
ATOM     56  C   UNL A   1      43.661  27.350  32.319  1.00  0.00     0.049 A 
ATOM     57  H   UNL A   1      42.023  28.361  31.456  1.00  0.00     0.167 HD
ATOM     58  C   UNL A   1      42.843  28.829  34.139  1.00  0.00     0.074 A 
ATOM     59  C   UNL A   1      42.886  29.345  35.493  1.00  0.00     0.031 C 
ATOM     60  C   UNL A   1      43.694  27.896  33.651  1.00  0.00     0.037 A 
BRANCH  47  61
ATOM     61  C   UNL A   1      42.685  26.349  27.759  1.00  0.00     0.064 A 
ATOM     62  C   UNL A   1      42.106  25.105  27.474  1.00  0.00     0.173 A 
ATOM     63  C   UNL A   1      43.654  26.843  26.871  1.00  0.00     0.173 A 
ATOM     64  F   UNL A   1      41.189  24.581  28.301  1.00  0.00    -0.203 F 
ATOM     65  C   UNL A   1      42.495  24.376  26.352  1.00  0.00     0.198 A 
ATOM     66  C   UNL A   1      44.022  26.123  25.739  1.00  0.00     0.198 A 
ATOM     67  F   UNL A   1      44.235  28.030  27.099  1.00  0.00    -0.203 F 
ATOM     68  F   UNL A   1      41.955  23.172  26.117  1.00  0.00    -0.200 F 
ATOM     69  C   UNL A   1      43.447  24.888  25.483  1.00  0.00     0.200 A 
ATOM     70  F   UNL A   1      44.936  26.624  24.896  1.00  0.00    -0.200 F 
ATOM     71  F   UNL A   1      43.814  24.189  24.400  1.00  0.00    -0.200 F 
ENDBRANCH  47  61
BRANCH  48  72
ATOM     72  C   UNL A   1      39.615  32.016  35.397  1.00  0.00     0.064 A 
ATOM     73  C   UNL A   1      38.644  31.523  36.279  1.00  0.00     0.173 A 
ATOM     74  C   UNL A   1      40.137  33.293  35.646  1.00  0.00     0.173 A 
ATOM     75  F   UNL A   1      38.096  30.318  36.066  1.00  0.00    -0.203 F 
ATOM     76  C   UNL A   1      38.210  32.280  37.365  1.00  0.00     0.198 A 
ATOM     77  C   UNL A   1      39.723  34.038  36.747  1.00  0.00     0.198 A 
ATOM     78  F   UNL A   1      41.068  33.809  34.829  1.00  0.00    -0.203 F 
ATOM     79  F   UNL A   1      37.258  31.801  38.176  1.00  0.00    -0.200 F 
ATOM     80  C   UNL A   1      38.756  33.533  37.604  1.00  0.00     0.200 A 
ATOM     81  F   UNL A   1      40.262  35.243  36.980  1.00  0.00    -0.200 F 
ATOM     82  F   UNL A   1      38.348  34.256  38.655  1.00  0.00    -0.200 F 
ENDBRANCH  48  72
BRANCH  60  83
ATOM     83  C   UNL A   1      44.774  27.410  34.568  1.00  0.00     0.064 A 
ATOM     84  C   UNL A   1      44.596  26.276  35.371  1.00  0.00     0.173 A 
ATOM     85  C   UNL A   1      46.017  28.057  34.599  1.00  0.00     0.173 A 
ATOM     86  F   UNL A   1      43.418  25.635  35.383  1.00  0.00    -0.203 F 
ATOM     87  C   UNL A   1      45.626  25.813  36.185  1.00  0.00     0.198 A 
ATOM     88  C   UNL A   1      47.050  27.581  35.400  1.00  0.00     0.198 A 
ATOM     89  F   UNL A   1      46.232  29.145  33.843  1.00  0.00    -0.203 F 
ATOM     90  F   UNL A   1      45.429  24.743  36.968  1.00  0.00    -0.200 F 
ATOM     91  C   UNL A   1      46.853  26.462  36.194  1.00  0.00     0.200 A 
ATOM     92  F   UNL A   1      48.237  28.204  35.402  1.00  0.00    -0.200 F 
ATOM     93  F   UNL A   1      47.844  26.009  36.973  1.00  0.00    -0.200 F 
ENDBRANCH  60  83
ENDBRANCH  34  35
ENDBRANCH  27  29
ENDBRANCH  26  27
ENDBRANCH  25  26
ENDBRANCH   1  25
TORSDOF 15
ENDMDL
MODEL 3
REMARK VINA RESULT:     -12.1      5.108     10.653
REMARK SMILES CC[NH2+][C@@]1(C(=O)OCCOC(=O)c2ccc(-c3c4nc(c(-c5c(F)c(F)c(F)c(F)c5F)c5ccc([nH]5)c(-c5c(F)c(F)c(F)c(F)c5F)c5nc(c(-c6c(F)c(F)c(F)c(F)c6F)c6ccc3[nH]6)C=C5)C=C4)cc2)CC[C@H](Oc2ccc3c(c2)OCO3)C1
REMARK SMILES IDX 8 1 7 2 5 3 6 4 4 5 76 6 89 7 77 8 78 9 3 10 2 13 1 14 79 15
REMARK SMILES IDX 80 16 81 17 85 18 82 19 84 20 83 21 86 22 88 23 87 24 9 25
REMARK SMILES IDX 10 26 11 27 12 28 13 29 14 30 75 31 15 32 74 33 16 34 17 35
REMARK SMILES IDX 18 36 68 37 19 38 73 39 67 40 69 41 20 42 72 43 66 44 65 45
REMARK SMILES IDX 21 47 53 48 33 49 52 50 34 51 37 52 51 53 70 54 35 55 36 56
REMARK SMILES IDX 50 58 71 59 38 60 22 61 23 62 31 63 24 64 25 65 29 66 32 67
REMARK SMILES IDX 26 68 27 69 30 70 28 71 54 72 55 73 63 74 56 75 57 76 61 77
REMARK SMILES IDX 64 78 58 79 59 80 62 81 60 82 39 83 40 84 48 85 41 86 42 87
REMARK SMILES IDX 46 88 49 89 43 90 44 91 47 92 45 93
REMARK H PARENT 3 11 3 12 69 46 37 57
REMARK Flexibility Score: inf
ROOT
ATOM      1  C   UNL A   1      36.616  22.948  23.548  1.00  0.00     0.274 C 
ENDROOT
BRANCH   1   2
ATOM      2  O   UNL A   1      35.498  23.543  24.233  1.00  0.00    -0.457 OA
BRANCH   2   3
ATOM      3  C   UNL A   1      34.252  23.269  23.775  1.00  0.00     0.368 C 
ATOM      4  O   UNL A   1      34.005  22.958  22.613  1.00  0.00    -0.245 OA
BRANCH   3   5
ATOM      5  C   UNL A   1      33.149  23.409  24.887  1.00  0.00     0.198 C 
ATOM      6  C   UNL A   1      33.838  23.091  26.222  1.00  0.00     0.085 C 
ATOM      7  C   UNL A   1      32.043  22.340  24.857  1.00  0.00     0.126 C 
ATOM      8  C   UNL A   1      33.920  21.562  26.222  1.00  0.00     0.052 C 
ATOM      9  C   UNL A   1      32.669  21.076  25.473  1.00  0.00     0.180 C 
BRANCH   5  10
ATOM     10  N   UNL A   1      32.564  24.758  24.715  1.00  0.00    -0.332 N 
ATOM     11  H   UNL A   1      33.274  25.436  24.991  1.00  0.00     0.347 HD
ATOM     12  H   UNL A   1      32.281  24.790  23.735  1.00  0.00     0.347 HD
BRANCH  10  13
ATOM     13  C   UNL A   1      31.353  25.073  25.455  1.00  0.00     0.257 C 
ATOM     14  C   UNL A   1      31.651  26.207  26.429  1.00  0.00     0.071 C 
ENDBRANCH  10  13
ENDBRANCH   5  10
BRANCH   9  15
ATOM     15  O   UNL A   1      32.993  20.228  24.378  1.00  0.00    -0.490 OA
BRANCH  15  16
ATOM     16  C   UNL A   1      33.431  18.958  24.572  1.00  0.00     0.123 A 
ATOM     17  C   UNL A   1      34.742  18.493  24.392  1.00  0.00     0.050 A 
ATOM     18  C   UNL A   1      32.417  18.080  24.973  1.00  0.00     0.097 A 
ATOM     19  C   UNL A   1      35.046  17.142  24.608  1.00  0.00     0.054 A 
ATOM     20  C   UNL A   1      32.745  16.762  25.184  1.00  0.00     0.169 A 
ATOM     21  C   UNL A   1      34.026  16.304  25.006  1.00  0.00     0.166 A 
ATOM     22  O   UNL A   1      31.889  15.783  25.580  1.00  0.00    -0.453 OA
ATOM     23  O   UNL A   1      34.140  14.975  25.268  1.00  0.00    -0.454 OA
ATOM     24  C   UNL A   1      32.793  14.664  25.684  1.00  0.00     0.468 C 
ENDBRANCH  15  16
ENDBRANCH   9  15
ENDBRANCH   3   5
ENDBRANCH   2   3
ENDBRANCH   1   2
BRANCH   1  25
ATOM     25  C   UNL A   1      37.029  21.664  24.260  1.00  0.00     0.275 C 
BRANCH  25  26
ATOM     26  O   UNL A   1      37.370  21.963  25.624  1.00  0.00    -0.458 OA
BRANCH  26  27
ATOM     27  C   UNL A   1      38.628  21.630  25.980  1.00  0.00     0.338 C 
ATOM     28  O   UNL A   1      39.218  20.578  25.796  1.00  0.00    -0.246 OA
BRANCH  27  29
ATOM     29  C   UNL A   1      39.265  22.787  26.610  1.00  0.00     0.060 A 
ATOM     30  C   UNL A   1      38.816  24.066  26.283  1.00  0.00     0.016 A 
ATOM     31  C   UNL A   1      40.389  22.606  27.412  1.00  0.00     0.016 A 
ATOM     32  C   UNL A   1      39.548  25.180  26.681  1.00  0.00     0.010 A 
ATOM     33  C   UNL A   1      41.071  23.728  27.882  1.00  0.00     0.010 A 
ATOM     34  C   UNL A   1      40.678  25.024  27.492  1.00  0.00    -0.014 A 
BRANCH  34  35
ATOM     35  C   UNL A   1      41.491  26.192  27.913  1.00  0.00     0.031 A 
ATOM     36  C   UNL A   1      40.860  27.267  28.750  1.00  0.00     0.074 A 
ATOM     37  C   UNL A   1      42.775  26.309  27.526  1.00  0.00     0.049 A 
ATOM     38  N   UNL A   1      41.265  28.489  28.978  1.00  0.00    -0.248 NA
ATOM     39  C   UNL A   1      39.589  26.922  29.409  1.00  0.00     0.031 C 
ATOM     40  C   UNL A   1      43.534  25.306  26.781  1.00  0.00     0.029 A 
ATOM     41  N   UNL A   1      43.664  27.342  27.697  1.00  0.00    -0.354 N 
ATOM     42  C   UNL A   1      40.272  29.077  29.749  1.00  0.00     0.074 A 
ATOM     43  C   UNL A   1      39.251  28.075  29.967  1.00  0.00     0.031 C 
ATOM     44  C   UNL A   1      44.777  25.766  26.566  1.00  0.00     0.029 A 
ATOM     45  C   UNL A   1      44.870  27.129  27.078  1.00  0.00     0.049 A 
ATOM     46  H   UNL A   1      43.457  28.154  28.213  1.00  0.00     0.167 HD
ATOM     47  C   UNL A   1      40.219  30.347  30.216  1.00  0.00     0.037 A 
ATOM     48  C   UNL A   1      45.913  27.960  26.890  1.00  0.00     0.037 A 
ATOM     49  C   UNL A   1      41.264  31.318  30.032  1.00  0.00     0.049 A 
ATOM     50  C   UNL A   1      45.819  29.374  27.388  1.00  0.00     0.074 A 
ATOM     51  C   UNL A   1      41.303  32.640  30.441  1.00  0.00     0.029 A 
ATOM     52  N   UNL A   1      42.471  31.059  29.399  1.00  0.00    -0.354 N 
ATOM     53  N   UNL A   1      44.837  29.961  28.028  1.00  0.00    -0.248 NA
ATOM     54  C   UNL A   1      46.969  30.249  27.117  1.00  0.00     0.031 C 
ATOM     55  C   UNL A   1      42.528  33.186  30.040  1.00  0.00     0.029 A 
ATOM     56  C   UNL A   1      43.264  32.195  29.411  1.00  0.00     0.049 A 
ATOM     57  H   UNL A   1      42.727  30.196  29.000  1.00  0.00     0.167 HD
ATOM     58  C   UNL A   1      45.252  31.267  28.249  1.00  0.00     0.074 A 
ATOM     59  C   UNL A   1      46.581  31.384  27.682  1.00  0.00     0.031 C 
ATOM     60  C   UNL A   1      44.590  32.278  28.859  1.00  0.00     0.037 A 
BRANCH  47  61
ATOM     61  C   UNL A   1      38.974  30.771  30.935  1.00  0.00     0.064 A 
ATOM     62  C   UNL A   1      37.864  31.287  30.254  1.00  0.00     0.173 A 
ATOM     63  C   UNL A   1      38.882  30.625  32.329  1.00  0.00     0.173 A 
ATOM     64  F   UNL A   1      37.909  31.463  28.925  1.00  0.00    -0.203 F 
ATOM     65  C   UNL A   1      36.711  31.656  30.943  1.00  0.00     0.198 A 
ATOM     66  C   UNL A   1      37.720  30.972  33.011  1.00  0.00     0.198 A 
ATOM     67  F   UNL A   1      39.916  30.133  33.026  1.00  0.00    -0.203 F 
ATOM     68  F   UNL A   1      35.673  32.182  30.277  1.00  0.00    -0.200 F 
ATOM     69  C   UNL A   1      36.637  31.493  32.319  1.00  0.00     0.200 A 
ATOM     70  F   UNL A   1      37.648  30.806  34.339  1.00  0.00    -0.200 F 
ATOM     71  F   UNL A   1      35.525  31.843  32.979  1.00  0.00    -0.200 F 
ENDBRANCH  47  61
BRANCH  48  72
ATOM     72  C   UNL A   1      47.110  27.482  26.154  1.00  0.00     0.064 A 
ATOM     73  C   UNL A   1      47.193  27.609  24.761  1.00  0.00     0.173 A 
ATOM     74  C   UNL A   1      48.201  26.912  26.826  1.00  0.00     0.173 A 
ATOM     75  F   UNL A   1      46.164  28.123  24.072  1.00  0.00    -0.203 F 
ATOM     76  C   UNL A   1      48.323  27.178  24.067  1.00  0.00     0.198 A 
ATOM     77  C   UNL A   1      49.340  26.507  26.134  1.00  0.00     0.198 A 
ATOM     78  F   UNL A   1      48.168  26.769  28.159  1.00  0.00    -0.203 F 
ATOM     79  F   UNL A   1      48.366  27.280  22.732  1.00  0.00    -0.200 F 
ATOM     80  C   UNL A   1      49.399  26.636  24.755  1.00  0.00     0.200 A 
ATOM     81  F   UNL A   1      50.382  25.996  26.805  1.00  0.00    -0.200 F 
ATOM     82  F   UNL A   1      50.489  26.234  24.089  1.00  0.00    -0.200 F 
ENDBRANCH  48  72
BRANCH  60  83
ATOM     83  C   UNL A   1      45.311  33.583  28.991  1.00  0.00     0.064 A 
ATOM     84  C   UNL A   1      46.156  33.846  30.078  1.00  0.00     0.173 A 
ATOM     85  C   UNL A   1      45.196  34.557  27.989  1.00  0.00     0.173 A 
ATOM     86  F   UNL A   1      46.284  32.948  31.066  1.00  0.00    -0.203 F 
ATOM     87  C   UNL A   1      46.853  35.048  30.162  1.00  0.00     0.198 A 
ATOM     88  C   UNL A   1      45.908  35.750  28.068  1.00  0.00     0.198 A 
ATOM     89  F   UNL A   1      44.401  34.346  26.930  1.00  0.00    -0.203 F 
ATOM     90  F   UNL A   1      47.636  35.293  31.222  1.00  0.00    -0.200 F 
ATOM     91  C   UNL A   1      46.734  35.995  29.154  1.00  0.00     0.200 A 
ATOM     92  F   UNL A   1      45.797  36.661  27.091  1.00  0.00    -0.200 F 
ATOM     93  F   UNL A   1      47.411  37.148  29.235  1.00  0.00    -0.200 F 
ENDBRANCH  60  83
ENDBRANCH  34  35
ENDBRANCH  27  29
ENDBRANCH  26  27
ENDBRANCH  25  26
ENDBRANCH   1  25
TORSDOF 15
ENDMDL
