MODEL 1
REMARK VINA RESULT:     -11.3      0.000      0.000
REMARK SMILES O=C(N[C@@H](CS)C(=O)N[C@@H](CO)C(=O)OCCOC(=O)c1ccc(-c2c3nc(c(-c4c(F)c(F)c(F)c(F)c4F)c4ccc([nH]4)c(-c4c(F)c(F)c(F)c(F)c4F)c4nc(c(-c5c(F)c(F)c(F)c(F)c5F)c5ccc2[nH]5)C=C4)C=C3)cc1)c1ccc(F)cc1
REMARK SMILES IDX 16 1 15 2 13 3 14 4 10 5 9 6 7 7 8 8 4 10 3 11 1 12 2 13
REMARK SMILES IDX 84 15 85 16 90 17 86 18 89 19 87 20 88 21 5 22 6 23 11 25
REMARK SMILES IDX 12 26 17 28 18 29 19 30 20 31 21 32 22 33 83 34 23 35 82 36
REMARK SMILES IDX 24 37 25 38 26 39 76 40 27 41 81 42 75 43 77 44 28 45 80 46
REMARK SMILES IDX 74 47 73 48 29 50 61 51 41 52 60 53 42 54 45 55 59 56 78 57
REMARK SMILES IDX 43 58 44 59 58 61 79 62 46 63 30 64 31 65 39 66 32 67 33 68
REMARK SMILES IDX 37 69 40 70 34 71 35 72 38 73 36 74 62 75 63 76 71 77 64 78
REMARK SMILES IDX 65 79 69 80 72 81 66 82 67 83 70 84 68 85 47 86 48 87 56 88
REMARK SMILES IDX 49 89 50 90 54 91 57 92 51 93 52 94 55 95 53 96
REMARK H PARENT 9 9 3 14 6 24 12 27 77 49 45 60
REMARK Flexibility Score: inf
ROOT
ATOM      1  C   UNL A   1      32.402  29.033  24.684  1.00  0.00     0.274 C 
ENDROOT
BRANCH   1   2
ATOM      2  O   UNL A   1      31.949  27.678  24.894  1.00  0.00    -0.460 OA
BRANCH   2   3
ATOM      3  C   UNL A   1      32.892  26.769  25.281  1.00  0.00     0.331 C 
ATOM      4  O   UNL A   1      34.062  27.035  25.533  1.00  0.00    -0.250 OA
BRANCH   3   5
ATOM      5  C   UNL A   1      32.352  25.327  25.230  1.00  0.00     0.218 C 
BRANCH   5   6
ATOM      6  N   UNL A   1      32.878  24.483  26.312  1.00  0.00    -0.339 N 
ATOM      7  C   UNL A   1      33.239  23.182  26.406  1.00  0.00     0.244 C 
ATOM      8  O   UNL A   1      33.857  22.874  27.435  1.00  0.00    -0.273 OA
ATOM      9  H   UNL A   1      32.993  24.974  27.158  1.00  0.00     0.164 HD
BRANCH   7  10
ATOM     10  C   UNL A   1      33.068  22.120  25.297  1.00  0.00     0.181 C 
BRANCH  10  11
ATOM     11  N   UNL A   1      33.483  22.496  23.938  1.00  0.00    -0.339 N 
ATOM     12  O   UNL A   1      34.824  23.415  22.387  1.00  0.00    -0.269 OA
ATOM     13  C   UNL A   1      34.726  22.889  23.493  1.00  0.00     0.251 C 
ATOM     14  H   UNL A   1      32.776  22.461  23.254  1.00  0.00     0.164 HD
BRANCH  13  15
ATOM     15  C   UNL A   1      35.929  22.758  24.352  1.00  0.00     0.040 A 
ATOM     16  C   UNL A   1      36.683  21.578  24.372  1.00  0.00     0.017 A 
ATOM     17  C   UNL A   1      36.342  23.860  25.117  1.00  0.00     0.017 A 
ATOM     18  C   UNL A   1      37.797  21.474  25.207  1.00  0.00     0.040 A 
ATOM     19  C   UNL A   1      37.470  23.758  25.938  1.00  0.00     0.040 A 
ATOM     20  C   UNL A   1      38.178  22.562  25.985  1.00  0.00     0.123 A 
ATOM     21  F   UNL A   1      39.253  22.460  26.776  1.00  0.00    -0.207 F 
ENDBRANCH  13  15
ENDBRANCH  10  11
BRANCH  10  22
ATOM     22  C   UNL A   1      33.615  20.765  25.773  1.00  0.00     0.101 C 
BRANCH  22  23
ATOM     23  S   UNL A   1      33.387  19.425  24.579  1.00  0.00    -0.177 SA
ATOM     24  H   UNL A   1      33.645  19.886  23.325  1.00  0.00     0.102 HD
ENDBRANCH  22  23
ENDBRANCH  10  22
ENDBRANCH   7  10
ENDBRANCH   5   6
BRANCH   5  25
ATOM     25  C   UNL A   1      30.821  25.417  25.329  1.00  0.00     0.193 C 
BRANCH  25  26
ATOM     26  O   UNL A   1      30.411  25.855  26.627  1.00  0.00    -0.394 OA
ATOM     27  H   UNL A   1      29.568  25.435  26.859  1.00  0.00     0.210 HD
ENDBRANCH  25  26
ENDBRANCH   5  25
ENDBRANCH   3   5
ENDBRANCH   2   3
ENDBRANCH   1   2
BRANCH   1  28
ATOM     28  C   UNL A   1      31.613  30.003  25.557  1.00  0.00     0.275 C 
BRANCH  28  29
ATOM     29  O   UNL A   1      32.223  30.059  26.858  1.00  0.00    -0.458 OA
BRANCH  29  30
ATOM     30  C   UNL A   1      32.878  31.199  27.164  1.00  0.00     0.338 C 
ATOM     31  O   UNL A   1      32.382  32.320  27.264  1.00  0.00    -0.246 OA
BRANCH  30  32
ATOM     32  C   UNL A   1      34.306  30.924  27.450  1.00  0.00     0.060 A 
ATOM     33  C   UNL A   1      34.780  29.619  27.528  1.00  0.00     0.016 A 
ATOM     34  C   UNL A   1      35.158  31.975  27.803  1.00  0.00     0.016 A 
ATOM     35  C   UNL A   1      36.025  29.373  28.121  1.00  0.00     0.010 A 
ATOM     36  C   UNL A   1      36.445  31.716  28.305  1.00  0.00     0.010 A 
ATOM     37  C   UNL A   1      36.871  30.404  28.569  1.00  0.00    -0.014 A 
BRANCH  37  38
ATOM     38  C   UNL A   1      38.096  30.117  29.410  1.00  0.00     0.031 A 
ATOM     39  C   UNL A   1      39.272  29.334  28.845  1.00  0.00     0.074 A 
ATOM     40  C   UNL A   1      38.247  30.606  30.663  1.00  0.00     0.049 A 
ATOM     41  N   UNL A   1      40.272  28.759  29.476  1.00  0.00    -0.248 NA
ATOM     42  C   UNL A   1      39.327  29.155  27.386  1.00  0.00     0.031 C 
ATOM     43  C   UNL A   1      37.283  31.436  31.380  1.00  0.00     0.029 A 
ATOM     44  N   UNL A   1      39.300  30.499  31.549  1.00  0.00    -0.354 N 
ATOM     45  C   UNL A   1      40.989  28.054  28.513  1.00  0.00     0.074 A 
ATOM     46  C   UNL A   1      40.334  28.302  27.246  1.00  0.00     0.031 C 
ATOM     47  C   UNL A   1      37.826  31.857  32.530  1.00  0.00     0.029 A 
ATOM     48  C   UNL A   1      39.107  31.190  32.721  1.00  0.00     0.049 A 
ATOM     49  H   UNL A   1      40.112  29.975  31.359  1.00  0.00     0.167 HD
ATOM     50  C   UNL A   1      42.082  27.265  28.670  1.00  0.00     0.037 A 
ATOM     51  C   UNL A   1      39.824  31.238  33.862  1.00  0.00     0.037 A 
ATOM     52  C   UNL A   1      42.832  27.127  29.895  1.00  0.00     0.049 A 
ATOM     53  C   UNL A   1      41.049  30.383  34.013  1.00  0.00     0.074 A 
ATOM     54  C   UNL A   1      43.965  26.364  30.137  1.00  0.00     0.029 A 
ATOM     55  N   UNL A   1      42.560  27.807  31.071  1.00  0.00    -0.354 N 
ATOM     56  N   UNL A   1      41.608  29.579  33.146  1.00  0.00    -0.248 NA
ATOM     57  C   UNL A   1      41.712  30.412  35.325  1.00  0.00     0.031 C 
ATOM     58  C   UNL A   1      44.364  26.566  31.463  1.00  0.00     0.029 A 
ATOM     59  C   UNL A   1      43.506  27.488  32.035  1.00  0.00     0.049 A 
ATOM     60  H   UNL A   1      41.806  28.427  31.203  1.00  0.00     0.167 HD
ATOM     61  C   UNL A   1      42.679  28.993  33.809  1.00  0.00     0.074 A 
ATOM     62  C   UNL A   1      42.717  29.568  35.137  1.00  0.00     0.031 C 
ATOM     63  C   UNL A   1      43.539  28.049  33.359  1.00  0.00     0.037 A 
BRANCH  50  64
ATOM     64  C   UNL A   1      42.535  26.434  27.499  1.00  0.00     0.064 A 
ATOM     65  C   UNL A   1      43.587  26.821  26.658  1.00  0.00     0.173 A 
ATOM     66  C   UNL A   1      41.948  25.177  27.275  1.00  0.00     0.173 A 
ATOM     67  F   UNL A   1      44.176  28.015  26.821  1.00  0.00    -0.203 F 
ATOM     68  C   UNL A   1      44.023  25.989  25.628  1.00  0.00     0.198 A 
ATOM     69  C   UNL A   1      42.407  24.334  26.266  1.00  0.00     0.198 A 
ATOM     70  F   UNL A   1      40.946  24.749  28.058  1.00  0.00    -0.203 F 
ATOM     71  F   UNL A   1      45.009  26.393  24.814  1.00  0.00    -0.200 F 
ATOM     72  C   UNL A   1      43.442  24.743  25.440  1.00  0.00     0.200 A 
ATOM     73  F   UNL A   1      41.856  23.124  26.100  1.00  0.00    -0.200 F 
ATOM     74  F   UNL A   1      43.878  23.937  24.462  1.00  0.00    -0.200 F 
ENDBRANCH  50  64
BRANCH  51  75
ATOM     75  C   UNL A   1      39.339  32.068  34.997  1.00  0.00     0.064 A 
ATOM     76  C   UNL A   1      38.550  31.514  36.014  1.00  0.00     0.173 A 
ATOM     77  C   UNL A   1      39.670  33.428  35.094  1.00  0.00     0.173 A 
ATOM     78  F   UNL A   1      38.172  30.230  35.945  1.00  0.00    -0.203 F 
ATOM     79  C   UNL A   1      38.118  32.290  37.089  1.00  0.00     0.198 A 
ATOM     80  C   UNL A   1      39.275  34.190  36.188  1.00  0.00     0.198 A 
ATOM     81  F   UNL A   1      40.412  34.008  34.139  1.00  0.00    -0.203 F 
ATOM     82  F   UNL A   1      37.333  31.748  38.030  1.00  0.00    -0.200 F 
ATOM     83  C   UNL A   1      38.495  33.623  37.183  1.00  0.00     0.200 A 
ATOM     84  F   UNL A   1      39.657  35.471  36.282  1.00  0.00    -0.200 F 
ATOM     85  F   UNL A   1      38.101  34.360  38.229  1.00  0.00    -0.200 F 
ENDBRANCH  51  75
BRANCH  63  86
ATOM     86  C   UNL A   1      44.609  27.598  34.311  1.00  0.00     0.064 A 
ATOM     87  C   UNL A   1      44.417  26.498  35.161  1.00  0.00     0.173 A 
ATOM     88  C   UNL A   1      45.827  28.289  34.393  1.00  0.00     0.173 A 
ATOM     89  F   UNL A   1      43.263  25.817  35.133  1.00  0.00    -0.203 F 
ATOM     90  C   UNL A   1      45.390  26.132  36.088  1.00  0.00     0.198 A 
ATOM     91  C   UNL A   1      46.808  27.903  35.303  1.00  0.00     0.198 A 
ATOM     92  F   UNL A   1      46.061  29.344  33.599  1.00  0.00    -0.203 F 
ATOM     93  F   UNL A   1      45.160  25.119  36.935  1.00  0.00    -0.200 F 
ATOM     94  C   UNL A   1      46.585  26.835  36.157  1.00  0.00     0.200 A 
ATOM     95  F   UNL A   1      47.964  28.579  35.366  1.00  0.00    -0.200 F 
ATOM     96  F   UNL A   1      47.513  26.491  37.061  1.00  0.00    -0.200 F 
ENDBRANCH  63  86
ENDBRANCH  37  38
ENDBRANCH  30  32
ENDBRANCH  29  30
ENDBRANCH  28  29
ENDBRANCH   1  28
TORSDOF 19
ENDMDL
MODEL 2
REMARK VINA RESULT:     -11.2      4.132      9.526
REMARK SMILES O=C(N[C@@H](CS)C(=O)N[C@@H](CO)C(=O)OCCOC(=O)c1ccc(-c2c3nc(c(-c4c(F)c(F)c(F)c(F)c4F)c4ccc([nH]4)c(-c4c(F)c(F)c(F)c(F)c4F)c4nc(c(-c5c(F)c(F)c(F)c(F)c5F)c5ccc2[nH]5)C=C4)C=C3)cc1)c1ccc(F)cc1
REMARK SMILES IDX 16 1 15 2 13 3 14 4 10 5 9 6 7 7 8 8 4 10 3 11 1 12 2 13
REMARK SMILES IDX 84 15 85 16 90 17 86 18 89 19 87 20 88 21 5 22 6 23 11 25
REMARK SMILES IDX 12 26 17 28 18 29 19 30 20 31 21 32 22 33 83 34 23 35 82 36
REMARK SMILES IDX 24 37 25 38 26 39 76 40 27 41 81 42 75 43 77 44 28 45 80 46
REMARK SMILES IDX 74 47 73 48 29 50 61 51 41 52 60 53 42 54 45 55 59 56 78 57
REMARK SMILES IDX 43 58 44 59 58 61 79 62 46 63 30 64 31 65 39 66 32 67 33 68
REMARK SMILES IDX 37 69 40 70 34 71 35 72 38 73 36 74 62 75 63 76 71 77 64 78
REMARK SMILES IDX 65 79 69 80 72 81 66 82 67 83 70 84 68 85 47 86 48 87 56 88
REMARK SMILES IDX 49 89 50 90 54 91 57 92 51 93 52 94 55 95 53 96
REMARK H PARENT 9 9 3 14 6 24 12 27 77 49 45 60
REMARK Flexibility Score: inf
ROOT
ATOM      1  C   UNL A   1      35.287  21.990  25.193  1.00  0.00     0.274 C 
ENDROOT
BRANCH   1   2
ATOM      2  O   UNL A   1      34.309  21.986  24.131  1.00  0.00    -0.460 OA
BRANCH   2   3
ATOM      3  C   UNL A   1      33.305  22.907  24.219  1.00  0.00     0.331 C 
ATOM      4  O   UNL A   1      33.190  23.737  25.113  1.00  0.00    -0.250 OA
BRANCH   3   5
ATOM      5  C   UNL A   1      32.236  22.693  23.130  1.00  0.00     0.218 C 
BRANCH   5   6
ATOM      6  N   UNL A   1      32.563  23.376  21.870  1.00  0.00    -0.339 N 
ATOM      7  C   UNL A   1      32.776  24.666  21.521  1.00  0.00     0.244 C 
ATOM      8  O   UNL A   1      33.254  24.841  20.392  1.00  0.00    -0.273 OA
ATOM      9  H   UNL A   1      32.643  22.757  21.109  1.00  0.00     0.164 HD
BRANCH   7  10
ATOM     10  C   UNL A   1      32.606  25.888  22.452  1.00  0.00     0.181 C 
BRANCH  10  11
ATOM     11  N   UNL A   1      33.596  26.968  22.329  1.00  0.00    -0.339 N 
ATOM     12  O   UNL A   1      34.499  28.978  22.770  1.00  0.00    -0.269 OA
ATOM     13  C   UNL A   1      33.812  28.040  23.167  1.00  0.00     0.251 C 
ATOM     14  H   UNL A   1      34.185  26.917  21.542  1.00  0.00     0.164 HD
BRANCH  13  15
ATOM     15  C   UNL A   1      33.170  28.116  24.503  1.00  0.00     0.040 A 
ATOM     16  C   UNL A   1      33.552  27.260  25.543  1.00  0.00     0.017 A 
ATOM     17  C   UNL A   1      32.197  29.101  24.735  1.00  0.00     0.017 A 
ATOM     18  C   UNL A   1      32.915  27.338  26.782  1.00  0.00     0.040 A 
ATOM     19  C   UNL A   1      31.574  29.188  25.985  1.00  0.00     0.040 A 
ATOM     20  C   UNL A   1      31.930  28.297  26.991  1.00  0.00     0.123 A 
ATOM     21  F   UNL A   1      31.330  28.373  28.186  1.00  0.00    -0.207 F 
ENDBRANCH  13  15
ENDBRANCH  10  11
BRANCH  10  22
ATOM     22  C   UNL A   1      31.146  26.366  22.438  1.00  0.00     0.101 C 
BRANCH  22  23
ATOM     23  S   UNL A   1      30.200  25.867  23.898  1.00  0.00    -0.177 SA
ATOM     24  H   UNL A   1      30.179  24.510  23.982  1.00  0.00     0.102 HD
ENDBRANCH  22  23
ENDBRANCH  10  22
ENDBRANCH   7  10
ENDBRANCH   5   6
BRANCH   5  25
ATOM     25  C   UNL A   1      32.129  21.179  22.896  1.00  0.00     0.193 C 
BRANCH  25  26
ATOM     26  O   UNL A   1      31.516  20.891  21.637  1.00  0.00    -0.394 OA
ATOM     27  H   UNL A   1      32.013  21.327  20.927  1.00  0.00     0.210 HD
ENDBRANCH  25  26
ENDBRANCH   5  25
ENDBRANCH   3   5
ENDBRANCH   2   3
ENDBRANCH   1   2
BRANCH   1  28
ATOM     28  C   UNL A   1      36.340  20.911  24.957  1.00  0.00     0.275 C 
BRANCH  28  29
ATOM     29  O   UNL A   1      37.612  21.543  24.737  1.00  0.00    -0.458 OA
BRANCH  29  30
ATOM     30  C   UNL A   1      38.606  21.199  25.582  1.00  0.00     0.338 C 
ATOM     31  O   UNL A   1      39.142  20.096  25.665  1.00  0.00    -0.246 OA
BRANCH  30  32
ATOM     32  C   UNL A   1      39.046  22.368  26.381  1.00  0.00     0.060 A 
ATOM     33  C   UNL A   1      38.469  23.619  26.192  1.00  0.00     0.016 A 
ATOM     34  C   UNL A   1      40.159  22.256  27.219  1.00  0.00     0.016 A 
ATOM     35  C   UNL A   1      39.112  24.756  26.696  1.00  0.00     0.010 A 
ATOM     36  C   UNL A   1      40.736  23.399  27.800  1.00  0.00     0.010 A 
ATOM     37  C   UNL A   1      40.285  24.687  27.471  1.00  0.00    -0.014 A 
BRANCH  37  38
ATOM     38  C   UNL A   1      41.089  25.924  27.807  1.00  0.00     0.031 A 
ATOM     39  C   UNL A   1      40.537  26.989  28.745  1.00  0.00     0.074 A 
ATOM     40  C   UNL A   1      42.356  26.108  27.369  1.00  0.00     0.049 A 
ATOM     41  N   UNL A   1      40.945  28.224  28.936  1.00  0.00    -0.248 NA
ATOM     42  C   UNL A   1      39.365  26.632  29.559  1.00  0.00     0.031 C 
ATOM     43  C   UNL A   1      43.110  25.190  26.520  1.00  0.00     0.029 A 
ATOM     44  N   UNL A   1      43.252  27.129  27.614  1.00  0.00    -0.354 N 
ATOM     45  C   UNL A   1      40.014  28.817  29.784  1.00  0.00     0.074 A 
ATOM     46  C   UNL A   1      39.037  27.798  30.103  1.00  0.00     0.031 C 
ATOM     47  C   UNL A   1      44.374  25.620  26.411  1.00  0.00     0.029 A 
ATOM     48  C   UNL A   1      44.483  26.934  27.033  1.00  0.00     0.049 A 
ATOM     49  H   UNL A   1      43.030  27.923  28.151  1.00  0.00     0.167 HD
ATOM     50  C   UNL A   1      39.968  30.094  30.243  1.00  0.00     0.037 A 
ATOM     51  C   UNL A   1      45.564  27.733  26.933  1.00  0.00     0.037 A 
ATOM     52  C   UNL A   1      41.009  31.076  30.056  1.00  0.00     0.049 A 
ATOM     53  C   UNL A   1      45.512  29.132  27.472  1.00  0.00     0.074 A 
ATOM     54  C   UNL A   1      41.054  32.388  30.505  1.00  0.00     0.029 A 
ATOM     55  N   UNL A   1      42.212  30.842  29.410  1.00  0.00    -0.354 N 
ATOM     56  N   UNL A   1      44.546  29.737  28.113  1.00  0.00    -0.248 NA
ATOM     57  C   UNL A   1      46.693  29.975  27.227  1.00  0.00     0.031 C 
ATOM     58  C   UNL A   1      42.273  32.952  30.114  1.00  0.00     0.029 A 
ATOM     59  C   UNL A   1      43.007  31.979  29.458  1.00  0.00     0.049 A 
ATOM     60  H   UNL A   1      42.467  29.993  28.981  1.00  0.00     0.167 HD
ATOM     61  C   UNL A   1      44.991  31.033  28.336  1.00  0.00     0.074 A 
ATOM     62  C   UNL A   1      46.333  31.115  27.799  1.00  0.00     0.031 C 
ATOM     63  C   UNL A   1      44.335  32.067  28.916  1.00  0.00     0.037 A 
BRANCH  50  64
ATOM     64  C   UNL A   1      38.730  30.545  30.970  1.00  0.00     0.064 A 
ATOM     65  C   UNL A   1      38.631  30.550  32.367  1.00  0.00     0.173 A 
ATOM     66  C   UNL A   1      37.650  31.068  30.237  1.00  0.00     0.173 A 
ATOM     67  F   UNL A   1      39.628  30.053  33.115  1.00  0.00    -0.203 F 
ATOM     68  C   UNL A   1      37.493  31.044  33.003  1.00  0.00     0.198 A 
ATOM     69  C   UNL A   1      36.528  31.590  30.875  1.00  0.00     0.198 A 
ATOM     70  F   UNL A   1      37.696  31.102  28.896  1.00  0.00    -0.203 F 
ATOM     71  F   UNL A   1      37.405  31.007  34.341  1.00  0.00    -0.200 F 
ATOM     72  C   UNL A   1      36.448  31.574  32.258  1.00  0.00     0.200 A 
ATOM     73  F   UNL A   1      35.531  32.119  30.153  1.00  0.00    -0.200 F 
ATOM     74  F   UNL A   1      35.366  32.067  32.874  1.00  0.00    -0.200 F 
ENDBRANCH  50  64
BRANCH  51  75
ATOM     75  C   UNL A   1      46.767  27.249  26.202  1.00  0.00     0.064 A 
ATOM     76  C   UNL A   1      46.946  27.525  24.841  1.00  0.00     0.173 A 
ATOM     77  C   UNL A   1      47.766  26.516  26.859  1.00  0.00     0.173 A 
ATOM     78  F   UNL A   1      45.999  28.185  24.160  1.00  0.00    -0.203 F 
ATOM     79  C   UNL A   1      48.086  27.091  24.166  1.00  0.00     0.198 A 
ATOM     80  C   UNL A   1      48.924  26.121  26.195  1.00  0.00     0.198 A 
ATOM     81  F   UNL A   1      47.635  26.215  28.159  1.00  0.00    -0.203 F 
ATOM     82  F   UNL A   1      48.218  27.333  22.854  1.00  0.00    -0.200 F 
ATOM     83  C   UNL A   1      49.081  26.404  24.848  1.00  0.00     0.200 A 
ATOM     84  F   UNL A   1      49.888  25.475  26.863  1.00  0.00    -0.200 F 
ATOM     85  F   UNL A   1      50.187  26.011  24.204  1.00  0.00    -0.200 F 
ENDBRANCH  51  75
BRANCH  63  86
ATOM     86  C   UNL A   1      45.076  33.368  29.018  1.00  0.00     0.064 A 
ATOM     87  C   UNL A   1      44.978  34.348  28.019  1.00  0.00     0.173 A 
ATOM     88  C   UNL A   1      45.914  33.627  30.113  1.00  0.00     0.173 A 
ATOM     89  F   UNL A   1      44.204  34.140  26.943  1.00  0.00    -0.203 F 
ATOM     90  C   UNL A   1      45.724  35.522  28.091  1.00  0.00     0.198 A 
ATOM     91  C   UNL A   1      46.639  34.813  30.194  1.00  0.00     0.198 A 
ATOM     92  F   UNL A   1      46.040  32.725  31.097  1.00  0.00    -0.203 F 
ATOM     93  F   UNL A   1      45.664  36.415  27.094  1.00  0.00    -0.200 F 
ATOM     94  C   UNL A   1      46.553  35.754  29.179  1.00  0.00     0.200 A 
ATOM     95  F   UNL A   1      47.435  35.039  31.249  1.00  0.00    -0.200 F 
ATOM     96  F   UNL A   1      47.282  36.877  29.240  1.00  0.00    -0.200 F 
ENDBRANCH  63  86
ENDBRANCH  37  38
ENDBRANCH  30  32
ENDBRANCH  29  30
ENDBRANCH  28  29
ENDBRANCH   1  28
TORSDOF 19
ENDMDL
MODEL 3
REMARK VINA RESULT:     -11.2      1.391      1.917
REMARK SMILES O=C(N[C@@H](CS)C(=O)N[C@@H](CO)C(=O)OCCOC(=O)c1ccc(-c2c3nc(c(-c4c(F)c(F)c(F)c(F)c4F)c4ccc([nH]4)c(-c4c(F)c(F)c(F)c(F)c4F)c4nc(c(-c5c(F)c(F)c(F)c(F)c5F)c5ccc2[nH]5)C=C4)C=C3)cc1)c1ccc(F)cc1
REMARK SMILES IDX 16 1 15 2 13 3 14 4 10 5 9 6 7 7 8 8 4 10 3 11 1 12 2 13
REMARK SMILES IDX 84 15 85 16 90 17 86 18 89 19 87 20 88 21 5 22 6 23 11 25
REMARK SMILES IDX 12 26 17 28 18 29 19 30 20 31 21 32 22 33 83 34 23 35 82 36
REMARK SMILES IDX 24 37 25 38 26 39 76 40 27 41 81 42 75 43 77 44 28 45 80 46
REMARK SMILES IDX 74 47 73 48 29 50 61 51 41 52 60 53 42 54 45 55 59 56 78 57
REMARK SMILES IDX 43 58 44 59 58 61 79 62 46 63 30 64 31 65 39 66 32 67 33 68
REMARK SMILES IDX 37 69 40 70 34 71 35 72 38 73 36 74 62 75 63 76 71 77 64 78
REMARK SMILES IDX 65 79 69 80 72 81 66 82 67 83 70 84 68 85 47 86 48 87 56 88
REMARK SMILES IDX 49 89 50 90 54 91 57 92 51 93 52 94 55 95 53 96
REMARK H PARENT 9 9 3 14 6 24 12 27 77 49 45 60
REMARK Flexibility Score: inf
ROOT
ATOM      1  C   UNL A   1      32.139  29.103  25.169  1.00  0.00     0.274 C 
ENDROOT
BRANCH   1   2
ATOM      2  O   UNL A   1      31.018  28.212  24.987  1.00  0.00    -0.460 OA
BRANCH   2   3
ATOM      3  C   UNL A   1      30.985  27.098  25.776  1.00  0.00     0.331 C 
ATOM      4  O   UNL A   1      31.367  27.051  26.940  1.00  0.00    -0.250 OA
BRANCH   3   5
ATOM      5  C   UNL A   1      30.541  25.851  24.988  1.00  0.00     0.218 C 
BRANCH   5   6
ATOM      6  N   UNL A   1      30.058  24.770  25.859  1.00  0.00    -0.339 N 
ATOM      7  C   UNL A   1      30.618  23.653  26.379  1.00  0.00     0.244 C 
ATOM      8  O   UNL A   1      29.958  23.088  27.262  1.00  0.00    -0.273 OA
ATOM      9  H   UNL A   1      29.116  24.882  26.121  1.00  0.00     0.164 HD
BRANCH   7  10
ATOM     10  C   UNL A   1      32.036  23.128  26.062  1.00  0.00     0.181 C 
BRANCH  10  11
ATOM     11  N   UNL A   1      32.636  23.544  24.786  1.00  0.00    -0.339 N 
ATOM     12  O   UNL A   1      33.957  23.336  22.981  1.00  0.00    -0.269 OA
ATOM     13  C   UNL A   1      33.297  22.776  23.852  1.00  0.00     0.251 C 
ATOM     14  H   UNL A   1      32.554  24.501  24.570  1.00  0.00     0.164 HD
BRANCH  13  15
ATOM     15  C   UNL A   1      33.288  21.294  23.928  1.00  0.00     0.040 A 
ATOM     16  C   UNL A   1      32.283  20.541  23.309  1.00  0.00     0.017 A 
ATOM     17  C   UNL A   1      34.339  20.640  24.590  1.00  0.00     0.017 A 
ATOM     18  C   UNL A   1      32.286  19.149  23.415  1.00  0.00     0.040 A 
ATOM     19  C   UNL A   1      34.349  19.244  24.677  1.00  0.00     0.040 A 
ATOM     20  C   UNL A   1      33.316  18.513  24.101  1.00  0.00     0.123 A 
ATOM     21  F   UNL A   1      33.318  17.178  24.191  1.00  0.00    -0.207 F 
ENDBRANCH  13  15
ENDBRANCH  10  11
BRANCH  10  22
ATOM     22  C   UNL A   1      32.953  23.312  27.281  1.00  0.00     0.101 C 
BRANCH  22  23
ATOM     23  S   UNL A   1      33.960  21.858  27.665  1.00  0.00    -0.177 SA
ATOM     24  H   UNL A   1      33.270  21.038  28.503  1.00  0.00     0.102 HD
ENDBRANCH  22  23
ENDBRANCH  10  22
ENDBRANCH   7  10
ENDBRANCH   5   6
BRANCH   5  25
ATOM     25  C   UNL A   1      29.424  26.298  24.033  1.00  0.00     0.193 C 
BRANCH  25  26
ATOM     26  O   UNL A   1      28.132  26.033  24.587  1.00  0.00    -0.394 OA
ATOM     27  H   UNL A   1      27.457  26.138  23.899  1.00  0.00     0.210 HD
ENDBRANCH  25  26
ENDBRANCH   5  25
ENDBRANCH   3   5
ENDBRANCH   2   3
ENDBRANCH   1   2
BRANCH   1  28
ATOM     28  C   UNL A   1      31.680  30.427  25.772  1.00  0.00     0.275 C 
BRANCH  28  29
ATOM     29  O   UNL A   1      32.241  30.557  27.089  1.00  0.00    -0.458 OA
BRANCH  29  30
ATOM     30  C   UNL A   1      32.994  31.655  27.313  1.00  0.00     0.338 C 
ATOM     31  O   UNL A   1      32.595  32.817  27.347  1.00  0.00    -0.246 OA
BRANCH  30  32
ATOM     32  C   UNL A   1      34.399  31.280  27.599  1.00  0.00     0.060 A 
ATOM     33  C   UNL A   1      34.771  29.945  27.721  1.00  0.00     0.016 A 
ATOM     34  C   UNL A   1      35.334  32.272  27.906  1.00  0.00     0.016 A 
ATOM     35  C   UNL A   1      35.998  29.624  28.314  1.00  0.00     0.010 A 
ATOM     36  C   UNL A   1      36.602  31.931  28.408  1.00  0.00     0.010 A 
ATOM     37  C   UNL A   1      36.927  30.601  28.718  1.00  0.00    -0.014 A 
BRANCH  37  38
ATOM     38  C   UNL A   1      38.134  30.250  29.560  1.00  0.00     0.031 A 
ATOM     39  C   UNL A   1      39.286  29.439  28.984  1.00  0.00     0.074 A 
ATOM     40  C   UNL A   1      38.293  30.702  30.825  1.00  0.00     0.049 A 
ATOM     41  N   UNL A   1      40.260  28.813  29.607  1.00  0.00    -0.248 NA
ATOM     42  C   UNL A   1      39.345  29.292  27.521  1.00  0.00     0.031 C 
ATOM     43  C   UNL A   1      37.354  31.550  31.556  1.00  0.00     0.029 A 
ATOM     44  N   UNL A   1      39.334  30.536  31.715  1.00  0.00    -0.354 N 
ATOM     45  C   UNL A   1      40.958  28.106  28.632  1.00  0.00     0.074 A 
ATOM     46  C   UNL A   1      40.322  28.407  27.367  1.00  0.00     0.031 C 
ATOM     47  C   UNL A   1      37.903  31.923  32.719  1.00  0.00     0.029 A 
ATOM     48  C   UNL A   1      39.158  31.205  32.903  1.00  0.00     0.049 A 
ATOM     49  H   UNL A   1      40.128  29.989  31.518  1.00  0.00     0.167 HD
ATOM     50  C   UNL A   1      42.021  27.274  28.778  1.00  0.00     0.037 A 
ATOM     51  C   UNL A   1      39.867  31.200  34.049  1.00  0.00     0.037 A 
ATOM     52  C   UNL A   1      42.756  27.080  30.005  1.00  0.00     0.049 A 
ATOM     53  C   UNL A   1      41.059  30.299  34.188  1.00  0.00     0.074 A 
ATOM     54  C   UNL A   1      43.858  26.271  30.236  1.00  0.00     0.029 A 
ATOM     55  N   UNL A   1      42.499  27.741  31.195  1.00  0.00    -0.354 N 
ATOM     56  N   UNL A   1      41.596  29.495  33.306  1.00  0.00    -0.248 NA
ATOM     57  C   UNL A   1      41.713  30.271  35.504  1.00  0.00     0.031 C 
ATOM     58  C   UNL A   1      44.254  26.426  31.569  1.00  0.00     0.029 A 
ATOM     59  C   UNL A   1      43.425  27.365  32.158  1.00  0.00     0.049 A 
ATOM     60  H   UNL A   1      41.767  28.384  31.337  1.00  0.00     0.167 HD
ATOM     61  C   UNL A   1      42.639  28.856  33.961  1.00  0.00     0.074 A 
ATOM     62  C   UNL A   1      42.688  29.396  35.303  1.00  0.00     0.031 C 
ATOM     63  C   UNL A   1      43.469  27.892  33.495  1.00  0.00     0.037 A 
BRANCH  50  64
ATOM     64  C   UNL A   1      42.452  26.456  27.590  1.00  0.00     0.064 A 
ATOM     65  C   UNL A   1      43.484  26.855  26.731  1.00  0.00     0.173 A 
ATOM     66  C   UNL A   1      41.866  25.198  27.368  1.00  0.00     0.173 A 
ATOM     67  F   UNL A   1      44.071  28.051  26.892  1.00  0.00    -0.203 F 
ATOM     68  C   UNL A   1      43.902  26.034  25.684  1.00  0.00     0.198 A 
ATOM     69  C   UNL A   1      42.307  24.366  26.342  1.00  0.00     0.198 A 
ATOM     70  F   UNL A   1      40.883  24.758  28.168  1.00  0.00    -0.203 F 
ATOM     71  F   UNL A   1      44.869  26.450  24.853  1.00  0.00    -0.200 F 
ATOM     72  C   UNL A   1      43.323  24.787  25.498  1.00  0.00     0.200 A 
ATOM     73  F   UNL A   1      41.759  23.155  26.177  1.00  0.00    -0.200 F 
ATOM     74  F   UNL A   1      43.742  23.992  24.504  1.00  0.00    -0.200 F 
ENDBRANCH  50  64
BRANCH  51  75
ATOM     75  C   UNL A   1      39.403  32.020  35.201  1.00  0.00     0.064 A 
ATOM     76  C   UNL A   1      38.569  31.478  36.186  1.00  0.00     0.173 A 
ATOM     77  C   UNL A   1      39.801  33.357  35.345  1.00  0.00     0.173 A 
ATOM     78  F   UNL A   1      38.127  30.217  36.071  1.00  0.00    -0.203 F 
ATOM     79  C   UNL A   1      38.156  32.241  37.277  1.00  0.00     0.198 A 
ATOM     80  C   UNL A   1      39.425  34.106  36.456  1.00  0.00     0.198 A 
ATOM     81  F   UNL A   1      40.590  33.927  34.422  1.00  0.00    -0.203 F 
ATOM     82  F   UNL A   1      37.326  31.713  38.187  1.00  0.00    -0.200 F 
ATOM     83  C   UNL A   1      38.598  33.550  37.418  1.00  0.00     0.200 A 
ATOM     84  F   UNL A   1      39.870  35.362  36.596  1.00  0.00    -0.200 F 
ATOM     85  F   UNL A   1      38.222  34.275  38.480  1.00  0.00    -0.200 F 
ENDBRANCH  51  75
BRANCH  63  86
ATOM     86  C   UNL A   1      44.514  27.380  34.442  1.00  0.00     0.064 A 
ATOM     87  C   UNL A   1      44.278  26.265  35.261  1.00  0.00     0.173 A 
ATOM     88  C   UNL A   1      45.754  28.027  34.553  1.00  0.00     0.173 A 
ATOM     89  F   UNL A   1      43.102  25.624  35.205  1.00  0.00    -0.203 F 
ATOM     90  C   UNL A   1      45.230  25.842  36.186  1.00  0.00     0.198 A 
ATOM     91  C   UNL A   1      46.713  27.584  35.460  1.00  0.00     0.198 A 
ATOM     92  F   UNL A   1      46.030  29.094  33.790  1.00  0.00    -0.203 F 
ATOM     93  F   UNL A   1      44.958  24.815  37.003  1.00  0.00    -0.200 F 
ATOM     94  C   UNL A   1      46.447  26.501  36.284  1.00  0.00     0.200 A 
ATOM     95  F   UNL A   1      47.890  28.219  35.551  1.00  0.00    -0.200 F 
ATOM     96  F   UNL A   1      47.355  26.102  37.185  1.00  0.00    -0.200 F 
ENDBRANCH  63  86
ENDBRANCH  37  38
ENDBRANCH  30  32
ENDBRANCH  29  30
ENDBRANCH  28  29
ENDBRANCH   1  28
TORSDOF 19
ENDMDL
