MODEL 1
REMARK VINA RESULT:     -13.0      0.000      0.000
REMARK SMILES CCn1ccc2cc(S(=O)(=O)N3CCC[C@@H](C(=O)OCCOC(=O)c4ccc(-c5c6nc(c(-c7c(F)c(F)c(F)c(F)c7F)c7ccc([nH]7)c(-c7c(F)c(F)c(F)c(F)c7F)c7nc(c(-c8c(F)c(F)c(F)c(F)c8F)c8ccc5[nH]8)C=C7)C=C6)cc4)C3)ccc21
REMARK SMILES IDX 20 1 19 2 17 3 18 4 16 5 12 6 13 7 88 8 14 9 15 10 9 11
REMARK SMILES IDX 10 12 11 13 8 14 3 15 4 16 91 17 5 18 6 19 90 20 7 21 89 22
REMARK SMILES IDX 2 23 1 24 21 25 22 26 23 27 24 28 25 29 26 30 87 31 27 32
REMARK SMILES IDX 86 33 28 34 29 35 30 36 80 37 31 38 85 39 79 40 81 41 32 42
REMARK SMILES IDX 84 43 78 44 77 45 33 47 65 48 45 49 64 50 46 51 49 52 63 53
REMARK SMILES IDX 82 54 47 55 48 56 62 58 83 59 50 60 34 61 35 62 43 63 36 64
REMARK SMILES IDX 37 65 41 66 44 67 38 68 39 69 42 70 40 71 66 72 67 73 75 74
REMARK SMILES IDX 68 75 69 76 73 77 76 78 70 79 71 80 74 81 72 82 51 83 52 84
REMARK SMILES IDX 60 85 53 86 54 87 58 88 61 89 55 90 56 91 59 92 57 93
REMARK H PARENT 81 46 49 57
REMARK Flexibility Score: inf
ROOT
ATOM      1  C   UNL A   1      37.476  22.157  25.745  1.00  0.00     0.274 C 
ENDROOT
BRANCH   1   2
ATOM      2  O   UNL A   1      37.303  23.304  24.869  1.00  0.00    -0.462 OA
BRANCH   2   3
ATOM      3  C   UNL A   1      36.428  23.128  23.832  1.00  0.00     0.310 C 
ATOM      4  O   UNL A   1      36.792  22.953  22.678  1.00  0.00    -0.252 OA
BRANCH   3   5
ATOM      5  C   UNL A   1      34.957  23.357  24.202  1.00  0.00     0.114 C 
ATOM      6  N   UNL A   1      33.103  24.477  22.851  1.00  0.00    -0.197 NA
ATOM      7  C   UNL A   1      32.059  23.577  23.413  1.00  0.00     0.102 C 
ATOM      8  C   UNL A   1      34.312  24.691  23.728  1.00  0.00     0.117 C 
ATOM      9  C   UNL A   1      32.643  22.508  24.326  1.00  0.00     0.018 C 
ATOM     10  C   UNL A   1      34.064  22.152  23.929  1.00  0.00     0.018 C 
BRANCH   6  11
ATOM     11  S   UNL A   1      32.434  25.859  22.037  1.00  0.00     0.243 S 
ATOM     12  O   UNL A   1      31.037  25.586  21.758  1.00  0.00    -0.207 OA
ATOM     13  O   UNL A   1      33.347  26.283  21.006  1.00  0.00    -0.207 OA
BRANCH  11  14
ATOM     14  C   UNL A   1      32.423  27.151  23.286  1.00  0.00     0.083 A 
ATOM     15  N   UNL A   1      33.014  29.311  26.774  1.00  0.00    -0.348 N 
ATOM     16  C   UNL A   1      32.118  28.708  27.626  1.00  0.00     0.087 A 
ATOM     17  C   UNL A   1      32.877  28.779  25.503  1.00  0.00     0.048 A 
ATOM     18  C   UNL A   1      31.398  27.779  26.910  1.00  0.00     0.028 A 
ATOM     19  C   UNL A   1      31.905  27.770  25.580  1.00  0.00     0.001 A 
ATOM     20  C   UNL A   1      33.539  29.053  24.297  1.00  0.00     0.028 A 
ATOM     21  C   UNL A   1      31.677  26.937  24.458  1.00  0.00     0.032 A 
ATOM     22  C   UNL A   1      33.285  28.239  23.189  1.00  0.00     0.024 A 
BRANCH  15  23
ATOM     23  C   UNL A   1      34.038  30.236  27.243  1.00  0.00     0.119 C 
ATOM     24  C   UNL A   1      35.460  29.703  27.269  1.00  0.00     0.027 C 
ENDBRANCH  15  23
ENDBRANCH  11  14
ENDBRANCH   6  11
ENDBRANCH   3   5
ENDBRANCH   2   3
ENDBRANCH   1   2
BRANCH   1  25
ATOM     25  C   UNL A   1      38.961  21.810  25.942  1.00  0.00     0.275 C 
BRANCH  25  26
ATOM     26  O   UNL A   1      39.544  22.758  26.854  1.00  0.00    -0.458 OA
BRANCH  26  27
ATOM     27  C   UNL A   1      40.885  22.891  26.726  1.00  0.00     0.338 C 
ATOM     28  O   UNL A   1      41.632  22.185  26.071  1.00  0.00    -0.246 OA
BRANCH  27  29
ATOM     29  C   UNL A   1      41.191  24.273  27.143  1.00  0.00     0.060 A 
ATOM     30  C   UNL A   1      42.072  24.593  28.185  1.00  0.00     0.016 A 
ATOM     31  C   UNL A   1      40.356  25.243  26.610  1.00  0.00     0.016 A 
ATOM     32  C   UNL A   1      42.053  25.879  28.749  1.00  0.00     0.010 A 
ATOM     33  C   UNL A   1      40.330  26.497  27.195  1.00  0.00     0.010 A 
ATOM     34  C   UNL A   1      41.139  26.827  28.284  1.00  0.00    -0.014 A 
BRANCH  34  35
ATOM     35  C   UNL A   1      41.035  28.195  28.823  1.00  0.00     0.031 A 
ATOM     36  C   UNL A   1      42.109  29.188  28.464  1.00  0.00     0.074 A 
ATOM     37  C   UNL A   1      39.892  28.722  29.331  1.00  0.00     0.049 A 
ATOM     38  N   UNL A   1      42.592  30.149  29.197  1.00  0.00    -0.248 NA
ATOM     39  C   UNL A   1      42.686  29.149  27.115  1.00  0.00     0.031 C 
ATOM     40  C   UNL A   1      38.586  28.114  29.569  1.00  0.00     0.029 A 
ATOM     41  N   UNL A   1      39.666  30.024  29.679  1.00  0.00    -0.354 N 
ATOM     42  C   UNL A   1      43.411  30.902  28.362  1.00  0.00     0.074 A 
ATOM     43  C   UNL A   1      43.403  30.270  27.077  1.00  0.00     0.031 C 
ATOM     44  C   UNL A   1      37.662  29.069  29.846  1.00  0.00     0.029 A 
ATOM     45  C   UNL A   1      38.352  30.336  30.001  1.00  0.00     0.049 A 
ATOM     46  H   UNL A   1      40.386  30.696  29.699  1.00  0.00     0.167 HD
ATOM     47  C   UNL A   1      44.124  31.997  28.732  1.00  0.00     0.037 A 
ATOM     48  C   UNL A   1      37.893  31.535  30.430  1.00  0.00     0.037 A 
ATOM     49  C   UNL A   1      44.498  31.950  30.113  1.00  0.00     0.049 A 
ATOM     50  C   UNL A   1      39.065  32.263  30.964  1.00  0.00     0.074 A 
ATOM     51  C   UNL A   1      45.203  31.006  30.841  1.00  0.00     0.029 A 
ATOM     52  N   UNL A   1      43.826  32.678  31.060  1.00  0.00    -0.354 N 
ATOM     53  N   UNL A   1      39.682  31.956  32.068  1.00  0.00    -0.248 NA
ATOM     54  C   UNL A   1      39.751  33.185  30.077  1.00  0.00     0.031 C 
ATOM     55  C   UNL A   1      44.444  30.837  32.037  1.00  0.00     0.029 A 
ATOM     56  C   UNL A   1      43.380  31.736  31.960  1.00  0.00     0.049 A 
ATOM     57  H   UNL A   1      43.694  33.653  31.091  1.00  0.00     0.167 HD
ATOM     58  C   UNL A   1      40.994  32.322  31.841  1.00  0.00     0.074 A 
ATOM     59  C   UNL A   1      40.953  33.174  30.653  1.00  0.00     0.031 C 
ATOM     60  C   UNL A   1      42.031  31.697  32.470  1.00  0.00     0.037 A 
BRANCH  47  61
ATOM     61  C   UNL A   1      44.490  33.085  27.776  1.00  0.00     0.064 A 
ATOM     62  C   UNL A   1      45.704  33.067  27.075  1.00  0.00     0.173 A 
ATOM     63  C   UNL A   1      43.722  34.267  27.668  1.00  0.00     0.173 A 
ATOM     64  F   UNL A   1      46.517  32.002  27.147  1.00  0.00    -0.203 F 
ATOM     65  C   UNL A   1      46.124  34.159  26.309  1.00  0.00     0.198 A 
ATOM     66  C   UNL A   1      44.130  35.345  26.884  1.00  0.00     0.198 A 
ATOM     67  F   UNL A   1      42.587  34.417  28.367  1.00  0.00    -0.203 F 
ATOM     68  F   UNL A   1      47.309  34.118  25.687  1.00  0.00    -0.200 F 
ATOM     69  C   UNL A   1      45.336  35.294  26.212  1.00  0.00     0.200 A 
ATOM     70  F   UNL A   1      43.366  36.444  26.810  1.00  0.00    -0.200 F 
ATOM     71  F   UNL A   1      45.751  36.347  25.495  1.00  0.00    -0.200 F 
ENDBRANCH  47  61
BRANCH  48  72
ATOM     72  C   UNL A   1      36.579  32.208  30.415  1.00  0.00     0.064 A 
ATOM     73  C   UNL A   1      35.797  32.265  31.585  1.00  0.00     0.173 A 
ATOM     74  C   UNL A   1      36.241  33.099  29.385  1.00  0.00     0.173 A 
ATOM     75  F   UNL A   1      36.067  31.456  32.620  1.00  0.00    -0.203 F 
ATOM     76  C   UNL A   1      34.781  33.207  31.745  1.00  0.00     0.198 A 
ATOM     77  C   UNL A   1      35.218  34.041  29.545  1.00  0.00     0.198 A 
ATOM     78  F   UNL A   1      36.962  33.137  28.254  1.00  0.00    -0.203 F 
ATOM     79  F   UNL A   1      34.117  33.285  32.908  1.00  0.00    -0.200 F 
ATOM     80  C   UNL A   1      34.507  34.109  30.733  1.00  0.00     0.200 A 
ATOM     81  F   UNL A   1      34.970  34.930  28.573  1.00  0.00    -0.200 F 
ATOM     82  F   UNL A   1      33.584  35.065  30.915  1.00  0.00    -0.200 F 
ENDBRANCH  48  72
BRANCH  60  83
ATOM     83  C   UNL A   1      41.728  30.670  33.536  1.00  0.00     0.064 A 
ATOM     84  C   UNL A   1      41.505  29.306  33.268  1.00  0.00     0.173 A 
ATOM     85  C   UNL A   1      41.856  31.030  34.884  1.00  0.00     0.173 A 
ATOM     86  F   UNL A   1      41.475  28.844  32.017  1.00  0.00    -0.203 F 
ATOM     87  C   UNL A   1      41.383  28.363  34.287  1.00  0.00     0.198 A 
ATOM     88  C   UNL A   1      41.769  30.080  35.903  1.00  0.00     0.198 A 
ATOM     89  F   UNL A   1      42.127  32.301  35.219  1.00  0.00    -0.203 F 
ATOM     90  F   UNL A   1      41.175  27.071  33.987  1.00  0.00    -0.200 F 
ATOM     91  C   UNL A   1      41.527  28.750  35.605  1.00  0.00     0.200 A 
ATOM     92  F   UNL A   1      41.963  30.449  37.177  1.00  0.00    -0.200 F 
ATOM     93  F   UNL A   1      41.465  27.835  36.584  1.00  0.00    -0.200 F 
ENDBRANCH  60  83
ENDBRANCH  34  35
ENDBRANCH  27  29
ENDBRANCH  26  27
ENDBRANCH  25  26
ENDBRANCH   1  25
TORSDOF 14
ENDMDL
MODEL 2
REMARK VINA RESULT:     -12.7      1.628      2.059
REMARK SMILES CCn1ccc2cc(S(=O)(=O)N3CCC[C@@H](C(=O)OCCOC(=O)c4ccc(-c5c6nc(c(-c7c(F)c(F)c(F)c(F)c7F)c7ccc([nH]7)c(-c7c(F)c(F)c(F)c(F)c7F)c7nc(c(-c8c(F)c(F)c(F)c(F)c8F)c8ccc5[nH]8)C=C7)C=C6)cc4)C3)ccc21
REMARK SMILES IDX 20 1 19 2 17 3 18 4 16 5 12 6 13 7 88 8 14 9 15 10 9 11
REMARK SMILES IDX 10 12 11 13 8 14 3 15 4 16 91 17 5 18 6 19 90 20 7 21 89 22
REMARK SMILES IDX 2 23 1 24 21 25 22 26 23 27 24 28 25 29 26 30 87 31 27 32
REMARK SMILES IDX 86 33 28 34 29 35 30 36 80 37 31 38 85 39 79 40 81 41 32 42
REMARK SMILES IDX 84 43 78 44 77 45 33 47 65 48 45 49 64 50 46 51 49 52 63 53
REMARK SMILES IDX 82 54 47 55 48 56 62 58 83 59 50 60 34 61 35 62 43 63 36 64
REMARK SMILES IDX 37 65 41 66 44 67 38 68 39 69 42 70 40 71 66 72 67 73 75 74
REMARK SMILES IDX 68 75 69 76 73 77 76 78 70 79 71 80 74 81 72 82 51 83 52 84
REMARK SMILES IDX 60 85 53 86 54 87 58 88 61 89 55 90 56 91 59 92 57 93
REMARK H PARENT 81 46 49 57
REMARK Flexibility Score: inf
ROOT
ATOM      1  C   UNL A   1      37.279  21.929  25.747  1.00  0.00     0.274 C 
ENDROOT
BRANCH   1   2
ATOM      2  O   UNL A   1      36.783  21.606  24.419  1.00  0.00    -0.462 OA
BRANCH   2   3
ATOM      3  C   UNL A   1      35.847  22.466  23.913  1.00  0.00     0.310 C 
ATOM      4  O   UNL A   1      36.116  23.330  23.092  1.00  0.00    -0.252 OA
BRANCH   3   5
ATOM      5  C   UNL A   1      34.477  22.382  24.597  1.00  0.00     0.114 C 
ATOM      6  N   UNL A   1      32.761  24.224  25.017  1.00  0.00    -0.197 NA
ATOM      7  C   UNL A   1      31.617  23.286  24.856  1.00  0.00     0.102 C 
ATOM      8  C   UNL A   1      34.054  23.594  25.475  1.00  0.00     0.117 C 
ATOM      9  C   UNL A   1      32.063  21.886  24.460  1.00  0.00     0.018 C 
ATOM     10  C   UNL A   1      33.359  21.918  23.670  1.00  0.00     0.018 C 
BRANCH   6  11
ATOM     11  S   UNL A   1      32.296  25.738  25.733  1.00  0.00     0.243 S 
ATOM     12  O   UNL A   1      33.493  26.531  25.931  1.00  0.00    -0.207 OA
ATOM     13  O   UNL A   1      31.365  25.483  26.804  1.00  0.00    -0.207 OA
BRANCH  11  14
ATOM     14  C   UNL A   1      31.379  26.581  24.437  1.00  0.00     0.083 A 
ATOM     15  N   UNL A   1      28.924  29.203  22.368  1.00  0.00    -0.348 N 
ATOM     16  C   UNL A   1      27.675  28.757  22.735  1.00  0.00     0.087 A 
ATOM     17  C   UNL A   1      29.890  28.359  22.891  1.00  0.00     0.048 A 
ATOM     18  C   UNL A   1      27.828  27.625  23.501  1.00  0.00     0.028 A 
ATOM     19  C   UNL A   1      29.223  27.392  23.658  1.00  0.00     0.001 A 
ATOM     20  C   UNL A   1      31.290  28.371  22.802  1.00  0.00     0.028 A 
ATOM     21  C   UNL A   1      29.977  26.492  24.449  1.00  0.00     0.032 A 
ATOM     22  C   UNL A   1      32.021  27.458  23.570  1.00  0.00     0.024 A 
BRANCH  15  23
ATOM     23  C   UNL A   1      29.131  30.470  21.680  1.00  0.00     0.119 C 
ATOM     24  C   UNL A   1      28.062  31.529  21.892  1.00  0.00     0.027 C 
ENDBRANCH  15  23
ENDBRANCH  11  14
ENDBRANCH   6  11
ENDBRANCH   3   5
ENDBRANCH   2   3
ENDBRANCH   1   2
BRANCH   1  25
ATOM     25  C   UNL A   1      38.809  21.805  25.829  1.00  0.00     0.275 C 
BRANCH  25  26
ATOM     26  O   UNL A   1      39.332  22.943  26.536  1.00  0.00    -0.458 OA
BRANCH  26  27
ATOM     27  C   UNL A   1      40.683  22.965  26.620  1.00  0.00     0.338 C 
ATOM     28  O   UNL A   1      41.462  22.188  26.096  1.00  0.00    -0.246 OA
BRANCH  27  29
ATOM     29  C   UNL A   1      41.033  24.326  27.073  1.00  0.00     0.060 A 
ATOM     30  C   UNL A   1      41.861  24.590  28.173  1.00  0.00     0.016 A 
ATOM     31  C   UNL A   1      40.286  25.343  26.499  1.00  0.00     0.016 A 
ATOM     32  C   UNL A   1      41.873  25.870  28.749  1.00  0.00     0.010 A 
ATOM     33  C   UNL A   1      40.289  26.591  27.096  1.00  0.00     0.010 A 
ATOM     34  C   UNL A   1      41.042  26.868  28.239  1.00  0.00    -0.014 A 
BRANCH  34  35
ATOM     35  C   UNL A   1      40.975  28.236  28.786  1.00  0.00     0.031 A 
ATOM     36  C   UNL A   1      42.072  29.203  28.425  1.00  0.00     0.074 A 
ATOM     37  C   UNL A   1      39.849  28.788  29.303  1.00  0.00     0.049 A 
ATOM     38  N   UNL A   1      42.583  30.148  29.161  1.00  0.00    -0.248 NA
ATOM     39  C   UNL A   1      42.640  29.158  27.073  1.00  0.00     0.031 C 
ATOM     40  C   UNL A   1      38.529  28.212  29.545  1.00  0.00     0.029 A 
ATOM     41  N   UNL A   1      39.658  30.093  29.659  1.00  0.00    -0.354 N 
ATOM     42  C   UNL A   1      43.416  30.885  28.326  1.00  0.00     0.074 A 
ATOM     43  C   UNL A   1      43.385  30.261  27.037  1.00  0.00     0.031 C 
ATOM     44  C   UNL A   1      37.631  29.188  29.833  1.00  0.00     0.029 A 
ATOM     45  C   UNL A   1      38.354  30.436  29.992  1.00  0.00     0.049 A 
ATOM     46  H   UNL A   1      40.394  30.747  29.680  1.00  0.00     0.167 HD
ATOM     47  C   UNL A   1      44.158  31.960  28.697  1.00  0.00     0.037 A 
ATOM     48  C   UNL A   1      37.928  31.644  30.429  1.00  0.00     0.037 A 
ATOM     49  C   UNL A   1      44.539  31.896  30.076  1.00  0.00     0.049 A 
ATOM     50  C   UNL A   1      39.120  32.339  30.961  1.00  0.00     0.074 A 
ATOM     51  C   UNL A   1      45.224  30.930  30.795  1.00  0.00     0.029 A 
ATOM     52  N   UNL A   1      43.891  32.635  31.031  1.00  0.00    -0.354 N 
ATOM     53  N   UNL A   1      39.736  32.010  32.059  1.00  0.00    -0.248 NA
ATOM     54  C   UNL A   1      39.824  33.249  30.075  1.00  0.00     0.031 C 
ATOM     55  C   UNL A   1      44.468  30.773  31.994  1.00  0.00     0.029 A 
ATOM     56  C   UNL A   1      43.427  31.699  31.928  1.00  0.00     0.049 A 
ATOM     57  H   UNL A   1      43.784  33.613  31.068  1.00  0.00     0.167 HD
ATOM     58  C   UNL A   1      41.055  32.345  31.826  1.00  0.00     0.074 A 
ATOM     59  C   UNL A   1      41.028  33.204  30.643  1.00  0.00     0.031 C 
ATOM     60  C   UNL A   1      42.080  31.691  32.446  1.00  0.00     0.037 A 
BRANCH  47  61
ATOM     61  C   UNL A   1      44.545  33.044  27.745  1.00  0.00     0.064 A 
ATOM     62  C   UNL A   1      45.777  33.025  27.075  1.00  0.00     0.173 A 
ATOM     63  C   UNL A   1      43.778  34.223  27.612  1.00  0.00     0.173 A 
ATOM     64  F   UNL A   1      46.590  31.963  27.174  1.00  0.00    -0.203 F 
ATOM     65  C   UNL A   1      46.213  34.114  26.315  1.00  0.00     0.198 A 
ATOM     66  C   UNL A   1      44.203  35.298  26.833  1.00  0.00     0.198 A 
ATOM     67  F   UNL A   1      42.625  34.374  28.281  1.00  0.00    -0.203 F 
ATOM     68  F   UNL A   1      47.415  34.073  25.724  1.00  0.00    -0.200 F 
ATOM     69  C   UNL A   1      45.426  35.247  26.192  1.00  0.00     0.200 A 
ATOM     70  F   UNL A   1      43.439  36.395  26.734  1.00  0.00    -0.200 F 
ATOM     71  F   UNL A   1      45.857  36.297  25.480  1.00  0.00    -0.200 F 
ENDBRANCH  47  61
BRANCH  48  72
ATOM     72  C   UNL A   1      36.630  32.350  30.426  1.00  0.00     0.064 A 
ATOM     73  C   UNL A   1      35.880  32.461  31.613  1.00  0.00     0.173 A 
ATOM     74  C   UNL A   1      36.290  33.219  29.379  1.00  0.00     0.173 A 
ATOM     75  F   UNL A   1      36.154  31.675  32.665  1.00  0.00    -0.203 F 
ATOM     76  C   UNL A   1      34.891  33.433  31.769  1.00  0.00     0.198 A 
ATOM     77  C   UNL A   1      35.295  34.190  29.535  1.00  0.00     0.198 A 
ATOM     78  F   UNL A   1      36.983  33.205  28.230  1.00  0.00    -0.203 F 
ATOM     79  F   UNL A   1      34.259  33.561  32.944  1.00  0.00    -0.200 F 
ATOM     80  C   UNL A   1      34.615  34.311  30.737  1.00  0.00     0.200 A 
ATOM     81  F   UNL A   1      35.045  35.057  28.544  1.00  0.00    -0.200 F 
ATOM     82  F   UNL A   1      33.721  35.296  30.913  1.00  0.00    -0.200 F 
ENDBRANCH  48  72
BRANCH  60  83
ATOM     83  C   UNL A   1      41.758  30.666  33.508  1.00  0.00     0.064 A 
ATOM     84  C   UNL A   1      41.515  29.306  33.235  1.00  0.00     0.173 A 
ATOM     85  C   UNL A   1      41.886  31.019  34.857  1.00  0.00     0.173 A 
ATOM     86  F   UNL A   1      41.482  28.848  31.983  1.00  0.00    -0.203 F 
ATOM     87  C   UNL A   1      41.374  28.362  34.251  1.00  0.00     0.198 A 
ATOM     88  C   UNL A   1      41.781  30.069  35.873  1.00  0.00     0.198 A 
ATOM     89  F   UNL A   1      42.175  32.286  35.197  1.00  0.00    -0.203 F 
ATOM     90  F   UNL A   1      41.148  27.074  33.947  1.00  0.00    -0.200 F 
ATOM     91  C   UNL A   1      41.519  28.743  35.570  1.00  0.00     0.200 A 
ATOM     92  F   UNL A   1      41.976  30.431  37.149  1.00  0.00    -0.200 F 
ATOM     93  F   UNL A   1      41.441  27.827  36.547  1.00  0.00    -0.200 F 
ENDBRANCH  60  83
ENDBRANCH  34  35
ENDBRANCH  27  29
ENDBRANCH  26  27
ENDBRANCH  25  26
ENDBRANCH   1  25
TORSDOF 14
ENDMDL
MODEL 3
REMARK VINA RESULT:     -12.7      1.267      1.910
REMARK SMILES CCn1ccc2cc(S(=O)(=O)N3CCC[C@@H](C(=O)OCCOC(=O)c4ccc(-c5c6nc(c(-c7c(F)c(F)c(F)c(F)c7F)c7ccc([nH]7)c(-c7c(F)c(F)c(F)c(F)c7F)c7nc(c(-c8c(F)c(F)c(F)c(F)c8F)c8ccc5[nH]8)C=C7)C=C6)cc4)C3)ccc21
REMARK SMILES IDX 20 1 19 2 17 3 18 4 16 5 12 6 13 7 88 8 14 9 15 10 9 11
REMARK SMILES IDX 10 12 11 13 8 14 3 15 4 16 91 17 5 18 6 19 90 20 7 21 89 22
REMARK SMILES IDX 2 23 1 24 21 25 22 26 23 27 24 28 25 29 26 30 87 31 27 32
REMARK SMILES IDX 86 33 28 34 29 35 30 36 80 37 31 38 85 39 79 40 81 41 32 42
REMARK SMILES IDX 84 43 78 44 77 45 33 47 65 48 45 49 64 50 46 51 49 52 63 53
REMARK SMILES IDX 82 54 47 55 48 56 62 58 83 59 50 60 34 61 35 62 43 63 36 64
REMARK SMILES IDX 37 65 41 66 44 67 38 68 39 69 42 70 40 71 66 72 67 73 75 74
REMARK SMILES IDX 68 75 69 76 73 77 76 78 70 79 71 80 74 81 72 82 51 83 52 84
REMARK SMILES IDX 60 85 53 86 54 87 58 88 61 89 55 90 56 91 59 92 57 93
REMARK H PARENT 81 46 49 57
REMARK Flexibility Score: inf
ROOT
ATOM      1  C   UNL A   1      36.597  22.653  25.201  1.00  0.00     0.274 C 
ENDROOT
BRANCH   1   2
ATOM      2  O   UNL A   1      35.826  21.661  24.469  1.00  0.00    -0.462 OA
BRANCH   2   3
ATOM      3  C   UNL A   1      34.532  21.498  24.880  1.00  0.00     0.310 C 
ATOM      4  O   UNL A   1      34.210  20.721  25.768  1.00  0.00    -0.252 OA
BRANCH   3   5
ATOM      5  C   UNL A   1      33.497  22.225  24.013  1.00  0.00     0.114 C 
ATOM      6  N   UNL A   1      32.266  24.416  24.455  1.00  0.00    -0.197 NA
ATOM      7  C   UNL A   1      32.242  24.771  23.010  1.00  0.00     0.102 C 
ATOM      8  C   UNL A   1      32.333  22.940  24.757  1.00  0.00     0.117 C 
ATOM      9  C   UNL A   1      32.994  23.765  22.151  1.00  0.00     0.018 C 
ATOM     10  C   UNL A   1      34.116  23.099  22.927  1.00  0.00     0.018 C 
BRANCH   6  11
ATOM     11  S   UNL A   1      31.188  25.393  25.406  1.00  0.00     0.243 S 
ATOM     12  O   UNL A   1      31.079  24.795  26.722  1.00  0.00    -0.207 OA
ATOM     13  O   UNL A   1      30.025  25.712  24.616  1.00  0.00    -0.207 OA
BRANCH  11  14
ATOM     14  C   UNL A   1      32.084  26.931  25.658  1.00  0.00     0.083 A 
ATOM     15  N   UNL A   1      33.414  30.553  27.171  1.00  0.00    -0.348 N 
ATOM     16  C   UNL A   1      32.396  31.399  26.795  1.00  0.00     0.087 A 
ATOM     17  C   UNL A   1      33.188  29.292  26.645  1.00  0.00     0.048 A 
ATOM     18  C   UNL A   1      31.504  30.687  26.027  1.00  0.00     0.028 A 
ATOM     19  C   UNL A   1      31.959  29.340  25.971  1.00  0.00     0.001 A 
ATOM     20  C   UNL A   1      33.921  28.098  26.730  1.00  0.00     0.028 A 
ATOM     21  C   UNL A   1      31.393  28.141  25.474  1.00  0.00     0.032 A 
ATOM     22  C   UNL A   1      33.360  26.926  26.210  1.00  0.00     0.024 A 
BRANCH  15  23
ATOM     23  C   UNL A   1      34.448  30.948  28.119  1.00  0.00     0.119 C 
ATOM     24  C   UNL A   1      35.872  30.961  27.589  1.00  0.00     0.027 C 
ENDBRANCH  15  23
ENDBRANCH  11  14
ENDBRANCH   6  11
ENDBRANCH   3   5
ENDBRANCH   2   3
ENDBRANCH   1   2
BRANCH   1  25
ATOM     25  C   UNL A   1      37.880  22.051  25.797  1.00  0.00     0.275 C 
BRANCH  25  26
ATOM     26  O   UNL A   1      38.840  23.104  25.996  1.00  0.00    -0.458 OA
BRANCH  26  27
ATOM     27  C   UNL A   1      39.652  22.913  27.062  1.00  0.00     0.338 C 
ATOM     28  O   UNL A   1      40.131  21.857  27.437  1.00  0.00    -0.246 OA
BRANCH  27  29
ATOM     29  C   UNL A   1      40.194  24.245  27.395  1.00  0.00     0.060 A 
ATOM     30  C   UNL A   1      41.300  24.447  28.232  1.00  0.00     0.016 A 
ATOM     31  C   UNL A   1      39.386  25.312  27.033  1.00  0.00     0.016 A 
ATOM     32  C   UNL A   1      41.544  25.718  28.776  1.00  0.00     0.010 A 
ATOM     33  C   UNL A   1      39.625  26.552  27.599  1.00  0.00     0.010 A 
ATOM     34  C   UNL A   1      40.671  26.771  28.497  1.00  0.00    -0.014 A 
BRANCH  34  35
ATOM     35  C   UNL A   1      40.837  28.135  29.033  1.00  0.00     0.031 A 
ATOM     36  C   UNL A   1      42.046  28.926  28.607  1.00  0.00     0.074 A 
ATOM     37  C   UNL A   1      39.834  28.850  29.600  1.00  0.00     0.049 A 
ATOM     38  N   UNL A   1      42.729  29.787  29.306  1.00  0.00    -0.248 NA
ATOM     39  C   UNL A   1      42.530  28.793  27.228  1.00  0.00     0.031 C 
ATOM     40  C   UNL A   1      38.458  28.479  29.916  1.00  0.00     0.029 A 
ATOM     41  N   UNL A   1      39.858  30.171  29.952  1.00  0.00    -0.354 N 
ATOM     42  C   UNL A   1      43.619  30.388  28.421  1.00  0.00     0.074 A 
ATOM     43  C   UNL A   1      43.428  29.772  27.143  1.00  0.00     0.031 C 
ATOM     44  C   UNL A   1      37.731  29.579  30.238  1.00  0.00     0.029 A 
ATOM     45  C   UNL A   1      38.639  30.706  30.346  1.00  0.00     0.049 A 
ATOM     46  H   UNL A   1      40.684  30.707  29.928  1.00  0.00     0.167 HD
ATOM     47  C   UNL A   1      44.531  31.341  28.744  1.00  0.00     0.037 A 
ATOM     48  C   UNL A   1      38.421  31.965  30.793  1.00  0.00     0.037 A 
ATOM     49  C   UNL A   1      44.968  31.225  30.102  1.00  0.00     0.049 A 
ATOM     50  C   UNL A   1      39.730  32.475  31.256  1.00  0.00     0.074 A 
ATOM     51  C   UNL A   1      45.538  30.169  30.795  1.00  0.00     0.029 A 
ATOM     52  N   UNL A   1      44.488  32.055  31.081  1.00  0.00    -0.354 N 
ATOM     53  N   UNL A   1      40.346  32.061  32.325  1.00  0.00    -0.248 NA
ATOM     54  C   UNL A   1      40.515  33.268  30.326  1.00  0.00     0.031 C 
ATOM     55  C   UNL A   1      44.830  30.131  32.033  1.00  0.00     0.029 A 
ATOM     56  C   UNL A   1      43.937  31.201  32.010  1.00  0.00     0.049 A 
ATOM     57  H   UNL A   1      44.530  33.038  31.113  1.00  0.00     0.167 HD
ATOM     58  C   UNL A   1      41.686  32.194  32.022  1.00  0.00     0.074 A 
ATOM     59  C   UNL A   1      41.726  33.045  30.833  1.00  0.00     0.031 C 
ATOM     60  C   UNL A   1      42.632  31.397  32.596  1.00  0.00     0.037 A 
BRANCH  47  61
ATOM     61  C   UNL A   1      45.025  32.352  27.761  1.00  0.00     0.064 A 
ATOM     62  C   UNL A   1      46.326  32.292  27.241  1.00  0.00     0.173 A 
ATOM     63  C   UNL A   1      44.279  33.511  27.451  1.00  0.00     0.173 A 
ATOM     64  F   UNL A   1      47.122  31.247  27.513  1.00  0.00    -0.203 F 
ATOM     65  C   UNL A   1      46.848  33.324  26.454  1.00  0.00     0.198 A 
ATOM     66  C   UNL A   1      44.792  34.527  26.646  1.00  0.00     0.198 A 
ATOM     67  F   UNL A   1      43.057  33.703  27.971  1.00  0.00    -0.203 F 
ATOM     68  F   UNL A   1      48.109  33.248  26.009  1.00  0.00    -0.200 F 
ATOM     69  C   UNL A   1      46.080  34.437  26.155  1.00  0.00     0.200 A 
ATOM     70  F   UNL A   1      44.045  35.607  26.376  1.00  0.00    -0.200 F 
ATOM     71  F   UNL A   1      46.591  35.433  25.418  1.00  0.00    -0.200 F 
ENDBRANCH  47  61
BRANCH  48  72
ATOM     72  C   UNL A   1      37.245  32.857  30.848  1.00  0.00     0.064 A 
ATOM     73  C   UNL A   1      36.877  33.617  29.721  1.00  0.00     0.173 A 
ATOM     74  C   UNL A   1      36.277  32.705  31.852  1.00  0.00     0.173 A 
ATOM     75  F   UNL A   1      37.742  33.796  28.712  1.00  0.00    -0.203 F 
ATOM     76  C   UNL A   1      35.591  34.136  29.573  1.00  0.00     0.198 A 
ATOM     77  C   UNL A   1      34.988  33.230  31.704  1.00  0.00     0.198 A 
ATOM     78  F   UNL A   1      36.534  31.962  32.939  1.00  0.00    -0.203 F 
ATOM     79  F   UNL A   1      35.255  34.781  28.447  1.00  0.00    -0.200 F 
ATOM     80  C   UNL A   1      34.641  33.924  30.556  1.00  0.00     0.200 A 
ATOM     81  F   UNL A   1      34.062  33.002  32.646  1.00  0.00    -0.200 F 
ATOM     82  F   UNL A   1      33.383  34.354  30.380  1.00  0.00    -0.200 F 
ENDBRANCH  48  72
BRANCH  60  83
ATOM     83  C   UNL A   1      42.216  30.434  33.684  1.00  0.00     0.064 A 
ATOM     84  C   UNL A   1      41.779  29.118  33.439  1.00  0.00     0.173 A 
ATOM     85  C   UNL A   1      42.446  30.778  35.022  1.00  0.00     0.173 A 
ATOM     86  F   UNL A   1      41.634  28.658  32.196  1.00  0.00    -0.203 F 
ATOM     87  C   UNL A   1      41.552  28.211  34.472  1.00  0.00     0.198 A 
ATOM     88  C   UNL A   1      42.253  29.859  36.054  1.00  0.00     0.198 A 
ATOM     89  F   UNL A   1      42.919  31.996  35.332  1.00  0.00    -0.203 F 
ATOM     90  F   UNL A   1      41.140  26.964  34.195  1.00  0.00    -0.200 F 
ATOM     91  C   UNL A   1      41.801  28.579  35.780  1.00  0.00     0.200 A 
ATOM     92  F   UNL A   1      42.547  30.202  37.316  1.00  0.00    -0.200 F 
ATOM     93  F   UNL A   1      41.637  27.691  36.771  1.00  0.00    -0.200 F 
ENDBRANCH  60  83
ENDBRANCH  34  35
ENDBRANCH  27  29
ENDBRANCH  26  27
ENDBRANCH  25  26
ENDBRANCH   1  25
TORSDOF 14
ENDMDL
