MODEL 1
REMARK VINA RESULT:     -13.9      0.000      0.000
REMARK SMILES O=C(OCCOC(=O)c1nnn(-c2cccc(C(F)(F)F)c2)c1[C@H]1COc2ccccc2O1)c1ccc(-c2c3nc(c(-c4c(F)c(F)c(F)c(F)c4F)c4ccc([nH]4)c(-c4c(F)c(F)c(F)c(F)c4F)c4nc(c(-c5c(F)c(F)c(F)c(F)c5F)c5ccc2[nH]5)C=C4)C=C3)cc1
REMARK SMILES IDX 4 1 3 2 2 3 1 4 34 5 35 6 96 7 36 8 95 9 37 10 38 11 39 12
REMARK SMILES IDX 89 13 40 14 94 15 88 16 90 17 41 18 93 19 87 20 86 21 42 23
REMARK SMILES IDX 74 24 54 25 73 26 55 27 58 28 72 29 91 30 56 31 57 32 71 34
REMARK SMILES IDX 92 35 59 36 43 37 44 38 52 39 45 40 46 41 50 42 53 43 47 44
REMARK SMILES IDX 48 45 51 46 49 47 75 48 76 49 84 50 77 51 78 52 82 53 85 54
REMARK SMILES IDX 79 55 80 56 83 57 81 58 60 59 61 60 69 61 62 62 63 63 67 64
REMARK SMILES IDX 70 65 64 66 65 67 68 68 66 69 5 70 6 71 7 72 8 73 9 74 10 75
REMARK SMILES IDX 23 76 11 77 12 78 24 79 25 80 33 81 26 82 32 83 27 84 31 85
REMARK SMILES IDX 28 86 30 87 29 88 13 89 14 90 22 91 15 92 17 93 16 94 18 95
REMARK SMILES IDX 19 96 20 97 21 98
REMARK H PARENT 90 22 58 33
REMARK Flexibility Score: inf
ROOT
ATOM      1  C   UNL A   1      33.134  31.134  27.191  1.00  0.00     0.275 C 
ENDROOT
BRANCH   1   2
ATOM      2  O   UNL A   1      34.021  31.525  28.258  1.00  0.00    -0.458 OA
BRANCH   2   3
ATOM      3  C   UNL A   1      35.174  32.157  27.944  1.00  0.00     0.338 C 
ATOM      4  O   UNL A   1      35.251  33.291  27.505  1.00  0.00    -0.246 OA
BRANCH   3   5
ATOM      5  C   UNL A   1      36.341  31.318  28.300  1.00  0.00     0.060 A 
ATOM      6  C   UNL A   1      37.478  31.880  28.890  1.00  0.00     0.016 A 
ATOM      7  C   UNL A   1      36.286  29.942  28.045  1.00  0.00     0.016 A 
ATOM      8  C   UNL A   1      38.579  31.086  29.159  1.00  0.00     0.010 A 
ATOM      9  C   UNL A   1      37.397  29.144  28.310  1.00  0.00     0.010 A 
ATOM     10  C   UNL A   1      38.551  29.726  28.839  1.00  0.00    -0.014 A 
BRANCH  10  11
ATOM     11  C   UNL A   1      39.768  28.970  29.105  1.00  0.00     0.031 A 
ATOM     12  C   UNL A   1      40.159  28.791  30.530  1.00  0.00     0.074 A 
ATOM     13  C   UNL A   1      40.519  28.413  28.136  1.00  0.00     0.049 A 
ATOM     14  N   UNL A   1      41.242  29.194  31.117  1.00  0.00    -0.248 NA
ATOM     15  C   UNL A   1      39.220  28.092  31.415  1.00  0.00     0.031 C 
ATOM     16  C   UNL A   1      40.180  28.224  26.727  1.00  0.00     0.029 A 
ATOM     17  N   UNL A   1      41.741  27.817  28.254  1.00  0.00    -0.354 N 
ATOM     18  C   UNL A   1      41.197  28.682  32.413  1.00  0.00     0.074 A 
ATOM     19  C   UNL A   1      39.899  28.072  32.564  1.00  0.00     0.031 C 
ATOM     20  C   UNL A   1      41.081  27.386  26.167  1.00  0.00     0.029 A 
ATOM     21  C   UNL A   1      42.123  27.092  27.138  1.00  0.00     0.049 A 
ATOM     22  H   UNL A   1      42.300  27.895  29.060  1.00  0.00     0.167 HD
ATOM     23  C   UNL A   1      42.294  28.660  33.221  1.00  0.00     0.037 A 
ATOM     24  C   UNL A   1      43.188  26.261  27.042  1.00  0.00     0.037 A 
ATOM     25  C   UNL A   1      43.309  29.577  32.781  1.00  0.00     0.049 A 
ATOM     26  C   UNL A   1      44.155  26.617  28.108  1.00  0.00     0.074 A 
ATOM     27  C   UNL A   1      43.372  30.945  32.592  1.00  0.00     0.029 A 
ATOM     28  N   UNL A   1      44.441  29.079  32.188  1.00  0.00    -0.354 N 
ATOM     29  N   UNL A   1      44.890  27.693  28.110  1.00  0.00    -0.248 NA
ATOM     30  C   UNL A   1      44.061  25.923  29.383  1.00  0.00     0.031 C 
ATOM     31  C   UNL A   1      44.254  31.129  31.488  1.00  0.00     0.029 A 
ATOM     32  C   UNL A   1      44.684  29.862  31.091  1.00  0.00     0.049 A 
ATOM     33  H   UNL A   1      44.974  28.308  32.491  1.00  0.00     0.167 HD
ATOM     34  C   UNL A   1      44.996  28.041  29.447  1.00  0.00     0.074 A 
ATOM     35  C   UNL A   1      44.581  26.855  30.185  1.00  0.00     0.031 C 
ATOM     36  C   UNL A   1      45.139  29.344  29.826  1.00  0.00     0.037 A 
BRANCH  23  37
ATOM     37  C   UNL A   1      42.576  27.604  34.258  1.00  0.00     0.064 A 
ATOM     38  C   UNL A   1      43.172  26.386  33.871  1.00  0.00     0.173 A 
ATOM     39  C   UNL A   1      42.011  27.623  35.550  1.00  0.00     0.173 A 
ATOM     40  F   UNL A   1      43.719  26.249  32.653  1.00  0.00    -0.203 F 
ATOM     41  C   UNL A   1      43.138  25.252  34.688  1.00  0.00     0.198 A 
ATOM     42  C   UNL A   1      42.027  26.505  36.384  1.00  0.00     0.198 A 
ATOM     43  F   UNL A   1      41.334  28.684  36.007  1.00  0.00    -0.203 F 
ATOM     44  F   UNL A   1      43.608  24.085  34.228  1.00  0.00    -0.200 F 
ATOM     45  C   UNL A   1      42.561  25.312  35.943  1.00  0.00     0.200 A 
ATOM     46  F   UNL A   1      41.448  26.576  37.592  1.00  0.00    -0.200 F 
ATOM     47  F   UNL A   1      42.474  24.214  36.704  1.00  0.00    -0.200 F 
ENDBRANCH  23  37
BRANCH  24  48
ATOM     48  C   UNL A   1      43.326  25.034  26.228  1.00  0.00     0.064 A 
ATOM     49  C   UNL A   1      44.362  24.897  25.291  1.00  0.00     0.173 A 
ATOM     50  C   UNL A   1      42.603  23.867  26.541  1.00  0.00     0.173 A 
ATOM     51  F   UNL A   1      45.130  25.949  24.972  1.00  0.00    -0.203 F 
ATOM     52  C   UNL A   1      44.671  23.660  24.719  1.00  0.00     0.198 A 
ATOM     53  C   UNL A   1      42.903  22.636  25.960  1.00  0.00     0.198 A 
ATOM     54  F   UNL A   1      41.654  23.878  27.488  1.00  0.00    -0.203 F 
ATOM     55  F   UNL A   1      45.708  23.553  23.877  1.00  0.00    -0.200 F 
ATOM     56  C   UNL A   1      43.946  22.530  25.059  1.00  0.00     0.200 A 
ATOM     57  F   UNL A   1      42.216  21.544  26.325  1.00  0.00    -0.200 F 
ATOM     58  F   UNL A   1      44.279  21.333  24.555  1.00  0.00    -0.200 F 
ENDBRANCH  24  48
BRANCH  36  59
ATOM     59  C   UNL A   1      45.511  30.346  28.773  1.00  0.00     0.064 A 
ATOM     60  C   UNL A   1      44.587  30.935  27.893  1.00  0.00     0.173 A 
ATOM     61  C   UNL A   1      46.829  30.823  28.744  1.00  0.00     0.173 A 
ATOM     62  F   UNL A   1      43.287  30.613  27.940  1.00  0.00    -0.203 F 
ATOM     63  C   UNL A   1      44.982  31.915  26.985  1.00  0.00     0.198 A 
ATOM     64  C   UNL A   1      47.212  31.832  27.863  1.00  0.00     0.198 A 
ATOM     65  F   UNL A   1      47.739  30.342  29.605  1.00  0.00    -0.203 F 
ATOM     66  F   UNL A   1      44.088  32.449  26.141  1.00  0.00    -0.200 F 
ATOM     67  C   UNL A   1      46.293  32.366  26.975  1.00  0.00     0.200 A 
ATOM     68  F   UNL A   1      48.466  32.303  27.893  1.00  0.00    -0.200 F 
ATOM     69  F   UNL A   1      46.663  33.338  26.130  1.00  0.00    -0.200 F 
ENDBRANCH  36  59
ENDBRANCH  10  11
ENDBRANCH   3   5
ENDBRANCH   2   3
ENDBRANCH   1   2
BRANCH   1  70
ATOM     70  C   UNL A   1      32.515  29.739  27.263  1.00  0.00     0.275 C 
BRANCH  70  71
ATOM     71  O   UNL A   1      32.044  29.344  25.964  1.00  0.00    -0.457 OA
BRANCH  71  72
ATOM     72  C   UNL A   1      33.018  28.914  25.098  1.00  0.00     0.361 C 
ATOM     73  O   UNL A   1      33.577  29.597  24.265  1.00  0.00    -0.244 OA
BRANCH  72  74
ATOM     74  C   UNL A   1      33.190  27.474  25.180  1.00  0.00     0.198 A 
ATOM     75  N   UNL A   1      34.061  26.829  26.020  1.00  0.00    -0.122 NA
ATOM     76  C   UNL A   1      32.457  26.533  24.481  1.00  0.00     0.123 A 
ATOM     77  N   UNL A   1      33.917  25.519  25.831  1.00  0.00    -0.061 NA
ATOM     78  N   UNL A   1      33.100  25.350  24.768  1.00  0.00    -0.213 N 
BRANCH  76  79
ATOM     79  C   UNL A   1      31.180  26.646  23.719  1.00  0.00     0.262 C 
ATOM     80  C   UNL A   1      29.987  26.595  24.686  1.00  0.00     0.281 C 
ATOM     81  O   UNL A   1      31.249  27.894  23.024  1.00  0.00    -0.477 OA
ATOM     82  O   UNL A   1      28.753  26.790  23.991  1.00  0.00    -0.485 OA
ATOM     83  C   UNL A   1      30.030  28.454  22.768  1.00  0.00     0.162 A 
ATOM     84  C   UNL A   1      28.822  27.923  23.224  1.00  0.00     0.161 A 
ATOM     85  C   UNL A   1      30.042  29.636  22.032  1.00  0.00     0.050 A 
ATOM     86  C   UNL A   1      27.621  28.550  22.908  1.00  0.00     0.050 A 
ATOM     87  C   UNL A   1      28.843  30.284  21.742  1.00  0.00     0.004 A 
ATOM     88  C   UNL A   1      27.633  29.738  22.174  1.00  0.00     0.004 A 
ENDBRANCH  76  79
BRANCH  78  89
ATOM     89  C   UNL A   1      32.972  24.119  24.098  1.00  0.00     0.067 A 
ATOM     90  C   UNL A   1      32.816  24.081  22.713  1.00  0.00     0.028 A 
ATOM     91  C   UNL A   1      33.027  22.934  24.846  1.00  0.00     0.041 A 
ATOM     92  C   UNL A   1      32.817  22.843  22.068  1.00  0.00     0.003 A 
ATOM     93  C   UNL A   1      32.989  21.689  24.207  1.00  0.00     0.058 A 
ATOM     94  C   UNL A   1      32.912  21.657  22.807  1.00  0.00     0.013 A 
BRANCH  93  95
ATOM     95  C   UNL A   1      33.045  20.411  25.011  1.00  0.00     0.416 C 
ATOM     96  F   UNL A   1      31.821  19.846  25.184  1.00  0.00    -0.166 F 
ATOM     97  F   UNL A   1      33.822  19.464  24.419  1.00  0.00    -0.166 F 
ATOM     98  F   UNL A   1      33.558  20.586  26.261  1.00  0.00    -0.166 F 
ENDBRANCH  93  95
ENDBRANCH  78  89
ENDBRANCH  72  74
ENDBRANCH  71  72
ENDBRANCH  70  71
ENDBRANCH   1  70
TORSDOF 14
ENDMDL
MODEL 2
REMARK VINA RESULT:     -13.8      3.713      8.687
REMARK SMILES O=C(OCCOC(=O)c1nnn(-c2cccc(C(F)(F)F)c2)c1[C@H]1COc2ccccc2O1)c1ccc(-c2c3nc(c(-c4c(F)c(F)c(F)c(F)c4F)c4ccc([nH]4)c(-c4c(F)c(F)c(F)c(F)c4F)c4nc(c(-c5c(F)c(F)c(F)c(F)c5F)c5ccc2[nH]5)C=C4)C=C3)cc1
REMARK SMILES IDX 4 1 3 2 2 3 1 4 34 5 35 6 96 7 36 8 95 9 37 10 38 11 39 12
REMARK SMILES IDX 89 13 40 14 94 15 88 16 90 17 41 18 93 19 87 20 86 21 42 23
REMARK SMILES IDX 74 24 54 25 73 26 55 27 58 28 72 29 91 30 56 31 57 32 71 34
REMARK SMILES IDX 92 35 59 36 43 37 44 38 52 39 45 40 46 41 50 42 53 43 47 44
REMARK SMILES IDX 48 45 51 46 49 47 75 48 76 49 84 50 77 51 78 52 82 53 85 54
REMARK SMILES IDX 79 55 80 56 83 57 81 58 60 59 61 60 69 61 62 62 63 63 67 64
REMARK SMILES IDX 70 65 64 66 65 67 68 68 66 69 5 70 6 71 7 72 8 73 9 74 10 75
REMARK SMILES IDX 23 76 11 77 12 78 24 79 25 80 33 81 26 82 32 83 27 84 31 85
REMARK SMILES IDX 28 86 30 87 29 88 13 89 14 90 22 91 15 92 17 93 16 94 18 95
REMARK SMILES IDX 19 96 20 97 21 98
REMARK H PARENT 90 22 58 33
REMARK Flexibility Score: inf
ROOT
ATOM      1  C   UNL A   1      37.659  21.051  25.184  1.00  0.00     0.275 C 
ENDROOT
BRANCH   1   2
ATOM      2  O   UNL A   1      38.465  22.205  25.499  1.00  0.00    -0.458 OA
BRANCH   2   3
ATOM      3  C   UNL A   1      39.452  22.076  26.413  1.00  0.00     0.338 C 
ATOM      4  O   UNL A   1      40.059  21.046  26.644  1.00  0.00    -0.246 OA
BRANCH   3   5
ATOM      5  C   UNL A   1      39.764  23.386  27.030  1.00  0.00     0.060 A 
ATOM      6  C   UNL A   1      38.929  24.491  26.833  1.00  0.00     0.016 A 
ATOM      7  C   UNL A   1      40.909  23.501  27.828  1.00  0.00     0.016 A 
ATOM      8  C   UNL A   1      39.271  25.719  27.370  1.00  0.00     0.010 A 
ATOM      9  C   UNL A   1      41.258  24.740  28.362  1.00  0.00     0.010 A 
ATOM     10  C   UNL A   1      40.452  25.851  28.107  1.00  0.00    -0.014 A 
BRANCH  10  11
ATOM     11  C   UNL A   1      40.769  27.188  28.593  1.00  0.00     0.031 A 
ATOM     12  C   UNL A   1      42.021  27.814  28.090  1.00  0.00     0.074 A 
ATOM     13  C   UNL A   1      39.975  27.876  29.435  1.00  0.00     0.049 A 
ATOM     14  N   UNL A   1      43.053  28.196  28.774  1.00  0.00    -0.248 NA
ATOM     15  C   UNL A   1      42.148  28.026  26.643  1.00  0.00     0.031 C 
ATOM     16  C   UNL A   1      38.596  27.580  29.821  1.00  0.00     0.029 A 
ATOM     17  N   UNL A   1      40.236  29.059  30.063  1.00  0.00    -0.354 N 
ATOM     18  C   UNL A   1      43.908  28.827  27.871  1.00  0.00     0.074 A 
ATOM     19  C   UNL A   1      43.334  28.632  26.563  1.00  0.00     0.031 C 
ATOM     20  C   UNL A   1      38.077  28.655  30.456  1.00  0.00     0.029 A 
ATOM     21  C   UNL A   1      39.122  29.651  30.633  1.00  0.00     0.049 A 
ATOM     22  H   UNL A   1      41.136  29.455  30.107  1.00  0.00     0.167 HD
ATOM     23  C   UNL A   1      44.950  29.603  28.283  1.00  0.00     0.037 A 
ATOM     24  C   UNL A   1      39.051  30.898  31.157  1.00  0.00     0.037 A 
ATOM     25  C   UNL A   1      45.316  29.340  29.647  1.00  0.00     0.049 A 
ATOM     26  C   UNL A   1      40.425  31.343  31.490  1.00  0.00     0.074 A 
ATOM     27  C   UNL A   1      45.758  28.230  30.342  1.00  0.00     0.029 A 
ATOM     28  N   UNL A   1      44.991  30.261  30.611  1.00  0.00    -0.354 N 
ATOM     29  N   UNL A   1      41.134  30.878  32.479  1.00  0.00    -0.248 NA
ATOM     30  C   UNL A   1      41.169  32.091  30.487  1.00  0.00     0.031 C 
ATOM     31  C   UNL A   1      45.210  28.364  31.651  1.00  0.00     0.029 A 
ATOM     32  C   UNL A   1      44.486  29.556  31.670  1.00  0.00     0.049 A 
ATOM     33  H   UNL A   1      45.100  31.238  30.551  1.00  0.00     0.167 HD
ATOM     34  C   UNL A   1      42.440  30.902  32.016  1.00  0.00     0.074 A 
ATOM     35  C   UNL A   1      42.414  31.772  30.847  1.00  0.00     0.031 C 
ATOM     36  C   UNL A   1      43.359  29.994  32.455  1.00  0.00     0.037 A 
BRANCH  23  37
ATOM     37  C   UNL A   1      45.468  30.809  27.543  1.00  0.00     0.064 A 
ATOM     38  C   UNL A   1      46.834  30.888  27.203  1.00  0.00     0.173 A 
ATOM     39  C   UNL A   1      44.741  32.012  27.427  1.00  0.00     0.173 A 
ATOM     40  F   UNL A   1      47.626  29.808  27.299  1.00  0.00    -0.203 F 
ATOM     41  C   UNL A   1      47.441  32.096  26.846  1.00  0.00     0.198 A 
ATOM     42  C   UNL A   1      45.338  33.205  27.019  1.00  0.00     0.198 A 
ATOM     43  F   UNL A   1      43.459  32.100  27.807  1.00  0.00    -0.203 F 
ATOM     44  F   UNL A   1      48.765  32.144  26.652  1.00  0.00    -0.200 F 
ATOM     45  C   UNL A   1      46.692  33.255  26.759  1.00  0.00     0.200 A 
ATOM     46  F   UNL A   1      44.601  34.324  26.956  1.00  0.00    -0.200 F 
ATOM     47  F   UNL A   1      47.280  34.424  26.475  1.00  0.00    -0.200 F 
ENDBRANCH  23  37
BRANCH  24  48
ATOM     48  C   UNL A   1      37.894  31.818  31.185  1.00  0.00     0.064 A 
ATOM     49  C   UNL A   1      37.446  32.457  30.018  1.00  0.00     0.173 A 
ATOM     50  C   UNL A   1      37.041  31.884  32.304  1.00  0.00     0.173 A 
ATOM     51  F   UNL A   1      38.175  32.401  28.893  1.00  0.00    -0.203 F 
ATOM     52  C   UNL A   1      36.208  33.103  29.967  1.00  0.00     0.198 A 
ATOM     53  C   UNL A   1      35.812  32.540  32.257  1.00  0.00     0.198 A 
ATOM     54  F   UNL A   1      37.340  31.231  33.437  1.00  0.00    -0.203 F 
ATOM     55  F   UNL A   1      35.784  33.646  28.818  1.00  0.00    -0.200 F 
ATOM     56  C   UNL A   1      35.390  33.138  31.085  1.00  0.00     0.200 A 
ATOM     57  F   UNL A   1      35.016  32.536  33.335  1.00  0.00    -0.200 F 
ATOM     58  F   UNL A   1      34.178  33.708  31.020  1.00  0.00    -0.200 F 
ENDBRANCH  24  48
BRANCH  36  59
ATOM     59  C   UNL A   1      43.028  29.192  33.678  1.00  0.00     0.064 A 
ATOM     60  C   UNL A   1      42.205  28.052  33.667  1.00  0.00     0.173 A 
ATOM     61  C   UNL A   1      43.673  29.513  34.881  1.00  0.00     0.173 A 
ATOM     62  F   UNL A   1      41.645  27.616  32.530  1.00  0.00    -0.203 F 
ATOM     63  C   UNL A   1      41.994  27.305  34.824  1.00  0.00     0.198 A 
ATOM     64  C   UNL A   1      43.492  28.740  36.025  1.00  0.00     0.198 A 
ATOM     65  F   UNL A   1      44.520  30.553  34.934  1.00  0.00    -0.203 F 
ATOM     66  F   UNL A   1      41.189  26.234  34.794  1.00  0.00    -0.200 F 
ATOM     67  C   UNL A   1      42.642  27.647  36.000  1.00  0.00     0.200 A 
ATOM     68  F   UNL A   1      44.162  29.042  37.147  1.00  0.00    -0.200 F 
ATOM     69  F   UNL A   1      42.470  26.905  37.102  1.00  0.00    -0.200 F 
ENDBRANCH  36  59
ENDBRANCH  10  11
ENDBRANCH   3   5
ENDBRANCH   2   3
ENDBRANCH   1   2
BRANCH   1  70
ATOM     70  C   UNL A   1      36.150  21.257  25.064  1.00  0.00     0.275 C 
BRANCH  70  71
ATOM     71  O   UNL A   1      35.859  22.653  24.882  1.00  0.00    -0.457 OA
BRANCH  71  72
ATOM     72  C   UNL A   1      35.047  23.208  25.840  1.00  0.00     0.361 C 
ATOM     73  O   UNL A   1      34.859  22.762  26.952  1.00  0.00    -0.244 OA
BRANCH  72  74
ATOM     74  C   UNL A   1      34.292  24.326  25.301  1.00  0.00     0.198 A 
ATOM     75  N   UNL A   1      34.709  25.631  25.295  1.00  0.00    -0.122 NA
ATOM     76  C   UNL A   1      33.075  24.237  24.650  1.00  0.00     0.123 A 
ATOM     77  N   UNL A   1      33.768  26.358  24.696  1.00  0.00    -0.061 NA
ATOM     78  N   UNL A   1      32.703  25.553  24.490  1.00  0.00    -0.213 N 
BRANCH  76  79
ATOM     79  C   UNL A   1      32.348  23.069  24.074  1.00  0.00     0.262 C 
ATOM     80  C   UNL A   1      32.911  22.736  22.684  1.00  0.00     0.281 C 
ATOM     81  O   UNL A   1      32.541  21.995  24.998  1.00  0.00    -0.477 OA
ATOM     82  O   UNL A   1      32.292  21.564  22.146  1.00  0.00    -0.485 OA
ATOM     83  C   UNL A   1      32.487  20.756  24.427  1.00  0.00     0.162 A 
ATOM     84  C   UNL A   1      32.359  20.541  23.054  1.00  0.00     0.161 A 
ATOM     85  C   UNL A   1      32.599  19.675  25.298  1.00  0.00     0.050 A 
ATOM     86  C   UNL A   1      32.300  19.243  22.553  1.00  0.00     0.050 A 
ATOM     87  C   UNL A   1      32.573  18.375  24.796  1.00  0.00     0.004 A 
ATOM     88  C   UNL A   1      32.417  18.159  23.426  1.00  0.00     0.004 A 
ENDBRANCH  76  79
BRANCH  78  89
ATOM     89  C   UNL A   1      31.428  26.050  24.163  1.00  0.00     0.067 A 
ATOM     90  C   UNL A   1      30.284  25.314  24.465  1.00  0.00     0.028 A 
ATOM     91  C   UNL A   1      31.330  27.308  23.549  1.00  0.00     0.041 A 
ATOM     92  C   UNL A   1      29.032  25.890  24.241  1.00  0.00     0.003 A 
ATOM     93  C   UNL A   1      30.077  27.874  23.285  1.00  0.00     0.058 A 
ATOM     94  C   UNL A   1      28.929  27.163  23.664  1.00  0.00     0.013 A 
BRANCH  93  95
ATOM     95  C   UNL A   1      29.970  29.226  22.621  1.00  0.00     0.416 C 
ATOM     96  F   UNL A   1      29.807  30.238  23.515  1.00  0.00    -0.166 F 
ATOM     97  F   UNL A   1      31.079  29.533  21.895  1.00  0.00    -0.166 F 
ATOM     98  F   UNL A   1      28.921  29.317  21.757  1.00  0.00    -0.166 F 
ENDBRANCH  93  95
ENDBRANCH  78  89
ENDBRANCH  72  74
ENDBRANCH  71  72
ENDBRANCH  70  71
ENDBRANCH   1  70
TORSDOF 14
ENDMDL
MODEL 3
REMARK VINA RESULT:     -13.7      3.600      8.353
REMARK SMILES O=C(OCCOC(=O)c1nnn(-c2cccc(C(F)(F)F)c2)c1[C@H]1COc2ccccc2O1)c1ccc(-c2c3nc(c(-c4c(F)c(F)c(F)c(F)c4F)c4ccc([nH]4)c(-c4c(F)c(F)c(F)c(F)c4F)c4nc(c(-c5c(F)c(F)c(F)c(F)c5F)c5ccc2[nH]5)C=C4)C=C3)cc1
REMARK SMILES IDX 4 1 3 2 2 3 1 4 34 5 35 6 96 7 36 8 95 9 37 10 38 11 39 12
REMARK SMILES IDX 89 13 40 14 94 15 88 16 90 17 41 18 93 19 87 20 86 21 42 23
REMARK SMILES IDX 74 24 54 25 73 26 55 27 58 28 72 29 91 30 56 31 57 32 71 34
REMARK SMILES IDX 92 35 59 36 43 37 44 38 52 39 45 40 46 41 50 42 53 43 47 44
REMARK SMILES IDX 48 45 51 46 49 47 75 48 76 49 84 50 77 51 78 52 82 53 85 54
REMARK SMILES IDX 79 55 80 56 83 57 81 58 60 59 61 60 69 61 62 62 63 63 67 64
REMARK SMILES IDX 70 65 64 66 65 67 68 68 66 69 5 70 6 71 7 72 8 73 9 74 10 75
REMARK SMILES IDX 23 76 11 77 12 78 24 79 25 80 33 81 26 82 32 83 27 84 31 85
REMARK SMILES IDX 28 86 30 87 29 88 13 89 14 90 22 91 15 92 17 93 16 94 18 95
REMARK SMILES IDX 19 96 20 97 21 98
REMARK H PARENT 90 22 58 33
REMARK Flexibility Score: inf
ROOT
ATOM      1  C   UNL A   1      37.647  20.907  25.251  1.00  0.00     0.275 C 
ENDROOT
BRANCH   1   2
ATOM      2  O   UNL A   1      38.267  22.134  25.687  1.00  0.00    -0.458 OA
BRANCH   2   3
ATOM      3  C   UNL A   1      39.386  22.062  26.443  1.00  0.00     0.338 C 
ATOM      4  O   UNL A   1      40.089  21.075  26.556  1.00  0.00    -0.246 OA
BRANCH   3   5
ATOM      5  C   UNL A   1      39.696  23.382  27.038  1.00  0.00     0.060 A 
ATOM      6  C   UNL A   1      38.871  24.488  26.806  1.00  0.00     0.016 A 
ATOM      7  C   UNL A   1      40.829  23.506  27.853  1.00  0.00     0.016 A 
ATOM      8  C   UNL A   1      39.213  25.725  27.324  1.00  0.00     0.010 A 
ATOM      9  C   UNL A   1      41.177  24.752  28.368  1.00  0.00     0.010 A 
ATOM     10  C   UNL A   1      40.382  25.863  28.078  1.00  0.00    -0.014 A 
BRANCH  10  11
ATOM     11  C   UNL A   1      40.700  27.208  28.543  1.00  0.00     0.031 A 
ATOM     12  C   UNL A   1      41.956  27.823  28.035  1.00  0.00     0.074 A 
ATOM     13  C   UNL A   1      39.904  27.912  29.369  1.00  0.00     0.049 A 
ATOM     14  N   UNL A   1      42.986  28.214  28.717  1.00  0.00    -0.248 NA
ATOM     15  C   UNL A   1      42.091  28.009  26.585  1.00  0.00     0.031 C 
ATOM     16  C   UNL A   1      38.523  27.626  29.754  1.00  0.00     0.029 A 
ATOM     17  N   UNL A   1      40.165  29.105  29.978  1.00  0.00    -0.354 N 
ATOM     18  C   UNL A   1      43.847  28.828  27.808  1.00  0.00     0.074 A 
ATOM     19  C   UNL A   1      43.278  28.611  26.501  1.00  0.00     0.031 C 
ATOM     20  C   UNL A   1      38.003  28.712  30.368  1.00  0.00     0.029 A 
ATOM     21  C   UNL A   1      39.050  29.709  30.532  1.00  0.00     0.049 A 
ATOM     22  H   UNL A   1      41.065  29.500  30.020  1.00  0.00     0.167 HD
ATOM     23  C   UNL A   1      44.888  29.608  28.212  1.00  0.00     0.037 A 
ATOM     24  C   UNL A   1      38.979  30.964  31.036  1.00  0.00     0.037 A 
ATOM     25  C   UNL A   1      45.247  29.367  29.582  1.00  0.00     0.049 A 
ATOM     26  C   UNL A   1      40.353  31.412  31.367  1.00  0.00     0.074 A 
ATOM     27  C   UNL A   1      45.684  28.268  30.297  1.00  0.00     0.029 A 
ATOM     28  N   UNL A   1      44.920  30.306  30.528  1.00  0.00    -0.354 N 
ATOM     29  N   UNL A   1      41.056  30.962  32.367  1.00  0.00    -0.248 NA
ATOM     30  C   UNL A   1      41.103  32.141  30.356  1.00  0.00     0.031 C 
ATOM     31  C   UNL A   1      45.130  28.426  31.601  1.00  0.00     0.029 A 
ATOM     32  C   UNL A   1      44.408  29.620  31.597  1.00  0.00     0.049 A 
ATOM     33  H   UNL A   1      45.032  31.281  30.452  1.00  0.00     0.167 HD
ATOM     34  C   UNL A   1      42.363  30.975  31.911  1.00  0.00     0.074 A 
ATOM     35  C   UNL A   1      42.345  31.826  30.727  1.00  0.00     0.031 C 
ATOM     36  C   UNL A   1      43.279  30.074  32.369  1.00  0.00     0.037 A 
BRANCH  23  37
ATOM     37  C   UNL A   1      45.413  30.801  27.454  1.00  0.00     0.064 A 
ATOM     38  C   UNL A   1      46.787  30.887  27.151  1.00  0.00     0.173 A 
ATOM     39  C   UNL A   1      44.674  31.990  27.284  1.00  0.00     0.173 A 
ATOM     40  F   UNL A   1      47.588  29.821  27.300  1.00  0.00    -0.203 F 
ATOM     41  C   UNL A   1      47.389  32.093  26.779  1.00  0.00     0.198 A 
ATOM     42  C   UNL A   1      45.268  33.179  26.861  1.00  0.00     0.198 A 
ATOM     43  F   UNL A   1      43.382  32.072  27.624  1.00  0.00    -0.203 F 
ATOM     44  F   UNL A   1      48.717  32.153  26.621  1.00  0.00    -0.200 F 
ATOM     45  C   UNL A   1      46.628  33.239  26.638  1.00  0.00     0.200 A 
ATOM     46  F   UNL A   1      44.520  34.286  26.746  1.00  0.00    -0.200 F 
ATOM     47  F   UNL A   1      47.210  34.408  26.339  1.00  0.00    -0.200 F 
ENDBRANCH  23  37
BRANCH  24  48
ATOM     48  C   UNL A   1      37.824  31.888  31.042  1.00  0.00     0.064 A 
ATOM     49  C   UNL A   1      37.404  32.534  29.869  1.00  0.00     0.173 A 
ATOM     50  C   UNL A   1      36.946  31.949  32.141  1.00  0.00     0.173 A 
ATOM     51  F   UNL A   1      38.159  32.484  28.761  1.00  0.00    -0.203 F 
ATOM     52  C   UNL A   1      36.169  33.184  29.794  1.00  0.00     0.198 A 
ATOM     53  C   UNL A   1      35.720  32.609  32.070  1.00  0.00     0.198 A 
ATOM     54  F   UNL A   1      37.217  31.289  33.277  1.00  0.00    -0.203 F 
ATOM     55  F   UNL A   1      35.774  33.735  28.638  1.00  0.00    -0.200 F 
ATOM     56  C   UNL A   1      35.326  33.215  30.892  1.00  0.00     0.200 A 
ATOM     57  F   UNL A   1      34.899  32.601  33.129  1.00  0.00    -0.200 F 
ATOM     58  F   UNL A   1      34.117  33.788  30.803  1.00  0.00    -0.200 F 
ENDBRANCH  24  48
BRANCH  36  59
ATOM     59  C   UNL A   1      42.940  29.293  33.604  1.00  0.00     0.064 A 
ATOM     60  C   UNL A   1      42.147  28.132  33.602  1.00  0.00     0.173 A 
ATOM     61  C   UNL A   1      43.548  29.660  34.813  1.00  0.00     0.173 A 
ATOM     62  F   UNL A   1      41.627  27.653  32.464  1.00  0.00    -0.203 F 
ATOM     63  C   UNL A   1      41.929  27.408  34.772  1.00  0.00     0.198 A 
ATOM     64  C   UNL A   1      43.360  28.912  35.972  1.00  0.00     0.198 A 
ATOM     65  F   UNL A   1      44.366  30.724  34.859  1.00  0.00    -0.203 F 
ATOM     66  F   UNL A   1      41.154  26.314  34.751  1.00  0.00    -0.200 F 
ATOM     67  C   UNL A   1      42.540  27.796  35.955  1.00  0.00     0.200 A 
ATOM     68  F   UNL A   1      43.995  29.259  37.100  1.00  0.00    -0.200 F 
ATOM     69  F   UNL A   1      42.362  27.076  37.070  1.00  0.00    -0.200 F 
ENDBRANCH  36  59
ENDBRANCH  10  11
ENDBRANCH   3   5
ENDBRANCH   2   3
ENDBRANCH   1   2
BRANCH   1  70
ATOM     70  C   UNL A   1      36.122  20.833  25.295  1.00  0.00     0.275 C 
BRANCH  70  71
ATOM     71  O   UNL A   1      35.605  21.882  26.132  1.00  0.00    -0.457 OA
BRANCH  71  72
ATOM     72  C   UNL A   1      34.302  21.718  26.532  1.00  0.00     0.361 C 
ATOM     73  O   UNL A   1      33.933  21.078  27.495  1.00  0.00    -0.244 OA
BRANCH  72  74
ATOM     74  C   UNL A   1      33.382  22.271  25.553  1.00  0.00     0.198 A 
ATOM     75  N   UNL A   1      32.494  21.544  24.803  1.00  0.00    -0.122 NA
ATOM     76  C   UNL A   1      33.209  23.616  25.280  1.00  0.00     0.123 A 
ATOM     77  N   UNL A   1      31.806  22.395  24.046  1.00  0.00    -0.061 NA
ATOM     78  N   UNL A   1      32.372  23.613  24.186  1.00  0.00    -0.213 N 
BRANCH  76  79
ATOM     79  C   UNL A   1      33.637  24.835  26.024  1.00  0.00     0.262 C 
ATOM     80  C   UNL A   1      34.423  25.768  25.090  1.00  0.00     0.281 C 
ATOM     81  O   UNL A   1      32.434  25.447  26.497  1.00  0.00    -0.477 OA
ATOM     82  O   UNL A   1      34.770  26.987  25.754  1.00  0.00    -0.485 OA
ATOM     83  C   UNL A   1      32.528  26.798  26.666  1.00  0.00     0.162 A 
ATOM     84  C   UNL A   1      33.654  27.546  26.318  1.00  0.00     0.161 A 
ATOM     85  C   UNL A   1      31.404  27.429  27.193  1.00  0.00     0.050 A 
ATOM     86  C   UNL A   1      33.673  28.921  26.534  1.00  0.00     0.050 A 
ATOM     87  C   UNL A   1      31.408  28.811  27.381  1.00  0.00     0.004 A 
ATOM     88  C   UNL A   1      32.545  29.554  27.058  1.00  0.00     0.004 A 
ENDBRANCH  76  79
BRANCH  78  89
ATOM     89  C   UNL A   1      32.106  24.680  23.308  1.00  0.00     0.067 A 
ATOM     90  C   UNL A   1      32.767  24.772  22.085  1.00  0.00     0.028 A 
ATOM     91  C   UNL A   1      31.147  25.636  23.679  1.00  0.00     0.041 A 
ATOM     92  C   UNL A   1      32.388  25.771  21.187  1.00  0.00     0.003 A 
ATOM     93  C   UNL A   1      30.792  26.664  22.798  1.00  0.00     0.058 A 
ATOM     94  C   UNL A   1      31.403  26.704  21.536  1.00  0.00     0.013 A 
BRANCH  93  95
ATOM     95  C   UNL A   1      29.763  27.695  23.196  1.00  0.00     0.416 C 
ATOM     96  F   UNL A   1      29.466  28.557  22.186  1.00  0.00    -0.166 F 
ATOM     97  F   UNL A   1      28.585  27.129  23.573  1.00  0.00    -0.166 F 
ATOM     98  F   UNL A   1      30.157  28.469  24.245  1.00  0.00    -0.166 F 
ENDBRANCH  93  95
ENDBRANCH  78  89
ENDBRANCH  72  74
ENDBRANCH  71  72
ENDBRANCH  70  71
ENDBRANCH   1  70
TORSDOF 14
ENDMDL
