MODEL 1
REMARK VINA RESULT:     -12.9      0.000      0.000
REMARK SMILES CC[C@@]1(CC(=O)OCCOC(=O)c2ccc(-c3c4nc(c(-c5c(F)c(F)c(F)c(F)c5F)c5ccc([nH]5)c(-c5c(F)c(F)c(F)c(F)c5F)c5nc(c(-c6c(F)c(F)c(F)c(F)c6F)c6ccc3[nH]6)C=C5)C=C4)cc2)OC[C@H](Cc2ccccc2)c2c1[nH]c1ccccc21
REMARK SMILES IDX 8 1 7 2 5 3 6 4 4 5 3 6 76 7 87 8 77 9 86 10 88 11 78 12
REMARK SMILES IDX 94 13 89 14 93 16 90 17 92 18 91 19 2 20 1 21 79 22 80 23
REMARK SMILES IDX 81 24 85 25 82 26 84 27 83 28 9 29 10 30 11 31 12 32 13 33
REMARK SMILES IDX 14 34 75 35 15 36 74 37 16 38 17 39 18 40 68 41 19 42 73 43
REMARK SMILES IDX 67 44 69 45 20 46 72 47 66 48 65 49 21 51 53 52 33 53 52 54
REMARK SMILES IDX 34 55 37 56 51 57 70 58 35 59 36 60 50 62 71 63 38 64 22 65
REMARK SMILES IDX 23 66 31 67 24 68 25 69 29 70 32 71 26 72 27 73 30 74 28 75
REMARK SMILES IDX 54 76 55 77 63 78 56 79 57 80 61 81 64 82 58 83 59 84 62 85
REMARK SMILES IDX 60 86 39 87 40 88 48 89 41 90 42 91 46 92 49 93 43 94 44 95
REMARK SMILES IDX 47 96 45 97
REMARK H PARENT 88 15 69 50 37 61
REMARK Flexibility Score: inf
ROOT
ATOM      1  C   UNL A   1      35.931  21.691  25.365  1.00  0.00     0.274 C 
ENDROOT
BRANCH   1   2
ATOM      2  O   UNL A   1      35.650  23.009  25.902  1.00  0.00    -0.462 OA
BRANCH   2   3
ATOM      3  C   UNL A   1      34.454  23.103  26.546  1.00  0.00     0.309 C 
ATOM      4  O   UNL A   1      34.124  22.315  27.429  1.00  0.00    -0.252 OA
BRANCH   3   5
ATOM      5  C   UNL A   1      33.503  24.221  26.059  1.00  0.00     0.164 C 
BRANCH   5   6
ATOM      6  C   UNL A   1      32.688  24.020  24.761  1.00  0.00     0.118 C 
ATOM      7  O   UNL A   1      33.587  24.079  23.614  1.00  0.00    -0.368 OA
ATOM      8  C   UNL A   1      31.696  25.142  24.444  1.00  0.00     0.053 A 
ATOM      9  C   UNL A   1      34.178  25.400  23.322  1.00  0.00     0.170 C 
ATOM     10  C   UNL A   1      31.890  26.275  23.663  1.00  0.00    -0.011 A 
ATOM     11  N   UNL A   1      30.350  25.075  24.686  1.00  0.00    -0.356 N 
ATOM     12  C   UNL A   1      33.204  26.572  23.001  1.00  0.00     0.052 C 
ATOM     13  C   UNL A   1      30.623  26.931  23.501  1.00  0.00     0.003 A 
ATOM     14  C   UNL A   1      29.684  26.136  24.144  1.00  0.00     0.046 A 
ATOM     15  H   UNL A   1      29.914  24.349  25.190  1.00  0.00     0.166 HD
ATOM     16  C   UNL A   1      30.150  28.076  22.828  1.00  0.00     0.010 A 
ATOM     17  C   UNL A   1      28.314  26.388  24.157  1.00  0.00     0.026 A 
ATOM     18  C   UNL A   1      28.776  28.368  22.851  1.00  0.00     0.001 A 
ATOM     19  C   UNL A   1      27.872  27.532  23.504  1.00  0.00     0.002 A 
BRANCH   6  20
ATOM     20  C   UNL A   1      31.874  22.683  24.925  1.00  0.00     0.039 C 
ATOM     21  C   UNL A   1      32.264  21.527  24.049  1.00  0.00     0.007 C 
ENDBRANCH   6  20
BRANCH  12  22
ATOM     22  C   UNL A   1      33.764  27.962  23.439  1.00  0.00     0.046 C 
BRANCH  22  23
ATOM     23  C   UNL A   1      33.393  28.517  24.804  1.00  0.00    -0.047 A 
ATOM     24  C   UNL A   1      32.548  29.629  24.936  1.00  0.00     0.004 A 
ATOM     25  C   UNL A   1      33.767  27.828  25.972  1.00  0.00     0.004 A 
ATOM     26  C   UNL A   1      32.115  30.057  26.199  1.00  0.00     0.000 A 
ATOM     27  C   UNL A   1      33.336  28.257  27.232  1.00  0.00     0.000 A 
ATOM     28  C   UNL A   1      32.513  29.374  27.347  1.00  0.00     0.000 A 
ENDBRANCH  22  23
ENDBRANCH  12  22
ENDBRANCH   5   6
ENDBRANCH   3   5
ENDBRANCH   2   3
ENDBRANCH   1   2
BRANCH   1  29
ATOM     29  C   UNL A   1      37.390  21.283  25.598  1.00  0.00     0.275 C 
BRANCH  29  30
ATOM     30  O   UNL A   1      38.199  22.461  25.749  1.00  0.00    -0.458 OA
BRANCH  30  31
ATOM     31  C   UNL A   1      39.311  22.243  26.490  1.00  0.00     0.338 C 
ATOM     32  O   UNL A   1      39.917  21.180  26.570  1.00  0.00    -0.246 OA
BRANCH  31  33
ATOM     33  C   UNL A   1      39.862  23.564  26.869  1.00  0.00     0.060 A 
ATOM     34  C   UNL A   1      40.977  23.686  27.710  1.00  0.00     0.016 A 
ATOM     35  C   UNL A   1      39.067  24.674  26.596  1.00  0.00     0.016 A 
ATOM     36  C   UNL A   1      41.196  24.879  28.404  1.00  0.00     0.010 A 
ATOM     37  C   UNL A   1      39.309  25.857  27.279  1.00  0.00     0.010 A 
ATOM     38  C   UNL A   1      40.306  25.947  28.256  1.00  0.00    -0.014 A 
BRANCH  38  39
ATOM     39  C   UNL A   1      40.594  27.254  28.871  1.00  0.00     0.031 A 
ATOM     40  C   UNL A   1      41.838  27.826  28.300  1.00  0.00     0.074 A 
ATOM     41  C   UNL A   1      39.860  27.989  29.743  1.00  0.00     0.049 A 
ATOM     42  N   UNL A   1      42.972  27.926  28.911  1.00  0.00    -0.248 NA
ATOM     43  C   UNL A   1      41.894  28.133  26.862  1.00  0.00     0.031 C 
ATOM     44  C   UNL A   1      38.554  27.716  30.322  1.00  0.00     0.029 A 
ATOM     45  N   UNL A   1      40.127  29.228  30.272  1.00  0.00    -0.354 N 
ATOM     46  C   UNL A   1      43.840  28.476  27.981  1.00  0.00     0.074 A 
ATOM     47  C   UNL A   1      43.193  28.379  26.702  1.00  0.00     0.031 C 
ATOM     48  C   UNL A   1      38.013  28.830  30.865  1.00  0.00     0.029 A 
ATOM     49  C   UNL A   1      39.035  29.853  30.882  1.00  0.00     0.049 A 
ATOM     50  H   UNL A   1      41.019  29.643  30.225  1.00  0.00     0.167 HD
ATOM     51  C   UNL A   1      44.900  29.225  28.378  1.00  0.00     0.037 A 
ATOM     52  C   UNL A   1      38.973  31.089  31.445  1.00  0.00     0.037 A 
ATOM     53  C   UNL A   1      45.213  29.009  29.766  1.00  0.00     0.049 A 
ATOM     54  C   UNL A   1      40.360  31.478  31.769  1.00  0.00     0.074 A 
ATOM     55  C   UNL A   1      45.605  27.920  30.519  1.00  0.00     0.029 A 
ATOM     56  N   UNL A   1      44.778  29.949  30.664  1.00  0.00    -0.354 N 
ATOM     57  N   UNL A   1      41.066  30.917  32.707  1.00  0.00    -0.248 NA
ATOM     58  C   UNL A   1      41.108  32.182  30.743  1.00  0.00     0.031 C 
ATOM     59  C   UNL A   1      44.966  28.089  31.782  1.00  0.00     0.029 A 
ATOM     60  C   UNL A   1      44.264  29.294  31.751  1.00  0.00     0.049 A 
ATOM     61  H   UNL A   1      44.827  30.926  30.547  1.00  0.00     0.167 HD
ATOM     62  C   UNL A   1      42.332  30.805  32.160  1.00  0.00     0.074 A 
ATOM     63  C   UNL A   1      42.318  31.674  30.984  1.00  0.00     0.031 C 
ATOM     64  C   UNL A   1      43.171  29.802  32.547  1.00  0.00     0.037 A 
BRANCH  51  65
ATOM     65  C   UNL A   1      45.382  30.424  27.610  1.00  0.00     0.064 A 
ATOM     66  C   UNL A   1      46.750  30.543  27.312  1.00  0.00     0.173 A 
ATOM     67  C   UNL A   1      44.606  31.588  27.399  1.00  0.00     0.173 A 
ATOM     68  F   UNL A   1      47.586  29.515  27.526  1.00  0.00    -0.203 F 
ATOM     69  C   UNL A   1      47.304  31.748  26.874  1.00  0.00     0.198 A 
ATOM     70  C   UNL A   1      45.148  32.767  26.901  1.00  0.00     0.198 A 
ATOM     71  F   UNL A   1      43.325  31.673  27.780  1.00  0.00    -0.203 F 
ATOM     72  F   UNL A   1      48.631  31.851  26.718  1.00  0.00    -0.200 F 
ATOM     73  C   UNL A   1      46.503  32.857  26.664  1.00  0.00     0.200 A 
ATOM     74  F   UNL A   1      44.357  33.836  26.735  1.00  0.00    -0.200 F 
ATOM     75  F   UNL A   1      47.039  34.025  26.289  1.00  0.00    -0.200 F 
ENDBRANCH  51  65
BRANCH  52  76
ATOM     76  C   UNL A   1      37.862  32.076  31.472  1.00  0.00     0.064 A 
ATOM     77  C   UNL A   1      37.463  32.755  30.305  1.00  0.00     0.173 A 
ATOM     78  C   UNL A   1      36.967  32.127  32.557  1.00  0.00     0.173 A 
ATOM     79  F   UNL A   1      38.236  32.726  29.209  1.00  0.00    -0.203 F 
ATOM     80  C   UNL A   1      36.226  33.405  30.214  1.00  0.00     0.198 A 
ATOM     81  C   UNL A   1      35.732  32.779  32.465  1.00  0.00     0.198 A 
ATOM     82  F   UNL A   1      37.228  31.456  33.687  1.00  0.00    -0.203 F 
ATOM     83  F   UNL A   1      35.851  33.974  29.060  1.00  0.00    -0.200 F 
ATOM     84  C   UNL A   1      35.355  33.402  31.290  1.00  0.00     0.200 A 
ATOM     85  F   UNL A   1      34.880  32.735  33.500  1.00  0.00    -0.200 F 
ATOM     86  F   UNL A   1      34.140  33.957  31.179  1.00  0.00    -0.200 F 
ENDBRANCH  52  76
BRANCH  64  87
ATOM     87  C   UNL A   1      42.813  29.014  33.777  1.00  0.00     0.064 A 
ATOM     88  C   UNL A   1      41.984  27.878  33.779  1.00  0.00     0.173 A 
ATOM     89  C   UNL A   1      43.480  29.327  34.970  1.00  0.00     0.173 A 
ATOM     90  F   UNL A   1      41.370  27.469  32.661  1.00  0.00    -0.203 F 
ATOM     91  C   UNL A   1      41.825  27.102  34.929  1.00  0.00     0.198 A 
ATOM     92  C   UNL A   1      43.348  28.532  36.105  1.00  0.00     0.198 A 
ATOM     93  F   UNL A   1      44.315  30.376  35.016  1.00  0.00    -0.203 F 
ATOM     94  F   UNL A   1      41.033  26.020  34.908  1.00  0.00    -0.200 F 
ATOM     95  C   UNL A   1      42.518  27.421  36.085  1.00  0.00     0.200 A 
ATOM     96  F   UNL A   1      44.055  28.820  37.206  1.00  0.00    -0.200 F 
ATOM     97  F   UNL A   1      42.411  26.646  37.173  1.00  0.00    -0.200 F 
ENDBRANCH  64  87
ENDBRANCH  38  39
ENDBRANCH  31  33
ENDBRANCH  30  31
ENDBRANCH  29  30
ENDBRANCH   1  29
TORSDOF 15
ENDMDL
MODEL 2
REMARK VINA RESULT:     -12.8      3.161      7.436
REMARK SMILES CC[C@@]1(CC(=O)OCCOC(=O)c2ccc(-c3c4nc(c(-c5c(F)c(F)c(F)c(F)c5F)c5ccc([nH]5)c(-c5c(F)c(F)c(F)c(F)c5F)c5nc(c(-c6c(F)c(F)c(F)c(F)c6F)c6ccc3[nH]6)C=C5)C=C4)cc2)OC[C@H](Cc2ccccc2)c2c1[nH]c1ccccc21
REMARK SMILES IDX 8 1 7 2 5 3 6 4 4 5 3 6 76 7 87 8 77 9 86 10 88 11 78 12
REMARK SMILES IDX 94 13 89 14 93 16 90 17 92 18 91 19 2 20 1 21 79 22 80 23
REMARK SMILES IDX 81 24 85 25 82 26 84 27 83 28 9 29 10 30 11 31 12 32 13 33
REMARK SMILES IDX 14 34 75 35 15 36 74 37 16 38 17 39 18 40 68 41 19 42 73 43
REMARK SMILES IDX 67 44 69 45 20 46 72 47 66 48 65 49 21 51 53 52 33 53 52 54
REMARK SMILES IDX 34 55 37 56 51 57 70 58 35 59 36 60 50 62 71 63 38 64 22 65
REMARK SMILES IDX 23 66 31 67 24 68 25 69 29 70 32 71 26 72 27 73 30 74 28 75
REMARK SMILES IDX 54 76 55 77 63 78 56 79 57 80 61 81 64 82 58 83 59 84 62 85
REMARK SMILES IDX 60 86 39 87 40 88 48 89 41 90 42 91 46 92 49 93 43 94 44 95
REMARK SMILES IDX 47 96 45 97
REMARK H PARENT 88 15 69 50 37 61
REMARK Flexibility Score: inf
ROOT
ATOM      1  C   UNL A   1      30.824  28.226  24.364  1.00  0.00     0.274 C 
ENDROOT
BRANCH   1   2
ATOM      2  O   UNL A   1      31.099  27.360  25.495  1.00  0.00    -0.462 OA
BRANCH   2   3
ATOM      3  C   UNL A   1      30.891  26.037  25.246  1.00  0.00     0.309 C 
ATOM      4  O   UNL A   1      29.798  25.604  24.889  1.00  0.00    -0.252 OA
BRANCH   3   5
ATOM      5  C   UNL A   1      32.093  25.098  25.500  1.00  0.00     0.164 C 
BRANCH   5   6
ATOM      6  C   UNL A   1      33.046  24.744  24.336  1.00  0.00     0.118 C 
ATOM      7  O   UNL A   1      32.296  24.052  23.294  1.00  0.00    -0.368 OA
ATOM      8  C   UNL A   1      34.130  23.720  24.681  1.00  0.00     0.053 A 
ATOM      9  C   UNL A   1      31.820  22.696  23.631  1.00  0.00     0.170 C 
ATOM     10  C   UNL A   1      34.095  22.337  24.532  1.00  0.00    -0.011 A 
ATOM     11  N   UNL A   1      35.431  24.036  24.966  1.00  0.00    -0.356 N 
ATOM     12  C   UNL A   1      32.889  21.624  23.995  1.00  0.00     0.052 C 
ATOM     13  C   UNL A   1      35.406  21.823  24.809  1.00  0.00     0.003 A 
ATOM     14  C   UNL A   1      36.215  22.924  25.059  1.00  0.00     0.046 A 
ATOM     15  H   UNL A   1      35.762  24.956  25.088  1.00  0.00     0.166 HD
ATOM     16  C   UNL A   1      36.020  20.554  24.813  1.00  0.00     0.010 A 
ATOM     17  C   UNL A   1      37.586  22.855  25.300  1.00  0.00     0.026 A 
ATOM     18  C   UNL A   1      37.395  20.456  25.083  1.00  0.00     0.001 A 
ATOM     19  C   UNL A   1      38.166  21.593  25.320  1.00  0.00     0.002 A 
BRANCH   6  20
ATOM     20  C   UNL A   1      33.759  26.077  23.896  1.00  0.00     0.039 C 
ATOM     21  C   UNL A   1      33.511  26.562  22.496  1.00  0.00     0.007 C 
ENDBRANCH   6  20
BRANCH  12  22
ATOM     22  C   UNL A   1      32.358  20.558  25.005  1.00  0.00     0.046 C 
BRANCH  22  23
ATOM     23  C   UNL A   1      32.599  19.084  24.725  1.00  0.00    -0.047 A 
ATOM     24  C   UNL A   1      32.991  18.635  23.455  1.00  0.00     0.004 A 
ATOM     25  C   UNL A   1      32.584  18.153  25.780  1.00  0.00     0.004 A 
ATOM     26  C   UNL A   1      33.329  17.292  23.240  1.00  0.00     0.000 A 
ATOM     27  C   UNL A   1      32.919  16.812  25.564  1.00  0.00     0.000 A 
ATOM     28  C   UNL A   1      33.288  16.379  24.293  1.00  0.00     0.000 A 
ENDBRANCH  22  23
ENDBRANCH  12  22
ENDBRANCH   5   6
ENDBRANCH   3   5
ENDBRANCH   2   3
ENDBRANCH   1   2
BRANCH   1  29
ATOM     29  C   UNL A   1      31.103  29.697  24.696  1.00  0.00     0.275 C 
BRANCH  29  30
ATOM     30  O   UNL A   1      31.891  29.777  25.894  1.00  0.00    -0.458 OA
BRANCH  30  31
ATOM     31  C   UNL A   1      31.947  31.030  26.404  1.00  0.00     0.338 C 
ATOM     32  O   UNL A   1      31.032  31.846  26.389  1.00  0.00    -0.246 OA
BRANCH  31  33
ATOM     33  C   UNL A   1      33.134  31.102  27.285  1.00  0.00     0.060 A 
ATOM     34  C   UNL A   1      33.584  32.316  27.822  1.00  0.00     0.016 A 
ATOM     35  C   UNL A   1      33.947  29.973  27.331  1.00  0.00     0.016 A 
ATOM     36  C   UNL A   1      34.908  32.438  28.251  1.00  0.00     0.010 A 
ATOM     37  C   UNL A   1      35.254  30.105  27.778  1.00  0.00     0.010 A 
ATOM     38  C   UNL A   1      35.778  31.349  28.150  1.00  0.00    -0.014 A 
BRANCH  38  39
ATOM     39  C   UNL A   1      37.133  31.415  28.722  1.00  0.00     0.031 A 
ATOM     40  C   UNL A   1      37.822  30.113  28.560  1.00  0.00     0.074 A 
ATOM     41  C   UNL A   1      37.812  32.471  29.237  1.00  0.00     0.049 A 
ATOM     42  N   UNL A   1      38.079  29.271  29.507  1.00  0.00    -0.248 NA
ATOM     43  C   UNL A   1      38.076  29.597  27.205  1.00  0.00     0.031 C 
ATOM     44  C   UNL A   1      37.413  33.864  29.363  1.00  0.00     0.029 A 
ATOM     45  N   UNL A   1      39.094  32.521  29.727  1.00  0.00    -0.354 N 
ATOM     46  C   UNL A   1      38.689  28.194  28.882  1.00  0.00     0.074 A 
ATOM     47  C   UNL A   1      38.465  28.352  27.472  1.00  0.00     0.031 C 
ATOM     48  C   UNL A   1      38.477  34.662  29.604  1.00  0.00     0.029 A 
ATOM     49  C   UNL A   1      39.612  33.810  29.884  1.00  0.00     0.049 A 
ATOM     50  H   UNL A   1      39.608  31.711  29.950  1.00  0.00     0.167 HD
ATOM     51  C   UNL A   1      39.572  27.411  29.553  1.00  0.00     0.037 A 
ATOM     52  C   UNL A   1      40.854  34.180  30.296  1.00  0.00     0.037 A 
ATOM     53  C   UNL A   1      39.450  27.573  30.977  1.00  0.00     0.049 A 
ATOM     54  C   UNL A   1      41.414  33.032  31.036  1.00  0.00     0.074 A 
ATOM     55  C   UNL A   1      38.445  27.360  31.901  1.00  0.00     0.029 A 
ATOM     56  N   UNL A   1      40.368  28.377  31.601  1.00  0.00    -0.354 N 
ATOM     57  N   UNL A   1      40.977  32.639  32.198  1.00  0.00    -0.248 NA
ATOM     58  C   UNL A   1      42.159  32.049  30.270  1.00  0.00     0.031 C 
ATOM     59  C   UNL A   1      38.589  28.406  32.859  1.00  0.00     0.029 A 
ATOM     60  C   UNL A   1      39.702  29.167  32.500  1.00  0.00     0.049 A 
ATOM     61  H   UNL A   1      41.338  28.386  31.432  1.00  0.00     0.167 HD
ATOM     62  C   UNL A   1      40.992  31.258  32.118  1.00  0.00     0.074 A 
ATOM     63  C   UNL A   1      41.805  30.952  30.942  1.00  0.00     0.031 C 
ATOM     64  C   UNL A   1      40.110  30.510  32.841  1.00  0.00     0.037 A 
BRANCH  51  65
ATOM     65  C   UNL A   1      40.787  26.813  28.901  1.00  0.00     0.064 A 
ATOM     66  C   UNL A   1      41.847  27.655  28.523  1.00  0.00     0.173 A 
ATOM     67  C   UNL A   1      40.836  25.497  28.384  1.00  0.00     0.173 A 
ATOM     68  F   UNL A   1      41.870  28.938  28.914  1.00  0.00    -0.203 F 
ATOM     69  C   UNL A   1      42.856  27.221  27.660  1.00  0.00     0.198 A 
ATOM     70  C   UNL A   1      41.877  25.049  27.579  1.00  0.00     0.198 A 
ATOM     71  F   UNL A   1      39.825  24.631  28.532  1.00  0.00    -0.203 F 
ATOM     72  F   UNL A   1      43.779  28.092  27.229  1.00  0.00    -0.200 F 
ATOM     73  C   UNL A   1      42.874  25.919  27.194  1.00  0.00     0.200 A 
ATOM     74  F   UNL A   1      41.855  23.792  27.114  1.00  0.00    -0.200 F 
ATOM     75  F   UNL A   1      43.814  25.516  26.330  1.00  0.00    -0.200 F 
ENDBRANCH  51  65
BRANCH  52  76
ATOM     76  C   UNL A   1      41.704  35.322  29.872  1.00  0.00     0.064 A 
ATOM     77  C   UNL A   1      42.764  35.780  30.678  1.00  0.00     0.173 A 
ATOM     78  C   UNL A   1      41.703  35.769  28.537  1.00  0.00     0.173 A 
ATOM     79  F   UNL A   1      42.866  35.374  31.953  1.00  0.00    -0.203 F 
ATOM     80  C   UNL A   1      43.782  36.595  30.169  1.00  0.00     0.198 A 
ATOM     81  C   UNL A   1      42.720  36.584  28.030  1.00  0.00     0.198 A 
ATOM     82  F   UNL A   1      40.774  35.334  27.675  1.00  0.00    -0.203 F 
ATOM     83  F   UNL A   1      44.814  36.946  30.950  1.00  0.00    -0.200 F 
ATOM     84  C   UNL A   1      43.768  36.983  28.840  1.00  0.00     0.200 A 
ATOM     85  F   UNL A   1      42.717  36.921  26.732  1.00  0.00    -0.200 F 
ATOM     86  F   UNL A   1      44.781  37.698  28.332  1.00  0.00    -0.200 F 
ENDBRANCH  52  76
BRANCH  64  87
ATOM     87  C   UNL A   1      39.336  31.191  33.936  1.00  0.00     0.064 A 
ATOM     88  C   UNL A   1      39.836  31.435  35.228  1.00  0.00     0.173 A 
ATOM     89  C   UNL A   1      38.103  31.769  33.601  1.00  0.00     0.173 A 
ATOM     90  F   UNL A   1      41.039  30.980  35.600  1.00  0.00    -0.203 F 
ATOM     91  C   UNL A   1      39.123  32.213  36.141  1.00  0.00     0.198 A 
ATOM     92  C   UNL A   1      37.411  32.573  34.502  1.00  0.00     0.198 A 
ATOM     93  F   UNL A   1      37.597  31.602  32.370  1.00  0.00    -0.203 F 
ATOM     94  F   UNL A   1      39.619  32.439  37.367  1.00  0.00    -0.200 F 
ATOM     95  C   UNL A   1      37.919  32.794  35.773  1.00  0.00     0.200 A 
ATOM     96  F   UNL A   1      36.271  33.168  34.125  1.00  0.00    -0.200 F 
ATOM     97  F   UNL A   1      37.261  33.588  36.629  1.00  0.00    -0.200 F 
ENDBRANCH  64  87
ENDBRANCH  38  39
ENDBRANCH  31  33
ENDBRANCH  30  31
ENDBRANCH  29  30
ENDBRANCH   1  29
TORSDOF 15
ENDMDL
MODEL 3
REMARK VINA RESULT:     -12.8      2.671      7.528
REMARK SMILES CC[C@@]1(CC(=O)OCCOC(=O)c2ccc(-c3c4nc(c(-c5c(F)c(F)c(F)c(F)c5F)c5ccc([nH]5)c(-c5c(F)c(F)c(F)c(F)c5F)c5nc(c(-c6c(F)c(F)c(F)c(F)c6F)c6ccc3[nH]6)C=C5)C=C4)cc2)OC[C@H](Cc2ccccc2)c2c1[nH]c1ccccc21
REMARK SMILES IDX 8 1 7 2 5 3 6 4 4 5 3 6 76 7 87 8 77 9 86 10 88 11 78 12
REMARK SMILES IDX 94 13 89 14 93 16 90 17 92 18 91 19 2 20 1 21 79 22 80 23
REMARK SMILES IDX 81 24 85 25 82 26 84 27 83 28 9 29 10 30 11 31 12 32 13 33
REMARK SMILES IDX 14 34 75 35 15 36 74 37 16 38 17 39 18 40 68 41 19 42 73 43
REMARK SMILES IDX 67 44 69 45 20 46 72 47 66 48 65 49 21 51 53 52 33 53 52 54
REMARK SMILES IDX 34 55 37 56 51 57 70 58 35 59 36 60 50 62 71 63 38 64 22 65
REMARK SMILES IDX 23 66 31 67 24 68 25 69 29 70 32 71 26 72 27 73 30 74 28 75
REMARK SMILES IDX 54 76 55 77 63 78 56 79 57 80 61 81 64 82 58 83 59 84 62 85
REMARK SMILES IDX 60 86 39 87 40 88 48 89 41 90 42 91 46 92 49 93 43 94 44 95
REMARK SMILES IDX 47 96 45 97
REMARK H PARENT 88 15 69 50 37 61
REMARK Flexibility Score: inf
ROOT
ATOM      1  C   UNL A   1      34.363  21.410  24.589  1.00  0.00     0.274 C 
ENDROOT
BRANCH   1   2
ATOM      2  O   UNL A   1      34.795  22.434  23.657  1.00  0.00    -0.462 OA
BRANCH   2   3
ATOM      3  C   UNL A   1      34.495  23.704  24.047  1.00  0.00     0.309 C 
ATOM      4  O   UNL A   1      35.345  24.465  24.503  1.00  0.00    -0.252 OA
BRANCH   3   5
ATOM      5  C   UNL A   1      33.009  24.116  23.943  1.00  0.00     0.164 C 
BRANCH   5   6
ATOM      6  C   UNL A   1      32.277  24.661  25.191  1.00  0.00     0.118 C 
ATOM      7  O   UNL A   1      30.840  24.473  25.026  1.00  0.00    -0.368 OA
ATOM      8  C   UNL A   1      32.379  26.176  25.387  1.00  0.00     0.053 A 
ATOM      9  C   UNL A   1      30.194  25.303  23.991  1.00  0.00     0.170 C 
ATOM     10  C   UNL A   1      31.508  27.167  24.947  1.00  0.00    -0.011 A 
ATOM     11  N   UNL A   1      33.237  26.787  26.262  1.00  0.00    -0.356 N 
ATOM     12  C   UNL A   1      30.279  26.850  24.147  1.00  0.00     0.052 C 
ATOM     13  C   UNL A   1      31.915  28.413  25.532  1.00  0.00     0.003 A 
ATOM     14  C   UNL A   1      32.991  28.125  26.361  1.00  0.00     0.046 A 
ATOM     15  H   UNL A   1      33.945  26.317  26.759  1.00  0.00     0.166 HD
ATOM     16  C   UNL A   1      31.456  29.746  25.506  1.00  0.00     0.010 A 
ATOM     17  C   UNL A   1      33.633  29.060  27.172  1.00  0.00     0.026 A 
ATOM     18  C   UNL A   1      32.106  30.712  26.292  1.00  0.00     0.001 A 
ATOM     19  C   UNL A   1      33.177  30.370  27.115  1.00  0.00     0.002 A 
BRANCH   6  20
ATOM     20  C   UNL A   1      32.919  23.964  26.448  1.00  0.00     0.039 C 
ATOM     21  C   UNL A   1      32.058  23.004  27.219  1.00  0.00     0.007 C 
ENDBRANCH   6  20
BRANCH  12  22
ATOM     22  C   UNL A   1      30.280  27.598  22.776  1.00  0.00     0.046 C 
BRANCH  22  23
ATOM     23  C   UNL A   1      29.374  28.803  22.585  1.00  0.00    -0.047 A 
ATOM     24  C   UNL A   1      28.087  28.844  23.142  1.00  0.00     0.004 A 
ATOM     25  C   UNL A   1      29.869  29.969  21.974  1.00  0.00     0.004 A 
ATOM     26  C   UNL A   1      27.308  30.007  23.064  1.00  0.00     0.000 A 
ATOM     27  C   UNL A   1      29.089  31.128  21.894  1.00  0.00     0.000 A 
ATOM     28  C   UNL A   1      27.806  31.147  22.436  1.00  0.00     0.000 A 
ENDBRANCH  22  23
ENDBRANCH  12  22
ENDBRANCH   5   6
ENDBRANCH   3   5
ENDBRANCH   2   3
ENDBRANCH   1   2
BRANCH   1  29
ATOM     29  C   UNL A   1      35.522  20.499  25.007  1.00  0.00     0.275 C 
BRANCH  29  30
ATOM     30  O   UNL A   1      36.769  21.176  24.784  1.00  0.00    -0.458 OA
BRANCH  30  31
ATOM     31  C   UNL A   1      37.836  20.475  25.235  1.00  0.00     0.338 C 
ATOM     32  O   UNL A   1      38.050  19.287  25.020  1.00  0.00    -0.246 OA
BRANCH  31  33
ATOM     33  C   UNL A   1      38.851  21.450  25.692  1.00  0.00     0.060 A 
ATOM     34  C   UNL A   1      40.088  21.041  26.213  1.00  0.00     0.016 A 
ATOM     35  C   UNL A   1      38.425  22.766  25.853  1.00  0.00     0.016 A 
ATOM     36  C   UNL A   1      40.816  21.906  27.033  1.00  0.00     0.010 A 
ATOM     37  C   UNL A   1      39.170  23.619  26.655  1.00  0.00     0.010 A 
ATOM     38  C   UNL A   1      40.314  23.177  27.330  1.00  0.00    -0.014 A 
BRANCH  38  39
ATOM     39  C   UNL A   1      41.128  24.150  28.077  1.00  0.00     0.031 A 
ATOM     40  C   UNL A   1      40.410  25.442  28.187  1.00  0.00     0.074 A 
ATOM     41  C   UNL A   1      42.311  23.985  28.721  1.00  0.00     0.049 A 
ATOM     42  N   UNL A   1      40.712  26.530  27.557  1.00  0.00    -0.248 NA
ATOM     43  C   UNL A   1      39.124  25.491  28.900  1.00  0.00     0.031 C 
ATOM     44  C   UNL A   1      43.125  22.792  28.885  1.00  0.00     0.029 A 
ATOM     45  N   UNL A   1      43.034  24.898  29.450  1.00  0.00    -0.354 N 
ATOM     46  C   UNL A   1      39.749  27.451  27.938  1.00  0.00     0.074 A 
ATOM     47  C   UNL A   1      38.696  26.711  28.578  1.00  0.00     0.031 C 
ATOM     48  C   UNL A   1      44.041  22.950  29.867  1.00  0.00     0.029 A 
ATOM     49  C   UNL A   1      44.037  24.344  30.252  1.00  0.00     0.049 A 
ATOM     50  H   UNL A   1      42.859  25.866  29.412  1.00  0.00     0.167 HD
ATOM     51  C   UNL A   1      40.025  28.780  27.952  1.00  0.00     0.037 A 
ATOM     52  C   UNL A   1      44.877  24.976  31.114  1.00  0.00     0.037 A 
ATOM     53  C   UNL A   1      41.191  29.088  27.166  1.00  0.00     0.049 A 
ATOM     54  C   UNL A   1      44.914  26.395  30.708  1.00  0.00     0.074 A 
ATOM     55  C   UNL A   1      41.533  28.954  25.835  1.00  0.00     0.029 A 
ATOM     56  N   UNL A   1      42.369  29.286  27.837  1.00  0.00    -0.354 N 
ATOM     57  N   UNL A   1      45.475  26.816  29.611  1.00  0.00    -0.248 NA
ATOM     58  C   UNL A   1      43.930  27.281  31.302  1.00  0.00     0.031 C 
ATOM     59  C   UNL A   1      42.921  28.627  25.835  1.00  0.00     0.029 A 
ATOM     60  C   UNL A   1      43.363  28.632  27.158  1.00  0.00     0.049 A 
ATOM     61  H   UNL A   1      42.482  29.809  28.664  1.00  0.00     0.167 HD
ATOM     62  C   UNL A   1      44.608  27.785  29.137  1.00  0.00     0.074 A 
ATOM     63  C   UNL A   1      43.720  28.086  30.259  1.00  0.00     0.031 C 
ATOM     64  C   UNL A   1      44.512  28.038  27.800  1.00  0.00     0.037 A 
BRANCH  51  65
ATOM     65  C   UNL A   1      39.470  29.716  28.989  1.00  0.00     0.064 A 
ATOM     66  C   UNL A   1      39.917  29.612  30.316  1.00  0.00     0.173 A 
ATOM     67  C   UNL A   1      38.323  30.520  28.789  1.00  0.00     0.173 A 
ATOM     68  F   UNL A   1      40.965  28.832  30.623  1.00  0.00    -0.203 F 
ATOM     69  C   UNL A   1      39.242  30.233  31.369  1.00  0.00     0.198 A 
ATOM     70  C   UNL A   1      37.692  31.191  29.832  1.00  0.00     0.198 A 
ATOM     71  F   UNL A   1      37.694  30.592  27.610  1.00  0.00    -0.203 F 
ATOM     72  F   UNL A   1      39.631  30.008  32.632  1.00  0.00    -0.200 F 
ATOM     73  C   UNL A   1      38.134  31.026  31.126  1.00  0.00     0.200 A 
ATOM     74  F   UNL A   1      36.602  31.927  29.575  1.00  0.00    -0.200 F 
ATOM     75  F   UNL A   1      37.459  31.583  32.138  1.00  0.00    -0.200 F 
ENDBRANCH  51  65
BRANCH  52  76
ATOM     76  C   UNL A   1      45.427  24.526  32.420  1.00  0.00     0.064 A 
ATOM     77  C   UNL A   1      46.637  25.046  32.918  1.00  0.00     0.173 A 
ATOM     78  C   UNL A   1      44.623  23.833  33.344  1.00  0.00     0.173 A 
ATOM     79  F   UNL A   1      47.448  25.755  32.118  1.00  0.00    -0.203 F 
ATOM     80  C   UNL A   1      46.997  24.920  34.265  1.00  0.00     0.198 A 
ATOM     81  C   UNL A   1      44.985  23.706  34.689  1.00  0.00     0.198 A 
ATOM     82  F   UNL A   1      43.423  23.359  32.980  1.00  0.00    -0.203 F 
ATOM     83  F   UNL A   1      48.121  25.497  34.716  1.00  0.00    -0.200 F 
ATOM     84  C   UNL A   1      46.162  24.264  35.153  1.00  0.00     0.200 A 
ATOM     85  F   UNL A   1      44.150  23.103  35.547  1.00  0.00    -0.200 F 
ATOM     86  F   UNL A   1      46.468  24.210  36.457  1.00  0.00    -0.200 F 
ENDBRANCH  52  76
BRANCH  64  87
ATOM     87  C   UNL A   1      45.567  27.465  26.893  1.00  0.00     0.064 A 
ATOM     88  C   UNL A   1      46.808  28.073  26.635  1.00  0.00     0.173 A 
ATOM     89  C   UNL A   1      45.372  26.163  26.407  1.00  0.00     0.173 A 
ATOM     90  F   UNL A   1      47.099  29.284  27.127  1.00  0.00    -0.203 F 
ATOM     91  C   UNL A   1      47.801  27.408  25.913  1.00  0.00     0.198 A 
ATOM     92  C   UNL A   1      46.376  25.490  25.718  1.00  0.00     0.198 A 
ATOM     93  F   UNL A   1      44.222  25.520  26.657  1.00  0.00    -0.203 F 
ATOM     94  F   UNL A   1      48.980  28.003  25.682  1.00  0.00    -0.200 F 
ATOM     95  C   UNL A   1      47.589  26.112  25.469  1.00  0.00     0.200 A 
ATOM     96  F   UNL A   1      46.182  24.222  25.331  1.00  0.00    -0.200 F 
ATOM     97  F   UNL A   1      48.562  25.451  24.825  1.00  0.00    -0.200 F 
ENDBRANCH  64  87
ENDBRANCH  38  39
ENDBRANCH  31  33
ENDBRANCH  30  31
ENDBRANCH  29  30
ENDBRANCH   1  29
TORSDOF 15
ENDMDL
