MODEL 1
REMARK VINA RESULT:     -14.9      0.000      0.000
REMARK SMILES O=C(C[C@]1(C(=O)NC2CCCCC2)CC(c2ccc([N+](=O)[O-])cc2)=NO1)OCCOC(=O)c1ccc(-c2c3nc(c(-c4c(F)c(F)c(F)c(F)c4F)c4ccc([nH]4)c(-c4c(F)c(F)c(F)c(F)c4F)c4nc(c(-c5c(F)c(F)c(F)c(F)c5F)c5ccc2[nH]5)C=C4)C=C3)cc1
REMARK SMILES IDX 28 1 27 2 2 3 1 4 3 5 4 6 14 7 26 8 15 9 25 10 5 11 6 12
REMARK SMILES IDX 7 13 8 15 9 16 13 17 10 18 12 19 11 20 16 21 17 22 24 23
REMARK SMILES IDX 18 24 23 25 19 26 20 27 21 28 22 29 29 30 30 31 31 32 32 33
REMARK SMILES IDX 33 34 34 35 95 36 35 37 94 38 36 39 37 40 38 41 88 42 39 43
REMARK SMILES IDX 93 44 87 45 89 46 40 47 92 48 86 49 85 50 41 52 73 53 53 54
REMARK SMILES IDX 72 55 54 56 57 57 71 58 90 59 55 60 56 61 70 63 91 64 58 65
REMARK SMILES IDX 42 66 43 67 51 68 44 69 45 70 49 71 52 72 46 73 47 74 50 75
REMARK SMILES IDX 48 76 74 77 75 78 83 79 76 80 77 81 81 82 84 83 78 84 79 85
REMARK SMILES IDX 82 86 80 87 59 88 60 89 68 90 61 91 62 92 66 93 69 94 63 95
REMARK SMILES IDX 64 96 67 97 65 98
REMARK H PARENT 7 14 89 51 57 62
REMARK Flexibility Score: inf
ROOT
ATOM      1  C   UNL A   1      35.810  22.283  25.805  1.00  0.00     0.274 C 
ENDROOT
BRANCH   1   2
ATOM      2  O   UNL A   1      34.767  22.223  27.005  1.00  0.00    -0.462 OA
BRANCH   2   3
ATOM      3  C   UNL A   1      33.583  22.799  27.337  1.00  0.00     0.310 C 
ATOM      4  O   UNL A   1      33.044  22.459  28.391  1.00  0.00    -0.252 OA
BRANCH   3   5
ATOM      5  C   UNL A   1      32.867  23.781  26.422  1.00  0.00     0.185 C 
BRANCH   5   6
ATOM      6  C   UNL A   1      31.482  23.389  25.979  1.00  0.00     0.231 C 
ATOM      7  C   UNL A   1      31.146  21.923  25.949  1.00  0.00     0.123 C 
ATOM      8  O   UNL A   1      31.407  23.748  24.571  1.00  0.00    -0.378 OA
ATOM      9  C   UNL A   1      31.818  21.642  24.654  1.00  0.00     0.092 C 
ATOM     10  N   UNL A   1      31.946  22.654  23.859  1.00  0.00    -0.089 NA
BRANCH   6  11
ATOM     11  C   UNL A   1      30.382  24.186  26.635  1.00  0.00     0.268 C 
ATOM     12  O   UNL A   1      29.451  23.651  27.247  1.00  0.00    -0.270 OA
ATOM     13  N   UNL A   1      30.352  25.527  26.638  1.00  0.00    -0.350 N 
ATOM     14  H   UNL A   1      29.502  25.826  27.037  1.00  0.00     0.163 HD
BRANCH  13  15
ATOM     15  C   UNL A   1      31.135  26.700  26.258  1.00  0.00     0.082 C 
ATOM     16  C   UNL A   1      30.585  27.331  24.504  1.00  0.00     0.025 C 
ATOM     17  C   UNL A   1      31.793  28.070  27.546  1.00  0.00     0.025 C 
ATOM     18  C   UNL A   1      30.786  29.167  24.039  1.00  0.00     0.002 C 
ATOM     19  C   UNL A   1      31.924  29.937  27.035  1.00  0.00     0.002 C 
ATOM     20  C   UNL A   1      31.408  30.443  25.288  1.00  0.00     0.000 C 
ENDBRANCH  13  15
ENDBRANCH   6  11
BRANCH   9  21
ATOM     21  C   UNL A   1      32.339  20.319  24.367  1.00  0.00    -0.000 A 
ATOM     22  C   UNL A   1      32.108  19.763  23.107  1.00  0.00     0.017 A 
ATOM     23  C   UNL A   1      33.067  19.650  25.349  1.00  0.00     0.017 A 
ATOM     24  C   UNL A   1      32.588  18.488  22.830  1.00  0.00     0.086 A 
ATOM     25  C   UNL A   1      33.533  18.369  25.083  1.00  0.00     0.086 A 
ATOM     26  C   UNL A   1      33.280  17.787  23.830  1.00  0.00     0.269 A 
BRANCH  26  27
ATOM     27  N   UNL A   1      33.725  16.414  23.575  1.00  0.00     0.062 N 
ATOM     28  O   UNL A   1      33.453  15.553  24.423  1.00  0.00    -0.258 OA
ATOM     29  O   UNL A   1      34.357  16.201  22.531  1.00  0.00    -0.258 OA
ENDBRANCH  26  27
ENDBRANCH   9  21
ENDBRANCH   5   6
ENDBRANCH   3   5
ENDBRANCH   2   3
ENDBRANCH   1   2
BRANCH   1  30
ATOM     30  C   UNL A   1      37.326  20.925  25.229  1.00  0.00     0.275 C 
BRANCH  30  31
ATOM     31  O   UNL A   1      39.014  21.184  25.318  1.00  0.00    -0.458 OA
BRANCH  31  32
ATOM     32  C   UNL A   1      39.953  20.920  26.286  1.00  0.00     0.338 C 
ATOM     33  O   UNL A   1      40.579  19.875  26.365  1.00  0.00    -0.246 OA
BRANCH  32  34
ATOM     34  C   UNL A   1      40.450  22.230  26.956  1.00  0.00     0.060 A 
ATOM     35  C   UNL A   1      40.082  23.464  26.352  1.00  0.00     0.016 A 
ATOM     36  C   UNL A   1      41.211  22.308  28.123  1.00  0.00     0.016 A 
ATOM     37  C   UNL A   1      40.399  24.719  26.902  1.00  0.00     0.010 A 
ATOM     38  C   UNL A   1      41.645  23.578  28.609  1.00  0.00     0.010 A 
ATOM     39  C   UNL A   1      41.268  24.793  27.988  1.00  0.00    -0.014 A 
BRANCH  39  40
ATOM     40  C   UNL A   1      42.071  26.048  28.189  1.00  0.00     0.031 A 
ATOM     41  C   UNL A   1      41.394  27.163  28.958  1.00  0.00     0.074 A 
ATOM     42  C   UNL A   1      43.341  26.242  27.777  1.00  0.00     0.049 A 
ATOM     43  N   UNL A   1      41.728  28.421  29.102  1.00  0.00    -0.248 NA
ATOM     44  C   UNL A   1      40.158  26.791  29.664  1.00  0.00     0.031 C 
ATOM     45  C   UNL A   1      44.209  25.239  27.170  1.00  0.00     0.029 A 
ATOM     46  N   UNL A   1      44.118  27.385  27.797  1.00  0.00    -0.354 N 
ATOM     47  C   UNL A   1      40.718  28.992  29.869  1.00  0.00     0.074 A 
ATOM     48  C   UNL A   1      39.771  27.946  30.175  1.00  0.00     0.031 C 
ATOM     49  C   UNL A   1      45.376  25.819  26.828  1.00  0.00     0.029 A 
ATOM     50  C   UNL A   1      45.319  27.250  27.139  1.00  0.00     0.049 A 
ATOM     51  H   UNL A   1      43.838  28.218  28.241  1.00  0.00     0.167 HD
ATOM     52  C   UNL A   1      40.571  30.279  30.265  1.00  0.00     0.037 A 
ATOM     53  C   UNL A   1      46.235  28.178  26.777  1.00  0.00     0.037 A 
ATOM     54  C   UNL A   1      41.503  31.328  29.957  1.00  0.00     0.049 A 
ATOM     55  C   UNL A   1      46.007  29.636  27.119  1.00  0.00     0.074 A 
ATOM     56  C   UNL A   1      41.430  32.670  30.284  1.00  0.00     0.029 A 
ATOM     57  N   UNL A   1      42.678  31.150  29.244  1.00  0.00    -0.354 N 
ATOM     58  N   UNL A   1      45.017  30.189  27.779  1.00  0.00    -0.248 NA
ATOM     59  C   UNL A   1      47.016  30.602  26.652  1.00  0.00     0.031 C 
ATOM     60  C   UNL A   1      42.531  33.317  29.714  1.00  0.00     0.029 A 
ATOM     61  C   UNL A   1      43.328  32.364  29.098  1.00  0.00     0.049 A 
ATOM     62  H   UNL A   1      43.002  30.289  28.893  1.00  0.00     0.167 HD
ATOM     63  C   UNL A   1      45.301  31.549  27.840  1.00  0.00     0.074 A 
ATOM     64  C   UNL A   1      46.556  31.745  27.146  1.00  0.00     0.031 C 
ATOM     65  C   UNL A   1      44.590  32.545  28.425  1.00  0.00     0.037 A 
BRANCH  52  66
ATOM     66  C   UNL A   1      39.303  30.630  30.994  1.00  0.00     0.064 A 
ATOM     67  C   UNL A   1      39.195  30.553  32.390  1.00  0.00     0.173 A 
ATOM     68  C   UNL A   1      38.167  31.026  30.270  1.00  0.00     0.173 A 
ATOM     69  F   UNL A   1      40.242  30.156  33.129  1.00  0.00    -0.203 F 
ATOM     70  C   UNL A   1      37.986  30.818  33.030  1.00  0.00     0.198 A 
ATOM     71  C   UNL A   1      36.972  31.327  30.917  1.00  0.00     0.198 A 
ATOM     72  F   UNL A   1      38.214  31.115  28.933  1.00  0.00    -0.203 F 
ATOM     73  F   UNL A   1      37.885  30.666  34.358  1.00  0.00    -0.200 F 
ATOM     74  C   UNL A   1      36.878  31.210  32.294  1.00  0.00     0.200 A 
ATOM     75  F   UNL A   1      35.906  31.718  30.203  1.00  0.00    -0.200 F 
ATOM     76  F   UNL A   1      35.715  31.460  32.910  1.00  0.00    -0.200 F 
ENDBRANCH  52  66
BRANCH  53  77
ATOM     77  C   UNL A   1      47.433  27.776  25.983  1.00  0.00     0.064 A 
ATOM     78  C   UNL A   1      47.379  27.652  24.586  1.00  0.00     0.173 A 
ATOM     79  C   UNL A   1      48.654  27.480  26.609  1.00  0.00     0.173 A 
ATOM     80  F   UNL A   1      46.225  27.870  23.939  1.00  0.00    -0.203 F 
ATOM     81  C   UNL A   1      48.497  27.255  23.851  1.00  0.00     0.198 A 
ATOM     82  C   UNL A   1      49.779  27.113  25.871  1.00  0.00     0.198 A 
ATOM     83  F   UNL A   1      48.757  27.550  27.945  1.00  0.00    -0.203 F 
ATOM     84  F   UNL A   1      48.404  27.104  22.522  1.00  0.00    -0.200 F 
ATOM     85  C   UNL A   1      49.699  26.998  24.492  1.00  0.00     0.200 A 
ATOM     86  F   UNL A   1      50.937  26.862  26.496  1.00  0.00    -0.200 F 
ATOM     87  F   UNL A   1      50.774  26.625  23.785  1.00  0.00    -0.200 F 
ENDBRANCH  53  77
BRANCH  65  88
ATOM     88  C   UNL A   1      45.167  33.933  28.415  1.00  0.00     0.064 A 
ATOM     89  C   UNL A   1      44.782  34.895  27.471  1.00  0.00     0.173 A 
ATOM     90  C   UNL A   1      46.061  34.327  29.425  1.00  0.00     0.173 A 
ATOM     91  F   UNL A   1      43.937  34.571  26.481  1.00  0.00    -0.203 F 
ATOM     92  C   UNL A   1      45.281  36.195  27.530  1.00  0.00     0.198 A 
ATOM     93  C   UNL A   1      46.533  35.635  29.498  1.00  0.00     0.198 A 
ATOM     94  F   UNL A   1      46.452  33.449  30.360  1.00  0.00    -0.203 F 
ATOM     95  F   UNL A   1      44.925  37.091  26.597  1.00  0.00    -0.200 F 
ATOM     96  C   UNL A   1      46.147  36.566  28.548  1.00  0.00     0.200 A 
ATOM     97  F   UNL A   1      47.354  35.993  30.495  1.00  0.00    -0.200 F 
ATOM     98  F   UNL A   1      46.612  37.822  28.613  1.00  0.00    -0.200 F 
ENDBRANCH  65  88
ENDBRANCH  39  40
ENDBRANCH  32  34
ENDBRANCH  31  32
ENDBRANCH  30  31
ENDBRANCH   1  30
TORSDOF 16
ENDMDL
MODEL 2
REMARK VINA RESULT:     -14.7      4.731     10.624
REMARK SMILES O=C(C[C@]1(C(=O)NC2CCCCC2)CC(c2ccc([N+](=O)[O-])cc2)=NO1)OCCOC(=O)c1ccc(-c2c3nc(c(-c4c(F)c(F)c(F)c(F)c4F)c4ccc([nH]4)c(-c4c(F)c(F)c(F)c(F)c4F)c4nc(c(-c5c(F)c(F)c(F)c(F)c5F)c5ccc2[nH]5)C=C4)C=C3)cc1
REMARK SMILES IDX 28 1 27 2 2 3 1 4 3 5 4 6 14 7 26 8 15 9 25 10 5 11 6 12
REMARK SMILES IDX 7 13 8 15 9 16 13 17 10 18 12 19 11 20 16 21 17 22 24 23
REMARK SMILES IDX 18 24 23 25 19 26 20 27 21 28 22 29 29 30 30 31 31 32 32 33
REMARK SMILES IDX 33 34 34 35 95 36 35 37 94 38 36 39 37 40 38 41 88 42 39 43
REMARK SMILES IDX 93 44 87 45 89 46 40 47 92 48 86 49 85 50 41 52 73 53 53 54
REMARK SMILES IDX 72 55 54 56 57 57 71 58 90 59 55 60 56 61 70 63 91 64 58 65
REMARK SMILES IDX 42 66 43 67 51 68 44 69 45 70 49 71 52 72 46 73 47 74 50 75
REMARK SMILES IDX 48 76 74 77 75 78 83 79 76 80 77 81 81 82 84 83 78 84 79 85
REMARK SMILES IDX 82 86 80 87 59 88 60 89 68 90 61 91 62 92 66 93 69 94 63 95
REMARK SMILES IDX 64 96 67 97 65 98
REMARK H PARENT 7 14 89 51 57 62
REMARK Flexibility Score: inf
ROOT
ATOM      1  C   UNL A   1      33.408  29.079  25.139  1.00  0.00     0.274 C 
ENDROOT
BRANCH   1   2
ATOM      2  O   UNL A   1      33.601  28.745  23.595  1.00  0.00    -0.462 OA
BRANCH   2   3
ATOM      3  C   UNL A   1      33.864  27.657  22.828  1.00  0.00     0.310 C 
ATOM      4  O   UNL A   1      34.406  27.829  21.736  1.00  0.00    -0.252 OA
BRANCH   3   5
ATOM      5  C   UNL A   1      33.444  26.252  23.232  1.00  0.00     0.185 C 
BRANCH   5   6
ATOM      6  C   UNL A   1      32.385  25.603  22.380  1.00  0.00     0.231 C 
ATOM      7  C   UNL A   1      31.441  26.504  21.631  1.00  0.00     0.123 C 
ATOM      8  O   UNL A   1      31.491  24.933  23.314  1.00  0.00    -0.378 OA
ATOM      9  C   UNL A   1      30.561  26.798  22.793  1.00  0.00     0.092 C 
ATOM     10  N   UNL A   1      30.559  25.908  23.732  1.00  0.00    -0.089 NA
BRANCH   6  11
ATOM     11  C   UNL A   1      32.905  24.501  21.492  1.00  0.00     0.268 C 
ATOM     12  O   UNL A   1      32.972  24.617  20.264  1.00  0.00    -0.270 OA
ATOM     13  N   UNL A   1      33.367  23.335  21.966  1.00  0.00    -0.350 N 
ATOM     14  H   UNL A   1      33.562  22.736  21.209  1.00  0.00     0.163 HD
BRANCH  13  15
ATOM     15  C   UNL A   1      33.682  22.639  23.212  1.00  0.00     0.082 C 
ATOM     16  C   UNL A   1      35.454  23.142  23.829  1.00  0.00     0.025 C 
ATOM     17  C   UNL A   1      32.335  22.181  24.607  1.00  0.00     0.025 C 
ATOM     18  C   UNL A   1      35.877  23.081  25.685  1.00  0.00     0.002 C 
ATOM     19  C   UNL A   1      32.808  22.189  26.489  1.00  0.00     0.002 C 
ATOM     20  C   UNL A   1      34.574  22.648  26.984  1.00  0.00     0.000 C 
ENDBRANCH  13  15
ENDBRANCH   6  11
BRANCH   9  21
ATOM     21  C   UNL A   1      29.819  28.042  22.858  1.00  0.00    -0.000 A 
ATOM     22  C   UNL A   1      28.448  27.995  23.121  1.00  0.00     0.017 A 
ATOM     23  C   UNL A   1      30.497  29.245  22.671  1.00  0.00     0.017 A 
ATOM     24  C   UNL A   1      27.726  29.183  23.167  1.00  0.00     0.086 A 
ATOM     25  C   UNL A   1      29.776  30.433  22.699  1.00  0.00     0.086 A 
ATOM     26  C   UNL A   1      28.391  30.396  22.932  1.00  0.00     0.269 A 
BRANCH  26  27
ATOM     27  N   UNL A   1      27.627  31.647  22.903  1.00  0.00     0.062 N 
ATOM     28  O   UNL A   1      26.902  31.902  23.873  1.00  0.00    -0.258 OA
ATOM     29  O   UNL A   1      27.747  32.368  21.902  1.00  0.00    -0.258 OA
ENDBRANCH  26  27
ENDBRANCH   9  21
ENDBRANCH   5   6
ENDBRANCH   3   5
ENDBRANCH   2   3
ENDBRANCH   1   2
BRANCH   1  30
ATOM     30  C   UNL A   1      32.097  30.430  26.103  1.00  0.00     0.275 C 
BRANCH  30  31
ATOM     31  O   UNL A   1      32.471  31.444  27.428  1.00  0.00    -0.458 OA
BRANCH  31  32
ATOM     32  C   UNL A   1      33.261  32.561  27.560  1.00  0.00     0.338 C 
ATOM     33  O   UNL A   1      32.826  33.697  27.675  1.00  0.00    -0.246 OA
BRANCH  32  34
ATOM     34  C   UNL A   1      34.699  32.180  28.005  1.00  0.00     0.060 A 
ATOM     35  C   UNL A   1      34.931  30.840  28.420  1.00  0.00     0.016 A 
ATOM     36  C   UNL A   1      35.802  33.035  28.012  1.00  0.00     0.016 A 
ATOM     37  C   UNL A   1      36.201  30.347  28.770  1.00  0.00     0.010 A 
ATOM     38  C   UNL A   1      37.063  32.572  28.493  1.00  0.00     0.010 A 
ATOM     39  C   UNL A   1      37.268  31.233  28.903  1.00  0.00    -0.014 A 
BRANCH  39  40
ATOM     40  C   UNL A   1      38.401  30.869  29.821  1.00  0.00     0.031 A 
ATOM     41  C   UNL A   1      39.419  29.888  29.276  1.00  0.00     0.074 A 
ATOM     42  C   UNL A   1      38.600  31.367  31.059  1.00  0.00     0.049 A 
ATOM     43  N   UNL A   1      40.365  29.219  29.886  1.00  0.00    -0.248 NA
ATOM     44  C   UNL A   1      39.347  29.633  27.830  1.00  0.00     0.031 C 
ATOM     45  C   UNL A   1      37.829  32.433  31.690  1.00  0.00     0.029 A 
ATOM     46  N   UNL A   1      39.524  31.011  32.023  1.00  0.00    -0.354 N 
ATOM     47  C   UNL A   1      40.960  28.433  28.905  1.00  0.00     0.074 A 
ATOM     48  C   UNL A   1      40.285  28.718  27.662  1.00  0.00     0.031 C 
ATOM     49  C   UNL A   1      38.273  32.609  32.949  1.00  0.00     0.029 A 
ATOM     50  C   UNL A   1      39.325  31.630  33.237  1.00  0.00     0.049 A 
ATOM     51  H   UNL A   1      40.257  30.375  31.857  1.00  0.00     0.167 HD
ATOM     52  C   UNL A   1      41.964  27.531  29.025  1.00  0.00     0.037 A 
ATOM     53  C   UNL A   1      39.880  31.394  34.448  1.00  0.00     0.037 A 
ATOM     54  C   UNL A   1      42.635  27.234  30.260  1.00  0.00     0.049 A 
ATOM     55  C   UNL A   1      40.917  30.301  34.602  1.00  0.00     0.074 A 
ATOM     56  C   UNL A   1      43.642  26.315  30.496  1.00  0.00     0.029 A 
ATOM     57  N   UNL A   1      42.362  27.851  31.471  1.00  0.00    -0.354 N 
ATOM     58  N   UNL A   1      41.428  29.507  33.691  1.00  0.00    -0.248 NA
ATOM     59  C   UNL A   1      41.445  30.060  35.956  1.00  0.00     0.031 C 
ATOM     60  C   UNL A   1      43.934  26.331  31.863  1.00  0.00     0.029 A 
ATOM     61  C   UNL A   1      43.163  27.314  32.465  1.00  0.00     0.049 A 
ATOM     62  H   UNL A   1      41.696  28.564  31.605  1.00  0.00     0.167 HD
ATOM     63  C   UNL A   1      42.356  28.706  34.349  1.00  0.00     0.074 A 
ATOM     64  C   UNL A   1      42.340  29.105  35.740  1.00  0.00     0.031 C 
ATOM     65  C   UNL A   1      43.156  27.734  33.843  1.00  0.00     0.037 A 
BRANCH  52  66
ATOM     66  C   UNL A   1      42.322  26.737  27.800  1.00  0.00     0.064 A 
ATOM     67  C   UNL A   1      41.699  25.519  27.487  1.00  0.00     0.173 A 
ATOM     68  C   UNL A   1      43.331  27.196  26.939  1.00  0.00     0.173 A 
ATOM     69  F   UNL A   1      40.746  25.021  28.289  1.00  0.00    -0.203 F 
ATOM     70  C   UNL A   1      42.102  24.773  26.382  1.00  0.00     0.198 A 
ATOM     71  C   UNL A   1      43.704  26.466  25.815  1.00  0.00     0.198 A 
ATOM     72  F   UNL A   1      43.961  28.353  27.192  1.00  0.00    -0.203 F 
ATOM     73  F   UNL A   1      41.544  23.577  26.143  1.00  0.00    -0.200 F 
ATOM     74  C   UNL A   1      43.100  25.249  25.544  1.00  0.00     0.200 A 
ATOM     75  F   UNL A   1      44.660  26.935  25.000  1.00  0.00    -0.200 F 
ATOM     76  F   UNL A   1      43.490  24.527  24.484  1.00  0.00    -0.200 F 
ENDBRANCH  52  66
BRANCH  53  77
ATOM     77  C   UNL A   1      39.422  32.162  35.643  1.00  0.00     0.064 A 
ATOM     78  C   UNL A   1      39.981  33.406  35.974  1.00  0.00     0.173 A 
ATOM     79  C   UNL A   1      38.430  31.654  36.497  1.00  0.00     0.173 A 
ATOM     80  F   UNL A   1      40.969  33.916  35.224  1.00  0.00    -0.203 F 
ATOM     81  C   UNL A   1      39.563  34.110  37.105  1.00  0.00     0.198 A 
ATOM     82  C   UNL A   1      37.992  32.371  37.610  1.00  0.00     0.198 A 
ATOM     83  F   UNL A   1      37.882  30.454  36.249  1.00  0.00    -0.203 F 
ATOM     84  F   UNL A   1      40.146  35.275  37.419  1.00  0.00    -0.200 F 
ATOM     85  C   UNL A   1      38.561  33.597  37.914  1.00  0.00     0.200 A 
ATOM     86  F   UNL A   1      37.026  31.870  38.391  1.00  0.00    -0.200 F 
ATOM     87  F   UNL A   1      38.154  34.278  38.995  1.00  0.00    -0.200 F 
ENDBRANCH  53  77
BRANCH  65  88
ATOM     88  C   UNL A   1      44.139  27.069  34.767  1.00  0.00     0.064 A 
ATOM     89  C   UNL A   1      45.380  27.645  35.074  1.00  0.00     0.173 A 
ATOM     90  C   UNL A   1      43.792  25.875  35.418  1.00  0.00     0.173 A 
ATOM     91  F   UNL A   1      45.765  28.782  34.476  1.00  0.00    -0.203 F 
ATOM     92  C   UNL A   1      46.241  27.041  35.989  1.00  0.00     0.198 A 
ATOM     93  C   UNL A   1      44.641  25.291  36.354  1.00  0.00     0.198 A 
ATOM     94  F   UNL A   1      42.611  25.289  35.169  1.00  0.00    -0.203 F 
ATOM     95  F   UNL A   1      47.437  27.591  36.244  1.00  0.00    -0.200 F 
ATOM     96  C   UNL A   1      45.868  25.872  36.634  1.00  0.00     0.200 A 
ATOM     97  F   UNL A   1      44.267  24.172  36.990  1.00  0.00    -0.200 F 
ATOM     98  F   UNL A   1      46.691  25.303  37.527  1.00  0.00    -0.200 F 
ENDBRANCH  65  88
ENDBRANCH  39  40
ENDBRANCH  32  34
ENDBRANCH  31  32
ENDBRANCH  30  31
ENDBRANCH   1  30
TORSDOF 16
ENDMDL
MODEL 3
REMARK VINA RESULT:     -14.7      0.905      7.032
REMARK SMILES O=C(C[C@]1(C(=O)NC2CCCCC2)CC(c2ccc([N+](=O)[O-])cc2)=NO1)OCCOC(=O)c1ccc(-c2c3nc(c(-c4c(F)c(F)c(F)c(F)c4F)c4ccc([nH]4)c(-c4c(F)c(F)c(F)c(F)c4F)c4nc(c(-c5c(F)c(F)c(F)c(F)c5F)c5ccc2[nH]5)C=C4)C=C3)cc1
REMARK SMILES IDX 28 1 27 2 2 3 1 4 3 5 4 6 14 7 26 8 15 9 25 10 5 11 6 12
REMARK SMILES IDX 7 13 8 15 9 16 13 17 10 18 12 19 11 20 16 21 17 22 24 23
REMARK SMILES IDX 18 24 23 25 19 26 20 27 21 28 22 29 29 30 30 31 31 32 32 33
REMARK SMILES IDX 33 34 34 35 95 36 35 37 94 38 36 39 37 40 38 41 88 42 39 43
REMARK SMILES IDX 93 44 87 45 89 46 40 47 92 48 86 49 85 50 41 52 73 53 53 54
REMARK SMILES IDX 72 55 54 56 57 57 71 58 90 59 55 60 56 61 70 63 91 64 58 65
REMARK SMILES IDX 42 66 43 67 51 68 44 69 45 70 49 71 52 72 46 73 47 74 50 75
REMARK SMILES IDX 48 76 74 77 75 78 83 79 76 80 77 81 81 82 84 83 78 84 79 85
REMARK SMILES IDX 82 86 80 87 59 88 60 89 68 90 61 91 62 92 66 93 69 94 63 95
REMARK SMILES IDX 64 96 67 97 65 98
REMARK H PARENT 7 14 89 51 57 62
REMARK Flexibility Score: inf
ROOT
ATOM      1  C   UNL A   1      35.891  22.210  25.990  1.00  0.00     0.274 C 
ENDROOT
BRANCH   1   2
ATOM      2  O   UNL A   1      34.654  22.036  26.976  1.00  0.00    -0.462 OA
BRANCH   2   3
ATOM      3  C   UNL A   1      33.572  22.755  27.366  1.00  0.00     0.310 C 
ATOM      4  O   UNL A   1      33.096  22.537  28.482  1.00  0.00    -0.252 OA
BRANCH   3   5
ATOM      5  C   UNL A   1      32.882  23.756  26.451  1.00  0.00     0.185 C 
BRANCH   5   6
ATOM      6  C   UNL A   1      31.502  23.384  25.977  1.00  0.00     0.231 C 
ATOM      7  C   UNL A   1      31.151  21.922  25.927  1.00  0.00     0.123 C 
ATOM      8  O   UNL A   1      31.460  23.757  24.571  1.00  0.00    -0.378 OA
ATOM      9  C   UNL A   1      31.846  21.645  24.643  1.00  0.00     0.092 C 
ATOM     10  N   UNL A   1      32.000  22.663  23.860  1.00  0.00    -0.089 NA
BRANCH   6  11
ATOM     11  C   UNL A   1      30.398  24.187  26.619  1.00  0.00     0.268 C 
ATOM     12  O   UNL A   1      29.468  23.658  27.236  1.00  0.00    -0.270 OA
ATOM     13  N   UNL A   1      30.363  25.528  26.601  1.00  0.00    -0.350 N 
ATOM     14  H   UNL A   1      29.512  25.830  26.993  1.00  0.00     0.163 HD
BRANCH  13  15
ATOM     15  C   UNL A   1      31.144  26.698  26.204  1.00  0.00     0.082 C 
ATOM     16  C   UNL A   1      30.521  27.366  24.489  1.00  0.00     0.025 C 
ATOM     17  C   UNL A   1      31.879  28.036  27.483  1.00  0.00     0.025 C 
ATOM     18  C   UNL A   1      30.723  29.207  24.047  1.00  0.00     0.002 C 
ATOM     19  C   UNL A   1      32.010  29.911  26.998  1.00  0.00     0.002 C 
ATOM     20  C   UNL A   1      31.419  30.453  25.286  1.00  0.00     0.000 C 
ENDBRANCH  13  15
ENDBRANCH   6  11
BRANCH   9  21
ATOM     21  C   UNL A   1      32.358  20.320  24.354  1.00  0.00    -0.000 A 
ATOM     22  C   UNL A   1      32.125  19.768  23.092  1.00  0.00     0.017 A 
ATOM     23  C   UNL A   1      33.079  19.643  25.336  1.00  0.00     0.017 A 
ATOM     24  C   UNL A   1      32.597  18.490  22.812  1.00  0.00     0.086 A 
ATOM     25  C   UNL A   1      33.537  18.359  25.068  1.00  0.00     0.086 A 
ATOM     26  C   UNL A   1      33.282  17.782  23.812  1.00  0.00     0.269 A 
BRANCH  26  27
ATOM     27  N   UNL A   1      33.718  16.406  23.555  1.00  0.00     0.062 N 
ATOM     28  O   UNL A   1      33.434  15.545  24.398  1.00  0.00    -0.258 OA
ATOM     29  O   UNL A   1      34.353  16.192  22.514  1.00  0.00    -0.258 OA
ENDBRANCH  26  27
ENDBRANCH   9  21
ENDBRANCH   5   6
ENDBRANCH   3   5
ENDBRANCH   2   3
ENDBRANCH   1   2
BRANCH   1  30
ATOM     30  C   UNL A   1      37.304  20.800  25.291  1.00  0.00     0.275 C 
BRANCH  30  31
ATOM     31  O   UNL A   1      39.006  20.959  25.325  1.00  0.00    -0.458 OA
BRANCH  31  32
ATOM     32  C   UNL A   1      39.938  20.838  26.328  1.00  0.00     0.338 C 
ATOM     33  O   UNL A   1      40.689  19.884  26.454  1.00  0.00    -0.246 OA
BRANCH  32  34
ATOM     34  C   UNL A   1      40.242  22.216  26.978  1.00  0.00     0.060 A 
ATOM     35  C   UNL A   1      39.434  23.322  26.595  1.00  0.00     0.016 A 
ATOM     36  C   UNL A   1      41.230  22.465  27.932  1.00  0.00     0.016 A 
ATOM     37  C   UNL A   1      39.553  24.601  27.166  1.00  0.00     0.010 A 
ATOM     38  C   UNL A   1      41.438  23.792  28.415  1.00  0.00     0.010 A 
ATOM     39  C   UNL A   1      40.622  24.877  28.016  1.00  0.00    -0.014 A 
BRANCH  39  40
ATOM     40  C   UNL A   1      41.106  26.295  28.134  1.00  0.00     0.031 A 
ATOM     41  C   UNL A   1      42.502  26.574  27.619  1.00  0.00     0.074 A 
ATOM     42  C   UNL A   1      40.391  27.331  28.620  1.00  0.00     0.049 A 
ATOM     43  N   UNL A   1      43.274  27.620  27.777  1.00  0.00    -0.248 NA
ATOM     44  C   UNL A   1      43.107  25.506  26.807  1.00  0.00     0.031 C 
ATOM     45  C   UNL A   1      38.986  27.297  29.010  1.00  0.00     0.029 A 
ATOM     46  N   UNL A   1      40.778  28.631  28.888  1.00  0.00    -0.354 N 
ATOM     47  C   UNL A   1      44.465  27.309  27.129  1.00  0.00     0.074 A 
ATOM     48  C   UNL A   1      44.311  25.991  26.562  1.00  0.00     0.031 C 
ATOM     49  C   UNL A   1      38.641  28.498  29.513  1.00  0.00     0.029 A 
ATOM     50  C   UNL A   1      39.817  29.373  29.536  1.00  0.00     0.049 A 
ATOM     51  H   UNL A   1      41.658  28.992  28.637  1.00  0.00     0.167 HD
ATOM     52  C   UNL A   1      45.601  28.041  27.033  1.00  0.00     0.037 A 
ATOM     53  C   UNL A   1      39.892  30.586  30.130  1.00  0.00     0.037 A 
ATOM     54  C   UNL A   1      45.767  29.350  27.602  1.00  0.00     0.049 A 
ATOM     55  C   UNL A   1      41.200  31.349  30.123  1.00  0.00     0.074 A 
ATOM     56  C   UNL A   1      46.886  30.162  27.590  1.00  0.00     0.029 A 
ATOM     57  N   UNL A   1      44.780  30.036  28.294  1.00  0.00    -0.354 N 
ATOM     58  N   UNL A   1      42.347  31.026  29.575  1.00  0.00    -0.248 NA
ATOM     59  C   UNL A   1      41.229  32.641  30.831  1.00  0.00     0.031 C 
ATOM     60  C   UNL A   1      46.598  31.313  28.328  1.00  0.00     0.029 A 
ATOM     61  C   UNL A   1      45.274  31.252  28.735  1.00  0.00     0.049 A 
ATOM     62  H   UNL A   1      43.866  29.707  28.449  1.00  0.00     0.167 HD
ATOM     63  C   UNL A   1      43.215  32.081  29.837  1.00  0.00     0.074 A 
ATOM     64  C   UNL A   1      42.467  33.058  30.597  1.00  0.00     0.031 C 
ATOM     65  C   UNL A   1      44.513  32.229  29.472  1.00  0.00     0.037 A 
BRANCH  52  66
ATOM     66  C   UNL A   1      46.780  27.391  26.363  1.00  0.00     0.064 A 
ATOM     67  C   UNL A   1      47.719  26.628  27.073  1.00  0.00     0.173 A 
ATOM     68  C   UNL A   1      46.983  27.563  24.985  1.00  0.00     0.173 A 
ATOM     69  F   UNL A   1      47.587  26.454  28.397  1.00  0.00    -0.203 F 
ATOM     70  C   UNL A   1      48.839  26.097  26.436  1.00  0.00     0.198 A 
ATOM     71  C   UNL A   1      48.083  26.998  24.345  1.00  0.00     0.198 A 
ATOM     72  F   UNL A   1      46.118  28.284  24.258  1.00  0.00    -0.203 F 
ATOM     73  F   UNL A   1      49.762  25.435  27.147  1.00  0.00    -0.200 F 
ATOM     74  C   UNL A   1      49.016  26.278  25.072  1.00  0.00     0.200 A 
ATOM     75  F   UNL A   1      48.245  27.164  23.024  1.00  0.00    -0.200 F 
ATOM     76  F   UNL A   1      50.096  25.771  24.462  1.00  0.00    -0.200 F 
ENDBRANCH  52  66
BRANCH  53  77
ATOM     77  C   UNL A   1      38.707  31.141  30.850  1.00  0.00     0.064 A 
ATOM     78  C   UNL A   1      37.748  31.923  30.189  1.00  0.00     0.173 A 
ATOM     79  C   UNL A   1      38.525  30.921  32.224  1.00  0.00     0.173 A 
ATOM     80  F   UNL A   1      37.899  32.211  28.888  1.00  0.00    -0.203 F 
ATOM     81  C   UNL A   1      36.654  32.457  30.873  1.00  0.00     0.198 A 
ATOM     82  C   UNL A   1      37.415  31.430  32.900  1.00  0.00     0.198 A 
ATOM     83  F   UNL A   1      39.426  30.208  32.916  1.00  0.00    -0.203 F 
ATOM     84  F   UNL A   1      35.777  33.236  30.224  1.00  0.00    -0.200 F 
ATOM     85  C   UNL A   1      36.482  32.200  32.224  1.00  0.00     0.200 A 
ATOM     86  F   UNL A   1      37.256  31.181  34.207  1.00  0.00    -0.200 F 
ATOM     87  F   UNL A   1      35.427  32.705  32.877  1.00  0.00    -0.200 F 
ENDBRANCH  53  77
BRANCH  65  88
ATOM     88  C   UNL A   1      45.207  33.518  29.818  1.00  0.00     0.064 A 
ATOM     89  C   UNL A   1      45.153  34.642  28.981  1.00  0.00     0.173 A 
ATOM     90  C   UNL A   1      45.866  33.650  31.051  1.00  0.00     0.173 A 
ATOM     91  F   UNL A   1      44.541  34.569  27.789  1.00  0.00    -0.203 F 
ATOM     92  C   UNL A   1      45.745  35.845  29.360  1.00  0.00     0.198 A 
ATOM     93  C   UNL A   1      46.430  34.862  31.439  1.00  0.00     0.198 A 
ATOM     94  F   UNL A   1      45.936  32.609  31.894  1.00  0.00    -0.203 F 
ATOM     95  F   UNL A   1      45.710  36.898  28.531  1.00  0.00    -0.200 F 
ATOM     96  C   UNL A   1      46.374  35.957  30.592  1.00  0.00     0.200 A 
ATOM     97  F   UNL A   1      47.019  34.971  32.639  1.00  0.00    -0.200 F 
ATOM     98  F   UNL A   1      46.927  37.121  30.962  1.00  0.00    -0.200 F 
ENDBRANCH  65  88
ENDBRANCH  39  40
ENDBRANCH  32  34
ENDBRANCH  31  32
ENDBRANCH  30  31
ENDBRANCH   1  30
TORSDOF 16
ENDMDL
