MODEL 1
REMARK VINA RESULT:     -12.1      0.000      0.000
REMARK SMILES O=C(OCCOC(=O)[C@@H]1CCCN(C(=O)c2c(F)cc(Br)cc2F)C1)c1ccc(-c2c3nc(c(-c4c(F)c(F)c(F)c(F)c4F)c4ccc([nH]4)c(-c4c(F)c(F)c(F)c(F)c4F)c4nc(c(-c5c(F)c(F)c(F)c(F)c5F)c5ccc2[nH]5)C=C4)C=C3)cc1
REMARK SMILES IDX 4 1 3 2 2 3 1 4 26 5 27 6 88 7 28 8 87 9 29 10 30 11 31 12
REMARK SMILES IDX 81 13 32 14 86 15 80 16 82 17 33 18 85 19 79 20 78 21 34 23
REMARK SMILES IDX 66 24 46 25 65 26 47 27 50 28 64 29 83 30 48 31 49 32 63 34
REMARK SMILES IDX 84 35 51 36 35 37 36 38 44 39 37 40 38 41 42 42 45 43 39 44
REMARK SMILES IDX 40 45 43 46 41 47 67 48 68 49 76 50 69 51 70 52 74 53 77 54
REMARK SMILES IDX 71 55 72 56 75 57 73 58 52 59 53 60 61 61 54 62 55 63 59 64
REMARK SMILES IDX 62 65 56 66 57 67 60 68 58 69 5 70 6 71 7 72 8 73 9 74 10 75
REMARK SMILES IDX 25 76 11 77 13 78 12 79 14 80 15 81 16 82 17 83 23 84 18 85
REMARK SMILES IDX 19 86 22 87 24 88 20 89 21 90
REMARK H PARENT 82 22 50 33
REMARK Flexibility Score: inf
ROOT
ATOM      1  C   UNL A   1      31.673  30.437  26.619  1.00  0.00     0.275 C 
ENDROOT
BRANCH   1   2
ATOM      2  O   UNL A   1      32.787  31.318  26.424  1.00  0.00    -0.458 OA
BRANCH   2   3
ATOM      3  C   UNL A   1      33.475  32.031  27.343  1.00  0.00     0.338 C 
ATOM      4  O   UNL A   1      33.109  33.177  27.602  1.00  0.00    -0.246 OA
BRANCH   3   5
ATOM      5  C   UNL A   1      34.776  31.569  27.930  1.00  0.00     0.060 A 
ATOM      6  C   UNL A   1      35.910  32.350  28.175  1.00  0.00     0.016 A 
ATOM      7  C   UNL A   1      34.811  30.223  28.341  1.00  0.00     0.016 A 
ATOM      8  C   UNL A   1      36.985  31.864  28.925  1.00  0.00     0.010 A 
ATOM      9  C   UNL A   1      35.871  29.732  29.105  1.00  0.00     0.010 A 
ATOM     10  C   UNL A   1      36.957  30.564  29.423  1.00  0.00    -0.014 A 
BRANCH  10  11
ATOM     11  C   UNL A   1      38.146  30.004  30.093  1.00  0.00     0.031 A 
ATOM     12  C   UNL A   1      38.358  30.427  31.510  1.00  0.00     0.074 A 
ATOM     13  C   UNL A   1      39.003  29.171  29.473  1.00  0.00     0.049 A 
ATOM     14  N   UNL A   1      39.375  30.224  32.300  1.00  0.00    -0.248 NA
ATOM     15  C   UNL A   1      37.284  31.245  32.098  1.00  0.00     0.031 C 
ATOM     16  C   UNL A   1      38.879  28.679  28.102  1.00  0.00     0.029 A 
ATOM     17  N   UNL A   1      40.165  28.596  29.926  1.00  0.00    -0.354 N 
ATOM     18  C   UNL A   1      39.078  30.934  33.453  1.00  0.00     0.074 A 
ATOM     19  C   UNL A   1      37.842  31.644  33.222  1.00  0.00     0.031 C 
ATOM     20  C   UNL A   1      39.928  27.882  27.822  1.00  0.00     0.029 A 
ATOM     21  C   UNL A   1      40.807  27.822  28.987  1.00  0.00     0.049 A 
ATOM     22  H   UNL A   1      40.507  28.726  30.839  1.00  0.00     0.167 HD
ATOM     23  C   UNL A   1      39.754  30.955  34.622  1.00  0.00     0.037 A 
ATOM     24  C   UNL A   1      41.974  27.152  29.075  1.00  0.00     0.037 A 
ATOM     25  C   UNL A   1      40.952  30.204  34.843  1.00  0.00     0.049 A 
ATOM     26  C   UNL A   1      42.728  27.194  30.384  1.00  0.00     0.074 A 
ATOM     27  C   UNL A   1      41.719  30.115  35.986  1.00  0.00     0.029 A 
ATOM     28  N   UNL A   1      41.554  29.401  33.882  1.00  0.00    -0.354 N 
ATOM     29  N   UNL A   1      42.427  27.833  31.491  1.00  0.00    -0.248 NA
ATOM     30  C   UNL A   1      43.975  26.420  30.465  1.00  0.00     0.031 C 
ATOM     31  C   UNL A   1      42.814  29.293  35.702  1.00  0.00     0.029 A 
ATOM     32  C   UNL A   1      42.695  28.821  34.401  1.00  0.00     0.049 A 
ATOM     33  H   UNL A   1      41.218  29.266  32.966  1.00  0.00     0.167 HD
ATOM     34  C   UNL A   1      43.420  27.510  32.407  1.00  0.00     0.074 A 
ATOM     35  C   UNL A   1      44.337  26.618  31.726  1.00  0.00     0.031 C 
ATOM     36  C   UNL A   1      43.561  27.909  33.696  1.00  0.00     0.037 A 
BRANCH  23  37
ATOM     37  C   UNL A   1      39.197  31.845  35.692  1.00  0.00     0.064 A 
ATOM     38  C   UNL A   1      39.658  33.161  35.874  1.00  0.00     0.173 A 
ATOM     39  C   UNL A   1      38.291  31.332  36.630  1.00  0.00     0.173 A 
ATOM     40  F   UNL A   1      40.551  33.688  35.020  1.00  0.00    -0.203 F 
ATOM     41  C   UNL A   1      39.303  33.893  37.002  1.00  0.00     0.198 A 
ATOM     42  C   UNL A   1      37.901  32.087  37.732  1.00  0.00     0.198 A 
ATOM     43  F   UNL A   1      37.819  30.083  36.503  1.00  0.00    -0.203 F 
ATOM     44  F   UNL A   1      39.859  35.092  37.221  1.00  0.00    -0.200 F 
ATOM     45  C   UNL A   1      38.427  33.355  37.931  1.00  0.00     0.200 A 
ATOM     46  F   UNL A   1      37.047  31.569  38.626  1.00  0.00    -0.200 F 
ATOM     47  F   UNL A   1      38.111  34.047  39.034  1.00  0.00    -0.200 F 
ENDBRANCH  23  37
BRANCH  24  48
ATOM     48  C   UNL A   1      42.492  26.377  27.913  1.00  0.00     0.064 A 
ATOM     49  C   UNL A   1      43.383  26.951  26.994  1.00  0.00     0.173 A 
ATOM     50  C   UNL A   1      42.097  25.050  27.685  1.00  0.00     0.173 A 
ATOM     51  F   UNL A   1      43.779  28.222  27.152  1.00  0.00    -0.203 F 
ATOM     52  C   UNL A   1      43.840  26.238  25.885  1.00  0.00     0.198 A 
ATOM     53  C   UNL A   1      42.574  24.329  26.589  1.00  0.00     0.198 A 
ATOM     54  F   UNL A   1      41.249  24.448  28.532  1.00  0.00    -0.203 F 
ATOM     55  F   UNL A   1      44.657  26.828  25.001  1.00  0.00    -0.200 F 
ATOM     56  C   UNL A   1      43.439  24.926  25.686  1.00  0.00     0.200 A 
ATOM     57  F   UNL A   1      42.190  23.058  26.408  1.00  0.00    -0.200 F 
ATOM     58  F   UNL A   1      43.880  24.241  24.623  1.00  0.00    -0.200 F 
ENDBRANCH  24  48
BRANCH  36  59
ATOM     59  C   UNL A   1      44.709  27.350  34.483  1.00  0.00     0.064 A 
ATOM     60  C   UNL A   1      45.919  28.043  34.614  1.00  0.00     0.173 A 
ATOM     61  C   UNL A   1      44.530  26.180  35.238  1.00  0.00     0.173 A 
ATOM     62  F   UNL A   1      46.138  29.160  33.903  1.00  0.00    -0.203 F 
ATOM     63  C   UNL A   1      46.909  27.589  35.480  1.00  0.00     0.198 A 
ATOM     64  C   UNL A   1      45.508  25.747  36.126  1.00  0.00     0.198 A 
ATOM     65  F   UNL A   1      43.383  25.490  35.153  1.00  0.00    -0.203 F 
ATOM     66  F   UNL A   1      48.064  28.259  35.586  1.00  0.00    -0.200 F 
ATOM     67  C   UNL A   1      46.696  26.452  36.248  1.00  0.00     0.200 A 
ATOM     68  F   UNL A   1      45.291  24.662  36.883  1.00  0.00    -0.200 F 
ATOM     69  F   UNL A   1      47.633  26.040  37.112  1.00  0.00    -0.200 F 
ENDBRANCH  36  59
ENDBRANCH  10  11
ENDBRANCH   3   5
ENDBRANCH   2   3
ENDBRANCH   1   2
BRANCH   1  70
ATOM     70  C   UNL A   1      31.972  28.953  26.357  1.00  0.00     0.274 C 
BRANCH  70  71
ATOM     71  O   UNL A   1      31.104  28.282  25.416  1.00  0.00    -0.462 OA
BRANCH  71  72
ATOM     72  C   UNL A   1      31.492  28.402  24.107  1.00  0.00     0.310 C 
ATOM     73  O   UNL A   1      32.566  28.872  23.777  1.00  0.00    -0.252 OA
BRANCH  72  74
ATOM     74  C   UNL A   1      30.423  27.878  23.142  1.00  0.00     0.119 C 
ATOM     75  C   UNL A   1      29.384  27.011  23.840  1.00  0.00     0.019 C 
ATOM     76  C   UNL A   1      31.025  27.050  22.005  1.00  0.00     0.135 C 
ATOM     77  C   UNL A   1      29.952  25.684  24.344  1.00  0.00     0.022 C 
ATOM     78  N   UNL A   1      31.603  25.807  22.515  1.00  0.00    -0.338 N 
ATOM     79  C   UNL A   1      30.687  24.928  23.244  1.00  0.00     0.120 C 
BRANCH  78  80
ATOM     80  C   UNL A   1      32.984  25.655  22.387  1.00  0.00     0.259 C 
ATOM     81  O   UNL A   1      33.664  26.325  21.611  1.00  0.00    -0.269 OA
BRANCH  80  82
ATOM     82  C   UNL A   1      33.703  24.694  23.223  1.00  0.00     0.111 A 
ATOM     83  C   UNL A   1      33.967  23.406  22.773  1.00  0.00     0.140 A 
ATOM     84  C   UNL A   1      34.253  25.120  24.431  1.00  0.00     0.140 A 
ATOM     85  F   UNL A   1      33.474  22.973  21.603  1.00  0.00    -0.206 F 
ATOM     86  C   UNL A   1      34.749  22.536  23.529  1.00  0.00     0.056 A 
ATOM     87  C   UNL A   1      35.037  24.264  25.198  1.00  0.00     0.056 A 
ATOM     88  F   UNL A   1      34.058  26.366  24.885  1.00  0.00    -0.206 F 
ATOM     89  C   UNL A   1      35.286  22.974  24.739  1.00  0.00     0.023 A 
ATOM     90  Br  UNL A   1      36.388  21.819  25.749  1.00  0.00    -0.051 Br
ENDBRANCH  80  82
ENDBRANCH  78  80
ENDBRANCH  72  74
ENDBRANCH  71  72
ENDBRANCH  70  71
ENDBRANCH   1  70
TORSDOF 13
ENDMDL
MODEL 2
REMARK VINA RESULT:     -12.1      0.541      1.687
REMARK SMILES O=C(OCCOC(=O)[C@@H]1CCCN(C(=O)c2c(F)cc(Br)cc2F)C1)c1ccc(-c2c3nc(c(-c4c(F)c(F)c(F)c(F)c4F)c4ccc([nH]4)c(-c4c(F)c(F)c(F)c(F)c4F)c4nc(c(-c5c(F)c(F)c(F)c(F)c5F)c5ccc2[nH]5)C=C4)C=C3)cc1
REMARK SMILES IDX 4 1 3 2 2 3 1 4 26 5 27 6 88 7 28 8 87 9 29 10 30 11 31 12
REMARK SMILES IDX 81 13 32 14 86 15 80 16 82 17 33 18 85 19 79 20 78 21 34 23
REMARK SMILES IDX 66 24 46 25 65 26 47 27 50 28 64 29 83 30 48 31 49 32 63 34
REMARK SMILES IDX 84 35 51 36 35 37 36 38 44 39 37 40 38 41 42 42 45 43 39 44
REMARK SMILES IDX 40 45 43 46 41 47 67 48 68 49 76 50 69 51 70 52 74 53 77 54
REMARK SMILES IDX 71 55 72 56 75 57 73 58 52 59 53 60 61 61 54 62 55 63 59 64
REMARK SMILES IDX 62 65 56 66 57 67 60 68 58 69 5 70 6 71 7 72 8 73 9 74 10 75
REMARK SMILES IDX 25 76 11 77 13 78 12 79 14 80 15 81 16 82 17 83 23 84 18 85
REMARK SMILES IDX 19 86 22 87 24 88 20 89 21 90
REMARK H PARENT 82 22 50 33
REMARK Flexibility Score: inf
ROOT
ATOM      1  C   UNL A   1      31.964  30.544  26.715  1.00  0.00     0.275 C 
ENDROOT
BRANCH   1   2
ATOM      2  O   UNL A   1      33.088  31.424  26.584  1.00  0.00    -0.458 OA
BRANCH   2   3
ATOM      3  C   UNL A   1      33.788  32.057  27.552  1.00  0.00     0.338 C 
ATOM      4  O   UNL A   1      33.416  33.169  27.923  1.00  0.00    -0.246 OA
BRANCH   3   5
ATOM      5  C   UNL A   1      35.104  31.556  28.070  1.00  0.00     0.060 A 
ATOM      6  C   UNL A   1      36.283  32.294  28.216  1.00  0.00     0.016 A 
ATOM      7  C   UNL A   1      35.110  30.223  28.521  1.00  0.00     0.016 A 
ATOM      8  C   UNL A   1      37.384  31.785  28.911  1.00  0.00     0.010 A 
ATOM      9  C   UNL A   1      36.197  29.709  29.232  1.00  0.00     0.010 A 
ATOM     10  C   UNL A   1      37.335  30.504  29.452  1.00  0.00    -0.014 A 
BRANCH  10  11
ATOM     11  C   UNL A   1      38.541  29.913  30.063  1.00  0.00     0.031 A 
ATOM     12  C   UNL A   1      38.850  30.351  31.457  1.00  0.00     0.074 A 
ATOM     13  C   UNL A   1      39.331  29.040  29.410  1.00  0.00     0.049 A 
ATOM     14  N   UNL A   1      39.904  30.126  32.191  1.00  0.00    -0.248 NA
ATOM     15  C   UNL A   1      37.840  31.217  32.090  1.00  0.00     0.031 C 
ATOM     16  C   UNL A   1      39.111  28.530  28.058  1.00  0.00     0.029 A 
ATOM     17  N   UNL A   1      40.498  28.432  29.805  1.00  0.00    -0.354 N 
ATOM     18  C   UNL A   1      39.699  30.866  33.345  1.00  0.00     0.074 A 
ATOM     19  C   UNL A   1      38.477  31.614  33.172  1.00  0.00     0.031 C 
ATOM     20  C   UNL A   1      40.114  27.692  27.732  1.00  0.00     0.029 A 
ATOM     21  C   UNL A   1      41.056  27.620  28.846  1.00  0.00     0.049 A 
ATOM     22  H   UNL A   1      40.897  28.565  30.695  1.00  0.00     0.167 HD
ATOM     23  C   UNL A   1      40.442  30.882  34.473  1.00  0.00     0.037 A 
ATOM     24  C   UNL A   1      42.203  26.911  28.878  1.00  0.00     0.037 A 
ATOM     25  C   UNL A   1      41.625  30.093  34.637  1.00  0.00     0.049 A 
ATOM     26  C   UNL A   1      43.033  26.948  30.141  1.00  0.00     0.074 A 
ATOM     27  C   UNL A   1      42.454  29.996  35.737  1.00  0.00     0.029 A 
ATOM     28  N   UNL A   1      42.142  29.253  33.659  1.00  0.00    -0.354 N 
ATOM     29  N   UNL A   1      42.819  27.615  31.251  1.00  0.00    -0.248 NA
ATOM     30  C   UNL A   1      44.256  26.132  30.164  1.00  0.00     0.031 C 
ATOM     31  C   UNL A   1      43.502  29.131  35.405  1.00  0.00     0.029 A 
ATOM     32  C   UNL A   1      43.290  28.642  34.122  1.00  0.00     0.049 A 
ATOM     33  H   UNL A   1      41.749  29.115  32.767  1.00  0.00     0.167 HD
ATOM     34  C   UNL A   1      43.853  27.273  32.114  1.00  0.00     0.074 A 
ATOM     35  C   UNL A   1      44.697  26.338  31.398  1.00  0.00     0.031 C 
ATOM     36  C   UNL A   1      44.083  27.688  33.385  1.00  0.00     0.037 A 
BRANCH  23  37
ATOM     37  C   UNL A   1      39.980  31.808  35.556  1.00  0.00     0.064 A 
ATOM     38  C   UNL A   1      38.905  31.481  36.401  1.00  0.00     0.173 A 
ATOM     39  C   UNL A   1      40.529  33.093  35.662  1.00  0.00     0.173 A 
ATOM     40  F   UNL A   1      38.323  30.273  36.316  1.00  0.00    -0.203 F 
ATOM     41  C   UNL A   1      38.341  32.434  37.243  1.00  0.00     0.198 A 
ATOM     42  C   UNL A   1      39.992  34.029  36.541  1.00  0.00     0.198 A 
ATOM     43  F   UNL A   1      41.556  33.457  34.880  1.00  0.00    -0.203 F 
ATOM     44  F   UNL A   1      37.235  32.138  37.939  1.00  0.00    -0.200 F 
ATOM     45  C   UNL A   1      38.884  33.707  37.311  1.00  0.00     0.200 A 
ATOM     46  F   UNL A   1      40.522  35.258  36.613  1.00  0.00    -0.200 F 
ATOM     47  F   UNL A   1      38.320  34.634  38.097  1.00  0.00    -0.200 F 
ENDBRANCH  23  37
BRANCH  24  48
ATOM     48  C   UNL A   1      42.625  26.099  27.703  1.00  0.00     0.064 A 
ATOM     49  C   UNL A   1      42.133  24.800  27.501  1.00  0.00     0.173 A 
ATOM     50  C   UNL A   1      43.540  26.595  26.762  1.00  0.00     0.173 A 
ATOM     51  F   UNL A   1      41.271  24.269  28.379  1.00  0.00    -0.203 F 
ATOM     52  C   UNL A   1      42.555  24.025  26.421  1.00  0.00     0.198 A 
ATOM     53  C   UNL A   1      43.943  25.828  25.668  1.00  0.00     0.198 A 
ATOM     54  F   UNL A   1      44.042  27.831  26.901  1.00  0.00    -0.203 F 
ATOM     55  F   UNL A   1      42.100  22.772  26.279  1.00  0.00    -0.200 F 
ATOM     56  C   UNL A   1      43.456  24.541  25.502  1.00  0.00     0.200 A 
ATOM     57  F   UNL A   1      44.806  26.336  24.778  1.00  0.00    -0.200 F 
ATOM     58  F   UNL A   1      43.859  23.797  24.464  1.00  0.00    -0.200 F 
ENDBRANCH  24  48
BRANCH  36  59
ATOM     59  C   UNL A   1      45.254  27.102  34.115  1.00  0.00     0.064 A 
ATOM     60  C   UNL A   1      46.492  27.756  34.165  1.00  0.00     0.173 A 
ATOM     61  C   UNL A   1      45.081  25.950  34.898  1.00  0.00     0.173 A 
ATOM     62  F   UNL A   1      46.707  28.853  33.424  1.00  0.00    -0.203 F 
ATOM     63  C   UNL A   1      47.514  27.280  34.981  1.00  0.00     0.198 A 
ATOM     64  C   UNL A   1      46.093  25.497  35.736  1.00  0.00     0.198 A 
ATOM     65  F   UNL A   1      43.908  25.298  34.890  1.00  0.00    -0.203 F 
ATOM     66  F   UNL A   1      48.695  27.913  35.010  1.00  0.00    -0.200 F 
ATOM     67  C   UNL A   1      47.308  26.163  35.779  1.00  0.00     0.200 A 
ATOM     68  F   UNL A   1      45.883  24.432  36.523  1.00  0.00    -0.200 F 
ATOM     69  F   UNL A   1      48.279  25.732  36.595  1.00  0.00    -0.200 F 
ENDBRANCH  36  59
ENDBRANCH  10  11
ENDBRANCH   3   5
ENDBRANCH   2   3
ENDBRANCH   1   2
BRANCH   1  70
ATOM     70  C   UNL A   1      32.220  29.100  26.260  1.00  0.00     0.274 C 
BRANCH  70  71
ATOM     71  O   UNL A   1      31.238  28.526  25.368  1.00  0.00    -0.462 OA
BRANCH  71  72
ATOM     72  C   UNL A   1      31.611  28.517  24.049  1.00  0.00     0.310 C 
ATOM     73  O   UNL A   1      32.696  28.915  23.668  1.00  0.00    -0.252 OA
BRANCH  72  74
ATOM     74  C   UNL A   1      30.510  27.950  23.146  1.00  0.00     0.119 C 
ATOM     75  C   UNL A   1      29.491  27.125  23.919  1.00  0.00     0.019 C 
ATOM     76  C   UNL A   1      31.073  27.063  22.034  1.00  0.00     0.135 C 
ATOM     77  C   UNL A   1      30.070  25.822  24.471  1.00  0.00     0.022 C 
ATOM     78  N   UNL A   1      31.662  25.845  22.587  1.00  0.00    -0.338 N 
ATOM     79  C   UNL A   1      30.766  25.008  23.388  1.00  0.00     0.120 C 
BRANCH  78  80
ATOM     80  C   UNL A   1      33.038  25.679  22.424  1.00  0.00     0.259 C 
ATOM     81  O   UNL A   1      33.700  26.328  21.616  1.00  0.00    -0.269 OA
BRANCH  80  82
ATOM     82  C   UNL A   1      33.774  24.730  23.259  1.00  0.00     0.111 A 
ATOM     83  C   UNL A   1      34.041  23.440  22.816  1.00  0.00     0.140 A 
ATOM     84  C   UNL A   1      34.333  25.170  24.458  1.00  0.00     0.140 A 
ATOM     85  F   UNL A   1      33.539  22.995  21.655  1.00  0.00    -0.206 F 
ATOM     86  C   UNL A   1      34.838  22.582  23.570  1.00  0.00     0.056 A 
ATOM     87  C   UNL A   1      35.132  24.325  25.223  1.00  0.00     0.056 A 
ATOM     88  F   UNL A   1      34.134  26.417  24.904  1.00  0.00    -0.206 F 
ATOM     89  C   UNL A   1      35.385  23.034  24.771  1.00  0.00     0.023 A 
ATOM     90  Br  UNL A   1      36.507  21.894  25.777  1.00  0.00    -0.051 Br
ENDBRANCH  80  82
ENDBRANCH  78  80
ENDBRANCH  72  74
ENDBRANCH  71  72
ENDBRANCH  70  71
ENDBRANCH   1  70
TORSDOF 13
ENDMDL
MODEL 3
REMARK VINA RESULT:     -12.0      4.631      9.842
REMARK SMILES O=C(OCCOC(=O)[C@@H]1CCCN(C(=O)c2c(F)cc(Br)cc2F)C1)c1ccc(-c2c3nc(c(-c4c(F)c(F)c(F)c(F)c4F)c4ccc([nH]4)c(-c4c(F)c(F)c(F)c(F)c4F)c4nc(c(-c5c(F)c(F)c(F)c(F)c5F)c5ccc2[nH]5)C=C4)C=C3)cc1
REMARK SMILES IDX 4 1 3 2 2 3 1 4 26 5 27 6 88 7 28 8 87 9 29 10 30 11 31 12
REMARK SMILES IDX 81 13 32 14 86 15 80 16 82 17 33 18 85 19 79 20 78 21 34 23
REMARK SMILES IDX 66 24 46 25 65 26 47 27 50 28 64 29 83 30 48 31 49 32 63 34
REMARK SMILES IDX 84 35 51 36 35 37 36 38 44 39 37 40 38 41 42 42 45 43 39 44
REMARK SMILES IDX 40 45 43 46 41 47 67 48 68 49 76 50 69 51 70 52 74 53 77 54
REMARK SMILES IDX 71 55 72 56 75 57 73 58 52 59 53 60 61 61 54 62 55 63 59 64
REMARK SMILES IDX 62 65 56 66 57 67 60 68 58 69 5 70 6 71 7 72 8 73 9 74 10 75
REMARK SMILES IDX 25 76 11 77 13 78 12 79 14 80 15 81 16 82 17 83 23 84 18 85
REMARK SMILES IDX 19 86 22 87 24 88 20 89 21 90
REMARK H PARENT 82 22 50 33
REMARK Flexibility Score: inf
ROOT
ATOM      1  C   UNL A   1      37.331  21.178  24.637  1.00  0.00     0.275 C 
ENDROOT
BRANCH   1   2
ATOM      2  O   UNL A   1      37.991  21.088  25.906  1.00  0.00    -0.458 OA
BRANCH   2   3
ATOM      3  C   UNL A   1      39.301  21.255  26.194  1.00  0.00     0.338 C 
ATOM      4  O   UNL A   1      40.043  20.274  26.180  1.00  0.00    -0.246 OA
BRANCH   3   5
ATOM      5  C   UNL A   1      39.866  22.545  26.714  1.00  0.00     0.060 A 
ATOM      6  C   UNL A   1      40.883  22.693  27.663  1.00  0.00     0.016 A 
ATOM      7  C   UNL A   1      39.359  23.713  26.114  1.00  0.00     0.016 A 
ATOM      8  C   UNL A   1      41.479  23.933  27.909  1.00  0.00     0.010 A 
ATOM      9  C   UNL A   1      39.958  24.954  26.340  1.00  0.00     0.010 A 
ATOM     10  C   UNL A   1      41.044  25.064  27.224  1.00  0.00    -0.014 A 
BRANCH  10  11
ATOM     11  C   UNL A   1      41.573  26.394  27.582  1.00  0.00     0.031 A 
ATOM     12  C   UNL A   1      42.950  26.703  27.091  1.00  0.00     0.074 A 
ATOM     13  C   UNL A   1      40.874  27.279  28.316  1.00  0.00     0.049 A 
ATOM     14  N   UNL A   1      43.729  27.712  27.365  1.00  0.00    -0.248 NA
ATOM     15  C   UNL A   1      43.551  25.692  26.204  1.00  0.00     0.031 C 
ATOM     16  C   UNL A   1      39.518  27.088  28.827  1.00  0.00     0.029 A 
ATOM     17  N   UNL A   1      41.224  28.528  28.770  1.00  0.00    -0.354 N 
ATOM     18  C   UNL A   1      44.924  27.424  26.724  1.00  0.00     0.074 A 
ATOM     19  C   UNL A   1      44.797  26.113  26.134  1.00  0.00     0.031 C 
ATOM     20  C   UNL A   1      39.153  28.177  29.531  1.00  0.00     0.029 A 
ATOM     21  C   UNL A   1      40.256  29.134  29.535  1.00  0.00     0.049 A 
ATOM     22  H   UNL A   1      42.089  28.950  28.565  1.00  0.00     0.167 HD
ATOM     23  C   UNL A   1      46.017  28.208  26.597  1.00  0.00     0.037 A 
ATOM     24  C   UNL A   1      40.277  30.326  30.166  1.00  0.00     0.037 A 
ATOM     25  C   UNL A   1      46.099  29.525  27.152  1.00  0.00     0.049 A 
ATOM     26  C   UNL A   1      41.511  31.188  30.028  1.00  0.00     0.074 A 
ATOM     27  C   UNL A   1      47.136  30.433  27.074  1.00  0.00     0.029 A 
ATOM     28  N   UNL A   1      45.085  30.122  27.890  1.00  0.00    -0.354 N 
ATOM     29  N   UNL A   1      42.628  30.936  29.386  1.00  0.00    -0.248 NA
ATOM     30  C   UNL A   1      41.490  32.501  30.690  1.00  0.00     0.031 C 
ATOM     31  C   UNL A   1      46.766  31.565  27.807  1.00  0.00     0.029 A 
ATOM     32  C   UNL A   1      45.476  31.386  28.288  1.00  0.00     0.049 A 
ATOM     33  H   UNL A   1      44.218  29.707  28.099  1.00  0.00     0.167 HD
ATOM     34  C   UNL A   1      43.424  32.065  29.533  1.00  0.00     0.074 A 
ATOM     35  C   UNL A   1      42.662  33.007  30.328  1.00  0.00     0.031 C 
ATOM     36  C   UNL A   1      44.669  32.306  29.052  1.00  0.00     0.037 A 
BRANCH  23  37
ATOM     37  C   UNL A   1      47.177  27.610  25.861  1.00  0.00     0.064 A 
ATOM     38  C   UNL A   1      48.290  27.081  26.538  1.00  0.00     0.173 A 
ATOM     39  C   UNL A   1      47.236  27.689  24.463  1.00  0.00     0.173 A 
ATOM     40  F   UNL A   1      48.294  27.013  27.879  1.00  0.00    -0.203 F 
ATOM     41  C   UNL A   1      49.450  26.742  25.850  1.00  0.00     0.198 A 
ATOM     42  C   UNL A   1      48.383  27.303  23.775  1.00  0.00     0.198 A 
ATOM     43  F   UNL A   1      46.202  28.185  23.768  1.00  0.00    -0.203 F 
ATOM     44  F   UNL A   1      50.543  26.367  26.529  1.00  0.00    -0.200 F 
ATOM     45  C   UNL A   1      49.496  26.854  24.470  1.00  0.00     0.200 A 
ATOM     46  F   UNL A   1      48.424  27.404  22.439  1.00  0.00    -0.200 F 
ATOM     47  F   UNL A   1      50.625  26.559  23.811  1.00  0.00    -0.200 F 
ENDBRANCH  23  37
BRANCH  24  48
ATOM     48  C   UNL A   1      39.103  30.784  30.961  1.00  0.00     0.064 A 
ATOM     49  C   UNL A   1      38.988  30.487  32.327  1.00  0.00     0.173 A 
ATOM     50  C   UNL A   1      38.062  31.516  30.370  1.00  0.00     0.173 A 
ATOM     51  F   UNL A   1      39.945  29.774  32.938  1.00  0.00    -0.203 F 
ATOM     52  C   UNL A   1      37.872  30.884  33.064  1.00  0.00     0.198 A 
ATOM     53  C   UNL A   1      36.957  31.934  31.114  1.00  0.00     0.198 A 
ATOM     54  F   UNL A   1      38.118  31.832  29.068  1.00  0.00    -0.203 F 
ATOM     55  F   UNL A   1      37.771  30.547  34.357  1.00  0.00    -0.200 F 
ATOM     56  C   UNL A   1      36.860  31.611  32.458  1.00  0.00     0.200 A 
ATOM     57  F   UNL A   1      35.986  32.646  30.525  1.00  0.00    -0.200 F 
ATOM     58  F   UNL A   1      35.789  31.994  33.167  1.00  0.00    -0.200 F 
ENDBRANCH  24  48
BRANCH  36  59
ATOM     59  C   UNL A   1      45.275  33.652  29.313  1.00  0.00     0.064 A 
ATOM     60  C   UNL A   1      46.132  33.876  30.398  1.00  0.00     0.173 A 
ATOM     61  C   UNL A   1      45.113  34.683  28.373  1.00  0.00     0.173 A 
ATOM     62  F   UNL A   1      46.309  32.924  31.327  1.00  0.00    -0.203 F 
ATOM     63  C   UNL A   1      46.813  35.082  30.529  1.00  0.00     0.198 A 
ATOM     64  C   UNL A   1      45.818  35.874  28.491  1.00  0.00     0.198 A 
ATOM     65  F   UNL A   1      44.310  34.509  27.312  1.00  0.00    -0.203 F 
ATOM     66  F   UNL A   1      47.622  35.282  31.579  1.00  0.00    -0.200 F 
ATOM     67  C   UNL A   1      46.670  36.072  29.567  1.00  0.00     0.200 A 
ATOM     68  F   UNL A   1      45.696  36.819  27.549  1.00  0.00    -0.200 F 
ATOM     69  F   UNL A   1      47.358  37.217  29.674  1.00  0.00    -0.200 F 
ENDBRANCH  36  59
ENDBRANCH  10  11
ENDBRANCH   3   5
ENDBRANCH   2   3
ENDBRANCH   1   2
BRANCH   1  70
ATOM     70  C   UNL A   1      36.267  22.282  24.542  1.00  0.00     0.274 C 
BRANCH  70  71
ATOM     71  O   UNL A   1      34.944  21.862  24.139  1.00  0.00    -0.462 OA
BRANCH  71  72
ATOM     72  C   UNL A   1      34.104  21.568  25.182  1.00  0.00     0.310 C 
ATOM     73  O   UNL A   1      34.416  21.731  26.347  1.00  0.00    -0.252 OA
BRANCH  72  74
ATOM     74  C   UNL A   1      32.756  21.024  24.696  1.00  0.00     0.119 C 
ATOM     75  C   UNL A   1      32.502  21.327  23.226  1.00  0.00     0.019 C 
ATOM     76  C   UNL A   1      31.581  21.592  25.493  1.00  0.00     0.135 C 
ATOM     77  C   UNL A   1      32.296  22.816  22.948  1.00  0.00     0.022 C 
ATOM     78  N   UNL A   1      31.431  23.026  25.248  1.00  0.00    -0.338 N 
ATOM     79  C   UNL A   1      31.228  23.418  23.852  1.00  0.00     0.120 C 
BRANCH  78  80
ATOM     80  C   UNL A   1      31.640  23.877  26.334  1.00  0.00     0.259 C 
ATOM     81  O   UNL A   1      31.612  23.493  27.502  1.00  0.00    -0.269 OA
BRANCH  80  82
ATOM     82  C   UNL A   1      31.950  25.290  26.118  1.00  0.00     0.111 A 
ATOM     83  C   UNL A   1      30.951  26.256  26.136  1.00  0.00     0.140 A 
ATOM     84  C   UNL A   1      33.283  25.689  26.030  1.00  0.00     0.140 A 
ATOM     85  F   UNL A   1      29.661  25.907  26.245  1.00  0.00    -0.206 F 
ATOM     86  C   UNL A   1      31.270  27.609  26.042  1.00  0.00     0.056 A 
ATOM     87  C   UNL A   1      33.619  27.036  25.936  1.00  0.00     0.056 A 
ATOM     88  F   UNL A   1      34.281  24.795  26.049  1.00  0.00    -0.206 F 
ATOM     89  C   UNL A   1      32.608  27.992  25.948  1.00  0.00     0.023 A 
ATOM     90  Br  UNL A   1      33.054  29.826  25.869  1.00  0.00    -0.051 Br
ENDBRANCH  80  82
ENDBRANCH  78  80
ENDBRANCH  72  74
ENDBRANCH  71  72
ENDBRANCH  70  71
ENDBRANCH   1  70
TORSDOF 13
ENDMDL
