MODEL 1
REMARK VINA RESULT:     -11.7      0.000      0.000
REMARK SMILES C[C@@H](C(=O)OCCOC(=O)c1ccc(-c2c3nc(c(-c4c(F)c(F)c(F)c(F)c4F)c4ccc([nH]4)c(-c4c(F)c(F)c(F)c(F)c4F)c4nc(c(-c5c(F)c(F)c(F)c(F)c5F)c5ccc2[nH]5)C=C4)C=C3)cc1)[C@H](C)[N@@H+]1C[C@H]2C[NH2+]C[C@@H]2[C@@H]1C
REMARK SMILES IDX 6 1 5 2 3 3 4 4 2 5 1 6 74 7 75 8 76 9 77 10 83 11 78 13
REMARK SMILES IDX 82 14 84 15 79 16 81 17 80 18 7 21 8 22 9 23 10 24 11 25
REMARK SMILES IDX 12 26 73 27 13 28 72 29 14 30 15 31 16 32 66 33 17 34 71 35
REMARK SMILES IDX 65 36 67 37 18 38 70 39 64 40 63 41 19 43 51 44 31 45 50 46
REMARK SMILES IDX 32 47 35 48 49 49 68 50 33 51 34 52 48 54 69 55 36 56 20 57
REMARK SMILES IDX 21 58 29 59 22 60 23 61 27 62 30 63 24 64 25 65 28 66 26 67
REMARK SMILES IDX 52 68 53 69 61 70 54 71 55 72 59 73 62 74 56 75 57 76 60 77
REMARK SMILES IDX 58 78 37 79 38 80 46 81 39 82 40 83 44 84 47 85 41 86 42 87
REMARK SMILES IDX 45 88 43 89
REMARK H PARENT 76 12 80 19 80 20 67 42 35 53
REMARK Flexibility Score: inf
ROOT
ATOM      1  C   UNL A   1      31.684  29.275  24.752  1.00  0.00     0.274 C 
ENDROOT
BRANCH   1   2
ATOM      2  O   UNL A   1      32.151  28.222  25.624  1.00  0.00    -0.462 OA
BRANCH   2   3
ATOM      3  C   UNL A   1      31.279  27.222  25.931  1.00  0.00     0.314 C 
ATOM      4  O   UNL A   1      30.873  26.993  27.064  1.00  0.00    -0.252 OA
BRANCH   3   5
ATOM      5  C   UNL A   1      30.809  26.437  24.693  1.00  0.00     0.154 C 
ATOM      6  C   UNL A   1      29.365  25.945  24.874  1.00  0.00     0.026 C 
BRANCH   5   7
ATOM      7  C   UNL A   1      31.796  25.262  24.430  1.00  0.00     0.195 C 
ATOM      8  C   UNL A   1      31.156  24.109  23.640  1.00  0.00     0.076 C 
BRANCH   7   9
ATOM      9  N   UNL A   1      32.580  24.861  25.608  1.00  0.00    -0.329 N 
ATOM     10  C   UNL A   1      34.029  24.674  25.340  1.00  0.00     0.272 C 
ATOM     11  C   UNL A   1      32.147  23.886  26.654  1.00  0.00     0.190 C 
ATOM     12  H   UNL A   1      32.320  25.723  26.089  1.00  0.00     0.348 HD
ATOM     13  C   UNL A   1      34.197  23.226  25.671  1.00  0.00     0.114 C 
ATOM     14  C   UNL A   1      33.458  23.165  26.982  1.00  0.00     0.116 C 
ATOM     15  C   UNL A   1      30.993  22.919  26.428  1.00  0.00     0.076 C 
ATOM     16  C   UNL A   1      35.504  22.581  26.034  1.00  0.00     0.270 C 
ATOM     17  C   UNL A   1      33.670  21.713  27.334  1.00  0.00     0.271 C 
ATOM     18  N   UNL A   1      35.070  21.453  26.896  1.00  0.00    -0.345 N 
ATOM     19  H   UNL A   1      35.680  21.388  27.711  1.00  0.00     0.346 HD
ATOM     20  H   UNL A   1      35.119  20.575  26.379  1.00  0.00     0.346 HD
ENDBRANCH   7   9
ENDBRANCH   5   7
ENDBRANCH   3   5
ENDBRANCH   2   3
ENDBRANCH   1   2
BRANCH   1  21
ATOM     21  C   UNL A   1      31.576  30.568  25.556  1.00  0.00     0.275 C 
BRANCH  21  22
ATOM     22  O   UNL A   1      32.376  30.426  26.743  1.00  0.00    -0.458 OA
BRANCH  22  23
ATOM     23  C   UNL A   1      33.012  31.536  27.171  1.00  0.00     0.338 C 
ATOM     24  O   UNL A   1      32.569  32.680  27.187  1.00  0.00    -0.246 OA
BRANCH  23  25
ATOM     25  C   UNL A   1      34.360  31.191  27.675  1.00  0.00     0.060 A 
ATOM     26  C   UNL A   1      34.716  29.866  27.927  1.00  0.00     0.016 A 
ATOM     27  C   UNL A   1      35.248  32.214  28.010  1.00  0.00     0.016 A 
ATOM     28  C   UNL A   1      35.884  29.579  28.637  1.00  0.00     0.010 A 
ATOM     29  C   UNL A   1      36.477  31.909  28.610  1.00  0.00     0.010 A 
ATOM     30  C   UNL A   1      36.792  30.592  28.987  1.00  0.00    -0.014 A 
BRANCH  30  31
ATOM     31  C   UNL A   1      38.030  30.297  29.777  1.00  0.00     0.031 A 
ATOM     32  C   UNL A   1      39.146  29.470  29.175  1.00  0.00     0.074 A 
ATOM     33  C   UNL A   1      38.186  30.760  31.035  1.00  0.00     0.049 A 
ATOM     34  N   UNL A   1      40.172  28.906  29.762  1.00  0.00    -0.248 NA
ATOM     35  C   UNL A   1      39.092  29.236  27.723  1.00  0.00     0.031 C 
ATOM     36  C   UNL A   1      37.235  31.605  31.757  1.00  0.00     0.029 A 
ATOM     37  N   UNL A   1      39.217  30.590  31.931  1.00  0.00    -0.354 N 
ATOM     38  C   UNL A   1      40.832  28.185  28.775  1.00  0.00     0.074 A 
ATOM     39  C   UNL A   1      40.104  28.397  27.542  1.00  0.00     0.031 C 
ATOM     40  C   UNL A   1      37.752  31.935  32.949  1.00  0.00     0.029 A 
ATOM     41  C   UNL A   1      39.019  31.235  33.128  1.00  0.00     0.049 A 
ATOM     42  H   UNL A   1      40.020  30.057  31.733  1.00  0.00     0.167 HD
ATOM     43  C   UNL A   1      41.938  27.409  28.886  1.00  0.00     0.037 A 
ATOM     44  C   UNL A   1      39.740  31.231  34.266  1.00  0.00     0.037 A 
ATOM     45  C   UNL A   1      42.723  27.267  30.086  1.00  0.00     0.049 A 
ATOM     46  C   UNL A   1      40.966  30.370  34.365  1.00  0.00     0.074 A 
ATOM     47  C   UNL A   1      43.870  26.515  30.284  1.00  0.00     0.029 A 
ATOM     48  N   UNL A   1      42.464  27.919  31.280  1.00  0.00    -0.354 N 
ATOM     49  N   UNL A   1      41.512  29.601  33.458  1.00  0.00    -0.248 NA
ATOM     50  C   UNL A   1      41.652  30.346  35.667  1.00  0.00     0.031 C 
ATOM     51  C   UNL A   1      44.291  26.694  31.607  1.00  0.00     0.029 A 
ATOM     52  C   UNL A   1      43.425  27.582  32.221  1.00  0.00     0.049 A 
ATOM     53  H   UNL A   1      41.709  28.531  31.438  1.00  0.00     0.167 HD
ATOM     54  C   UNL A   1      42.599  29.000  34.073  1.00  0.00     0.074 A 
ATOM     55  C   UNL A   1      42.654  29.511  35.426  1.00  0.00     0.031 C 
ATOM     56  C   UNL A   1      43.466  28.092  33.565  1.00  0.00     0.037 A 
BRANCH  43  57
ATOM     57  C   UNL A   1      42.360  26.613  27.686  1.00  0.00     0.064 A 
ATOM     58  C   UNL A   1      43.353  27.060  26.805  1.00  0.00     0.173 A 
ATOM     59  C   UNL A   1      41.799  25.345  27.456  1.00  0.00     0.173 A 
ATOM     60  F   UNL A   1      43.908  28.270  26.971  1.00  0.00    -0.203 F 
ATOM     61  C   UNL A   1      43.760  26.273  25.729  1.00  0.00     0.198 A 
ATOM     62  C   UNL A   1      42.226  24.552  26.395  1.00  0.00     0.198 A 
ATOM     63  F   UNL A   1      40.848  24.869  28.276  1.00  0.00    -0.203 F 
ATOM     64  F   UNL A   1      44.689  26.733  24.880  1.00  0.00    -0.200 F 
ATOM     65  C   UNL A   1      43.202  25.018  25.530  1.00  0.00     0.200 A 
ATOM     66  F   UNL A   1      41.693  23.336  26.213  1.00  0.00    -0.200 F 
ATOM     67  F   UNL A   1      43.605  24.259  24.502  1.00  0.00    -0.200 F 
ENDBRANCH  43  57
BRANCH  44  68
ATOM     68  C   UNL A   1      39.284  32.037  35.428  1.00  0.00     0.064 A 
ATOM     69  C   UNL A   1      38.448  31.479  36.404  1.00  0.00     0.173 A 
ATOM     70  C   UNL A   1      39.687  33.370  35.595  1.00  0.00     0.173 A 
ATOM     71  F   UNL A   1      38.011  30.218  36.270  1.00  0.00    -0.203 F 
ATOM     72  C   UNL A   1      38.035  32.225  37.505  1.00  0.00     0.198 A 
ATOM     73  C   UNL A   1      39.297  34.104  36.711  1.00  0.00     0.198 A 
ATOM     74  F   UNL A   1      40.483  33.950  34.685  1.00  0.00    -0.203 F 
ATOM     75  F   UNL A   1      37.210  31.678  38.410  1.00  0.00    -0.200 F 
ATOM     76  C   UNL A   1      38.469  33.532  37.664  1.00  0.00     0.200 A 
ATOM     77  F   UNL A   1      39.731  35.362  36.867  1.00  0.00    -0.200 F 
ATOM     78  F   UNL A   1      38.084  34.243  38.733  1.00  0.00    -0.200 F 
ENDBRANCH  44  68
BRANCH  56  79
ATOM     79  C   UNL A   1      44.550  27.600  34.474  1.00  0.00     0.064 A 
ATOM     80  C   UNL A   1      45.773  28.279  34.581  1.00  0.00     0.173 A 
ATOM     81  C   UNL A   1      44.360  26.454  35.259  1.00  0.00     0.173 A 
ATOM     82  F   UNL A   1      46.006  29.370  33.837  1.00  0.00    -0.203 F 
ATOM     83  C   UNL A   1      46.775  27.815  35.429  1.00  0.00     0.198 A 
ATOM     84  C   UNL A   1      45.356  26.005  36.121  1.00  0.00     0.198 A 
ATOM     85  F   UNL A   1      43.206  25.773  35.192  1.00  0.00    -0.203 F 
ATOM     86  F   UNL A   1      47.950  28.456  35.489  1.00  0.00    -0.200 F 
ATOM     87  C   UNL A   1      46.564  26.681  36.201  1.00  0.00     0.200 A 
ATOM     88  F   UNL A   1      45.151  24.912  36.870  1.00  0.00    -0.200 F 
ATOM     89  F   UNL A   1      47.530  26.236  37.015  1.00  0.00    -0.200 F 
ENDBRANCH  56  79
ENDBRANCH  30  31
ENDBRANCH  23  25
ENDBRANCH  22  23
ENDBRANCH  21  22
ENDBRANCH   1  21
TORSDOF 13
ENDMDL
MODEL 2
REMARK VINA RESULT:     -11.6      4.491      9.794
REMARK SMILES C[C@@H](C(=O)OCCOC(=O)c1ccc(-c2c3nc(c(-c4c(F)c(F)c(F)c(F)c4F)c4ccc([nH]4)c(-c4c(F)c(F)c(F)c(F)c4F)c4nc(c(-c5c(F)c(F)c(F)c(F)c5F)c5ccc2[nH]5)C=C4)C=C3)cc1)[C@H](C)[N@@H+]1C[C@H]2C[NH2+]C[C@@H]2[C@@H]1C
REMARK SMILES IDX 6 1 5 2 3 3 4 4 2 5 1 6 74 7 75 8 76 9 77 10 83 11 78 13
REMARK SMILES IDX 82 14 84 15 79 16 81 17 80 18 7 21 8 22 9 23 10 24 11 25
REMARK SMILES IDX 12 26 73 27 13 28 72 29 14 30 15 31 16 32 66 33 17 34 71 35
REMARK SMILES IDX 65 36 67 37 18 38 70 39 64 40 63 41 19 43 51 44 31 45 50 46
REMARK SMILES IDX 32 47 35 48 49 49 68 50 33 51 34 52 48 54 69 55 36 56 20 57
REMARK SMILES IDX 21 58 29 59 22 60 23 61 27 62 30 63 24 64 25 65 28 66 26 67
REMARK SMILES IDX 52 68 53 69 61 70 54 71 55 72 59 73 62 74 56 75 57 76 60 77
REMARK SMILES IDX 58 78 37 79 38 80 46 81 39 82 40 83 44 84 47 85 41 86 42 87
REMARK SMILES IDX 45 88 43 89
REMARK H PARENT 76 12 80 19 80 20 67 42 35 53
REMARK Flexibility Score: inf
ROOT
ATOM      1  C   UNL A   1      35.195  21.102  25.211  1.00  0.00     0.274 C 
ENDROOT
BRANCH   1   2
ATOM      2  O   UNL A   1      35.310  22.504  24.880  1.00  0.00    -0.462 OA
BRANCH   2   3
ATOM      3  C   UNL A   1      34.717  22.934  23.732  1.00  0.00     0.314 C 
ATOM      4  O   UNL A   1      35.334  23.317  22.746  1.00  0.00    -0.252 OA
BRANCH   3   5
ATOM      5  C   UNL A   1      33.182  22.835  23.779  1.00  0.00     0.154 C 
ATOM      6  C   UNL A   1      32.609  22.555  22.381  1.00  0.00     0.026 C 
BRANCH   5   7
ATOM      7  C   UNL A   1      32.606  24.146  24.391  1.00  0.00     0.195 C 
ATOM      8  C   UNL A   1      31.133  24.382  24.023  1.00  0.00     0.076 C 
BRANCH   7   9
ATOM      9  N   UNL A   1      33.487  25.315  24.245  1.00  0.00    -0.329 N 
ATOM     10  C   UNL A   1      33.660  26.106  25.490  1.00  0.00     0.272 C 
ATOM     11  C   UNL A   1      33.526  26.238  23.071  1.00  0.00     0.190 C 
ATOM     12  H   UNL A   1      34.267  24.709  23.986  1.00  0.00     0.348 HD
ATOM     13  C   UNL A   1      33.093  27.425  25.072  1.00  0.00     0.114 C 
ATOM     14  C   UNL A   1      33.770  27.595  23.737  1.00  0.00     0.116 C 
ATOM     15  C   UNL A   1      32.401  26.288  22.046  1.00  0.00     0.076 C 
ATOM     16  C   UNL A   1      33.407  28.735  25.735  1.00  0.00     0.270 C 
ATOM     17  C   UNL A   1      33.230  28.948  23.341  1.00  0.00     0.271 C 
ATOM     18  N   UNL A   1      33.219  29.703  24.625  1.00  0.00    -0.345 N 
ATOM     19  H   UNL A   1      33.978  30.385  24.631  1.00  0.00     0.346 HD
ATOM     20  H   UNL A   1      32.334  30.197  24.735  1.00  0.00     0.346 HD
ENDBRANCH   7   9
ENDBRANCH   5   7
ENDBRANCH   3   5
ENDBRANCH   2   3
ENDBRANCH   1   2
BRANCH   1  21
ATOM     21  C   UNL A   1      36.557  20.439  25.025  1.00  0.00     0.275 C 
BRANCH  21  22
ATOM     22  O   UNL A   1      37.565  21.465  25.070  1.00  0.00    -0.458 OA
BRANCH  22  23
ATOM     23  C   UNL A   1      38.691  21.167  25.751  1.00  0.00     0.338 C 
ATOM     24  O   UNL A   1      39.222  20.066  25.852  1.00  0.00    -0.246 OA
BRANCH  23  25
ATOM     25  C   UNL A   1      39.255  22.389  26.366  1.00  0.00     0.060 A 
ATOM     26  C   UNL A   1      38.694  23.642  26.119  1.00  0.00     0.016 A 
ATOM     27  C   UNL A   1      40.432  22.301  27.110  1.00  0.00     0.016 A 
ATOM     28  C   UNL A   1      39.381  24.801  26.490  1.00  0.00     0.010 A 
ATOM     29  C   UNL A   1      41.050  23.463  27.587  1.00  0.00     0.010 A 
ATOM     30  C   UNL A   1      40.569  24.736  27.238  1.00  0.00    -0.014 A 
BRANCH  30  31
ATOM     31  C   UNL A   1      41.329  25.972  27.611  1.00  0.00     0.031 A 
ATOM     32  C   UNL A   1      40.695  27.025  28.494  1.00  0.00     0.074 A 
ATOM     33  C   UNL A   1      42.590  26.177  27.177  1.00  0.00     0.049 A 
ATOM     34  N   UNL A   1      41.082  28.255  28.730  1.00  0.00    -0.248 NA
ATOM     35  C   UNL A   1      39.455  26.650  29.194  1.00  0.00     0.031 C 
ATOM     36  C   UNL A   1      43.371  25.253  26.355  1.00  0.00     0.029 A 
ATOM     37  N   UNL A   1      43.446  27.235  27.380  1.00  0.00    -0.354 N 
ATOM     38  C   UNL A   1      40.096  28.822  29.528  1.00  0.00     0.074 A 
ATOM     39  C   UNL A   1      39.099  27.797  29.757  1.00  0.00     0.031 C 
ATOM     40  C   UNL A   1      44.605  25.747  26.183  1.00  0.00     0.029 A 
ATOM     41  C   UNL A   1      44.672  27.075  26.781  1.00  0.00     0.049 A 
ATOM     42  H   UNL A   1      43.203  28.032  27.905  1.00  0.00     0.167 HD
ATOM     43  C   UNL A   1      40.022  30.083  30.019  1.00  0.00     0.037 A 
ATOM     44  C   UNL A   1      45.721  27.913  26.674  1.00  0.00     0.037 A 
ATOM     45  C   UNL A   1      41.052  31.081  29.875  1.00  0.00     0.049 A 
ATOM     46  C   UNL A   1      45.621  29.304  27.230  1.00  0.00     0.074 A 
ATOM     47  C   UNL A   1      41.069  32.380  30.355  1.00  0.00     0.029 A 
ATOM     48  N   UNL A   1      42.263  30.877  29.235  1.00  0.00    -0.354 N 
ATOM     49  N   UNL A   1      44.635  29.864  27.882  1.00  0.00    -0.248 NA
ATOM     50  C   UNL A   1      46.771  30.192  26.997  1.00  0.00     0.031 C 
ATOM     51  C   UNL A   1      42.282  32.972  29.983  1.00  0.00     0.029 A 
ATOM     52  C   UNL A   1      43.032  32.029  29.301  1.00  0.00     0.049 A 
ATOM     53  H   UNL A   1      42.538  30.040  28.796  1.00  0.00     0.167 HD
ATOM     54  C   UNL A   1      45.037  31.167  28.134  1.00  0.00     0.074 A 
ATOM     55  C   UNL A   1      46.370  31.310  27.589  1.00  0.00     0.031 C 
ATOM     56  C   UNL A   1      44.354  32.162  28.750  1.00  0.00     0.037 A 
BRANCH  43  57
ATOM     57  C   UNL A   1      38.765  30.486  30.733  1.00  0.00     0.064 A 
ATOM     58  C   UNL A   1      38.658  30.455  32.129  1.00  0.00     0.173 A 
ATOM     59  C   UNL A   1      37.670  30.974  29.999  1.00  0.00     0.173 A 
ATOM     60  F   UNL A   1      39.669  29.983  32.873  1.00  0.00    -0.203 F 
ATOM     61  C   UNL A   1      37.496  30.886  32.766  1.00  0.00     0.198 A 
ATOM     62  C   UNL A   1      36.521  31.426  30.641  1.00  0.00     0.198 A 
ATOM     63  F   UNL A   1      37.726  31.030  28.660  1.00  0.00    -0.203 F 
ATOM     64  F   UNL A   1      37.402  30.819  34.101  1.00  0.00    -0.200 F 
ATOM     65  C   UNL A   1      36.433  31.378  32.023  1.00  0.00     0.200 A 
ATOM     66  F   UNL A   1      35.500  31.911  29.920  1.00  0.00    -0.200 F 
ATOM     67  F   UNL A   1      35.321  31.803  32.639  1.00  0.00    -0.200 F 
ENDBRANCH  43  57
BRANCH  44  68
ATOM     68  C   UNL A   1      46.946  27.469  25.959  1.00  0.00     0.064 A 
ATOM     69  C   UNL A   1      47.076  27.655  24.576  1.00  0.00     0.173 A 
ATOM     70  C   UNL A   1      48.015  26.870  26.642  1.00  0.00     0.173 A 
ATOM     71  F   UNL A   1      46.067  28.193  23.875  1.00  0.00    -0.203 F 
ATOM     72  C   UNL A   1      48.231  27.259  23.905  1.00  0.00     0.198 A 
ATOM     73  C   UNL A   1      49.179  26.503  25.975  1.00  0.00     0.198 A 
ATOM     74  F   UNL A   1      47.935  26.667  27.966  1.00  0.00    -0.203 F 
ATOM     75  F   UNL A   1      48.318  27.418  22.577  1.00  0.00    -0.200 F 
ATOM     76  C   UNL A   1      49.285  26.694  24.606  1.00  0.00     0.200 A 
ATOM     77  F   UNL A   1      50.201  25.970  26.659  1.00  0.00    -0.200 F 
ATOM     78  F   UNL A   1      50.402  26.329  23.962  1.00  0.00    -0.200 F 
ENDBRANCH  44  68
BRANCH  56  79
ATOM     79  C   UNL A   1      45.041  33.487  28.872  1.00  0.00     0.064 A 
ATOM     80  C   UNL A   1      44.877  34.483  27.898  1.00  0.00     0.173 A 
ATOM     81  C   UNL A   1      45.852  33.772  29.979  1.00  0.00     0.173 A 
ATOM     82  F   UNL A   1      44.124  34.249  26.814  1.00  0.00    -0.203 F 
ATOM     83  C   UNL A   1      45.519  35.712  28.020  1.00  0.00     0.198 A 
ATOM     84  C   UNL A   1      46.476  35.010  30.108  1.00  0.00     0.198 A 
ATOM     85  F   UNL A   1      46.036  32.852  30.937  1.00  0.00    -0.203 F 
ATOM     86  F   UNL A   1      45.380  36.637  27.060  1.00  0.00    -0.200 F 
ATOM     87  C   UNL A   1      46.314  35.976  29.126  1.00  0.00     0.200 A 
ATOM     88  F   UNL A   1      47.240  35.267  31.179  1.00  0.00    -0.200 F 
ATOM     89  F   UNL A   1      46.932  37.160  29.241  1.00  0.00    -0.200 F 
ENDBRANCH  56  79
ENDBRANCH  30  31
ENDBRANCH  23  25
ENDBRANCH  22  23
ENDBRANCH  21  22
ENDBRANCH   1  21
TORSDOF 13
ENDMDL
MODEL 3
REMARK VINA RESULT:     -11.6      0.659      1.832
REMARK SMILES C[C@@H](C(=O)OCCOC(=O)c1ccc(-c2c3nc(c(-c4c(F)c(F)c(F)c(F)c4F)c4ccc([nH]4)c(-c4c(F)c(F)c(F)c(F)c4F)c4nc(c(-c5c(F)c(F)c(F)c(F)c5F)c5ccc2[nH]5)C=C4)C=C3)cc1)[C@H](C)[N@@H+]1C[C@H]2C[NH2+]C[C@@H]2[C@@H]1C
REMARK SMILES IDX 6 1 5 2 3 3 4 4 2 5 1 6 74 7 75 8 76 9 77 10 83 11 78 13
REMARK SMILES IDX 82 14 84 15 79 16 81 17 80 18 7 21 8 22 9 23 10 24 11 25
REMARK SMILES IDX 12 26 73 27 13 28 72 29 14 30 15 31 16 32 66 33 17 34 71 35
REMARK SMILES IDX 65 36 67 37 18 38 70 39 64 40 63 41 19 43 51 44 31 45 50 46
REMARK SMILES IDX 32 47 35 48 49 49 68 50 33 51 34 52 48 54 69 55 36 56 20 57
REMARK SMILES IDX 21 58 29 59 22 60 23 61 27 62 30 63 24 64 25 65 28 66 26 67
REMARK SMILES IDX 52 68 53 69 61 70 54 71 55 72 59 73 62 74 56 75 57 76 60 77
REMARK SMILES IDX 58 78 37 79 38 80 46 81 39 82 40 83 44 84 47 85 41 86 42 87
REMARK SMILES IDX 45 88 43 89
REMARK H PARENT 76 12 80 19 80 20 67 42 35 53
REMARK Flexibility Score: inf
ROOT
ATOM      1  C   UNL A   1      32.832  29.255  24.586  1.00  0.00     0.274 C 
ENDROOT
BRANCH   1   2
ATOM      2  O   UNL A   1      32.572  27.835  24.646  1.00  0.00    -0.462 OA
BRANCH   2   3
ATOM      3  C   UNL A   1      32.675  27.124  23.488  1.00  0.00     0.314 C 
ATOM      4  O   UNL A   1      33.624  27.206  22.719  1.00  0.00    -0.252 OA
BRANCH   3   5
ATOM      5  C   UNL A   1      31.494  26.160  23.272  1.00  0.00     0.154 C 
ATOM      6  C   UNL A   1      30.304  26.546  24.162  1.00  0.00     0.026 C 
BRANCH   5   7
ATOM      7  C   UNL A   1      31.973  24.702  23.538  1.00  0.00     0.195 C 
ATOM      8  C   UNL A   1      30.811  23.703  23.652  1.00  0.00     0.076 C 
BRANCH   7   9
ATOM      9  N   UNL A   1      33.005  24.590  24.580  1.00  0.00    -0.329 N 
ATOM     10  C   UNL A   1      34.135  23.695  24.221  1.00  0.00     0.272 C 
ATOM     11  C   UNL A   1      32.757  24.498  26.050  1.00  0.00     0.190 C 
ATOM     12  H   UNL A   1      33.190  25.592  24.521  1.00  0.00     0.348 HD
ATOM     13  C   UNL A   1      34.019  22.648  25.282  1.00  0.00     0.114 C 
ATOM     14  C   UNL A   1      33.847  23.520  26.499  1.00  0.00     0.116 C 
ATOM     15  C   UNL A   1      31.389  24.143  26.616  1.00  0.00     0.076 C 
ATOM     16  C   UNL A   1      35.140  21.748  25.717  1.00  0.00     0.270 C 
ATOM     17  C   UNL A   1      33.776  22.461  27.571  1.00  0.00     0.271 C 
ATOM     18  N   UNL A   1      34.779  21.453  27.126  1.00  0.00    -0.345 N 
ATOM     19  H   UNL A   1      35.611  21.511  27.714  1.00  0.00     0.346 HD
ATOM     20  H   UNL A   1      34.390  20.513  27.201  1.00  0.00     0.346 HD
ENDBRANCH   7   9
ENDBRANCH   5   7
ENDBRANCH   3   5
ENDBRANCH   2   3
ENDBRANCH   1   2
BRANCH   1  21
ATOM     21  C   UNL A   1      31.797  29.981  25.441  1.00  0.00     0.275 C 
BRANCH  21  22
ATOM     22  O   UNL A   1      32.310  30.074  26.783  1.00  0.00    -0.458 OA
BRANCH  22  23
ATOM     23  C   UNL A   1      32.961  31.214  27.095  1.00  0.00     0.338 C 
ATOM     24  O   UNL A   1      32.531  32.359  26.997  1.00  0.00    -0.246 OA
BRANCH  23  25
ATOM     25  C   UNL A   1      34.307  30.906  27.626  1.00  0.00     0.060 A 
ATOM     26  C   UNL A   1      34.709  29.588  27.844  1.00  0.00     0.016 A 
ATOM     27  C   UNL A   1      35.143  31.951  28.021  1.00  0.00     0.016 A 
ATOM     28  C   UNL A   1      35.868  29.323  28.578  1.00  0.00     0.010 A 
ATOM     29  C   UNL A   1      36.365  31.674  28.646  1.00  0.00     0.010 A 
ATOM     30  C   UNL A   1      36.724  30.359  28.988  1.00  0.00    -0.014 A 
BRANCH  30  31
ATOM     31  C   UNL A   1      37.950  30.086  29.804  1.00  0.00     0.031 A 
ATOM     32  C   UNL A   1      39.079  29.253  29.237  1.00  0.00     0.074 A 
ATOM     33  C   UNL A   1      38.083  30.575  31.055  1.00  0.00     0.049 A 
ATOM     34  N   UNL A   1      40.099  28.706  29.852  1.00  0.00    -0.248 NA
ATOM     35  C   UNL A   1      39.050  28.989  27.789  1.00  0.00     0.031 C 
ATOM     36  C   UNL A   1      37.117  31.430  31.744  1.00  0.00     0.029 A 
ATOM     37  N   UNL A   1      39.100  30.429  31.970  1.00  0.00    -0.354 N 
ATOM     38  C   UNL A   1      40.778  27.968  28.890  1.00  0.00     0.074 A 
ATOM     39  C   UNL A   1      40.068  28.152  27.641  1.00  0.00     0.031 C 
ATOM     40  C   UNL A   1      37.613  31.787  32.937  1.00  0.00     0.029 A 
ATOM     41  C   UNL A   1      38.880  31.097  33.150  1.00  0.00     0.049 A 
ATOM     42  H   UNL A   1      39.910  29.897  31.796  1.00  0.00     0.167 HD
ATOM     43  C   UNL A   1      41.886  27.201  29.034  1.00  0.00     0.037 A 
ATOM     44  C   UNL A   1      39.583  31.119  34.299  1.00  0.00     0.037 A 
ATOM     45  C   UNL A   1      42.652  27.087  30.250  1.00  0.00     0.049 A 
ATOM     46  C   UNL A   1      40.811  30.267  34.436  1.00  0.00     0.074 A 
ATOM     47  C   UNL A   1      43.798  26.344  30.481  1.00  0.00     0.029 A 
ATOM     48  N   UNL A   1      42.370  27.761  31.426  1.00  0.00    -0.354 N 
ATOM     49  N   UNL A   1      41.375  29.483  33.553  1.00  0.00    -0.248 NA
ATOM     50  C   UNL A   1      41.475  30.273  35.749  1.00  0.00     0.031 C 
ATOM     51  C   UNL A   1      44.197  26.552  31.807  1.00  0.00     0.029 A 
ATOM     52  C   UNL A   1      43.317  27.449  32.388  1.00  0.00     0.049 A 
ATOM     53  H   UNL A   1      41.610  28.372  31.560  1.00  0.00     0.167 HD
ATOM     54  C   UNL A   1      42.455  28.899  34.198  1.00  0.00     0.074 A 
ATOM     55  C   UNL A   1      42.486  29.439  35.541  1.00  0.00     0.031 C 
ATOM     56  C   UNL A   1      43.334  27.985  33.723  1.00  0.00     0.037 A 
BRANCH  43  57
ATOM     57  C   UNL A   1      42.330  26.382  27.858  1.00  0.00     0.064 A 
ATOM     58  C   UNL A   1      41.763  25.137  27.559  1.00  0.00     0.173 A 
ATOM     59  C   UNL A   1      43.301  26.891  26.979  1.00  0.00     0.173 A 
ATOM     60  F   UNL A   1      40.844  24.600  28.376  1.00  0.00    -0.203 F 
ATOM     61  C   UNL A   1      42.160  24.424  26.429  1.00  0.00     0.198 A 
ATOM     62  C   UNL A   1      43.677  26.187  25.839  1.00  0.00     0.198 A 
ATOM     63  F   UNL A   1      43.870  28.083  27.218  1.00  0.00    -0.203 F 
ATOM     64  F   UNL A   1      41.627  23.220  26.178  1.00  0.00    -0.200 F 
ATOM     65  C   UNL A   1      43.110  24.953  25.567  1.00  0.00     0.200 A 
ATOM     66  F   UNL A   1      44.586  26.707  25.002  1.00  0.00    -0.200 F 
ATOM     67  F   UNL A   1      43.480  24.271  24.474  1.00  0.00    -0.200 F 
ENDBRANCH  43  57
BRANCH  44  68
ATOM     68  C   UNL A   1      39.104  31.947  35.437  1.00  0.00     0.064 A 
ATOM     69  C   UNL A   1      39.411  33.312  35.510  1.00  0.00     0.173 A 
ATOM     70  C   UNL A   1      38.317  31.397  36.460  1.00  0.00     0.173 A 
ATOM     71  F   UNL A   1      40.188  33.875  34.573  1.00  0.00    -0.203 F 
ATOM     72  C   UNL A   1      38.947  34.096  36.564  1.00  0.00     0.198 A 
ATOM     73  C   UNL A   1      37.829  32.188  37.496  1.00  0.00     0.198 A 
ATOM     74  F   UNL A   1      38.000  30.094  36.436  1.00  0.00    -0.203 F 
ATOM     75  F   UNL A   1      39.281  35.393  36.629  1.00  0.00    -0.200 F 
ATOM     76  C   UNL A   1      38.147  33.536  37.549  1.00  0.00     0.200 A 
ATOM     77  F   UNL A   1      37.045  31.646  38.437  1.00  0.00    -0.200 F 
ATOM     78  F   UNL A   1      37.687  34.295  38.553  1.00  0.00    -0.200 F 
ENDBRANCH  44  68
BRANCH  56  79
ATOM     79  C   UNL A   1      44.406  27.518  34.659  1.00  0.00     0.064 A 
ATOM     80  C   UNL A   1      45.632  28.192  34.756  1.00  0.00     0.173 A 
ATOM     81  C   UNL A   1      44.200  26.400  35.480  1.00  0.00     0.173 A 
ATOM     82  F   UNL A   1      45.880  29.256  33.978  1.00  0.00    -0.203 F 
ATOM     83  C   UNL A   1      46.622  27.751  35.629  1.00  0.00     0.198 A 
ATOM     84  C   UNL A   1      45.185  25.974  36.367  1.00  0.00     0.198 A 
ATOM     85  F   UNL A   1      43.042  25.725  35.424  1.00  0.00    -0.203 F 
ATOM     86  F   UNL A   1      47.801  28.386  35.680  1.00  0.00    -0.200 F 
ATOM     87  C   UNL A   1      46.396  26.645  36.437  1.00  0.00     0.200 A 
ATOM     88  F   UNL A   1      44.964  24.909  37.150  1.00  0.00    -0.200 F 
ATOM     89  F   UNL A   1      47.351  26.221  37.275  1.00  0.00    -0.200 F 
ENDBRANCH  56  79
ENDBRANCH  30  31
ENDBRANCH  23  25
ENDBRANCH  22  23
ENDBRANCH  21  22
ENDBRANCH   1  21
TORSDOF 13
ENDMDL
