MODEL 1
REMARK VINA RESULT:     -12.2      0.000      0.000
REMARK SMILES CCc1c(C)nn(CC(=O)N[C@H](C(=O)OCCOC(=O)c2ccc(-c3c4nc(c(-c5c(F)c(F)c(F)c(F)c5F)c5ccc([nH]5)c(-c5c(F)c(F)c(F)c(F)c5F)c5nc(c(-c6c(F)c(F)c(F)c(F)c6F)c6ccc3[nH]6)C=C5)C=C4)cc2)c2c(C)n[nH]c2C)c1C
REMARK SMILES IDX 16 1 15 2 13 3 14 4 12 5 11 6 9 7 10 8 8 10 7 11 3 12 4 13
REMARK SMILES IDX 91 14 5 15 6 16 92 17 2 18 1 19 84 20 85 21 89 22 86 23
REMARK SMILES IDX 87 24 88 25 90 26 17 28 18 29 19 30 20 31 21 32 22 33 83 34
REMARK SMILES IDX 23 35 82 36 24 37 25 38 26 39 76 40 27 41 81 42 75 43 77 44
REMARK SMILES IDX 28 45 80 46 74 47 73 48 29 50 61 51 41 52 60 53 42 54 45 55
REMARK SMILES IDX 59 56 78 57 43 58 44 59 58 61 79 62 46 63 30 64 31 65 39 66
REMARK SMILES IDX 32 67 33 68 37 69 40 70 34 71 35 72 38 73 36 74 62 75 63 76
REMARK SMILES IDX 71 77 64 78 65 79 69 80 72 81 66 82 67 83 70 84 68 85 47 86
REMARK SMILES IDX 48 87 56 88 49 89 50 90 54 91 57 92 51 93 52 94 55 95 53 96
REMARK H PARENT 11 9 88 27 77 49 45 60
REMARK Flexibility Score: inf
ROOT
ATOM      1  C   UNL A   1      31.549  28.391  26.349  1.00  0.00     0.274 C 
ENDROOT
BRANCH   1   2
ATOM      2  O   UNL A   1      32.262  27.240  26.839  1.00  0.00    -0.460 OA
BRANCH   2   3
ATOM      3  C   UNL A   1      33.269  26.769  26.053  1.00  0.00     0.333 C 
ATOM      4  O   UNL A   1      34.350  27.337  25.913  1.00  0.00    -0.249 OA
BRANCH   3   5
ATOM      5  C   UNL A   1      32.898  25.467  25.294  1.00  0.00     0.227 C 
BRANCH   5   6
ATOM      6  N   UNL A   1      31.659  24.961  25.846  1.00  0.00    -0.337 N 
ATOM      7  C   UNL A   1      31.418  23.728  26.360  1.00  0.00     0.242 C 
ATOM      8  O   UNL A   1      30.253  23.323  26.369  1.00  0.00    -0.273 OA
ATOM      9  H   UNL A   1      30.899  25.587  25.849  1.00  0.00     0.164 HD
BRANCH   7  10
ATOM     10  C   UNL A   1      32.498  23.063  27.144  1.00  0.00     0.244 C 
BRANCH  10  11
ATOM     11  N   UNL A   1      33.434  22.197  26.413  1.00  0.00    -0.260 N 
ATOM     12  C   UNL A   1      34.973  20.784  25.442  1.00  0.00    -0.004 A 
ATOM     13  C   UNL A   1      33.669  20.236  25.575  1.00  0.00     0.063 A 
ATOM     14  C   UNL A   1      34.955  22.266  25.944  1.00  0.00     0.039 A 
ATOM     15  C   UNL A   1      33.104  18.914  25.194  1.00  0.00     0.069 C 
ATOM     16  N   UNL A   1      32.809  21.067  26.093  1.00  0.00    -0.177 NA
ATOM     17  C   UNL A   1      36.430  23.939  25.940  1.00  0.00     0.066 C 
BRANCH  12  18
ATOM     18  C   UNL A   1      36.051  19.944  24.717  1.00  0.00     0.036 C 
ATOM     19  C   UNL A   1      37.509  20.347  24.903  1.00  0.00     0.009 C 
ENDBRANCH  12  18
ENDBRANCH  10  11
ENDBRANCH   7  10
ENDBRANCH   5   6
BRANCH   5  20
ATOM     20  C   UNL A   1      32.915  25.720  23.820  1.00  0.00     0.029 A 
ATOM     21  C   UNL A   1      33.057  24.188  22.584  1.00  0.00     0.065 A 
ATOM     22  C   UNL A   1      32.807  27.215  22.762  1.00  0.00     0.038 A 
ATOM     23  C   UNL A   1      33.127  22.724  22.817  1.00  0.00     0.069 C 
ATOM     24  N   UNL A   1      33.029  24.771  20.950  1.00  0.00    -0.180 NA
ATOM     25  N   UNL A   1      32.993  26.628  21.011  1.00  0.00    -0.282 N 
ATOM     26  C   UNL A   1      32.479  28.673  22.897  1.00  0.00     0.066 C 
ATOM     27  H   UNL A   1      33.061  27.217  20.225  1.00  0.00     0.190 HD
ENDBRANCH   5  20
ENDBRANCH   3   5
ENDBRANCH   2   3
ENDBRANCH   1   2
BRANCH   1  28
ATOM     28  C   UNL A   1      31.943  29.663  27.103  1.00  0.00     0.275 C 
BRANCH  28  29
ATOM     29  O   UNL A   1      33.088  30.314  26.513  1.00  0.00    -0.458 OA
BRANCH  29  30
ATOM     30  C   UNL A   1      33.585  31.338  27.239  1.00  0.00     0.338 C 
ATOM     31  O   UNL A   1      32.987  32.309  27.674  1.00  0.00    -0.246 OA
BRANCH  30  32
ATOM     32  C   UNL A   1      34.959  31.070  27.669  1.00  0.00     0.060 A 
ATOM     33  C   UNL A   1      35.257  29.768  28.064  1.00  0.00     0.016 A 
ATOM     34  C   UNL A   1      35.855  32.100  27.923  1.00  0.00     0.016 A 
ATOM     35  C   UNL A   1      36.395  29.478  28.782  1.00  0.00     0.010 A 
ATOM     36  C   UNL A   1      37.053  31.799  28.578  1.00  0.00     0.010 A 
ATOM     37  C   UNL A   1      37.312  30.490  29.032  1.00  0.00    -0.014 A 
BRANCH  37  38
ATOM     38  C   UNL A   1      38.514  30.164  29.822  1.00  0.00     0.031 A 
ATOM     39  C   UNL A   1      39.549  29.255  29.238  1.00  0.00     0.074 A 
ATOM     40  C   UNL A   1      38.677  30.726  31.035  1.00  0.00     0.049 A 
ATOM     41  N   UNL A   1      40.583  28.707  29.816  1.00  0.00    -0.248 NA
ATOM     42  C   UNL A   1      39.396  28.906  27.815  1.00  0.00     0.031 C 
ATOM     43  C   UNL A   1      37.771  31.703  31.649  1.00  0.00     0.029 A 
ATOM     44  N   UNL A   1      39.661  30.554  31.971  1.00  0.00    -0.354 N 
ATOM     45  C   UNL A   1      41.168  27.901  28.848  1.00  0.00     0.074 A 
ATOM     46  C   UNL A   1      40.378  28.033  27.644  1.00  0.00     0.031 C 
ATOM     47  C   UNL A   1      38.246  32.046  32.855  1.00  0.00     0.029 A 
ATOM     48  C   UNL A   1      39.432  31.249  33.133  1.00  0.00     0.049 A 
ATOM     49  H   UNL A   1      40.455  29.990  31.825  1.00  0.00     0.167 HD
ATOM     50  C   UNL A   1      42.262  27.117  28.975  1.00  0.00     0.037 A 
ATOM     51  C   UNL A   1      40.077  31.195  34.312  1.00  0.00     0.037 A 
ATOM     52  C   UNL A   1      43.049  27.039  30.179  1.00  0.00     0.049 A 
ATOM     53  C   UNL A   1      41.243  30.255  34.440  1.00  0.00     0.074 A 
ATOM     54  C   UNL A   1      44.193  26.299  30.413  1.00  0.00     0.029 A 
ATOM     55  N   UNL A   1      42.768  27.728  31.350  1.00  0.00    -0.354 N 
ATOM     56  N   UNL A   1      41.785  29.477  33.535  1.00  0.00    -0.248 NA
ATOM     57  C   UNL A   1      41.882  30.179  35.759  1.00  0.00     0.031 C 
ATOM     58  C   UNL A   1      44.566  26.489  31.747  1.00  0.00     0.029 A 
ATOM     59  C   UNL A   1      43.700  27.405  32.322  1.00  0.00     0.049 A 
ATOM     60  H   UNL A   1      42.018  28.353  31.473  1.00  0.00     0.167 HD
ATOM     61  C   UNL A   1      42.853  28.849  34.160  1.00  0.00     0.074 A 
ATOM     62  C   UNL A   1      42.889  29.351  35.519  1.00  0.00     0.031 C 
ATOM     63  C   UNL A   1      43.725  27.940  33.660  1.00  0.00     0.037 A 
BRANCH  50  64
ATOM     64  C   UNL A   1      42.642  26.244  27.816  1.00  0.00     0.064 A 
ATOM     65  C   UNL A   1      42.059  24.988  27.599  1.00  0.00     0.173 A 
ATOM     66  C   UNL A   1      43.577  26.705  26.875  1.00  0.00     0.173 A 
ATOM     67  F   UNL A   1      41.174  24.493  28.478  1.00  0.00    -0.203 F 
ATOM     68  C   UNL A   1      42.409  24.219  26.492  1.00  0.00     0.198 A 
ATOM     69  C   UNL A   1      43.899  25.948  25.752  1.00  0.00     0.198 A 
ATOM     70  F   UNL A   1      44.167  27.899  27.036  1.00  0.00    -0.203 F 
ATOM     71  F   UNL A   1      41.870  23.003  26.326  1.00  0.00    -0.200 F 
ATOM     72  C   UNL A   1      43.319  24.704  25.564  1.00  0.00     0.200 A 
ATOM     73  F   UNL A   1      44.770  26.425  24.852  1.00  0.00    -0.200 F 
ATOM     74  F   UNL A   1      43.642  23.969  24.491  1.00  0.00    -0.200 F 
ENDBRANCH  50  64
BRANCH  51  75
ATOM     75  C   UNL A   1      39.613  32.009  35.467  1.00  0.00     0.064 A 
ATOM     76  C   UNL A   1      38.636  31.518  36.343  1.00  0.00     0.173 A 
ATOM     77  C   UNL A   1      40.104  33.303  35.699  1.00  0.00     0.173 A 
ATOM     78  F   UNL A   1      38.123  30.294  36.155  1.00  0.00    -0.203 F 
ATOM     79  C   UNL A   1      38.138  32.304  37.381  1.00  0.00     0.198 A 
ATOM     80  C   UNL A   1      39.635  34.073  36.760  1.00  0.00     0.198 A 
ATOM     81  F   UNL A   1      41.045  33.822  34.896  1.00  0.00    -0.203 F 
ATOM     82  F   UNL A   1      37.154  31.836  38.159  1.00  0.00    -0.200 F 
ATOM     83  C   UNL A   1      38.642  33.580  37.591  1.00  0.00     0.200 A 
ATOM     84  F   UNL A   1      40.138  35.297  36.971  1.00  0.00    -0.200 F 
ATOM     85  F   UNL A   1      38.158  34.337  38.585  1.00  0.00    -0.200 F 
ENDBRANCH  51  75
BRANCH  63  86
ATOM     86  C   UNL A   1      44.832  27.488  34.568  1.00  0.00     0.064 A 
ATOM     87  C   UNL A   1      46.048  28.179  34.656  1.00  0.00     0.173 A 
ATOM     88  C   UNL A   1      44.655  26.359  35.383  1.00  0.00     0.173 A 
ATOM     89  F   UNL A   1      46.273  29.254  33.885  1.00  0.00    -0.203 F 
ATOM     90  C   UNL A   1      47.061  27.737  35.503  1.00  0.00     0.198 A 
ATOM     91  C   UNL A   1      45.654  25.944  36.257  1.00  0.00     0.198 A 
ATOM     92  F   UNL A   1      43.506  25.667  35.342  1.00  0.00    -0.203 F 
ATOM     93  F   UNL A   1      48.239  28.375  35.524  1.00  0.00    -0.200 F 
ATOM     94  C   UNL A   1      46.859  26.626  36.308  1.00  0.00     0.200 A 
ATOM     95  F   UNL A   1      45.449  24.883  37.049  1.00  0.00    -0.200 F 
ATOM     96  F   UNL A   1      47.831  26.207  37.129  1.00  0.00    -0.200 F 
ENDBRANCH  63  86
ENDBRANCH  37  38
ENDBRANCH  30  32
ENDBRANCH  29  30
ENDBRANCH  28  29
ENDBRANCH   1  28
TORSDOF 16
ENDMDL
MODEL 2
REMARK VINA RESULT:     -12.0      4.347      9.791
REMARK SMILES CCc1c(C)nn(CC(=O)N[C@H](C(=O)OCCOC(=O)c2ccc(-c3c4nc(c(-c5c(F)c(F)c(F)c(F)c5F)c5ccc([nH]5)c(-c5c(F)c(F)c(F)c(F)c5F)c5nc(c(-c6c(F)c(F)c(F)c(F)c6F)c6ccc3[nH]6)C=C5)C=C4)cc2)c2c(C)n[nH]c2C)c1C
REMARK SMILES IDX 16 1 15 2 13 3 14 4 12 5 11 6 9 7 10 8 8 10 7 11 3 12 4 13
REMARK SMILES IDX 91 14 5 15 6 16 92 17 2 18 1 19 84 20 85 21 89 22 86 23
REMARK SMILES IDX 87 24 88 25 90 26 17 28 18 29 19 30 20 31 21 32 22 33 83 34
REMARK SMILES IDX 23 35 82 36 24 37 25 38 26 39 76 40 27 41 81 42 75 43 77 44
REMARK SMILES IDX 28 45 80 46 74 47 73 48 29 50 61 51 41 52 60 53 42 54 45 55
REMARK SMILES IDX 59 56 78 57 43 58 44 59 58 61 79 62 46 63 30 64 31 65 39 66
REMARK SMILES IDX 32 67 33 68 37 69 40 70 34 71 35 72 38 73 36 74 62 75 63 76
REMARK SMILES IDX 71 77 64 78 65 79 69 80 72 81 66 82 67 83 70 84 68 85 47 86
REMARK SMILES IDX 48 87 56 88 49 89 50 90 54 91 57 92 51 93 52 94 55 95 53 96
REMARK H PARENT 11 9 88 27 77 49 45 60
REMARK Flexibility Score: inf
ROOT
ATOM      1  C   UNL A   1      36.947  22.474  23.887  1.00  0.00     0.274 C 
ENDROOT
BRANCH   1   2
ATOM      2  O   UNL A   1      35.575  22.803  24.179  1.00  0.00    -0.460 OA
BRANCH   2   3
ATOM      3  C   UNL A   1      35.366  23.902  24.955  1.00  0.00     0.333 C 
ATOM      4  O   UNL A   1      36.102  24.235  25.881  1.00  0.00    -0.249 OA
BRANCH   3   5
ATOM      5  C   UNL A   1      34.065  24.668  24.597  1.00  0.00     0.227 C 
BRANCH   5   6
ATOM      6  N   UNL A   1      33.992  24.784  23.156  1.00  0.00    -0.337 N 
ATOM      7  C   UNL A   1      32.954  24.459  22.344  1.00  0.00     0.242 C 
ATOM      8  O   UNL A   1      33.201  24.199  21.164  1.00  0.00    -0.273 OA
ATOM      9  H   UNL A   1      34.794  25.142  22.710  1.00  0.00     0.164 HD
BRANCH   7  10
ATOM     10  C   UNL A   1      31.568  24.718  22.829  1.00  0.00     0.244 C 
BRANCH  10  11
ATOM     11  N   UNL A   1      31.129  26.118  22.919  1.00  0.00    -0.260 N 
ATOM     12  C   UNL A   1      30.409  28.306  22.864  1.00  0.00    -0.004 A 
ATOM     13  C   UNL A   1      29.419  27.368  23.260  1.00  0.00     0.063 A 
ATOM     14  C   UNL A   1      31.764  27.553  22.649  1.00  0.00     0.039 A 
ATOM     15  C   UNL A   1      27.995  27.536  23.659  1.00  0.00     0.069 C 
ATOM     16  N   UNL A   1      29.860  26.143  23.319  1.00  0.00    -0.177 NA
ATOM     17  C   UNL A   1      33.859  28.191  22.226  1.00  0.00     0.066 C 
BRANCH  12  18
ATOM     18  C   UNL A   1      30.046  29.809  22.887  1.00  0.00     0.036 C 
ATOM     19  C   UNL A   1      29.201  30.354  21.741  1.00  0.00     0.009 C 
ENDBRANCH  12  18
ENDBRANCH  10  11
ENDBRANCH   7  10
ENDBRANCH   5   6
BRANCH   5  20
ATOM     20  C   UNL A   1      32.897  24.021  25.272  1.00  0.00     0.029 A 
ATOM     21  C   UNL A   1      31.658  25.139  26.326  1.00  0.00     0.065 A 
ATOM     22  C   UNL A   1      32.243  22.310  25.368  1.00  0.00     0.038 A 
ATOM     23  C   UNL A   1      31.613  26.597  26.592  1.00  0.00     0.069 C 
ATOM     24  N   UNL A   1      30.396  24.136  26.969  1.00  0.00    -0.180 NA
ATOM     25  N   UNL A   1      30.775  22.378  26.503  1.00  0.00    -0.282 N 
ATOM     26  C   UNL A   1      32.455  20.981  24.706  1.00  0.00     0.066 C 
ATOM     27  H   UNL A   1      30.269  21.593  26.814  1.00  0.00     0.190 HD
ENDBRANCH   5  20
ENDBRANCH   3   5
ENDBRANCH   2   3
ENDBRANCH   1   2
BRANCH   1  28
ATOM     28  C   UNL A   1      37.405  21.231  24.655  1.00  0.00     0.275 C 
BRANCH  28  29
ATOM     29  O   UNL A   1      37.819  21.544  26.001  1.00  0.00    -0.458 OA
BRANCH  29  30
ATOM     30  C   UNL A   1      39.146  21.424  26.219  1.00  0.00     0.338 C 
ATOM     31  O   UNL A   1      39.899  20.553  25.809  1.00  0.00    -0.246 OA
BRANCH  30  32
ATOM     32  C   UNL A   1      39.692  22.618  26.867  1.00  0.00     0.060 A 
ATOM     33  C   UNL A   1      39.291  23.852  26.360  1.00  0.00     0.016 A 
ATOM     34  C   UNL A   1      40.750  22.541  27.763  1.00  0.00     0.016 A 
ATOM     35  C   UNL A   1      39.973  25.009  26.663  1.00  0.00     0.010 A 
ATOM     36  C   UNL A   1      41.395  23.722  28.140  1.00  0.00     0.010 A 
ATOM     37  C   UNL A   1      41.024  24.956  27.570  1.00  0.00    -0.014 A 
BRANCH  37  38
ATOM     38  C   UNL A   1      41.756  26.201  27.863  1.00  0.00     0.031 A 
ATOM     39  C   UNL A   1      41.097  27.261  28.688  1.00  0.00     0.074 A 
ATOM     40  C   UNL A   1      43.020  26.341  27.421  1.00  0.00     0.049 A 
ATOM     41  N   UNL A   1      41.485  28.486  28.919  1.00  0.00    -0.248 NA
ATOM     42  C   UNL A   1      39.821  26.900  29.333  1.00  0.00     0.031 C 
ATOM     43  C   UNL A   1      43.785  25.324  26.693  1.00  0.00     0.029 A 
ATOM     44  N   UNL A   1      43.884  27.399  27.515  1.00  0.00    -0.354 N 
ATOM     45  C   UNL A   1      40.477  29.060  29.682  1.00  0.00     0.074 A 
ATOM     46  C   UNL A   1      39.460  28.052  29.880  1.00  0.00     0.031 C 
ATOM     47  C   UNL A   1      45.004  25.805  26.413  1.00  0.00     0.029 A 
ATOM     48  C   UNL A   1      45.072  27.190  26.858  1.00  0.00     0.049 A 
ATOM     49  H   UNL A   1      43.676  28.227  28.006  1.00  0.00     0.167 HD
ATOM     50  C   UNL A   1      40.418  30.325  30.157  1.00  0.00     0.037 A 
ATOM     51  C   UNL A   1      46.075  28.045  26.595  1.00  0.00     0.037 A 
ATOM     52  C   UNL A   1      41.467  31.293  29.974  1.00  0.00     0.049 A 
ATOM     53  C   UNL A   1      45.941  29.465  27.073  1.00  0.00     0.074 A 
ATOM     54  C   UNL A   1      41.528  32.595  30.434  1.00  0.00     0.029 A 
ATOM     55  N   UNL A   1      42.642  31.059  29.273  1.00  0.00    -0.354 N 
ATOM     56  N   UNL A   1      44.980  30.017  27.775  1.00  0.00    -0.248 NA
ATOM     57  C   UNL A   1      47.026  30.384  26.713  1.00  0.00     0.031 C 
ATOM     58  C   UNL A   1      42.708  33.170  29.954  1.00  0.00     0.029 A 
ATOM     59  C   UNL A   1      43.420  32.205  29.260  1.00  0.00     0.049 A 
ATOM     60  H   UNL A   1      42.886  30.206  28.847  1.00  0.00     0.167 HD
ATOM     61  C   UNL A   1      45.364  31.334  27.977  1.00  0.00     0.074 A 
ATOM     62  C   UNL A   1      46.652  31.493  27.334  1.00  0.00     0.031 C 
ATOM     63  C   UNL A   1      44.711  32.326  28.632  1.00  0.00     0.037 A 
BRANCH  50  64
ATOM     64  C   UNL A   1      39.167  30.752  30.866  1.00  0.00     0.064 A 
ATOM     65  C   UNL A   1      38.067  31.294  30.186  1.00  0.00     0.173 A 
ATOM     66  C   UNL A   1      39.054  30.566  32.253  1.00  0.00     0.173 A 
ATOM     67  F   UNL A   1      38.130  31.511  28.863  1.00  0.00    -0.203 F 
ATOM     68  C   UNL A   1      36.907  31.648  30.871  1.00  0.00     0.198 A 
ATOM     69  C   UNL A   1      37.882  30.890  32.929  1.00  0.00     0.198 A 
ATOM     70  F   UNL A   1      40.078  30.054  32.952  1.00  0.00    -0.203 F 
ATOM     71  F   UNL A   1      35.883  32.203  30.208  1.00  0.00    -0.200 F 
ATOM     72  C   UNL A   1      36.811  31.435  32.239  1.00  0.00     0.200 A 
ATOM     73  F   UNL A   1      37.788  30.671  34.248  1.00  0.00    -0.200 F 
ATOM     74  F   UNL A   1      35.687  31.761  32.893  1.00  0.00    -0.200 F 
ENDBRANCH  50  64
BRANCH  51  75
ATOM     75  C   UNL A   1      47.259  27.607  25.809  1.00  0.00     0.064 A 
ATOM     76  C   UNL A   1      48.413  27.141  26.453  1.00  0.00     0.173 A 
ATOM     77  C   UNL A   1      47.280  27.680  24.408  1.00  0.00     0.173 A 
ATOM     78  F   UNL A   1      48.450  27.067  27.791  1.00  0.00    -0.203 F 
ATOM     79  C   UNL A   1      49.555  26.803  25.729  1.00  0.00     0.198 A 
ATOM     80  C   UNL A   1      48.408  27.305  23.683  1.00  0.00     0.198 A 
ATOM     81  F   UNL A   1      46.201  28.113  23.739  1.00  0.00    -0.203 F 
ATOM     82  F   UNL A   1      50.667  26.428  26.374  1.00  0.00    -0.200 F 
ATOM     83  C   UNL A   1      49.550  26.881  24.344  1.00  0.00     0.200 A 
ATOM     84  F   UNL A   1      48.391  27.363  22.344  1.00  0.00    -0.200 F 
ATOM     85  F   UNL A   1      50.650  26.563  23.649  1.00  0.00    -0.200 F 
ENDBRANCH  51  75
BRANCH  63  86
ATOM     86  C   UNL A   1      45.417  33.646  28.746  1.00  0.00     0.064 A 
ATOM     87  C   UNL A   1      46.299  33.928  29.798  1.00  0.00     0.173 A 
ATOM     88  C   UNL A   1      45.225  34.631  27.765  1.00  0.00     0.173 A 
ATOM     89  F   UNL A   1      46.503  33.025  30.769  1.00  0.00    -0.203 F 
ATOM     90  C   UNL A   1      46.938  35.162  29.883  1.00  0.00     0.198 A 
ATOM     91  C   UNL A   1      45.897  35.848  27.831  1.00  0.00     0.198 A 
ATOM     92  F   UNL A   1      44.397  34.409  26.733  1.00  0.00    -0.203 F 
ATOM     93  F   UNL A   1      47.728  35.433  30.931  1.00  0.00    -0.200 F 
ATOM     94  C   UNL A   1      46.744  36.116  28.895  1.00  0.00     0.200 A 
ATOM     95  F   UNL A   1      45.723  36.760  26.865  1.00  0.00    -0.200 F 
ATOM     96  F   UNL A   1      47.366  37.299  28.974  1.00  0.00    -0.200 F 
ENDBRANCH  63  86
ENDBRANCH  37  38
ENDBRANCH  30  32
ENDBRANCH  29  30
ENDBRANCH  28  29
ENDBRANCH   1  28
TORSDOF 16
ENDMDL
MODEL 3
REMARK VINA RESULT:     -11.7      1.199      2.422
REMARK SMILES CCc1c(C)nn(CC(=O)N[C@H](C(=O)OCCOC(=O)c2ccc(-c3c4nc(c(-c5c(F)c(F)c(F)c(F)c5F)c5ccc([nH]5)c(-c5c(F)c(F)c(F)c(F)c5F)c5nc(c(-c6c(F)c(F)c(F)c(F)c6F)c6ccc3[nH]6)C=C5)C=C4)cc2)c2c(C)n[nH]c2C)c1C
REMARK SMILES IDX 16 1 15 2 13 3 14 4 12 5 11 6 9 7 10 8 8 10 7 11 3 12 4 13
REMARK SMILES IDX 91 14 5 15 6 16 92 17 2 18 1 19 84 20 85 21 89 22 86 23
REMARK SMILES IDX 87 24 88 25 90 26 17 28 18 29 19 30 20 31 21 32 22 33 83 34
REMARK SMILES IDX 23 35 82 36 24 37 25 38 26 39 76 40 27 41 81 42 75 43 77 44
REMARK SMILES IDX 28 45 80 46 74 47 73 48 29 50 61 51 41 52 60 53 42 54 45 55
REMARK SMILES IDX 59 56 78 57 43 58 44 59 58 61 79 62 46 63 30 64 31 65 39 66
REMARK SMILES IDX 32 67 33 68 37 69 40 70 34 71 35 72 38 73 36 74 62 75 63 76
REMARK SMILES IDX 71 77 64 78 65 79 69 80 72 81 66 82 67 83 70 84 68 85 47 86
REMARK SMILES IDX 48 87 56 88 49 89 50 90 54 91 57 92 51 93 52 94 55 95 53 96
REMARK H PARENT 11 9 88 27 77 49 45 60
REMARK Flexibility Score: inf
ROOT
ATOM      1  C   UNL A   1      31.498  28.953  27.244  1.00  0.00     0.274 C 
ENDROOT
BRANCH   1   2
ATOM      2  O   UNL A   1      32.130  27.962  26.412  1.00  0.00    -0.460 OA
BRANCH   2   3
ATOM      3  C   UNL A   1      31.386  26.866  26.101  1.00  0.00     0.333 C 
ATOM      4  O   UNL A   1      30.658  26.283  26.901  1.00  0.00    -0.249 OA
BRANCH   3   5
ATOM      5  C   UNL A   1      31.592  26.377  24.642  1.00  0.00     0.227 C 
BRANCH   5   6
ATOM      6  N   UNL A   1      30.692  25.267  24.408  1.00  0.00    -0.337 N 
ATOM      7  C   UNL A   1      30.813  24.276  23.489  1.00  0.00     0.242 C 
ATOM      8  O   UNL A   1      29.788  23.694  23.126  1.00  0.00    -0.273 OA
ATOM      9  H   UNL A   1      29.895  25.227  24.985  1.00  0.00     0.164 HD
BRANCH   7  10
ATOM     10  C   UNL A   1      32.176  23.746  23.193  1.00  0.00     0.244 C 
BRANCH  10  11
ATOM     11  N   UNL A   1      32.508  22.406  23.697  1.00  0.00    -0.260 N 
ATOM     12  C   UNL A   1      33.206  20.326  24.401  1.00  0.00    -0.004 A 
ATOM     13  C   UNL A   1      33.334  21.353  25.375  1.00  0.00     0.063 A 
ATOM     14  C   UNL A   1      32.534  20.921  23.120  1.00  0.00     0.039 A 
ATOM     15  C   UNL A   1      33.829  21.336  26.777  1.00  0.00     0.069 C 
ATOM     16  N   UNL A   1      32.898  22.511  24.965  1.00  0.00    -0.177 NA
ATOM     17  C   UNL A   1      31.771  20.061  21.209  1.00  0.00     0.066 C 
BRANCH  12  18
ATOM     18  C   UNL A   1      33.562  18.878  24.813  1.00  0.00     0.036 C 
ATOM     19  C   UNL A   1      34.998  18.412  24.602  1.00  0.00     0.009 C 
ENDBRANCH  12  18
ENDBRANCH  10  11
ENDBRANCH   7  10
ENDBRANCH   5   6
BRANCH   5  20
ATOM     20  C   UNL A   1      31.480  27.535  23.701  1.00  0.00     0.029 A 
ATOM     21  C   UNL A   1      29.694  28.088  23.069  1.00  0.00     0.065 A 
ATOM     22  C   UNL A   1      32.673  28.693  22.928  1.00  0.00     0.038 A 
ATOM     23  C   UNL A   1      28.331  27.584  23.368  1.00  0.00     0.069 C 
ATOM     24  N   UNL A   1      29.863  29.458  22.018  1.00  0.00    -0.180 NA
ATOM     25  N   UNL A   1      31.679  29.794  21.811  1.00  0.00    -0.282 N 
ATOM     26  C   UNL A   1      34.118  29.077  23.053  1.00  0.00     0.066 C 
ATOM     27  H   UNL A   1      32.060  30.462  21.196  1.00  0.00     0.190 HD
ENDBRANCH   5  20
ENDBRANCH   3   5
ENDBRANCH   2   3
ENDBRANCH   1   2
BRANCH   1  28
ATOM     28  C   UNL A   1      31.730  30.369  26.711  1.00  0.00     0.275 C 
BRANCH  28  29
ATOM     29  O   UNL A   1      33.130  30.645  26.490  1.00  0.00    -0.458 OA
BRANCH  29  30
ATOM     30  C   UNL A   1      33.637  31.622  27.271  1.00  0.00     0.338 C 
ATOM     31  O   UNL A   1      33.051  32.580  27.750  1.00  0.00    -0.246 OA
BRANCH  30  32
ATOM     32  C   UNL A   1      35.003  31.311  27.696  1.00  0.00     0.060 A 
ATOM     33  C   UNL A   1      35.265  29.994  28.069  1.00  0.00     0.016 A 
ATOM     34  C   UNL A   1      35.926  32.311  27.968  1.00  0.00     0.016 A 
ATOM     35  C   UNL A   1      36.395  29.661  28.782  1.00  0.00     0.010 A 
ATOM     36  C   UNL A   1      37.115  31.967  28.618  1.00  0.00     0.010 A 
ATOM     37  C   UNL A   1      37.339  30.645  29.050  1.00  0.00    -0.014 A 
BRANCH  37  38
ATOM     38  C   UNL A   1      38.530  30.272  29.834  1.00  0.00     0.031 A 
ATOM     39  C   UNL A   1      39.550  29.360  29.229  1.00  0.00     0.074 A 
ATOM     40  C   UNL A   1      38.699  30.797  31.063  1.00  0.00     0.049 A 
ATOM     41  N   UNL A   1      40.571  28.775  29.795  1.00  0.00    -0.248 NA
ATOM     42  C   UNL A   1      39.395  29.054  27.796  1.00  0.00     0.031 C 
ATOM     43  C   UNL A   1      37.811  31.774  31.701  1.00  0.00     0.029 A 
ATOM     44  N   UNL A   1      39.676  30.579  31.997  1.00  0.00    -0.354 N 
ATOM     45  C   UNL A   1      41.143  27.986  28.807  1.00  0.00     0.074 A 
ATOM     46  C   UNL A   1      40.361  28.167  27.604  1.00  0.00     0.031 C 
ATOM     47  C   UNL A   1      38.287  32.074  32.918  1.00  0.00     0.029 A 
ATOM     48  C   UNL A   1      39.456  31.245  33.178  1.00  0.00     0.049 A 
ATOM     49  H   UNL A   1      40.460  30.004  31.838  1.00  0.00     0.167 HD
ATOM     50  C   UNL A   1      42.222  27.177  28.915  1.00  0.00     0.037 A 
ATOM     51  C   UNL A   1      40.095  31.146  34.357  1.00  0.00     0.037 A 
ATOM     52  C   UNL A   1      43.002  27.050  30.119  1.00  0.00     0.049 A 
ATOM     53  C   UNL A   1      41.242  30.180  34.463  1.00  0.00     0.074 A 
ATOM     54  C   UNL A   1      44.130  26.281  30.336  1.00  0.00     0.029 A 
ATOM     55  N   UNL A   1      42.730  27.711  31.308  1.00  0.00    -0.354 N 
ATOM     56  N   UNL A   1      41.773  29.417  33.538  1.00  0.00    -0.248 NA
ATOM     57  C   UNL A   1      41.875  30.054  35.781  1.00  0.00     0.031 C 
ATOM     58  C   UNL A   1      44.502  26.426  31.676  1.00  0.00     0.029 A 
ATOM     59  C   UNL A   1      43.652  27.343  32.274  1.00  0.00     0.049 A 
ATOM     60  H   UNL A   1      41.991  28.347  31.446  1.00  0.00     0.167 HD
ATOM     61  C   UNL A   1      42.825  28.751  34.149  1.00  0.00     0.074 A 
ATOM     62  C   UNL A   1      42.866  29.214  35.521  1.00  0.00     0.031 C 
ATOM     63  C   UNL A   1      43.681  27.839  33.627  1.00  0.00     0.037 A 
BRANCH  50  64
ATOM     64  C   UNL A   1      42.589  26.330  27.733  1.00  0.00     0.064 A 
ATOM     65  C   UNL A   1      43.552  26.727  26.795  1.00  0.00     0.173 A 
ATOM     66  C   UNL A   1      41.994  25.069  27.568  1.00  0.00     0.173 A 
ATOM     67  F   UNL A   1      44.137  27.931  26.895  1.00  0.00    -0.203 F 
ATOM     68  C   UNL A   1      43.895  25.901  25.728  1.00  0.00     0.198 A 
ATOM     69  C   UNL A   1      42.363  24.232  26.520  1.00  0.00     0.198 A 
ATOM     70  F   UNL A   1      41.065  24.641  28.435  1.00  0.00    -0.203 F 
ATOM     71  F   UNL A   1      44.788  26.318  24.820  1.00  0.00    -0.200 F 
ATOM     72  C   UNL A   1      43.309  24.650  25.598  1.00  0.00     0.200 A 
ATOM     73  F   UNL A   1      41.805  23.019  26.404  1.00  0.00    -0.200 F 
ATOM     74  F   UNL A   1      43.654  23.849  24.580  1.00  0.00    -0.200 F 
ENDBRANCH  50  64
BRANCH  51  75
ATOM     75  C   UNL A   1      39.643  31.936  35.533  1.00  0.00     0.064 A 
ATOM     76  C   UNL A   1      38.664  31.434  36.400  1.00  0.00     0.173 A 
ATOM     77  C   UNL A   1      40.147  33.219  35.795  1.00  0.00     0.173 A 
ATOM     78  F   UNL A   1      38.138  30.219  36.184  1.00  0.00    -0.203 F 
ATOM     79  C   UNL A   1      38.177  32.199  37.458  1.00  0.00     0.198 A 
ATOM     80  C   UNL A   1      39.689  33.968  36.876  1.00  0.00     0.198 A 
ATOM     81  F   UNL A   1      41.091  33.748  35.001  1.00  0.00    -0.203 F 
ATOM     82  F   UNL A   1      37.190  31.721  38.228  1.00  0.00    -0.200 F 
ATOM     83  C   UNL A   1      38.693  33.464  37.698  1.00  0.00     0.200 A 
ATOM     84  F   UNL A   1      40.205  35.181  37.115  1.00  0.00    -0.200 F 
ATOM     85  F   UNL A   1      38.220  34.202  38.711  1.00  0.00    -0.200 F 
ENDBRANCH  51  75
BRANCH  63  86
ATOM     86  C   UNL A   1      44.776  27.340  34.525  1.00  0.00     0.064 A 
ATOM     87  C   UNL A   1      44.631  26.180  35.298  1.00  0.00     0.173 A 
ATOM     88  C   UNL A   1      46.001  28.023  34.584  1.00  0.00     0.173 A 
ATOM     89  F   UNL A   1      43.474  25.501  35.288  1.00  0.00    -0.203 F 
ATOM     90  C   UNL A   1      45.661  25.741  36.126  1.00  0.00     0.198 A 
ATOM     91  C   UNL A   1      47.041  27.559  35.382  1.00  0.00     0.198 A 
ATOM     92  F   UNL A   1      46.193  29.135  33.858  1.00  0.00    -0.203 F 
ATOM     93  F   UNL A   1      45.478  24.666  36.905  1.00  0.00    -0.200 F 
ATOM     94  C   UNL A   1      46.867  26.425  36.160  1.00  0.00     0.200 A 
ATOM     95  F   UNL A   1      48.212  28.210  35.397  1.00  0.00    -0.200 F 
ATOM     96  F   UNL A   1      47.860  25.996  36.950  1.00  0.00    -0.200 F 
ENDBRANCH  63  86
ENDBRANCH  37  38
ENDBRANCH  30  32
ENDBRANCH  29  30
ENDBRANCH  28  29
ENDBRANCH   1  28
TORSDOF 16
ENDMDL
