MODEL 1
REMARK VINA RESULT:     -10.5      0.000      0.000
REMARK SMILES C[C@]([NH3+])(Cc1ccccc1Br)C(=O)OCCOC(=O)c1ccc(-c2c3nc(c(-c4c(F)c(F)c(F)c(F)c4F)c4ccc([nH]4)c(-c4c(F)c(F)c(F)c(F)c4F)c4nc(c(-c5c(F)c(F)c(F)c(F)c5F)c5ccc2[nH]5)C=C4)C=C3)cc1
REMARK SMILES IDX 15 1 14 2 12 3 13 4 2 5 1 6 4 7 5 8 6 9 10 10 7 11 9 12
REMARK SMILES IDX 11 13 8 14 3 15 16 19 17 20 18 21 19 22 20 23 21 24 82 25
REMARK SMILES IDX 22 26 81 27 23 28 24 29 25 30 75 31 26 32 80 33 74 34 76 35
REMARK SMILES IDX 27 36 79 37 73 38 72 39 28 41 60 42 40 43 59 44 41 45 44 46
REMARK SMILES IDX 58 47 77 48 42 49 43 50 57 52 78 53 45 54 29 55 30 56 38 57
REMARK SMILES IDX 31 58 32 59 36 60 39 61 33 62 34 63 37 64 35 65 61 66 62 67
REMARK SMILES IDX 70 68 63 69 64 70 68 71 71 72 65 73 66 74 69 75 67 76 46 77
REMARK SMILES IDX 47 78 55 79 48 80 49 81 53 82 56 83 50 84 51 85 54 86 52 87
REMARK H PARENT 3 16 3 17 3 18 76 40 44 51
REMARK Flexibility Score: inf
ROOT
ATOM      1  C   UNL A   1      33.578  36.725  28.828  1.00  0.00     0.274 C 
ENDROOT
BRANCH   1   2
ATOM      2  O   UNL A   1      34.390  35.625  28.370  1.00  0.00    -0.457 OA
BRANCH   2   3
ATOM      3  C   UNL A   1      33.779  34.408  28.357  1.00  0.00     0.368 C 
ATOM      4  O   UNL A   1      32.587  34.245  28.109  1.00  0.00    -0.245 OA
BRANCH   3   5
ATOM      5  C   UNL A   1      34.731  33.259  28.788  1.00  0.00     0.194 C 
ATOM      6  C   UNL A   1      35.985  33.962  29.337  1.00  0.00     0.092 C 
BRANCH   5   7
ATOM      7  C   UNL A   1      35.158  32.288  27.646  1.00  0.00     0.117 C 
BRANCH   7   8
ATOM      8  C   UNL A   1      34.364  31.012  27.407  1.00  0.00    -0.027 A 
ATOM      9  C   UNL A   1      32.973  31.099  27.194  1.00  0.00     0.005 A 
ATOM     10  C   UNL A   1      34.922  29.722  27.493  1.00  0.00     0.021 A 
ATOM     11  C   UNL A   1      32.183  29.959  27.020  1.00  0.00     0.000 A 
ATOM     12  C   UNL A   1      34.126  28.580  27.323  1.00  0.00     0.016 A 
ATOM     13  Br  UNL A   1      36.751  29.397  27.913  1.00  0.00    -0.051 Br
ATOM     14  C   UNL A   1      32.761  28.698  27.079  1.00  0.00     0.001 A 
ENDBRANCH   7   8
ENDBRANCH   5   7
BRANCH   5  15
ATOM     15  N   UNL A   1      34.149  32.529  29.947  1.00  0.00    -0.343 N 
ATOM     16  H   UNL A   1      33.235  32.920  30.172  1.00  0.00     0.345 HD
ATOM     17  H   UNL A   1      34.767  32.625  30.753  1.00  0.00     0.345 HD
ATOM     18  H   UNL A   1      34.048  31.542  29.712  1.00  0.00     0.345 HD
ENDBRANCH   5  15
ENDBRANCH   3   5
ENDBRANCH   2   3
ENDBRANCH   1   2
BRANCH   1  19
ATOM     19  C   UNL A   1      32.585  36.275  29.899  1.00  0.00     0.275 C 
BRANCH  19  20
ATOM     20  O   UNL A   1      32.916  36.895  31.151  1.00  0.00    -0.458 OA
BRANCH  20  21
ATOM     21  C   UNL A   1      32.599  36.189  32.260  1.00  0.00     0.338 C 
ATOM     22  O   UNL A   1      31.567  36.266  32.906  1.00  0.00    -0.246 OA
BRANCH  21  23
ATOM     23  C   UNL A   1      33.724  35.297  32.628  1.00  0.00     0.060 A 
ATOM     24  C   UNL A   1      33.514  34.004  33.116  1.00  0.00     0.016 A 
ATOM     25  C   UNL A   1      35.025  35.790  32.523  1.00  0.00     0.016 A 
ATOM     26  C   UNL A   1      34.590  33.226  33.548  1.00  0.00     0.010 A 
ATOM     27  C   UNL A   1      36.108  34.983  32.880  1.00  0.00     0.010 A 
ATOM     28  C   UNL A   1      35.902  33.699  33.417  1.00  0.00    -0.014 A 
BRANCH  28  29
ATOM     29  C   UNL A   1      37.073  32.875  33.822  1.00  0.00     0.031 A 
ATOM     30  C   UNL A   1      37.753  33.130  35.139  1.00  0.00     0.074 A 
ATOM     31  C   UNL A   1      37.564  31.938  32.988  1.00  0.00     0.049 A 
ATOM     32  N   UNL A   1      38.905  32.687  35.579  1.00  0.00    -0.248 NA
ATOM     33  C   UNL A   1      37.051  34.013  36.083  1.00  0.00     0.031 C 
ATOM     34  C   UNL A   1      36.989  31.569  31.695  1.00  0.00     0.029 A 
ATOM     35  N   UNL A   1      38.674  31.135  33.099  1.00  0.00    -0.354 N 
ATOM     36  C   UNL A   1      39.088  33.275  36.824  1.00  0.00     0.074 A 
ATOM     37  C   UNL A   1      37.929  34.107  37.071  1.00  0.00     0.031 C 
ATOM     38  C   UNL A   1      37.742  30.610  31.137  1.00  0.00     0.029 A 
ATOM     39  C   UNL A   1      38.892  30.348  31.996  1.00  0.00     0.049 A 
ATOM     40  H   UNL A   1      39.256  31.127  33.893  1.00  0.00     0.167 HD
ATOM     41  C   UNL A   1      40.132  33.138  37.675  1.00  0.00     0.037 A 
ATOM     42  C   UNL A   1      39.922  29.539  31.686  1.00  0.00     0.037 A 
ATOM     43  C   UNL A   1      41.265  32.280  37.443  1.00  0.00     0.049 A 
ATOM     44  C   UNL A   1      41.079  29.419  32.637  1.00  0.00     0.074 A 
ATOM     45  C   UNL A   1      42.359  32.054  38.260  1.00  0.00     0.029 A 
ATOM     46  N   UNL A   1      41.444  31.499  36.311  1.00  0.00    -0.354 N 
ATOM     47  N   UNL A   1      41.260  30.006  33.794  1.00  0.00    -0.248 NA
ATOM     48  C   UNL A   1      42.181  28.536  32.231  1.00  0.00     0.031 C 
ATOM     49  C   UNL A   1      43.216  31.159  37.608  1.00  0.00     0.029 A 
ATOM     50  C   UNL A   1      42.637  30.799  36.403  1.00  0.00     0.049 A 
ATOM     51  H   UNL A   1      40.816  31.449  35.554  1.00  0.00     0.167 HD
ATOM     52  C   UNL A   1      42.488  29.559  34.260  1.00  0.00     0.074 A 
ATOM     53  C   UNL A   1      43.002  28.637  33.268  1.00  0.00     0.031 C 
ATOM     54  C   UNL A   1      43.133  29.887  35.405  1.00  0.00     0.037 A 
BRANCH  41  55
ATOM     55  C   UNL A   1      40.117  33.956  38.933  1.00  0.00     0.064 A 
ATOM     56  C   UNL A   1      39.497  33.499  40.105  1.00  0.00     0.173 A 
ATOM     57  C   UNL A   1      40.777  35.194  38.978  1.00  0.00     0.173 A 
ATOM     58  F   UNL A   1      38.841  32.329  40.109  1.00  0.00    -0.203 F 
ATOM     59  C   UNL A   1      39.523  34.261  41.271  1.00  0.00     0.198 A 
ATOM     60  C   UNL A   1      40.821  35.942  40.151  1.00  0.00     0.198 A 
ATOM     61  F   UNL A   1      41.389  35.674  37.885  1.00  0.00    -0.203 F 
ATOM     62  F   UNL A   1      38.892  33.822  42.370  1.00  0.00    -0.200 F 
ATOM     63  C   UNL A   1      40.190  35.477  41.295  1.00  0.00     0.200 A 
ATOM     64  F   UNL A   1      41.473  37.112  40.175  1.00  0.00    -0.200 F 
ATOM     65  F   UNL A   1      40.220  36.204  42.421  1.00  0.00    -0.200 F 
ENDBRANCH  41  55
BRANCH  42  66
ATOM     66  C   UNL A   1      39.915  28.806  30.395  1.00  0.00     0.064 A 
ATOM     67  C   UNL A   1      40.504  29.358  29.251  1.00  0.00     0.173 A 
ATOM     68  C   UNL A   1      39.344  27.528  30.286  1.00  0.00     0.173 A 
ATOM     69  F   UNL A   1      41.038  30.587  29.301  1.00  0.00    -0.203 F 
ATOM     70  C   UNL A   1      40.524  28.661  28.045  1.00  0.00     0.198 A 
ATOM     71  C   UNL A   1      39.387  26.822  29.086  1.00  0.00     0.198 A 
ATOM     72  F   UNL A   1      38.765  26.958  31.353  1.00  0.00    -0.203 F 
ATOM     73  F   UNL A   1      41.068  29.223  26.958  1.00  0.00    -0.200 F 
ATOM     74  C   UNL A   1      39.974  27.390  27.966  1.00  0.00     0.200 A 
ATOM     75  F   UNL A   1      38.866  25.589  29.019  1.00  0.00    -0.200 F 
ATOM     76  F   UNL A   1      40.005  26.714  26.809  1.00  0.00    -0.200 F 
ENDBRANCH  42  66
BRANCH  54  77
ATOM     77  C   UNL A   1      44.454  29.225  35.656  1.00  0.00     0.064 A 
ATOM     78  C   UNL A   1      45.655  29.805  35.224  1.00  0.00     0.173 A 
ATOM     79  C   UNL A   1      44.520  28.014  36.358  1.00  0.00     0.173 A 
ATOM     80  F   UNL A   1      45.640  30.955  34.534  1.00  0.00    -0.203 F 
ATOM     81  C   UNL A   1      46.876  29.182  35.469  1.00  0.00     0.198 A 
ATOM     82  C   UNL A   1      45.743  27.405  36.621  1.00  0.00     0.198 A 
ATOM     83  F   UNL A   1      43.397  27.423  36.794  1.00  0.00    -0.203 F 
ATOM     84  F   UNL A   1      48.011  29.732  35.013  1.00  0.00    -0.200 F 
ATOM     85  C   UNL A   1      46.920  27.987  36.171  1.00  0.00     0.200 A 
ATOM     86  F   UNL A   1      45.786  26.253  37.305  1.00  0.00    -0.200 F 
ATOM     87  F   UNL A   1      48.096  27.388  36.406  1.00  0.00    -0.200 F 
ENDBRANCH  54  77
ENDBRANCH  28  29
ENDBRANCH  21  23
ENDBRANCH  20  21
ENDBRANCH  19  20
ENDBRANCH   1  19
TORSDOF 14
ENDMDL
MODEL 2
REMARK VINA RESULT:     -10.4      3.555      9.415
REMARK SMILES C[C@]([NH3+])(Cc1ccccc1Br)C(=O)OCCOC(=O)c1ccc(-c2c3nc(c(-c4c(F)c(F)c(F)c(F)c4F)c4ccc([nH]4)c(-c4c(F)c(F)c(F)c(F)c4F)c4nc(c(-c5c(F)c(F)c(F)c(F)c5F)c5ccc2[nH]5)C=C4)C=C3)cc1
REMARK SMILES IDX 15 1 14 2 12 3 13 4 2 5 1 6 4 7 5 8 6 9 10 10 7 11 9 12
REMARK SMILES IDX 11 13 8 14 3 15 16 19 17 20 18 21 19 22 20 23 21 24 82 25
REMARK SMILES IDX 22 26 81 27 23 28 24 29 25 30 75 31 26 32 80 33 74 34 76 35
REMARK SMILES IDX 27 36 79 37 73 38 72 39 28 41 60 42 40 43 59 44 41 45 44 46
REMARK SMILES IDX 58 47 77 48 42 49 43 50 57 52 78 53 45 54 29 55 30 56 38 57
REMARK SMILES IDX 31 58 32 59 36 60 39 61 33 62 34 63 37 64 35 65 61 66 62 67
REMARK SMILES IDX 70 68 63 69 64 70 68 71 71 72 65 73 66 74 69 75 67 76 46 77
REMARK SMILES IDX 47 78 55 79 48 80 49 81 53 82 56 83 50 84 51 85 54 86 52 87
REMARK H PARENT 3 16 3 17 3 18 76 40 44 51
REMARK Flexibility Score: inf
ROOT
ATOM      1  C   UNL A   1      31.814  28.078  26.097  1.00  0.00     0.274 C 
ENDROOT
BRANCH   1   2
ATOM      2  O   UNL A   1      31.267  27.029  25.272  1.00  0.00    -0.457 OA
BRANCH   2   3
ATOM      3  C   UNL A   1      31.489  25.759  25.712  1.00  0.00     0.368 C 
ATOM      4  O   UNL A   1      30.907  25.257  26.670  1.00  0.00    -0.245 OA
BRANCH   3   5
ATOM      5  C   UNL A   1      32.629  25.049  24.932  1.00  0.00     0.194 C 
ATOM      6  C   UNL A   1      32.051  23.678  24.536  1.00  0.00     0.092 C 
BRANCH   5   7
ATOM      7  C   UNL A   1      33.944  24.827  25.737  1.00  0.00     0.117 C 
BRANCH   7   8
ATOM      8  C   UNL A   1      34.921  23.745  25.299  1.00  0.00    -0.027 A 
ATOM      9  C   UNL A   1      35.665  23.930  24.116  1.00  0.00     0.005 A 
ATOM     10  C   UNL A   1      35.051  22.504  25.953  1.00  0.00     0.021 A 
ATOM     11  C   UNL A   1      36.539  22.951  23.636  1.00  0.00     0.000 A 
ATOM     12  C   UNL A   1      35.925  21.521  25.466  1.00  0.00     0.016 A 
ATOM     13  Br  UNL A   1      34.027  22.013  27.482  1.00  0.00    -0.051 Br
ATOM     14  C   UNL A   1      36.674  21.747  24.315  1.00  0.00     0.001 A 
ENDBRANCH   7   8
ENDBRANCH   5   7
BRANCH   5  15
ATOM     15  N   UNL A   1      32.879  25.757  23.647  1.00  0.00    -0.343 N 
ATOM     16  H   UNL A   1      33.881  25.903  23.528  1.00  0.00     0.345 HD
ATOM     17  H   UNL A   1      32.403  26.659  23.658  1.00  0.00     0.345 HD
ATOM     18  H   UNL A   1      32.523  25.194  22.874  1.00  0.00     0.345 HD
ENDBRANCH   5  15
ENDBRANCH   3   5
ENDBRANCH   2   3
ENDBRANCH   1   2
BRANCH   1  19
ATOM     19  C   UNL A   1      31.860  29.408  25.346  1.00  0.00     0.275 C 
BRANCH  19  20
ATOM     20  O   UNL A   1      33.109  30.067  25.614  1.00  0.00    -0.458 OA
BRANCH  20  21
ATOM     21  C   UNL A   1      33.101  30.950  26.638  1.00  0.00     0.338 C 
ATOM     22  O   UNL A   1      32.246  31.785  26.876  1.00  0.00    -0.246 OA
BRANCH  21  23
ATOM     23  C   UNL A   1      34.332  30.791  27.449  1.00  0.00     0.060 A 
ATOM     24  C   UNL A   1      35.178  31.868  27.728  1.00  0.00     0.016 A 
ATOM     25  C   UNL A   1      34.668  29.516  27.903  1.00  0.00     0.016 A 
ATOM     26  C   UNL A   1      36.381  31.667  28.408  1.00  0.00     0.010 A 
ATOM     27  C   UNL A   1      35.832  29.327  28.653  1.00  0.00     0.010 A 
ATOM     28  C   UNL A   1      36.712  30.396  28.896  1.00  0.00    -0.014 A 
BRANCH  28  29
ATOM     29  C   UNL A   1      37.962  30.159  29.668  1.00  0.00     0.031 A 
ATOM     30  C   UNL A   1      39.033  29.261  29.110  1.00  0.00     0.074 A 
ATOM     31  C   UNL A   1      38.117  30.698  30.892  1.00  0.00     0.049 A 
ATOM     32  N   UNL A   1      40.081  28.749  29.704  1.00  0.00    -0.248 NA
ATOM     33  C   UNL A   1      38.897  28.875  27.696  1.00  0.00     0.031 C 
ATOM     34  C   UNL A   1      37.173  31.607  31.543  1.00  0.00     0.029 A 
ATOM     35  N   UNL A   1      39.121  30.545  31.817  1.00  0.00    -0.354 N 
ATOM     36  C   UNL A   1      40.700  27.943  28.757  1.00  0.00     0.074 A 
ATOM     37  C   UNL A   1      39.911  28.034  27.546  1.00  0.00     0.031 C 
ATOM     38  C   UNL A   1      37.645  31.937  32.754  1.00  0.00     0.029 A 
ATOM     39  C   UNL A   1      38.885  31.207  32.996  1.00  0.00     0.049 A 
ATOM     40  H   UNL A   1      39.932  30.011  31.650  1.00  0.00     0.167 HD
ATOM     41  C   UNL A   1      41.820  27.193  28.891  1.00  0.00     0.037 A 
ATOM     42  C   UNL A   1      39.563  31.196  34.159  1.00  0.00     0.037 A 
ATOM     43  C   UNL A   1      42.624  27.135  30.084  1.00  0.00     0.049 A 
ATOM     44  C   UNL A   1      40.791  30.340  34.290  1.00  0.00     0.074 A 
ATOM     45  C   UNL A   1      43.790  26.424  30.306  1.00  0.00     0.029 A 
ATOM     46  N   UNL A   1      42.348  27.825  31.255  1.00  0.00    -0.354 N 
ATOM     47  N   UNL A   1      41.348  29.555  33.401  1.00  0.00    -0.248 NA
ATOM     48  C   UNL A   1      41.473  30.356  35.590  1.00  0.00     0.031 C 
ATOM     49  C   UNL A   1      44.204  26.659  31.623  1.00  0.00     0.029 A 
ATOM     50  C   UNL A   1      43.315  27.546  32.208  1.00  0.00     0.049 A 
ATOM     51  H   UNL A   1      41.577  28.423  31.390  1.00  0.00     0.167 HD
ATOM     52  C   UNL A   1      42.449  28.991  34.028  1.00  0.00     0.074 A 
ATOM     53  C   UNL A   1      42.493  29.538  35.369  1.00  0.00     0.031 C 
ATOM     54  C   UNL A   1      43.342  28.098  33.538  1.00  0.00     0.037 A 
BRANCH  41  55
ATOM     55  C   UNL A   1      42.233  26.345  27.724  1.00  0.00     0.064 A 
ATOM     56  C   UNL A   1      43.223  26.759  26.822  1.00  0.00     0.173 A 
ATOM     57  C   UNL A   1      41.662  25.076  27.537  1.00  0.00     0.173 A 
ATOM     58  F   UNL A   1      43.788  27.970  26.951  1.00  0.00    -0.203 F 
ATOM     59  C   UNL A   1      43.614  25.942  25.765  1.00  0.00     0.198 A 
ATOM     60  C   UNL A   1      42.072  24.253  26.492  1.00  0.00     0.198 A 
ATOM     61  F   UNL A   1      40.713  24.631  28.374  1.00  0.00    -0.203 F 
ATOM     62  F   UNL A   1      44.537  26.373  24.893  1.00  0.00    -0.200 F 
ATOM     63  C   UNL A   1      43.044  24.687  25.604  1.00  0.00     0.200 A 
ATOM     64  F   UNL A   1      41.527  23.038  26.344  1.00  0.00    -0.200 F 
ATOM     65  F   UNL A   1      43.429  23.900  24.590  1.00  0.00    -0.200 F 
ENDBRANCH  41  55
BRANCH  42  66
ATOM     66  C   UNL A   1      39.069  32.004  35.302  1.00  0.00     0.064 A 
ATOM     67  C   UNL A   1      38.308  31.417  36.321  1.00  0.00     0.173 A 
ATOM     68  C   UNL A   1      39.371  33.369  35.414  1.00  0.00     0.173 A 
ATOM     69  F   UNL A   1      37.972  30.121  36.243  1.00  0.00    -0.203 F 
ATOM     70  C   UNL A   1      37.866  32.165  37.410  1.00  0.00     0.198 A 
ATOM     71  C   UNL A   1      38.950  34.111  36.516  1.00  0.00     0.198 A 
ATOM     72  F   UNL A   1      40.094  33.978  34.463  1.00  0.00    -0.203 F 
ATOM     73  F   UNL A   1      37.115  31.587  38.357  1.00  0.00    -0.200 F 
ATOM     74  C   UNL A   1      38.196  33.509  37.511  1.00  0.00     0.200 A 
ATOM     75  F   UNL A   1      39.282  35.405  36.616  1.00  0.00    -0.200 F 
ATOM     76  F   UNL A   1      37.782  34.225  38.566  1.00  0.00    -0.200 F 
ENDBRANCH  42  66
BRANCH  54  77
ATOM     77  C   UNL A   1      44.454  27.675  34.449  1.00  0.00     0.064 A 
ATOM     78  C   UNL A   1      44.337  26.544  35.269  1.00  0.00     0.173 A 
ATOM     79  C   UNL A   1      45.657  28.394  34.481  1.00  0.00     0.173 A 
ATOM     80  F   UNL A   1      43.198  25.836  35.284  1.00  0.00    -0.203 F 
ATOM     81  C   UNL A   1      45.380  26.160  36.108  1.00  0.00     0.198 A 
ATOM     82  C   UNL A   1      46.706  27.994  35.304  1.00  0.00     0.198 A 
ATOM     83  F   UNL A   1      45.817  29.480  33.712  1.00  0.00    -0.203 F 
ATOM     84  F   UNL A   1      45.234  25.099  36.914  1.00  0.00    -0.200 F 
ATOM     85  C   UNL A   1      46.565  26.881  36.120  1.00  0.00     0.200 A 
ATOM     86  F   UNL A   1      47.853  28.687  35.311  1.00  0.00    -0.200 F 
ATOM     87  F   UNL A   1      47.569  26.509  36.927  1.00  0.00    -0.200 F 
ENDBRANCH  54  77
ENDBRANCH  28  29
ENDBRANCH  21  23
ENDBRANCH  20  21
ENDBRANCH  19  20
ENDBRANCH   1  19
TORSDOF 14
ENDMDL
MODEL 3
REMARK VINA RESULT:     -10.4      4.009      6.494
REMARK SMILES C[C@]([NH3+])(Cc1ccccc1Br)C(=O)OCCOC(=O)c1ccc(-c2c3nc(c(-c4c(F)c(F)c(F)c(F)c4F)c4ccc([nH]4)c(-c4c(F)c(F)c(F)c(F)c4F)c4nc(c(-c5c(F)c(F)c(F)c(F)c5F)c5ccc2[nH]5)C=C4)C=C3)cc1
REMARK SMILES IDX 15 1 14 2 12 3 13 4 2 5 1 6 4 7 5 8 6 9 10 10 7 11 9 12
REMARK SMILES IDX 11 13 8 14 3 15 16 19 17 20 18 21 19 22 20 23 21 24 82 25
REMARK SMILES IDX 22 26 81 27 23 28 24 29 25 30 75 31 26 32 80 33 74 34 76 35
REMARK SMILES IDX 27 36 79 37 73 38 72 39 28 41 60 42 40 43 59 44 41 45 44 46
REMARK SMILES IDX 58 47 77 48 42 49 43 50 57 52 78 53 45 54 29 55 30 56 38 57
REMARK SMILES IDX 31 58 32 59 36 60 39 61 33 62 34 63 37 64 35 65 61 66 62 67
REMARK SMILES IDX 70 68 63 69 64 70 68 71 71 72 65 73 66 74 69 75 67 76 46 77
REMARK SMILES IDX 47 78 55 79 48 80 49 81 53 82 56 83 50 84 51 85 54 86 52 87
REMARK H PARENT 3 16 3 17 3 18 76 40 44 51
REMARK Flexibility Score: inf
ROOT
ATOM      1  C   UNL A   1      33.930  33.949  28.797  1.00  0.00     0.274 C 
ENDROOT
BRANCH   1   2
ATOM      2  O   UNL A   1      33.788  33.554  30.176  1.00  0.00    -0.457 OA
BRANCH   2   3
ATOM      3  C   UNL A   1      34.006  34.536  31.095  1.00  0.00     0.368 C 
ATOM      4  O   UNL A   1      33.775  35.725  30.891  1.00  0.00    -0.245 OA
BRANCH   3   5
ATOM      5  C   UNL A   1      34.672  34.001  32.392  1.00  0.00     0.194 C 
ATOM      6  C   UNL A   1      35.124  35.257  33.159  1.00  0.00     0.092 C 
BRANCH   5   7
ATOM      7  C   UNL A   1      35.906  33.076  32.171  1.00  0.00     0.117 C 
BRANCH   7   8
ATOM      8  C   UNL A   1      37.068  33.562  31.316  1.00  0.00    -0.027 A 
ATOM      9  C   UNL A   1      37.056  33.304  29.930  1.00  0.00     0.005 A 
ATOM     10  C   UNL A   1      38.222  34.169  31.847  1.00  0.00     0.021 A 
ATOM     11  C   UNL A   1      38.117  33.681  29.102  1.00  0.00     0.000 A 
ATOM     12  C   UNL A   1      39.288  34.541  31.015  1.00  0.00     0.016 A 
ATOM     13  Br  UNL A   1      38.485  34.471  33.709  1.00  0.00    -0.051 Br
ATOM     14  C   UNL A   1      39.233  34.305  29.644  1.00  0.00     0.001 A 
ENDBRANCH   7   8
ENDBRANCH   5   7
BRANCH   5  15
ATOM     15  N   UNL A   1      33.646  33.359  33.259  1.00  0.00    -0.343 N 
ATOM     16  H   UNL A   1      33.406  32.443  32.881  1.00  0.00     0.345 HD
ATOM     17  H   UNL A   1      32.811  33.944  33.287  1.00  0.00     0.345 HD
ATOM     18  H   UNL A   1      34.017  33.251  34.203  1.00  0.00     0.345 HD
ENDBRANCH   5  15
ENDBRANCH   3   5
ENDBRANCH   2   3
ENDBRANCH   1   2
BRANCH   1  19
ATOM     19  C   UNL A   1      33.567  32.806  27.851  1.00  0.00     0.275 C 
BRANCH  19  20
ATOM     20  O   UNL A   1      34.750  32.059  27.525  1.00  0.00    -0.458 OA
BRANCH  20  21
ATOM     21  C   UNL A   1      34.666  30.720  27.693  1.00  0.00     0.338 C 
ATOM     22  O   UNL A   1      33.686  30.019  27.505  1.00  0.00    -0.246 OA
BRANCH  21  23
ATOM     23  C   UNL A   1      35.960  30.194  28.191  1.00  0.00     0.060 A 
ATOM     24  C   UNL A   1      36.085  29.615  29.457  1.00  0.00     0.016 A 
ATOM     25  C   UNL A   1      37.087  30.326  27.380  1.00  0.00     0.016 A 
ATOM     26  C   UNL A   1      37.336  29.221  29.936  1.00  0.00     0.010 A 
ATOM     27  C   UNL A   1      38.326  29.859  27.826  1.00  0.00     0.010 A 
ATOM     28  C   UNL A   1      38.469  29.320  29.117  1.00  0.00    -0.014 A 
BRANCH  28  29
ATOM     29  C   UNL A   1      39.807  28.863  29.579  1.00  0.00     0.031 A 
ATOM     30  C   UNL A   1      40.620  29.726  30.505  1.00  0.00     0.074 A 
ATOM     31  C   UNL A   1      40.322  27.704  29.126  1.00  0.00     0.049 A 
ATOM     32  N   UNL A   1      41.881  29.624  30.844  1.00  0.00    -0.248 NA
ATOM     33  C   UNL A   1      39.924  30.867  31.121  1.00  0.00     0.031 C 
ATOM     34  C   UNL A   1      39.635  26.757  28.247  1.00  0.00     0.029 A 
ATOM     35  N   UNL A   1      41.554  27.132  29.331  1.00  0.00    -0.354 N 
ATOM     36  C   UNL A   1      42.142  30.711  31.669  1.00  0.00     0.074 A 
ATOM     37  C   UNL A   1      40.909  31.461  31.781  1.00  0.00     0.031 C 
ATOM     38  C   UNL A   1      40.448  25.721  27.995  1.00  0.00     0.029 A 
ATOM     39  C   UNL A   1      41.738  25.964  28.632  1.00  0.00     0.049 A 
ATOM     40  H   UNL A   1      42.240  27.522  29.921  1.00  0.00     0.167 HD
ATOM     41  C   UNL A   1      43.308  31.052  32.270  1.00  0.00     0.037 A 
ATOM     42  C   UNL A   1      42.833  25.196  28.481  1.00  0.00     0.037 A 
ATOM     43  C   UNL A   1      44.522  30.283  32.187  1.00  0.00     0.049 A 
ATOM     44  C   UNL A   1      44.120  25.605  29.141  1.00  0.00     0.074 A 
ATOM     45  C   UNL A   1      45.746  30.534  32.783  1.00  0.00     0.029 A 
ATOM     46  N   UNL A   1      44.662  29.104  31.469  1.00  0.00    -0.354 N 
ATOM     47  N   UNL A   1      44.366  26.652  29.889  1.00  0.00    -0.248 NA
ATOM     48  C   UNL A   1      45.283  24.736  28.921  1.00  0.00     0.031 C 
ATOM     49  C   UNL A   1      46.636  29.524  32.400  1.00  0.00     0.029 A 
ATOM     50  C   UNL A   1      45.956  28.623  31.597  1.00  0.00     0.049 A 
ATOM     51  H   UNL A   1      43.948  28.674  30.945  1.00  0.00     0.167 HD
ATOM     52  C   UNL A   1      45.706  26.564  30.237  1.00  0.00     0.074 A 
ATOM     53  C   UNL A   1      46.217  25.351  29.632  1.00  0.00     0.031 C 
ATOM     54  C   UNL A   1      46.447  27.415  30.987  1.00  0.00     0.037 A 
BRANCH  41  55
ATOM     55  C   UNL A   1      43.338  32.332  33.051  1.00  0.00     0.064 A 
ATOM     56  C   UNL A   1      43.558  33.571  32.434  1.00  0.00     0.173 A 
ATOM     57  C   UNL A   1      43.094  32.320  34.434  1.00  0.00     0.173 A 
ATOM     58  F   UNL A   1      43.811  33.633  31.117  1.00  0.00    -0.203 F 
ATOM     59  C   UNL A   1      43.550  34.751  33.174  1.00  0.00     0.198 A 
ATOM     60  C   UNL A   1      43.063  33.504  35.167  1.00  0.00     0.198 A 
ATOM     61  F   UNL A   1      42.874  31.161  35.072  1.00  0.00    -0.203 F 
ATOM     62  F   UNL A   1      43.799  35.921  32.569  1.00  0.00    -0.200 F 
ATOM     63  C   UNL A   1      43.296  34.717  34.538  1.00  0.00     0.200 A 
ATOM     64  F   UNL A   1      42.809  33.470  36.482  1.00  0.00    -0.200 F 
ATOM     65  F   UNL A   1      43.281  35.855  35.246  1.00  0.00    -0.200 F 
ENDBRANCH  41  55
BRANCH  42  66
ATOM     66  C   UNL A   1      42.761  23.975  27.640  1.00  0.00     0.064 A 
ATOM     67  C   UNL A   1      43.046  24.028  26.269  1.00  0.00     0.173 A 
ATOM     68  C   UNL A   1      42.433  22.727  28.193  1.00  0.00     0.173 A 
ATOM     69  F   UNL A   1      43.337  25.203  25.693  1.00  0.00    -0.203 F 
ATOM     70  C   UNL A   1      43.006  22.880  25.483  1.00  0.00     0.198 A 
ATOM     71  C   UNL A   1      42.419  21.575  27.410  1.00  0.00     0.198 A 
ATOM     72  F   UNL A   1      42.149  22.625  29.500  1.00  0.00    -0.203 F 
ATOM     73  F   UNL A   1      43.255  22.962  24.169  1.00  0.00    -0.200 F 
ATOM     74  C   UNL A   1      42.702  21.653  26.055  1.00  0.00     0.200 A 
ATOM     75  F   UNL A   1      42.138  20.391  27.970  1.00  0.00    -0.200 F 
ATOM     76  F   UNL A   1      42.678  20.546  25.300  1.00  0.00    -0.200 F 
ENDBRANCH  42  66
BRANCH  54  77
ATOM     77  C   UNL A   1      47.882  27.049  31.214  1.00  0.00     0.064 A 
ATOM     78  C   UNL A   1      48.902  27.546  30.390  1.00  0.00     0.173 A 
ATOM     79  C   UNL A   1      48.242  26.216  32.283  1.00  0.00     0.173 A 
ATOM     80  F   UNL A   1      48.604  28.332  29.346  1.00  0.00    -0.203 F 
ATOM     81  C   UNL A   1      50.232  27.202  30.616  1.00  0.00     0.198 A 
ATOM     82  C   UNL A   1      49.575  25.892  32.519  1.00  0.00     0.198 A 
ATOM     83  F   UNL A   1      47.302  25.720  33.100  1.00  0.00    -0.203 F 
ATOM     84  F   UNL A   1      51.189  27.654  29.793  1.00  0.00    -0.200 F 
ATOM     85  C   UNL A   1      50.568  26.381  31.682  1.00  0.00     0.200 A 
ATOM     86  F   UNL A   1      49.900  25.105  33.554  1.00  0.00    -0.200 F 
ATOM     87  F   UNL A   1      51.850  26.051  31.899  1.00  0.00    -0.200 F 
ENDBRANCH  54  77
ENDBRANCH  28  29
ENDBRANCH  21  23
ENDBRANCH  20  21
ENDBRANCH  19  20
ENDBRANCH   1  19
TORSDOF 14
ENDMDL
