MODEL 1
REMARK VINA RESULT:     -13.8      0.000      0.000
REMARK SMILES Cc1ccc(NC(=O)C[C@@H](C(=O)OCCOC(=O)c2ccc(-c3c4nc(c(-c5c(F)c(F)c(F)c(F)c5F)c5ccc([nH]5)c(-c5c(F)c(F)c(F)c(F)c5F)c5nc(c(-c6c(F)c(F)c(F)c(F)c6F)c6ccc3[nH]6)C=C5)C=C4)cc2)[C@@H](C)c2ccccc2)cc1Br
REMARK SMILES IDX 14 1 13 2 11 3 12 4 10 5 9 6 7 7 6 8 8 10 5 11 1 12 2 13
REMARK SMILES IDX 3 14 91 15 4 16 90 17 92 18 82 19 83 20 84 21 85 22 89 23
REMARK SMILES IDX 86 24 88 25 87 26 15 27 16 28 17 29 18 30 19 31 20 32 81 33
REMARK SMILES IDX 21 34 80 35 22 36 23 37 24 38 74 39 25 40 79 41 73 42 75 43
REMARK SMILES IDX 26 44 78 45 72 46 71 47 27 49 59 50 39 51 58 52 40 53 43 54
REMARK SMILES IDX 57 55 76 56 41 57 42 58 56 60 77 61 44 62 28 63 29 64 37 65
REMARK SMILES IDX 30 66 31 67 35 68 38 69 32 70 33 71 36 72 34 73 60 74 61 75
REMARK SMILES IDX 69 76 62 77 63 78 67 79 70 80 64 81 65 82 68 83 66 84 45 85
REMARK SMILES IDX 46 86 54 87 47 88 48 89 52 90 55 91 49 92 50 93 53 94 51 95
REMARK H PARENT 6 9 75 48 43 59
REMARK Flexibility Score: inf
ROOT
ATOM      1  C   UNL A   1      37.388  20.048  24.629  1.00  0.00     0.274 C 
ENDROOT
BRANCH   1   2
ATOM      2  O   UNL A   1      35.998  20.623  25.402  1.00  0.00    -0.462 OA
BRANCH   2   3
ATOM      3  C   UNL A   1      34.709  20.512  25.004  1.00  0.00     0.310 C 
ATOM      4  O   UNL A   1      34.191  19.413  24.864  1.00  0.00    -0.252 OA
BRANCH   3   5
ATOM      5  C   UNL A   1      33.990  21.882  24.691  1.00  0.00     0.116 C 
BRANCH   5   6
ATOM      6  C   UNL A   1      33.714  22.246  23.200  1.00  0.00     0.116 C 
BRANCH   6   7
ATOM      7  C   UNL A   1      32.364  22.081  22.565  1.00  0.00     0.225 C 
ATOM      8  N   UNL A   1      31.377  22.998  22.748  1.00  0.00    -0.326 N 
ATOM      9  H   UNL A   1      30.461  22.663  22.613  1.00  0.00     0.169 HD
ATOM     10  O   UNL A   1      32.109  21.071  21.903  1.00  0.00    -0.275 OA
BRANCH   8  11
ATOM     11  C   UNL A   1      31.474  24.354  23.101  1.00  0.00     0.042 A 
ATOM     12  C   UNL A   1      30.849  29.362  23.783  1.00  0.00     0.045 C 
ATOM     13  C   UNL A   1      30.953  27.923  23.362  1.00  0.00    -0.037 A 
ATOM     14  C   UNL A   1      29.661  26.782  23.841  1.00  0.00     0.007 A 
ATOM     15  C   UNL A   1      32.512  27.320  22.725  1.00  0.00     0.022 A 
ATOM     16  C   UNL A   1      29.916  25.015  23.719  1.00  0.00     0.026 A 
ATOM     17  C   UNL A   1      32.781  25.526  22.594  1.00  0.00     0.042 A 
ATOM     18  Br  UNL A   1      33.828  28.618  22.302  1.00  0.00    -0.050 Br
ENDBRANCH   8  11
ENDBRANCH   6   7
ENDBRANCH   5   6
BRANCH   5  19
ATOM     19  C   UNL A   1      34.658  23.188  25.337  1.00  0.00     0.031 C 
ATOM     20  C   UNL A   1      35.818  23.748  24.474  1.00  0.00     0.013 C 
BRANCH  19  21
ATOM     21  C   UNL A   1      33.761  24.297  25.871  1.00  0.00    -0.044 A 
ATOM     22  C   UNL A   1      32.479  24.100  26.396  1.00  0.00     0.004 A 
ATOM     23  C   UNL A   1      34.183  25.621  25.713  1.00  0.00     0.004 A 
ATOM     24  C   UNL A   1      31.675  25.192  26.753  1.00  0.00     0.000 A 
ATOM     25  C   UNL A   1      33.404  26.713  26.085  1.00  0.00     0.000 A 
ATOM     26  C   UNL A   1      32.140  26.497  26.605  1.00  0.00     0.000 A 
ENDBRANCH  19  21
ENDBRANCH   5  19
ENDBRANCH   3   5
ENDBRANCH   2   3
ENDBRANCH   1   2
BRANCH   1  27
ATOM     27  C   UNL A   1      39.201  19.386  25.675  1.00  0.00     0.275 C 
BRANCH  27  28
ATOM     28  O   UNL A   1      40.549  20.250  25.959  1.00  0.00    -0.458 OA
BRANCH  28  29
ATOM     29  C   UNL A   1      41.180  20.297  27.165  1.00  0.00     0.338 C 
ATOM     30  O   UNL A   1      41.771  19.390  27.721  1.00  0.00    -0.246 OA
BRANCH  29  31
ATOM     31  C   UNL A   1      41.408  21.743  27.442  1.00  0.00     0.060 A 
ATOM     32  C   UNL A   1      40.584  22.677  26.790  1.00  0.00     0.016 A 
ATOM     33  C   UNL A   1      42.273  22.166  28.455  1.00  0.00     0.016 A 
ATOM     34  C   UNL A   1      40.578  24.019  27.178  1.00  0.00     0.010 A 
ATOM     35  C   UNL A   1      42.303  23.521  28.812  1.00  0.00     0.010 A 
ATOM     36  C   UNL A   1      41.468  24.455  28.166  1.00  0.00    -0.014 A 
BRANCH  36  37
ATOM     37  C   UNL A   1      41.784  25.903  28.262  1.00  0.00     0.031 A 
ATOM     38  C   UNL A   1      43.094  26.328  27.657  1.00  0.00     0.074 A 
ATOM     39  C   UNL A   1      40.960  26.815  28.811  1.00  0.00     0.049 A 
ATOM     40  N   UNL A   1      43.709  27.479  27.699  1.00  0.00    -0.248 NA
ATOM     41  C   UNL A   1      43.817  25.287  26.905  1.00  0.00     0.031 C 
ATOM     42  C   UNL A   1      39.623  26.554  29.334  1.00  0.00     0.029 A 
ATOM     43  N   UNL A   1      41.144  28.162  29.017  1.00  0.00    -0.354 N 
ATOM     44  C   UNL A   1      44.899  27.287  27.010  1.00  0.00     0.074 A 
ATOM     45  C   UNL A   1      44.936  25.908  26.584  1.00  0.00     0.031 C 
ATOM     46  C   UNL A   1      39.110  27.704  29.815  1.00  0.00     0.029 A 
ATOM     47  C   UNL A   1      40.101  28.771  29.672  1.00  0.00     0.049 A 
ATOM     48  H   UNL A   1      41.949  28.646  28.722  1.00  0.00     0.167 HD
ATOM     49  C   UNL A   1      45.878  28.182  26.751  1.00  0.00     0.037 A 
ATOM     50  C   UNL A   1      39.984  30.038  30.123  1.00  0.00     0.037 A 
ATOM     51  C   UNL A   1      45.828  29.555  27.166  1.00  0.00     0.049 A 
ATOM     52  C   UNL A   1      41.130  31.002  29.903  1.00  0.00     0.074 A 
ATOM     53  C   UNL A   1      46.766  30.550  26.970  1.00  0.00     0.029 A 
ATOM     54  N   UNL A   1      44.774  30.121  27.868  1.00  0.00    -0.354 N 
ATOM     55  N   UNL A   1      42.267  30.813  29.273  1.00  0.00    -0.248 NA
ATOM     56  C   UNL A   1      40.979  32.355  30.461  1.00  0.00     0.031 C 
ATOM     57  C   UNL A   1      46.304  31.707  27.604  1.00  0.00     0.029 A 
ATOM     58  C   UNL A   1      45.048  31.451  28.135  1.00  0.00     0.049 A 
ATOM     59  H   UNL A   1      43.954  29.647  28.136  1.00  0.00     0.167 HD
ATOM     60  C   UNL A   1      42.945  32.026  29.329  1.00  0.00     0.074 A 
ATOM     61  C   UNL A   1      42.089  32.947  30.045  1.00  0.00     0.031 C 
ATOM     62  C   UNL A   1      44.166  32.352  28.833  1.00  0.00     0.037 A 
BRANCH  49  63
ATOM     63  C   UNL A   1      47.098  27.674  26.039  1.00  0.00     0.064 A 
ATOM     64  C   UNL A   1      47.203  27.682  24.639  1.00  0.00     0.173 A 
ATOM     65  C   UNL A   1      48.164  27.135  26.773  1.00  0.00     0.173 A 
ATOM     66  F   UNL A   1      46.197  28.157  23.888  1.00  0.00    -0.203 F 
ATOM     67  C   UNL A   1      48.312  27.132  24.001  1.00  0.00     0.198 A 
ATOM     68  C   UNL A   1      49.288  26.622  26.134  1.00  0.00     0.198 A 
ATOM     69  F   UNL A   1      48.112  27.095  28.113  1.00  0.00    -0.203 F 
ATOM     70  F   UNL A   1      48.356  27.080  22.663  1.00  0.00    -0.200 F 
ATOM     71  C   UNL A   1      49.356  26.609  24.749  1.00  0.00     0.200 A 
ATOM     72  F   UNL A   1      50.300  26.124  26.858  1.00  0.00    -0.200 F 
ATOM     73  F   UNL A   1      50.423  26.078  24.134  1.00  0.00    -0.200 F 
ENDBRANCH  49  63
BRANCH  50  74
ATOM     74  C   UNL A   1      38.761  30.478  30.855  1.00  0.00     0.064 A 
ATOM     75  C   UNL A   1      37.651  30.998  30.171  1.00  0.00     0.173 A 
ATOM     76  C   UNL A   1      38.693  30.438  32.256  1.00  0.00     0.173 A 
ATOM     77  F   UNL A   1      37.673  31.094  28.833  1.00  0.00    -0.203 F 
ATOM     78  C   UNL A   1      36.536  31.479  30.858  1.00  0.00     0.198 A 
ATOM     79  C   UNL A   1      37.565  30.889  32.941  1.00  0.00     0.198 A 
ATOM     80  F   UNL A   1      39.729  29.967  32.966  1.00  0.00    -0.203 F 
ATOM     81  F   UNL A   1      35.516  32.024  30.180  1.00  0.00    -0.200 F 
ATOM     82  C   UNL A   1      36.491  31.418  32.242  1.00  0.00     0.200 A 
ATOM     83  F   UNL A   1      37.525  30.824  34.278  1.00  0.00    -0.200 F 
ATOM     84  F   UNL A   1      35.421  31.882  32.903  1.00  0.00    -0.200 F 
ENDBRANCH  50  74
BRANCH  62  85
ATOM     85  C   UNL A   1      44.629  33.772  28.994  1.00  0.00     0.064 A 
ATOM     86  C   UNL A   1      45.413  34.177  30.083  1.00  0.00     0.173 A 
ATOM     87  C   UNL A   1      44.339  34.724  28.003  1.00  0.00     0.173 A 
ATOM     88  F   UNL A   1      45.712  33.310  31.061  1.00  0.00    -0.203 F 
ATOM     89  C   UNL A   1      45.869  35.489  30.186  1.00  0.00     0.198 A 
ATOM     90  C   UNL A   1      44.826  36.023  28.091  1.00  0.00     0.198 A 
ATOM     91  F   UNL A   1      43.604  34.383  26.933  1.00  0.00    -0.203 F 
ATOM     92  F   UNL A   1      46.578  35.867  31.259  1.00  0.00    -0.200 F 
ATOM     93  C   UNL A   1      45.584  36.408  29.187  1.00  0.00     0.200 A 
ATOM     94  F   UNL A   1      44.568  36.902  27.113  1.00  0.00    -0.200 F 
ATOM     95  F   UNL A   1      46.037  37.665  29.281  1.00  0.00    -0.200 F 
ENDBRANCH  62  85
ENDBRANCH  36  37
ENDBRANCH  29  31
ENDBRANCH  28  29
ENDBRANCH  27  28
ENDBRANCH   1  27
TORSDOF 16
ENDMDL
MODEL 2
REMARK VINA RESULT:     -13.6      1.288      2.875
REMARK SMILES Cc1ccc(NC(=O)C[C@@H](C(=O)OCCOC(=O)c2ccc(-c3c4nc(c(-c5c(F)c(F)c(F)c(F)c5F)c5ccc([nH]5)c(-c5c(F)c(F)c(F)c(F)c5F)c5nc(c(-c6c(F)c(F)c(F)c(F)c6F)c6ccc3[nH]6)C=C5)C=C4)cc2)[C@@H](C)c2ccccc2)cc1Br
REMARK SMILES IDX 14 1 13 2 11 3 12 4 10 5 9 6 7 7 6 8 8 10 5 11 1 12 2 13
REMARK SMILES IDX 3 14 91 15 4 16 90 17 92 18 82 19 83 20 84 21 85 22 89 23
REMARK SMILES IDX 86 24 88 25 87 26 15 27 16 28 17 29 18 30 19 31 20 32 81 33
REMARK SMILES IDX 21 34 80 35 22 36 23 37 24 38 74 39 25 40 79 41 73 42 75 43
REMARK SMILES IDX 26 44 78 45 72 46 71 47 27 49 59 50 39 51 58 52 40 53 43 54
REMARK SMILES IDX 57 55 76 56 41 57 42 58 56 60 77 61 44 62 28 63 29 64 37 65
REMARK SMILES IDX 30 66 31 67 35 68 38 69 32 70 33 71 36 72 34 73 60 74 61 75
REMARK SMILES IDX 69 76 62 77 63 78 67 79 70 80 64 81 65 82 68 83 66 84 45 85
REMARK SMILES IDX 46 86 54 87 47 88 48 89 52 90 55 91 49 92 50 93 53 94 51 95
REMARK H PARENT 6 9 75 48 43 59
REMARK Flexibility Score: inf
ROOT
ATOM      1  C   UNL A   1      37.423  21.306  24.619  1.00  0.00     0.274 C 
ENDROOT
BRANCH   1   2
ATOM      2  O   UNL A   1      36.601  22.634  25.266  1.00  0.00    -0.462 OA
BRANCH   2   3
ATOM      3  C   UNL A   1      35.332  22.690  25.735  1.00  0.00     0.310 C 
ATOM      4  O   UNL A   1      35.109  22.997  26.898  1.00  0.00    -0.252 OA
BRANCH   3   5
ATOM      5  C   UNL A   1      34.220  22.275  24.694  1.00  0.00     0.116 C 
BRANCH   5   6
ATOM      6  C   UNL A   1      33.242  23.377  24.182  1.00  0.00     0.116 C 
BRANCH   6   7
ATOM      7  C   UNL A   1      33.477  24.137  22.909  1.00  0.00     0.225 C 
ATOM      8  N   UNL A   1      33.071  25.426  22.767  1.00  0.00    -0.326 N 
ATOM      9  H   UNL A   1      32.937  25.725  21.838  1.00  0.00     0.169 HD
ATOM     10  O   UNL A   1      34.000  23.578  21.941  1.00  0.00    -0.275 OA
BRANCH   8  11
ATOM     11  C   UNL A   1      32.817  26.395  23.751  1.00  0.00     0.042 A 
ATOM     12  C   UNL A   1      31.765  30.603  26.420  1.00  0.00     0.045 C 
ATOM     13  C   UNL A   1      32.199  29.505  25.490  1.00  0.00    -0.037 A 
ATOM     14  C   UNL A   1      31.057  28.924  24.241  1.00  0.00     0.007 A 
ATOM     15  C   UNL A   1      33.674  28.573  25.882  1.00  0.00     0.022 A 
ATOM     16  C   UNL A   1      31.356  27.383  23.383  1.00  0.00     0.026 A 
ATOM     17  C   UNL A   1      33.989  27.006  25.014  1.00  0.00     0.042 A 
ATOM     18  Br  UNL A   1      34.782  29.256  27.261  1.00  0.00    -0.050 Br
ENDBRANCH   8  11
ENDBRANCH   6   7
ENDBRANCH   5   6
BRANCH   5  19
ATOM     19  C   UNL A   1      33.293  21.037  25.114  1.00  0.00     0.031 C 
ATOM     20  C   UNL A   1      31.825  21.460  25.379  1.00  0.00     0.013 C 
BRANCH  19  21
ATOM     21  C   UNL A   1      33.376  19.741  24.319  1.00  0.00    -0.044 A 
ATOM     22  C   UNL A   1      32.428  19.322  23.380  1.00  0.00     0.004 A 
ATOM     23  C   UNL A   1      34.398  18.838  24.631  1.00  0.00     0.004 A 
ATOM     24  C   UNL A   1      32.521  18.057  22.781  1.00  0.00     0.000 A 
ATOM     25  C   UNL A   1      34.514  17.590  24.028  1.00  0.00     0.000 A 
ATOM     26  C   UNL A   1      33.567  17.195  23.100  1.00  0.00     0.000 A 
ENDBRANCH  19  21
ENDBRANCH   5  19
ENDBRANCH   3   5
ENDBRANCH   2   3
ENDBRANCH   1   2
BRANCH   1  27
ATOM     27  C   UNL A   1      38.826  20.051  25.748  1.00  0.00     0.275 C 
BRANCH  27  28
ATOM     28  O   UNL A   1      40.441  20.222  25.851  1.00  0.00    -0.458 OA
BRANCH  28  29
ATOM     29  C   UNL A   1      41.125  20.268  27.027  1.00  0.00     0.338 C 
ATOM     30  O   UNL A   1      41.751  19.365  27.551  1.00  0.00    -0.246 OA
BRANCH  29  31
ATOM     31  C   UNL A   1      41.348  21.716  27.305  1.00  0.00     0.060 A 
ATOM     32  C   UNL A   1      40.639  22.651  26.531  1.00  0.00     0.016 A 
ATOM     33  C   UNL A   1      42.082  22.144  28.413  1.00  0.00     0.016 A 
ATOM     34  C   UNL A   1      40.613  24.002  26.888  1.00  0.00     0.010 A 
ATOM     35  C   UNL A   1      42.097  23.505  28.744  1.00  0.00     0.010 A 
ATOM     36  C   UNL A   1      41.375  24.442  27.977  1.00  0.00    -0.014 A 
BRANCH  36  37
ATOM     37  C   UNL A   1      41.709  25.884  28.085  1.00  0.00     0.031 A 
ATOM     38  C   UNL A   1      43.037  26.293  27.509  1.00  0.00     0.074 A 
ATOM     39  C   UNL A   1      40.887  26.805  28.620  1.00  0.00     0.049 A 
ATOM     40  N   UNL A   1      43.667  27.435  27.568  1.00  0.00    -0.248 NA
ATOM     41  C   UNL A   1      43.761  25.245  26.767  1.00  0.00     0.031 C 
ATOM     42  C   UNL A   1      39.535  26.561  29.115  1.00  0.00     0.029 A 
ATOM     43  N   UNL A   1      41.085  28.149  28.835  1.00  0.00    -0.354 N 
ATOM     44  C   UNL A   1      44.868  27.229  26.902  1.00  0.00     0.074 A 
ATOM     45  C   UNL A   1      44.895  25.852  26.472  1.00  0.00     0.031 C 
ATOM     46  C   UNL A   1      39.029  27.716  29.590  1.00  0.00     0.029 A 
ATOM     47  C   UNL A   1      40.037  28.770  29.472  1.00  0.00     0.049 A 
ATOM     48  H   UNL A   1      41.903  28.623  28.559  1.00  0.00     0.167 HD
ATOM     49  C   UNL A   1      45.865  28.112  26.666  1.00  0.00     0.037 A 
ATOM     50  C   UNL A   1      39.929  30.037  29.926  1.00  0.00     0.037 A 
ATOM     51  C   UNL A   1      45.825  29.483  27.086  1.00  0.00     0.049 A 
ATOM     52  C   UNL A   1      41.093  30.986  29.733  1.00  0.00     0.074 A 
ATOM     53  C   UNL A   1      46.780  30.466  26.914  1.00  0.00     0.029 A 
ATOM     54  N   UNL A   1      44.765  30.061  27.769  1.00  0.00    -0.354 N 
ATOM     55  N   UNL A   1      42.239  30.783  29.125  1.00  0.00    -0.248 NA
ATOM     56  C   UNL A   1      40.949  32.338  30.293  1.00  0.00     0.031 C 
ATOM     57  C   UNL A   1      46.322  31.627  27.543  1.00  0.00     0.029 A 
ATOM     58  C   UNL A   1      45.052  31.386  28.047  1.00  0.00     0.049 A 
ATOM     59  H   UNL A   1      43.933  29.598  28.018  1.00  0.00     0.167 HD
ATOM     60  C   UNL A   1      42.933  31.986  29.200  1.00  0.00     0.074 A 
ATOM     61  C   UNL A   1      42.075  32.917  29.902  1.00  0.00     0.031 C 
ATOM     62  C   UNL A   1      44.168  32.297  28.731  1.00  0.00     0.037 A 
BRANCH  49  63
ATOM     63  C   UNL A   1      47.091  27.589  25.978  1.00  0.00     0.064 A 
ATOM     64  C   UNL A   1      48.176  27.053  26.690  1.00  0.00     0.173 A 
ATOM     65  C   UNL A   1      47.196  27.661  24.581  1.00  0.00     0.173 A 
ATOM     66  F   UNL A   1      48.141  26.990  28.030  1.00  0.00    -0.203 F 
ATOM     67  C   UNL A   1      49.334  26.647  26.031  1.00  0.00     0.198 A 
ATOM     68  C   UNL A   1      48.339  27.219  23.923  1.00  0.00     0.198 A 
ATOM     69  F   UNL A   1      46.192  28.173  23.853  1.00  0.00    -0.203 F 
ATOM     70  F   UNL A   1      50.387  26.211  26.738  1.00  0.00    -0.200 F 
ATOM     71  C   UNL A   1      49.412  26.725  24.649  1.00  0.00     0.200 A 
ATOM     72  F   UNL A   1      48.409  27.287  22.587  1.00  0.00    -0.200 F 
ATOM     73  F   UNL A   1      50.528  26.336  24.016  1.00  0.00    -0.200 F 
ENDBRANCH  49  63
BRANCH  50  74
ATOM     74  C   UNL A   1      38.698  30.491  30.634  1.00  0.00     0.064 A 
ATOM     75  C   UNL A   1      37.594  30.993  29.926  1.00  0.00     0.173 A 
ATOM     76  C   UNL A   1      38.615  30.484  32.035  1.00  0.00     0.173 A 
ATOM     77  F   UNL A   1      37.630  31.058  28.588  1.00  0.00    -0.203 F 
ATOM     78  C   UNL A   1      36.471  31.487  30.591  1.00  0.00     0.198 A 
ATOM     79  C   UNL A   1      37.479  30.948  32.697  1.00  0.00     0.198 A 
ATOM     80  F   UNL A   1      39.644  30.031  32.766  1.00  0.00    -0.203 F 
ATOM     81  F   UNL A   1      35.457  32.014  29.889  1.00  0.00    -0.200 F 
ATOM     82  C   UNL A   1      36.411  31.458  31.975  1.00  0.00     0.200 A 
ATOM     83  F   UNL A   1      37.425  30.913  34.035  1.00  0.00    -0.200 F 
ATOM     84  F   UNL A   1      35.334  31.935  32.614  1.00  0.00    -0.200 F 
ENDBRANCH  50  74
BRANCH  62  85
ATOM     85  C   UNL A   1      44.647  33.709  28.907  1.00  0.00     0.064 A 
ATOM     86  C   UNL A   1      44.370  34.710  27.964  1.00  0.00     0.173 A 
ATOM     87  C   UNL A   1      45.334  34.080  30.075  1.00  0.00     0.173 A 
ATOM     88  F   UNL A   1      43.725  34.407  26.829  1.00  0.00    -0.203 F 
ATOM     89  C   UNL A   1      44.785  36.023  28.173  1.00  0.00     0.198 A 
ATOM     90  C   UNL A   1      45.714  35.399  30.297  1.00  0.00     0.198 A 
ATOM     91  F   UNL A   1      45.611  33.164  31.015  1.00  0.00    -0.203 F 
ATOM     92  F   UNL A   1      44.551  36.954  27.237  1.00  0.00    -0.200 F 
ATOM     93  C   UNL A   1      45.447  36.369  29.342  1.00  0.00     0.200 A 
ATOM     94  F   UNL A   1      46.334  35.734  31.437  1.00  0.00    -0.200 F 
ATOM     95  F   UNL A   1      45.831  37.635  29.546  1.00  0.00    -0.200 F 
ENDBRANCH  62  85
ENDBRANCH  36  37
ENDBRANCH  29  31
ENDBRANCH  28  29
ENDBRANCH  27  28
ENDBRANCH   1  27
TORSDOF 16
ENDMDL
MODEL 3
REMARK VINA RESULT:     -13.5      0.650      2.109
REMARK SMILES Cc1ccc(NC(=O)C[C@@H](C(=O)OCCOC(=O)c2ccc(-c3c4nc(c(-c5c(F)c(F)c(F)c(F)c5F)c5ccc([nH]5)c(-c5c(F)c(F)c(F)c(F)c5F)c5nc(c(-c6c(F)c(F)c(F)c(F)c6F)c6ccc3[nH]6)C=C5)C=C4)cc2)[C@@H](C)c2ccccc2)cc1Br
REMARK SMILES IDX 14 1 13 2 11 3 12 4 10 5 9 6 7 7 6 8 8 10 5 11 1 12 2 13
REMARK SMILES IDX 3 14 91 15 4 16 90 17 92 18 82 19 83 20 84 21 85 22 89 23
REMARK SMILES IDX 86 24 88 25 87 26 15 27 16 28 17 29 18 30 19 31 20 32 81 33
REMARK SMILES IDX 21 34 80 35 22 36 23 37 24 38 74 39 25 40 79 41 73 42 75 43
REMARK SMILES IDX 26 44 78 45 72 46 71 47 27 49 59 50 39 51 58 52 40 53 43 54
REMARK SMILES IDX 57 55 76 56 41 57 42 58 56 60 77 61 44 62 28 63 29 64 37 65
REMARK SMILES IDX 30 66 31 67 35 68 38 69 32 70 33 71 36 72 34 73 60 74 61 75
REMARK SMILES IDX 69 76 62 77 63 78 67 79 70 80 64 81 65 82 68 83 66 84 45 85
REMARK SMILES IDX 46 86 54 87 47 88 48 89 52 90 55 91 49 92 50 93 53 94 51 95
REMARK H PARENT 6 9 75 48 43 59
REMARK Flexibility Score: inf
ROOT
ATOM      1  C   UNL A   1      36.837  21.945  25.094  1.00  0.00     0.274 C 
ENDROOT
BRANCH   1   2
ATOM      2  O   UNL A   1      35.276  21.638  24.522  1.00  0.00    -0.462 OA
BRANCH   2   3
ATOM      3  C   UNL A   1      34.440  20.629  24.863  1.00  0.00     0.310 C 
ATOM      4  O   UNL A   1      34.735  19.466  24.626  1.00  0.00    -0.252 OA
BRANCH   3   5
ATOM      5  C   UNL A   1      33.075  21.087  25.510  1.00  0.00     0.116 C 
BRANCH   5   6
ATOM      6  C   UNL A   1      31.958  21.633  24.568  1.00  0.00     0.116 C 
BRANCH   6   7
ATOM      7  C   UNL A   1      32.116  21.686  23.076  1.00  0.00     0.225 C 
ATOM      8  N   UNL A   1      31.864  22.824  22.376  1.00  0.00    -0.326 N 
ATOM      9  H   UNL A   1      31.646  22.693  21.425  1.00  0.00     0.169 HD
ATOM     10  O   UNL A   1      32.427  20.670  22.449  1.00  0.00    -0.275 OA
BRANCH   8  11
ATOM     11  C   UNL A   1      31.872  24.159  22.811  1.00  0.00     0.042 A 
ATOM     12  C   UNL A   1      30.950  29.078  23.753  1.00  0.00     0.045 C 
ATOM     13  C   UNL A   1      31.150  27.675  23.254  1.00  0.00    -0.037 A 
ATOM     14  C   UNL A   1      29.901  26.444  23.603  1.00  0.00     0.007 A 
ATOM     15  C   UNL A   1      32.766  27.192  22.659  1.00  0.00     0.022 A 
ATOM     16  C   UNL A   1      30.255  24.702  23.391  1.00  0.00     0.026 A 
ATOM     17  C   UNL A   1      33.137  25.425  22.437  1.00  0.00     0.042 A 
ATOM     18  Br  UNL A   1      34.029  28.578  22.377  1.00  0.00    -0.050 Br
ENDBRANCH   8  11
ENDBRANCH   6   7
ENDBRANCH   5   6
BRANCH   5  19
ATOM     19  C   UNL A   1      33.187  22.148  26.706  1.00  0.00     0.031 C 
ATOM     20  C   UNL A   1      34.358  21.828  27.672  1.00  0.00     0.013 C 
BRANCH  19  21
ATOM     21  C   UNL A   1      33.101  23.635  26.393  1.00  0.00    -0.044 A 
ATOM     22  C   UNL A   1      34.155  24.407  25.894  1.00  0.00     0.004 A 
ATOM     23  C   UNL A   1      31.930  24.317  26.745  1.00  0.00     0.004 A 
ATOM     24  C   UNL A   1      34.023  25.795  25.749  1.00  0.00     0.000 A 
ATOM     25  C   UNL A   1      31.778  25.691  26.584  1.00  0.00     0.000 A 
ATOM     26  C   UNL A   1      32.833  26.435  26.087  1.00  0.00     0.000 A 
ENDBRANCH  19  21
ENDBRANCH   5  19
ENDBRANCH   3   5
ENDBRANCH   2   3
ENDBRANCH   1   2
BRANCH   1  27
ATOM     27  C   UNL A   1      38.317  20.387  25.544  1.00  0.00     0.275 C 
BRANCH  27  28
ATOM     28  O   UNL A   1      39.927  20.567  25.693  1.00  0.00    -0.458 OA
BRANCH  28  29
ATOM     29  C   UNL A   1      40.586  20.545  26.884  1.00  0.00     0.338 C 
ATOM     30  O   UNL A   1      41.141  19.592  27.400  1.00  0.00    -0.246 OA
BRANCH  29  31
ATOM     31  C   UNL A   1      40.896  21.968  27.198  1.00  0.00     0.060 A 
ATOM     32  C   UNL A   1      40.147  22.964  26.547  1.00  0.00     0.016 A 
ATOM     33  C   UNL A   1      41.759  22.316  28.239  1.00  0.00     0.016 A 
ATOM     34  C   UNL A   1      40.215  24.296  26.963  1.00  0.00     0.010 A 
ATOM     35  C   UNL A   1      41.865  23.659  28.626  1.00  0.00     0.010 A 
ATOM     36  C   UNL A   1      41.105  24.656  27.981  1.00  0.00    -0.014 A 
BRANCH  36  37
ATOM     37  C   UNL A   1      41.507  26.079  28.115  1.00  0.00     0.031 A 
ATOM     38  C   UNL A   1      42.848  26.437  27.536  1.00  0.00     0.074 A 
ATOM     39  C   UNL A   1      40.733  27.026  28.676  1.00  0.00     0.049 A 
ATOM     40  N   UNL A   1      43.531  27.547  27.613  1.00  0.00    -0.248 NA
ATOM     41  C   UNL A   1      43.517  25.372  26.767  1.00  0.00     0.031 C 
ATOM     42  C   UNL A   1      39.375  26.836  29.178  1.00  0.00     0.029 A 
ATOM     43  N   UNL A   1      40.995  28.355  28.917  1.00  0.00    -0.354 N 
ATOM     44  C   UNL A   1      44.717  27.299  26.933  1.00  0.00     0.074 A 
ATOM     45  C   UNL A   1      44.675  25.931  26.475  1.00  0.00     0.031 C 
ATOM     46  C   UNL A   1      38.927  28.003  29.680  1.00  0.00     0.029 A 
ATOM     47  C   UNL A   1      39.983  29.011  29.574  1.00  0.00     0.049 A 
ATOM     48  H   UNL A   1      41.832  28.795  28.643  1.00  0.00     0.167 HD
ATOM     49  C   UNL A   1      45.752  28.139  26.706  1.00  0.00     0.037 A 
ATOM     50  C   UNL A   1      39.938  30.272  30.054  1.00  0.00     0.037 A 
ATOM     51  C   UNL A   1      45.780  29.501  27.154  1.00  0.00     0.049 A 
ATOM     52  C   UNL A   1      41.143  31.169  29.871  1.00  0.00     0.074 A 
ATOM     53  C   UNL A   1      46.778  30.442  26.993  1.00  0.00     0.029 A 
ATOM     54  N   UNL A   1      44.753  30.114  27.858  1.00  0.00    -0.354 N 
ATOM     55  N   UNL A   1      42.274  30.926  29.249  1.00  0.00    -0.248 NA
ATOM     56  C   UNL A   1      41.068  32.515  30.459  1.00  0.00     0.031 C 
ATOM     57  C   UNL A   1      46.379  31.610  27.650  1.00  0.00     0.029 A 
ATOM     58  C   UNL A   1      45.104  31.419  28.159  1.00  0.00     0.049 A 
ATOM     59  H   UNL A   1      43.902  29.686  28.104  1.00  0.00     0.167 HD
ATOM     60  C   UNL A   1      43.024  32.093  29.342  1.00  0.00     0.074 A 
ATOM     61  C   UNL A   1      42.217  33.048  30.070  1.00  0.00     0.031 C 
ATOM     62  C   UNL A   1      44.269  32.355  28.869  1.00  0.00     0.037 A 
BRANCH  49  63
ATOM     63  C   UNL A   1      46.947  27.573  25.997  1.00  0.00     0.064 A 
ATOM     64  C   UNL A   1      48.021  26.992  26.690  1.00  0.00     0.173 A 
ATOM     65  C   UNL A   1      47.033  27.649  24.599  1.00  0.00     0.173 A 
ATOM     66  F   UNL A   1      48.003  26.924  28.030  1.00  0.00    -0.203 F 
ATOM     67  C   UNL A   1      49.153  26.547  26.012  1.00  0.00     0.198 A 
ATOM     68  C   UNL A   1      48.149  27.168  23.922  1.00  0.00     0.198 A 
ATOM     69  F   UNL A   1      46.039  28.203  23.888  1.00  0.00    -0.203 F 
ATOM     70  F   UNL A   1      50.198  26.067  26.700  1.00  0.00    -0.200 F 
ATOM     71  C   UNL A   1      49.213  26.628  24.629  1.00  0.00     0.200 A 
ATOM     72  F   UNL A   1      48.202  27.240  22.585  1.00  0.00    -0.200 F 
ATOM     73  F   UNL A   1      50.304  26.201  23.978  1.00  0.00    -0.200 F 
ENDBRANCH  49  63
BRANCH  50  74
ATOM     74  C   UNL A   1      38.735  30.768  30.782  1.00  0.00     0.064 A 
ATOM     75  C   UNL A   1      38.641  30.679  32.180  1.00  0.00     0.173 A 
ATOM     76  C   UNL A   1      37.629  31.295  30.095  1.00  0.00     0.173 A 
ATOM     77  F   UNL A   1      39.651  30.151  32.887  1.00  0.00    -0.203 F 
ATOM     78  C   UNL A   1      37.486  31.074  32.856  1.00  0.00     0.198 A 
ATOM     79  C   UNL A   1      36.489  31.720  30.775  1.00  0.00     0.198 A 
ATOM     80  F   UNL A   1      37.653  31.391  28.758  1.00  0.00    -0.203 F 
ATOM     81  F   UNL A   1      37.404  30.922  34.186  1.00  0.00    -0.200 F 
ATOM     82  C   UNL A   1      36.413  31.601  32.154  1.00  0.00     0.200 A 
ATOM     83  F   UNL A   1      35.456  32.233  30.091  1.00  0.00    -0.200 F 
ATOM     84  F   UNL A   1      35.303  31.979  32.802  1.00  0.00    -0.200 F 
ENDBRANCH  50  74
BRANCH  62  85
ATOM     85  C   UNL A   1      44.815  33.740  29.069  1.00  0.00     0.064 A 
ATOM     86  C   UNL A   1      44.558  34.777  28.161  1.00  0.00     0.173 A 
ATOM     87  C   UNL A   1      45.548  34.048  30.228  1.00  0.00     0.173 A 
ATOM     88  F   UNL A   1      43.870  34.535  27.036  1.00  0.00    -0.203 F 
ATOM     89  C   UNL A   1      45.037  36.065  28.393  1.00  0.00     0.198 A 
ATOM     90  C   UNL A   1      45.993  35.342  30.474  1.00  0.00     0.198 A 
ATOM     91  F   UNL A   1      45.808  33.095  31.135  1.00  0.00    -0.203 F 
ATOM     92  F   UNL A   1      44.820  37.030  27.489  1.00  0.00    -0.200 F 
ATOM     93  C   UNL A   1      45.744  36.348  29.552  1.00  0.00     0.200 A 
ATOM     94  F   UNL A   1      46.656  35.618  31.605  1.00  0.00    -0.200 F 
ATOM     95  F   UNL A   1      46.190  37.591  29.780  1.00  0.00    -0.200 F 
ENDBRANCH  62  85
ENDBRANCH  36  37
ENDBRANCH  29  31
ENDBRANCH  28  29
ENDBRANCH  27  28
ENDBRANCH   1  27
TORSDOF 16
ENDMDL
