MODEL 1
REMARK VINA RESULT:     -10.5      0.000      0.000
REMARK SMILES COCC[C@H]1CCC[C@@]1([NH3+])C(=O)OCCOC(=O)c1ccc(-c2c3nc(c(-c4c(F)c(F)c(F)c(F)c4F)c4ccc([nH]4)c(-c4c(F)c(F)c(F)c(F)c4F)c4nc(c(-c5c(F)c(F)c(F)c(F)c5F)c5ccc2[nH]5)C=C4)C=C3)cc1
REMARK SMILES IDX 14 1 13 2 11 3 12 4 9 5 5 6 6 7 7 8 8 9 4 10 3 11 2 12 1 13
REMARK SMILES IDX 10 14 15 18 16 19 17 20 18 21 19 22 20 23 81 24 21 25 80 26
REMARK SMILES IDX 22 27 23 28 24 29 74 30 25 31 79 32 73 33 75 34 26 35 78 36
REMARK SMILES IDX 72 37 71 38 27 40 59 41 39 42 58 43 40 44 43 45 57 46 76 47
REMARK SMILES IDX 41 48 42 49 56 51 77 52 44 53 28 54 29 55 37 56 30 57 31 58
REMARK SMILES IDX 35 59 38 60 32 61 33 62 36 63 34 64 60 65 61 66 69 67 62 68
REMARK SMILES IDX 63 69 67 70 70 71 64 72 65 73 68 74 66 75 45 76 46 77 54 78
REMARK SMILES IDX 47 79 48 80 52 81 55 82 49 83 50 84 53 85 51 86
REMARK H PARENT 10 15 10 16 10 17 75 39 43 50
REMARK Flexibility Score: inf
ROOT
ATOM      1  C   UNL A   1      32.064  28.964  25.051  1.00  0.00     0.274 C 
ENDROOT
BRANCH   1   2
ATOM      2  O   UNL A   1      31.267  27.872  25.559  1.00  0.00    -0.457 OA
BRANCH   2   3
ATOM      3  C   UNL A   1      31.958  26.779  25.979  1.00  0.00     0.368 C 
ATOM      4  O   UNL A   1      33.048  26.817  26.545  1.00  0.00    -0.245 OA
BRANCH   3   5
ATOM      5  C   UNL A   1      31.319  25.444  25.529  1.00  0.00     0.195 C 
ATOM      6  C   UNL A   1      31.201  25.269  23.987  1.00  0.00     0.065 C 
ATOM      7  C   UNL A   1      30.736  23.807  23.878  1.00  0.00     0.011 C 
ATOM      8  C   UNL A   1      31.476  23.071  25.002  1.00  0.00     0.008 C 
ATOM      9  C   UNL A   1      32.030  24.152  25.943  1.00  0.00     0.081 C 
BRANCH   6  10
ATOM     10  C   UNL A   1      32.523  25.472  23.213  1.00  0.00     0.039 C 
BRANCH  10  11
ATOM     11  C   UNL A   1      32.488  26.507  22.078  1.00  0.00     0.160 C 
BRANCH  11  12
ATOM     12  O   UNL A   1      33.774  26.989  21.705  1.00  0.00    -0.385 OA
ATOM     13  C   UNL A   1      34.072  28.309  22.135  1.00  0.00     0.194 C 
ENDBRANCH  11  12
ENDBRANCH  10  11
ENDBRANCH   6  10
BRANCH   5  14
ATOM     14  N   UNL A   1      29.941  25.417  26.119  1.00  0.00    -0.343 N 
ATOM     15  H   UNL A   1      29.351  24.788  25.574  1.00  0.00     0.345 HD
ATOM     16  H   UNL A   1      29.545  26.357  26.100  1.00  0.00     0.345 HD
ATOM     17  H   UNL A   1      29.991  25.087  27.082  1.00  0.00     0.345 HD
ENDBRANCH   5  14
ENDBRANCH   3   5
ENDBRANCH   2   3
ENDBRANCH   1   2
BRANCH   1  18
ATOM     18  C   UNL A   1      31.655  30.293  25.676  1.00  0.00     0.275 C 
BRANCH  18  19
ATOM     19  O   UNL A   1      32.245  30.403  26.981  1.00  0.00    -0.458 OA
BRANCH  19  20
ATOM     20  C   UNL A   1      32.970  31.518  27.213  1.00  0.00     0.338 C 
ATOM     21  O   UNL A   1      32.571  32.674  27.138  1.00  0.00    -0.246 OA
BRANCH  20  22
ATOM     22  C   UNL A   1      34.345  31.168  27.632  1.00  0.00     0.060 A 
ATOM     23  C   UNL A   1      34.715  29.840  27.847  1.00  0.00     0.016 A 
ATOM     24  C   UNL A   1      35.243  32.188  27.954  1.00  0.00     0.016 A 
ATOM     25  C   UNL A   1      35.907  29.548  28.508  1.00  0.00     0.010 A 
ATOM     26  C   UNL A   1      36.484  31.881  28.525  1.00  0.00     0.010 A 
ATOM     27  C   UNL A   1      36.811  30.559  28.869  1.00  0.00    -0.014 A 
BRANCH  27  28
ATOM     28  C   UNL A   1      38.033  30.246  29.674  1.00  0.00     0.031 A 
ATOM     29  C   UNL A   1      39.156  29.433  29.070  1.00  0.00     0.074 A 
ATOM     30  C   UNL A   1      38.188  30.713  30.929  1.00  0.00     0.049 A 
ATOM     31  N   UNL A   1      40.165  28.842  29.663  1.00  0.00    -0.248 NA
ATOM     32  C   UNL A   1      39.129  29.239  27.612  1.00  0.00     0.031 C 
ATOM     33  C   UNL A   1      37.239  31.563  31.648  1.00  0.00     0.029 A 
ATOM     34  N   UNL A   1      39.223  30.551  31.822  1.00  0.00    -0.354 N 
ATOM     35  C   UNL A   1      40.833  28.135  28.669  1.00  0.00     0.074 A 
ATOM     36  C   UNL A   1      40.130  28.388  27.429  1.00  0.00     0.031 C 
ATOM     37  C   UNL A   1      37.765  31.909  32.833  1.00  0.00     0.029 A 
ATOM     38  C   UNL A   1      39.038  31.220  33.007  1.00  0.00     0.049 A 
ATOM     39  H   UNL A   1      40.021  30.007  31.629  1.00  0.00     0.167 HD
ATOM     40  C   UNL A   1      41.926  27.342  28.785  1.00  0.00     0.037 A 
ATOM     41  C   UNL A   1      39.784  31.249  34.127  1.00  0.00     0.037 A 
ATOM     42  C   UNL A   1      42.691  27.174  29.994  1.00  0.00     0.049 A 
ATOM     43  C   UNL A   1      41.022  30.402  34.217  1.00  0.00     0.074 A 
ATOM     44  C   UNL A   1      43.791  26.364  30.220  1.00  0.00     0.029 A 
ATOM     45  N   UNL A   1      42.464  27.872  31.169  1.00  0.00    -0.354 N 
ATOM     46  N   UNL A   1      41.548  29.608  33.320  1.00  0.00    -0.248 NA
ATOM     47  C   UNL A   1      41.750  30.431  35.495  1.00  0.00     0.031 C 
ATOM     48  C   UNL A   1      44.231  26.572  31.532  1.00  0.00     0.029 A 
ATOM     49  C   UNL A   1      43.420  27.530  32.113  1.00  0.00     0.049 A 
ATOM     50  H   UNL A   1      41.734  28.515  31.313  1.00  0.00     0.167 HD
ATOM     51  C   UNL A   1      42.659  29.037  33.923  1.00  0.00     0.074 A 
ATOM     52  C   UNL A   1      42.756  29.604  35.250  1.00  0.00     0.031 C 
ATOM     53  C   UNL A   1      43.508  28.104  33.428  1.00  0.00     0.037 A 
BRANCH  40  54
ATOM     54  C   UNL A   1      42.360  26.564  27.578  1.00  0.00     0.064 A 
ATOM     55  C   UNL A   1      43.372  27.021  26.723  1.00  0.00     0.173 A 
ATOM     56  C   UNL A   1      41.805  25.299  27.324  1.00  0.00     0.173 A 
ATOM     57  F   UNL A   1      43.925  28.228  26.916  1.00  0.00    -0.203 F 
ATOM     58  C   UNL A   1      43.806  26.244  25.652  1.00  0.00     0.198 A 
ATOM     59  C   UNL A   1      42.259  24.515  26.267  1.00  0.00     0.198 A 
ATOM     60  F   UNL A   1      40.840  24.812  28.119  1.00  0.00    -0.203 F 
ATOM     61  F   UNL A   1      44.758  26.710  24.831  1.00  0.00    -0.200 F 
ATOM     62  C   UNL A   1      43.257  24.988  25.430  1.00  0.00     0.200 A 
ATOM     63  F   UNL A   1      41.736  23.297  26.064  1.00  0.00    -0.200 F 
ATOM     64  F   UNL A   1      43.690  24.235  24.410  1.00  0.00    -0.200 F 
ENDBRANCH  40  54
BRANCH  41  65
ATOM     65  C   UNL A   1      39.356  32.081  35.281  1.00  0.00     0.064 A 
ATOM     66  C   UNL A   1      38.555  31.541  36.295  1.00  0.00     0.173 A 
ATOM     67  C   UNL A   1      39.733  33.428  35.389  1.00  0.00     0.173 A 
ATOM     68  F   UNL A   1      38.145  30.266  36.217  1.00  0.00    -0.203 F 
ATOM     69  C   UNL A   1      38.139  32.319  37.372  1.00  0.00     0.198 A 
ATOM     70  C   UNL A   1      39.342  34.196  36.483  1.00  0.00     0.198 A 
ATOM     71  F   UNL A   1      40.495  33.991  34.441  1.00  0.00    -0.203 F 
ATOM     72  F   UNL A   1      37.338  31.792  38.308  1.00  0.00    -0.200 F 
ATOM     73  C   UNL A   1      38.539  33.644  37.469  1.00  0.00     0.200 A 
ATOM     74  F   UNL A   1      39.742  35.472  36.579  1.00  0.00    -0.200 F 
ATOM     75  F   UNL A   1      38.146  34.390  38.510  1.00  0.00    -0.200 F 
ENDBRANCH  41  65
BRANCH  53  76
ATOM     76  C   UNL A   1      44.622  27.660  34.325  1.00  0.00     0.064 A 
ATOM     77  C   UNL A   1      44.469  26.562  35.186  1.00  0.00     0.173 A 
ATOM     78  C   UNL A   1      45.850  28.335  34.328  1.00  0.00     0.173 A 
ATOM     79  F   UNL A   1      43.305  25.896  35.229  1.00  0.00    -0.203 F 
ATOM     80  C   UNL A   1      45.498  26.177  36.039  1.00  0.00     0.198 A 
ATOM     81  C   UNL A   1      46.884  27.934  35.169  1.00  0.00     0.198 A 
ATOM     82  F   UNL A   1      46.043  29.390  33.520  1.00  0.00    -0.203 F 
ATOM     83  F   UNL A   1      45.315  25.156  36.888  1.00  0.00    -0.200 F 
ATOM     84  C   UNL A   1      46.705  26.861  36.029  1.00  0.00     0.200 A 
ATOM     85  F   UNL A   1      48.051  28.594  35.157  1.00  0.00    -0.200 F 
ATOM     86  F   UNL A   1      47.691  26.494  36.860  1.00  0.00    -0.200 F 
ENDBRANCH  53  76
ENDBRANCH  27  28
ENDBRANCH  20  22
ENDBRANCH  19  20
ENDBRANCH  18  19
ENDBRANCH   1  18
TORSDOF 15
ENDMDL
MODEL 2
REMARK VINA RESULT:     -10.4      0.946      2.031
REMARK SMILES COCC[C@H]1CCC[C@@]1([NH3+])C(=O)OCCOC(=O)c1ccc(-c2c3nc(c(-c4c(F)c(F)c(F)c(F)c4F)c4ccc([nH]4)c(-c4c(F)c(F)c(F)c(F)c4F)c4nc(c(-c5c(F)c(F)c(F)c(F)c5F)c5ccc2[nH]5)C=C4)C=C3)cc1
REMARK SMILES IDX 14 1 13 2 11 3 12 4 9 5 5 6 6 7 7 8 8 9 4 10 3 11 2 12 1 13
REMARK SMILES IDX 10 14 15 18 16 19 17 20 18 21 19 22 20 23 81 24 21 25 80 26
REMARK SMILES IDX 22 27 23 28 24 29 74 30 25 31 79 32 73 33 75 34 26 35 78 36
REMARK SMILES IDX 72 37 71 38 27 40 59 41 39 42 58 43 40 44 43 45 57 46 76 47
REMARK SMILES IDX 41 48 42 49 56 51 77 52 44 53 28 54 29 55 37 56 30 57 31 58
REMARK SMILES IDX 35 59 38 60 32 61 33 62 36 63 34 64 60 65 61 66 69 67 62 68
REMARK SMILES IDX 63 69 67 70 70 71 64 72 65 73 68 74 66 75 45 76 46 77 54 78
REMARK SMILES IDX 47 79 48 80 52 81 55 82 49 83 50 84 53 85 51 86
REMARK H PARENT 10 15 10 16 10 17 75 39 43 50
REMARK Flexibility Score: inf
ROOT
ATOM      1  C   UNL A   1      31.287  29.031  25.169  1.00  0.00     0.274 C 
ENDROOT
BRANCH   1   2
ATOM      2  O   UNL A   1      31.954  28.731  23.924  1.00  0.00    -0.457 OA
BRANCH   2   3
ATOM      3  C   UNL A   1      33.055  27.937  24.017  1.00  0.00     0.368 C 
ATOM      4  O   UNL A   1      34.166  28.324  24.372  1.00  0.00    -0.245 OA
BRANCH   3   5
ATOM      5  C   UNL A   1      32.823  26.509  23.469  1.00  0.00     0.195 C 
ATOM      6  C   UNL A   1      33.331  25.368  24.399  1.00  0.00     0.065 C 
ATOM      7  C   UNL A   1      32.779  24.122  23.685  1.00  0.00     0.011 C 
ATOM      8  C   UNL A   1      31.412  24.551  23.138  1.00  0.00     0.008 C 
ATOM      9  C   UNL A   1      31.375  26.086  23.207  1.00  0.00     0.081 C 
BRANCH   6  10
ATOM     10  C   UNL A   1      32.802  25.436  25.848  1.00  0.00     0.039 C 
BRANCH  10  11
ATOM     11  C   UNL A   1      32.682  24.093  26.586  1.00  0.00     0.160 C 
BRANCH  11  12
ATOM     12  O   UNL A   1      31.469  23.947  27.314  1.00  0.00    -0.385 OA
ATOM     13  C   UNL A   1      30.418  23.299  26.613  1.00  0.00     0.194 C 
ENDBRANCH  11  12
ENDBRANCH  10  11
ENDBRANCH   6  10
BRANCH   5  14
ATOM     14  N   UNL A   1      33.565  26.431  22.169  1.00  0.00    -0.343 N 
ATOM     15  H   UNL A   1      33.174  27.107  21.514  1.00  0.00     0.345 HD
ATOM     16  H   UNL A   1      33.474  25.491  21.783  1.00  0.00     0.345 HD
ATOM     17  H   UNL A   1      34.550  26.641  22.328  1.00  0.00     0.345 HD
ENDBRANCH   5  14
ENDBRANCH   3   5
ENDBRANCH   2   3
ENDBRANCH   1   2
BRANCH   1  18
ATOM     18  C   UNL A   1      31.594  30.448  25.640  1.00  0.00     0.275 C 
BRANCH  18  19
ATOM     19  O   UNL A   1      32.339  30.388  26.866  1.00  0.00    -0.458 OA
BRANCH  19  20
ATOM     20  C   UNL A   1      33.030  31.499  27.197  1.00  0.00     0.338 C 
ATOM     21  O   UNL A   1      32.606  32.649  27.194  1.00  0.00    -0.246 OA
BRANCH  20  22
ATOM     22  C   UNL A   1      34.402  31.150  27.627  1.00  0.00     0.060 A 
ATOM     23  C   UNL A   1      34.771  29.823  27.847  1.00  0.00     0.016 A 
ATOM     24  C   UNL A   1      35.297  32.172  27.955  1.00  0.00     0.016 A 
ATOM     25  C   UNL A   1      35.958  29.533  28.518  1.00  0.00     0.010 A 
ATOM     26  C   UNL A   1      36.534  31.866  28.536  1.00  0.00     0.010 A 
ATOM     27  C   UNL A   1      36.858  30.544  28.885  1.00  0.00    -0.014 A 
BRANCH  27  28
ATOM     28  C   UNL A   1      38.075  30.234  29.699  1.00  0.00     0.031 A 
ATOM     29  C   UNL A   1      39.210  29.435  29.100  1.00  0.00     0.074 A 
ATOM     30  C   UNL A   1      38.213  30.690  30.961  1.00  0.00     0.049 A 
ATOM     31  N   UNL A   1      40.218  28.846  29.698  1.00  0.00    -0.248 NA
ATOM     32  C   UNL A   1      39.201  29.254  27.640  1.00  0.00     0.031 C 
ATOM     33  C   UNL A   1      37.250  31.525  31.677  1.00  0.00     0.029 A 
ATOM     34  N   UNL A   1      39.239  30.527  31.863  1.00  0.00    -0.354 N 
ATOM     35  C   UNL A   1      40.902  28.154  28.705  1.00  0.00     0.074 A 
ATOM     36  C   UNL A   1      40.210  28.413  27.460  1.00  0.00     0.031 C 
ATOM     37  C   UNL A   1      37.760  31.864  32.871  1.00  0.00     0.029 A 
ATOM     38  C   UNL A   1      39.037  31.183  33.052  1.00  0.00     0.049 A 
ATOM     39  H   UNL A   1      40.043  29.991  31.673  1.00  0.00     0.167 HD
ATOM     40  C   UNL A   1      41.999  27.368  28.825  1.00  0.00     0.037 A 
ATOM     41  C   UNL A   1      39.771  31.207  34.180  1.00  0.00     0.037 A 
ATOM     42  C   UNL A   1      42.752  27.195  30.041  1.00  0.00     0.049 A 
ATOM     43  C   UNL A   1      41.014  30.369  34.276  1.00  0.00     0.074 A 
ATOM     44  C   UNL A   1      43.857  26.390  30.270  1.00  0.00     0.029 A 
ATOM     45  N   UNL A   1      42.508  27.879  31.220  1.00  0.00    -0.354 N 
ATOM     46  N   UNL A   1      41.556  29.588  33.377  1.00  0.00    -0.248 NA
ATOM     47  C   UNL A   1      41.728  30.392  35.561  1.00  0.00     0.031 C 
ATOM     48  C   UNL A   1      44.281  26.590  31.589  1.00  0.00     0.029 A 
ATOM     49  C   UNL A   1      43.457  27.536  32.171  1.00  0.00     0.049 A 
ATOM     50  H   UNL A   1      41.771  28.516  31.362  1.00  0.00     0.167 HD
ATOM     51  C   UNL A   1      42.664  29.019  33.986  1.00  0.00     0.074 A 
ATOM     52  C   UNL A   1      42.743  29.575  35.320  1.00  0.00     0.031 C 
ATOM     53  C   UNL A   1      43.526  28.099  33.492  1.00  0.00     0.037 A 
BRANCH  40  54
ATOM     54  C   UNL A   1      42.452  26.605  27.615  1.00  0.00     0.064 A 
ATOM     55  C   UNL A   1      43.454  27.088  26.764  1.00  0.00     0.173 A 
ATOM     56  C   UNL A   1      41.926  25.329  27.356  1.00  0.00     0.173 A 
ATOM     57  F   UNL A   1      43.980  28.306  26.962  1.00  0.00    -0.203 F 
ATOM     58  C   UNL A   1      43.907  26.325  25.690  1.00  0.00     0.198 A 
ATOM     59  C   UNL A   1      42.398  24.559  26.297  1.00  0.00     0.198 A 
ATOM     60  F   UNL A   1      40.972  24.817  28.148  1.00  0.00    -0.203 F 
ATOM     61  F   UNL A   1      44.849  26.815  24.872  1.00  0.00    -0.200 F 
ATOM     62  C   UNL A   1      43.386  25.058  25.462  1.00  0.00     0.200 A 
ATOM     63  F   UNL A   1      41.904  23.331  26.088  1.00  0.00    -0.200 F 
ATOM     64  F   UNL A   1      43.838  24.319  24.440  1.00  0.00    -0.200 F 
ENDBRANCH  40  54
BRANCH  41  65
ATOM     65  C   UNL A   1      39.324  32.025  35.337  1.00  0.00     0.064 A 
ATOM     66  C   UNL A   1      39.712  33.366  35.459  1.00  0.00     0.173 A 
ATOM     67  C   UNL A   1      38.507  31.485  36.341  1.00  0.00     0.173 A 
ATOM     68  F   UNL A   1      40.518  33.916  34.539  1.00  0.00    -0.203 F 
ATOM     69  C   UNL A   1      39.307  34.133  36.548  1.00  0.00     0.198 A 
ATOM     70  C   UNL A   1      38.078  32.263  37.413  1.00  0.00     0.198 A 
ATOM     71  F   UNL A   1      38.112  30.205  36.271  1.00  0.00    -0.203 F 
ATOM     72  F   UNL A   1      39.727  35.401  36.665  1.00  0.00    -0.200 F 
ATOM     73  C   UNL A   1      38.484  33.584  37.520  1.00  0.00     0.200 A 
ATOM     74  F   UNL A   1      37.272  31.732  38.343  1.00  0.00    -0.200 F 
ATOM     75  F   UNL A   1      38.088  34.325  38.563  1.00  0.00    -0.200 F 
ENDBRANCH  41  65
BRANCH  53  76
ATOM     76  C   UNL A   1      44.634  27.654  34.396  1.00  0.00     0.064 A 
ATOM     77  C   UNL A   1      44.481  26.546  35.244  1.00  0.00     0.173 A 
ATOM     78  C   UNL A   1      45.856  28.340  34.420  1.00  0.00     0.173 A 
ATOM     79  F   UNL A   1      43.322  25.870  35.267  1.00  0.00    -0.203 F 
ATOM     80  C   UNL A   1      45.504  26.161  36.105  1.00  0.00     0.198 A 
ATOM     81  C   UNL A   1      46.884  27.939  35.268  1.00  0.00     0.198 A 
ATOM     82  F   UNL A   1      46.049  29.404  33.625  1.00  0.00    -0.203 F 
ATOM     83  F   UNL A   1      45.320  25.129  36.941  1.00  0.00    -0.200 F 
ATOM     84  C   UNL A   1      46.705  26.855  36.115  1.00  0.00     0.200 A 
ATOM     85  F   UNL A   1      48.045  28.608  35.276  1.00  0.00    -0.200 F 
ATOM     86  F   UNL A   1      47.684  26.488  36.953  1.00  0.00    -0.200 F 
ENDBRANCH  53  76
ENDBRANCH  27  28
ENDBRANCH  20  22
ENDBRANCH  19  20
ENDBRANCH  18  19
ENDBRANCH   1  18
TORSDOF 15
ENDMDL
MODEL 3
REMARK VINA RESULT:     -10.4      4.397      9.607
REMARK SMILES COCC[C@H]1CCC[C@@]1([NH3+])C(=O)OCCOC(=O)c1ccc(-c2c3nc(c(-c4c(F)c(F)c(F)c(F)c4F)c4ccc([nH]4)c(-c4c(F)c(F)c(F)c(F)c4F)c4nc(c(-c5c(F)c(F)c(F)c(F)c5F)c5ccc2[nH]5)C=C4)C=C3)cc1
REMARK SMILES IDX 14 1 13 2 11 3 12 4 9 5 5 6 6 7 7 8 8 9 4 10 3 11 2 12 1 13
REMARK SMILES IDX 10 14 15 18 16 19 17 20 18 21 19 22 20 23 81 24 21 25 80 26
REMARK SMILES IDX 22 27 23 28 24 29 74 30 25 31 79 32 73 33 75 34 26 35 78 36
REMARK SMILES IDX 72 37 71 38 27 40 59 41 39 42 58 43 40 44 43 45 57 46 76 47
REMARK SMILES IDX 41 48 42 49 56 51 77 52 44 53 28 54 29 55 37 56 30 57 31 58
REMARK SMILES IDX 35 59 38 60 32 61 33 62 36 63 34 64 60 65 61 66 69 67 62 68
REMARK SMILES IDX 63 69 67 70 70 71 64 72 65 73 68 74 66 75 45 76 46 77 54 78
REMARK SMILES IDX 47 79 48 80 52 81 55 82 49 83 50 84 53 85 51 86
REMARK H PARENT 10 15 10 16 10 17 75 39 43 50
REMARK Flexibility Score: inf
ROOT
ATOM      1  C   UNL A   1      35.046  21.086  24.670  1.00  0.00     0.274 C 
ENDROOT
BRANCH   1   2
ATOM      2  O   UNL A   1      34.081  20.879  25.724  1.00  0.00    -0.457 OA
BRANCH   2   3
ATOM      3  C   UNL A   1      32.785  21.132  25.400  1.00  0.00     0.368 C 
ATOM      4  O   UNL A   1      32.149  20.524  24.542  1.00  0.00    -0.245 OA
BRANCH   3   5
ATOM      5  C   UNL A   1      32.214  22.386  26.104  1.00  0.00     0.195 C 
ATOM      6  C   UNL A   1      32.754  23.739  25.556  1.00  0.00     0.065 C 
ATOM      7  C   UNL A   1      31.863  24.749  26.300  1.00  0.00     0.011 C 
ATOM      8  C   UNL A   1      30.486  24.080  26.378  1.00  0.00     0.008 C 
ATOM      9  C   UNL A   1      30.699  22.597  26.037  1.00  0.00     0.081 C 
BRANCH   6  10
ATOM     10  C   UNL A   1      32.610  23.919  24.028  1.00  0.00     0.039 C 
BRANCH  10  11
ATOM     11  C   UNL A   1      33.891  24.300  23.270  1.00  0.00     0.160 C 
BRANCH  11  12
ATOM     12  O   UNL A   1      33.648  24.957  22.032  1.00  0.00    -0.385 OA
ATOM     13  C   UNL A   1      33.462  26.362  22.120  1.00  0.00     0.194 C 
ENDBRANCH  11  12
ENDBRANCH  10  11
ENDBRANCH   6  10
BRANCH   5  14
ATOM     14  N   UNL A   1      32.597  22.269  27.548  1.00  0.00    -0.343 N 
ATOM     15  H   UNL A   1      32.691  21.285  27.796  1.00  0.00     0.345 HD
ATOM     16  H   UNL A   1      31.874  22.699  28.126  1.00  0.00     0.345 HD
ATOM     17  H   UNL A   1      33.485  22.746  27.703  1.00  0.00     0.345 HD
ENDBRANCH   5  14
ENDBRANCH   3   5
ENDBRANCH   2   3
ENDBRANCH   1   2
BRANCH   1  18
ATOM     18  C   UNL A   1      36.399  20.478  25.024  1.00  0.00     0.275 C 
BRANCH  18  19
ATOM     19  O   UNL A   1      37.391  21.516  25.049  1.00  0.00    -0.458 OA
BRANCH  19  20
ATOM     20  C   UNL A   1      38.542  21.222  25.690  1.00  0.00     0.338 C 
ATOM     21  O   UNL A   1      39.118  20.141  25.694  1.00  0.00    -0.246 OA
BRANCH  20  22
ATOM     22  C   UNL A   1      39.076  22.419  26.377  1.00  0.00     0.060 A 
ATOM     23  C   UNL A   1      38.553  23.687  26.123  1.00  0.00     0.016 A 
ATOM     24  C   UNL A   1      40.212  22.297  27.181  1.00  0.00     0.016 A 
ATOM     25  C   UNL A   1      39.241  24.822  26.549  1.00  0.00     0.010 A 
ATOM     26  C   UNL A   1      40.840  23.439  27.693  1.00  0.00     0.010 A 
ATOM     27  C   UNL A   1      40.401  24.724  27.332  1.00  0.00    -0.014 A 
BRANCH  27  28
ATOM     28  C   UNL A   1      41.192  25.943  27.692  1.00  0.00     0.031 A 
ATOM     29  C   UNL A   1      40.603  26.990  28.610  1.00  0.00     0.074 A 
ATOM     30  C   UNL A   1      42.453  26.119  27.251  1.00  0.00     0.049 A 
ATOM     31  N   UNL A   1      41.006  28.217  28.837  1.00  0.00    -0.248 NA
ATOM     32  C   UNL A   1      39.389  26.618  29.354  1.00  0.00     0.031 C 
ATOM     33  C   UNL A   1      43.202  25.186  26.410  1.00  0.00     0.029 A 
ATOM     34  N   UNL A   1      43.341  27.148  27.469  1.00  0.00    -0.354 N 
ATOM     35  C   UNL A   1      40.049  28.787  29.670  1.00  0.00     0.074 A 
ATOM     36  C   UNL A   1      39.056  27.766  29.929  1.00  0.00     0.031 C 
ATOM     37  C   UNL A   1      44.453  25.643  26.248  1.00  0.00     0.029 A 
ATOM     38  C   UNL A   1      44.565  26.953  26.879  1.00  0.00     0.049 A 
ATOM     39  H   UNL A   1      43.119  27.948  27.999  1.00  0.00     0.167 HD
ATOM     40  C   UNL A   1      40.002  30.048  30.164  1.00  0.00     0.037 A 
ATOM     41  C   UNL A   1      45.648  27.751  26.814  1.00  0.00     0.037 A 
ATOM     42  C   UNL A   1      41.041  31.032  29.997  1.00  0.00     0.049 A 
ATOM     43  C   UNL A   1      45.594  29.127  27.413  1.00  0.00     0.074 A 
ATOM     44  C   UNL A   1      41.067  32.348  30.428  1.00  0.00     0.029 A 
ATOM     45  N   UNL A   1      42.262  30.788  29.390  1.00  0.00    -0.354 N 
ATOM     46  N   UNL A   1      44.615  29.712  28.055  1.00  0.00    -0.248 NA
ATOM     47  C   UNL A   1      46.789  29.967  27.245  1.00  0.00     0.031 C 
ATOM     48  C   UNL A   1      42.306  32.901  30.083  1.00  0.00     0.029 A 
ATOM     49  C   UNL A   1      43.059  31.921  29.460  1.00  0.00     0.049 A 
ATOM     50  H   UNL A   1      42.526  29.937  28.972  1.00  0.00     0.167 HD
ATOM     51  C   UNL A   1      45.068  30.986  28.359  1.00  0.00     0.074 A 
ATOM     52  C   UNL A   1      46.426  31.079  27.867  1.00  0.00     0.031 C 
ATOM     53  C   UNL A   1      44.408  31.999  28.971  1.00  0.00     0.037 A 
BRANCH  40  54
ATOM     54  C   UNL A   1      38.773  30.461  30.918  1.00  0.00     0.064 A 
ATOM     55  C   UNL A   1      38.714  30.432  32.318  1.00  0.00     0.173 A 
ATOM     56  C   UNL A   1      37.664  30.972  30.223  1.00  0.00     0.173 A 
ATOM     57  F   UNL A   1      39.741  29.941  33.026  1.00  0.00    -0.203 F 
ATOM     58  C   UNL A   1      37.586  30.891  32.995  1.00  0.00     0.198 A 
ATOM     59  C   UNL A   1      36.549  31.453  30.904  1.00  0.00     0.198 A 
ATOM     60  F   UNL A   1      37.674  31.032  28.883  1.00  0.00    -0.203 F 
ATOM     61  F   UNL A   1      37.540  30.831  34.333  1.00  0.00    -0.200 F 
ATOM     62  C   UNL A   1      36.509  31.409  32.289  1.00  0.00     0.200 A 
ATOM     63  F   UNL A   1      35.517  31.966  30.220  1.00  0.00    -0.200 F 
ATOM     64  F   UNL A   1      35.434  31.868  32.944  1.00  0.00    -0.200 F 
ENDBRANCH  40  54
BRANCH  41  65
ATOM     65  C   UNL A   1      46.871  27.283  26.112  1.00  0.00     0.064 A 
ATOM     66  C   UNL A   1      47.868  26.581  26.802  1.00  0.00     0.173 A 
ATOM     67  C   UNL A   1      47.069  27.530  24.745  1.00  0.00     0.173 A 
ATOM     68  F   UNL A   1      47.737  26.349  28.116  1.00  0.00    -0.203 F 
ATOM     69  C   UNL A   1      49.023  26.152  26.152  1.00  0.00     0.198 A 
ATOM     70  C   UNL A   1      48.210  27.073  24.091  1.00  0.00     0.198 A 
ATOM     71  F   UNL A   1      46.145  28.202  24.043  1.00  0.00    -0.203 F 
ATOM     72  F   UNL A   1      49.982  25.521  26.843  1.00  0.00    -0.200 F 
ATOM     73  C   UNL A   1      49.190  26.391  24.796  1.00  0.00     0.200 A 
ATOM     74  F   UNL A   1      48.360  27.295  22.778  1.00  0.00    -0.200 F 
ATOM     75  F   UNL A   1      50.297  25.971  24.171  1.00  0.00    -0.200 F 
ENDBRANCH  41  65
BRANCH  53  76
ATOM     76  C   UNL A   1      45.156  33.283  29.152  1.00  0.00     0.064 A 
ATOM     77  C   UNL A   1      45.935  33.516  30.295  1.00  0.00     0.173 A 
ATOM     78  C   UNL A   1      45.095  34.290  28.179  1.00  0.00     0.173 A 
ATOM     79  F   UNL A   1      46.011  32.588  31.261  1.00  0.00    -0.203 F 
ATOM     80  C   UNL A   1      46.601  34.726  30.471  1.00  0.00     0.198 A 
ATOM     81  C   UNL A   1      45.778  35.491  28.348  1.00  0.00     0.198 A 
ATOM     82  F   UNL A   1      44.364  34.112  27.067  1.00  0.00    -0.203 F 
ATOM     83  F   UNL A   1      47.301  34.947  31.592  1.00  0.00    -0.200 F 
ATOM     84  C   UNL A   1      46.524  35.711  29.497  1.00  0.00     0.200 A 
ATOM     85  F   UNL A   1      45.706  36.441  27.406  1.00  0.00    -0.200 F 
ATOM     86  F   UNL A   1      47.158  36.879  29.673  1.00  0.00    -0.200 F 
ENDBRANCH  53  76
ENDBRANCH  27  28
ENDBRANCH  20  22
ENDBRANCH  19  20
ENDBRANCH  18  19
ENDBRANCH   1  18
TORSDOF 15
ENDMDL
