MODEL 1
REMARK VINA RESULT:     -10.7      0.000      0.000
REMARK SMILES CC[NH2+][C@@]1(C(=O)OCCOC(=O)c2ccc(-c3c4nc(c(-c5c(F)c(F)c(F)c(F)c5F)c5ccc([nH]5)c(-c5c(F)c(F)c(F)c(F)c5F)c5nc(c(-c6c(F)c(F)c(F)c(F)c6F)c6ccc3[nH]6)C=C5)C=C4)cc2)CC[C@@H]([N@@H+](C)Cc2nccn2C)C1
REMARK SMILES IDX 8 1 7 2 5 3 6 4 4 5 76 6 88 7 77 8 78 9 3 10 2 13 1 14 79 15
REMARK SMILES IDX 80 16 81 18 82 19 83 20 86 21 84 22 85 23 87 24 9 25 10 26
REMARK SMILES IDX 11 27 12 28 13 29 14 30 75 31 15 32 74 33 16 34 17 35 18 36
REMARK SMILES IDX 68 37 19 38 73 39 67 40 69 41 20 42 72 43 66 44 65 45 21 47
REMARK SMILES IDX 53 48 33 49 52 50 34 51 37 52 51 53 70 54 35 55 36 56 50 58
REMARK SMILES IDX 71 59 38 60 22 61 23 62 31 63 24 64 25 65 29 66 32 67 26 68
REMARK SMILES IDX 27 69 30 70 28 71 54 72 55 73 63 74 56 75 57 76 61 77 64 78
REMARK SMILES IDX 58 79 59 80 62 81 60 82 39 83 40 84 48 85 41 86 42 87 46 88
REMARK SMILES IDX 49 89 43 90 44 91 47 92 45 93
REMARK H PARENT 3 11 3 12 79 17 69 46 37 57
REMARK Flexibility Score: inf
ROOT
ATOM      1  C   UNL A   1      31.785  28.681  27.228  1.00  0.00     0.274 C 
ENDROOT
BRANCH   1   2
ATOM      2  O   UNL A   1      32.525  27.497  26.869  1.00  0.00    -0.457 OA
BRANCH   2   3
ATOM      3  C   UNL A   1      31.770  26.483  26.356  1.00  0.00     0.368 C 
ATOM      4  O   UNL A   1      30.648  26.210  26.772  1.00  0.00    -0.245 OA
BRANCH   3   5
ATOM      5  C   UNL A   1      32.518  25.677  25.243  1.00  0.00     0.200 C 
ATOM      6  C   UNL A   1      31.773  24.369  24.971  1.00  0.00     0.087 C 
ATOM      7  C   UNL A   1      33.932  25.218  25.660  1.00  0.00     0.146 C 
ATOM      8  C   UNL A   1      32.347  23.360  25.956  1.00  0.00     0.072 C 
ATOM      9  C   UNL A   1      33.795  23.796  26.241  1.00  0.00     0.191 C 
BRANCH   5  10
ATOM     10  N   UNL A   1      32.665  26.548  24.043  1.00  0.00    -0.332 N 
ATOM     11  H   UNL A   1      33.273  27.327  24.296  1.00  0.00     0.347 HD
ATOM     12  H   UNL A   1      33.040  25.945  23.311  1.00  0.00     0.347 HD
BRANCH  10  13
ATOM     13  C   UNL A   1      31.430  27.106  23.499  1.00  0.00     0.257 C 
ATOM     14  C   UNL A   1      31.403  26.831  22.003  1.00  0.00     0.071 C 
ENDBRANCH  10  13
ENDBRANCH   5  10
BRANCH   9  15
ATOM     15  N   UNL A   1      34.892  22.873  25.901  1.00  0.00    -0.328 N 
ATOM     16  C   UNL A   1      34.407  21.596  25.373  1.00  0.00     0.333 C 
ATOM     17  H   UNL A   1      35.304  22.741  26.825  1.00  0.00     0.348 HD
BRANCH  15  18
ATOM     18  C   UNL A   1      36.052  23.372  25.136  1.00  0.00     0.338 C 
BRANCH  18  19
ATOM     19  C   UNL A   1      37.408  23.162  25.749  1.00  0.00     0.164 A 
ATOM     20  N   UNL A   1      38.091  24.079  26.416  1.00  0.00    -0.236 NA
ATOM     21  N   UNL A   1      38.143  21.997  25.679  1.00  0.00    -0.333 N 
ATOM     22  C   UNL A   1      39.231  23.470  26.860  1.00  0.00     0.131 A 
ATOM     23  C   UNL A   1      39.278  22.170  26.428  1.00  0.00     0.107 A 
ATOM     24  C   UNL A   1      37.831  20.764  24.999  1.00  0.00     0.151 C 
ENDBRANCH  18  19
ENDBRANCH  15  18
ENDBRANCH   9  15
ENDBRANCH   3   5
ENDBRANCH   2   3
ENDBRANCH   1   2
BRANCH   1  25
ATOM     25  C   UNL A   1      31.941  29.804  26.196  1.00  0.00     0.275 C 
BRANCH  25  26
ATOM     26  O   UNL A   1      33.287  30.311  26.137  1.00  0.00    -0.458 OA
BRANCH  26  27
ATOM     27  C   UNL A   1      33.579  31.264  27.053  1.00  0.00     0.338 C 
ATOM     28  O   UNL A   1      32.859  32.193  27.396  1.00  0.00    -0.246 OA
BRANCH  27  29
ATOM     29  C   UNL A   1      34.865  30.977  27.719  1.00  0.00     0.060 A 
ATOM     30  C   UNL A   1      35.102  29.661  28.129  1.00  0.00     0.016 A 
ATOM     31  C   UNL A   1      35.802  31.975  27.998  1.00  0.00     0.016 A 
ATOM     32  C   UNL A   1      36.276  29.329  28.799  1.00  0.00     0.010 A 
ATOM     33  C   UNL A   1      36.968  31.649  28.703  1.00  0.00     0.010 A 
ATOM     34  C   UNL A   1      37.207  30.325  29.111  1.00  0.00    -0.014 A 
BRANCH  34  35
ATOM     35  C   UNL A   1      38.358  29.990  29.983  1.00  0.00     0.031 A 
ATOM     36  C   UNL A   1      39.436  29.096  29.447  1.00  0.00     0.074 A 
ATOM     37  C   UNL A   1      38.465  30.512  31.216  1.00  0.00     0.049 A 
ATOM     38  N   UNL A   1      40.525  28.664  30.031  1.00  0.00    -0.248 NA
ATOM     39  C   UNL A   1      39.265  28.630  28.063  1.00  0.00     0.031 C 
ATOM     40  C   UNL A   1      37.518  31.442  31.822  1.00  0.00     0.029 A 
ATOM     41  N   UNL A   1      39.428  30.333  32.179  1.00  0.00    -0.354 N 
ATOM     42  C   UNL A   1      41.168  27.874  29.088  1.00  0.00     0.074 A 
ATOM     43  C   UNL A   1      40.340  27.876  27.900  1.00  0.00     0.031 C 
ATOM     44  C   UNL A   1      37.949  31.762  33.054  1.00  0.00     0.029 A 
ATOM     45  C   UNL A   1      39.177  31.021  33.340  1.00  0.00     0.049 A 
ATOM     46  H   UNL A   1      40.223  29.767  32.049  1.00  0.00     0.167 HD
ATOM     47  C   UNL A   1      42.338  27.201  29.205  1.00  0.00     0.037 A 
ATOM     48  C   UNL A   1      39.851  31.028  34.507  1.00  0.00     0.037 A 
ATOM     49  C   UNL A   1      43.141  27.171  30.400  1.00  0.00     0.049 A 
ATOM     50  C   UNL A   1      41.094  30.185  34.649  1.00  0.00     0.074 A 
ATOM     51  C   UNL A   1      44.330  26.502  30.624  1.00  0.00     0.029 A 
ATOM     52  N   UNL A   1      42.821  27.827  31.581  1.00  0.00    -0.354 N 
ATOM     53  N   UNL A   1      41.702  29.445  33.753  1.00  0.00    -0.248 NA
ATOM     54  C   UNL A   1      41.738  30.173  35.970  1.00  0.00     0.031 C 
ATOM     55  C   UNL A   1      44.700  26.705  31.959  1.00  0.00     0.029 A 
ATOM     56  C   UNL A   1      43.776  27.552  32.548  1.00  0.00     0.049 A 
ATOM     57  H   UNL A   1      42.032  28.401  31.712  1.00  0.00     0.167 HD
ATOM     58  C   UNL A   1      42.814  28.907  34.390  1.00  0.00     0.074 A 
ATOM     59  C   UNL A   1      42.801  29.413  35.747  1.00  0.00     0.031 C 
ATOM     60  C   UNL A   1      43.760  28.072  33.893  1.00  0.00     0.037 A 
BRANCH  47  61
ATOM     61  C   UNL A   1      42.774  26.389  28.022  1.00  0.00     0.064 A 
ATOM     62  C   UNL A   1      42.422  25.038  27.880  1.00  0.00     0.173 A 
ATOM     63  C   UNL A   1      43.573  26.967  27.024  1.00  0.00     0.173 A 
ATOM     64  F   UNL A   1      41.674  24.433  28.816  1.00  0.00    -0.203 F 
ATOM     65  C   UNL A   1      42.890  24.285  26.806  1.00  0.00     0.198 A 
ATOM     66  C   UNL A   1      44.014  26.220  25.936  1.00  0.00     0.198 A 
ATOM     67  F   UNL A   1      43.935  28.256  27.110  1.00  0.00    -0.203 F 
ATOM     68  F   UNL A   1      42.596  22.980  26.725  1.00  0.00    -0.200 F 
ATOM     69  C   UNL A   1      43.683  24.878  25.833  1.00  0.00     0.200 A 
ATOM     70  F   UNL A   1      44.770  26.797  24.992  1.00  0.00    -0.200 F 
ATOM     71  F   UNL A   1      44.138  24.151  24.804  1.00  0.00    -0.200 F 
ENDBRANCH  47  61
BRANCH  48  72
ATOM     72  C   UNL A   1      39.361  31.848  35.647  1.00  0.00     0.064 A 
ATOM     73  C   UNL A   1      38.439  31.328  36.566  1.00  0.00     0.173 A 
ATOM     74  C   UNL A   1      39.784  33.173  35.826  1.00  0.00     0.173 A 
ATOM     75  F   UNL A   1      37.981  30.077  36.419  1.00  0.00    -0.203 F 
ATOM     76  C   UNL A   1      37.949  32.107  37.612  1.00  0.00     0.198 A 
ATOM     77  C   UNL A   1      39.315  33.942  36.890  1.00  0.00     0.198 A 
ATOM     78  F   UNL A   1      40.659  33.722  34.969  1.00  0.00    -0.203 F 
ATOM     79  F   UNL A   1      37.034  31.600  38.449  1.00  0.00    -0.200 F 
ATOM     80  C   UNL A   1      38.394  33.411  37.778  1.00  0.00     0.200 A 
ATOM     81  F   UNL A   1      39.754  35.198  37.051  1.00  0.00    -0.200 F 
ATOM     82  F   UNL A   1      37.924  34.158  38.786  1.00  0.00    -0.200 F 
ENDBRANCH  48  72
BRANCH  60  83
ATOM     83  C   UNL A   1      44.894  27.688  34.803  1.00  0.00     0.064 A 
ATOM     84  C   UNL A   1      44.851  26.531  35.595  1.00  0.00     0.173 A 
ATOM     85  C   UNL A   1      46.060  28.467  34.843  1.00  0.00     0.173 A 
ATOM     86  F   UNL A   1      43.754  25.760  35.605  1.00  0.00    -0.203 F 
ATOM     87  C   UNL A   1      45.925  26.183  36.412  1.00  0.00     0.198 A 
ATOM     88  C   UNL A   1      47.143  28.099  35.636  1.00  0.00     0.198 A 
ATOM     89  F   UNL A   1      46.156  29.580  34.100  1.00  0.00    -0.203 F 
ATOM     90  F   UNL A   1      45.844  25.099  37.196  1.00  0.00    -0.200 F 
ATOM     91  C   UNL A   1      47.073  26.962  36.425  1.00  0.00     0.200 A 
ATOM     92  F   UNL A   1      48.257  28.845  35.636  1.00  0.00    -0.200 F 
ATOM     93  F   UNL A   1      48.109  26.619  37.204  1.00  0.00    -0.200 F 
ENDBRANCH  60  83
ENDBRANCH  34  35
ENDBRANCH  27  29
ENDBRANCH  26  27
ENDBRANCH  25  26
ENDBRANCH   1  25
TORSDOF 16
ENDMDL
MODEL 2
REMARK VINA RESULT:     -10.7      5.007      9.780
REMARK SMILES CC[NH2+][C@@]1(C(=O)OCCOC(=O)c2ccc(-c3c4nc(c(-c5c(F)c(F)c(F)c(F)c5F)c5ccc([nH]5)c(-c5c(F)c(F)c(F)c(F)c5F)c5nc(c(-c6c(F)c(F)c(F)c(F)c6F)c6ccc3[nH]6)C=C5)C=C4)cc2)CC[C@@H]([N@@H+](C)Cc2nccn2C)C1
REMARK SMILES IDX 8 1 7 2 5 3 6 4 4 5 76 6 88 7 77 8 78 9 3 10 2 13 1 14 79 15
REMARK SMILES IDX 80 16 81 18 82 19 83 20 86 21 84 22 85 23 87 24 9 25 10 26
REMARK SMILES IDX 11 27 12 28 13 29 14 30 75 31 15 32 74 33 16 34 17 35 18 36
REMARK SMILES IDX 68 37 19 38 73 39 67 40 69 41 20 42 72 43 66 44 65 45 21 47
REMARK SMILES IDX 53 48 33 49 52 50 34 51 37 52 51 53 70 54 35 55 36 56 50 58
REMARK SMILES IDX 71 59 38 60 22 61 23 62 31 63 24 64 25 65 29 66 32 67 26 68
REMARK SMILES IDX 27 69 30 70 28 71 54 72 55 73 63 74 56 75 57 76 61 77 64 78
REMARK SMILES IDX 58 79 59 80 62 81 60 82 39 83 40 84 48 85 41 86 42 87 46 88
REMARK SMILES IDX 49 89 43 90 44 91 47 92 45 93
REMARK H PARENT 3 11 3 12 79 17 69 46 37 57
REMARK Flexibility Score: inf
ROOT
ATOM      1  C   UNL A   1      38.830  21.613  25.758  1.00  0.00     0.274 C 
ENDROOT
BRANCH   1   2
ATOM      2  O   UNL A   1      37.430  21.832  25.494  1.00  0.00    -0.457 OA
BRANCH   2   3
ATOM      3  C   UNL A   1      36.974  23.077  25.818  1.00  0.00     0.368 C 
ATOM      4  O   UNL A   1      37.695  23.950  26.293  1.00  0.00    -0.245 OA
BRANCH   3   5
ATOM      5  C   UNL A   1      35.435  23.235  25.585  1.00  0.00     0.200 C 
ATOM      6  C   UNL A   1      34.700  23.119  26.922  1.00  0.00     0.087 C 
ATOM      7  C   UNL A   1      34.823  22.107  24.726  1.00  0.00     0.146 C 
ATOM      8  C   UNL A   1      34.424  21.633  27.107  1.00  0.00     0.072 C 
ATOM      9  C   UNL A   1      34.306  21.027  25.698  1.00  0.00     0.191 C 
BRANCH   5  10
ATOM     10  N   UNL A   1      35.192  24.522  24.874  1.00  0.00    -0.332 N 
ATOM     11  H   UNL A   1      35.971  25.147  25.085  1.00  0.00     0.347 HD
ATOM     12  H   UNL A   1      35.107  24.279  23.887  1.00  0.00     0.347 HD
BRANCH  10  13
ATOM     13  C   UNL A   1      33.955  25.221  25.214  1.00  0.00     0.257 C 
ATOM     14  C   UNL A   1      33.727  26.312  24.180  1.00  0.00     0.071 C 
ENDBRANCH  10  13
ENDBRANCH   5  10
BRANCH   9  15
ATOM     15  N   UNL A   1      33.038  20.388  25.306  1.00  0.00    -0.328 N 
ATOM     16  C   UNL A   1      31.967  21.361  25.077  1.00  0.00     0.333 C 
ATOM     17  H   UNL A   1      32.847  19.842  26.147  1.00  0.00     0.348 HD
BRANCH  15  18
ATOM     18  C   UNL A   1      33.043  19.333  24.273  1.00  0.00     0.338 C 
BRANCH  18  19
ATOM     19  C   UNL A   1      32.968  17.912  24.754  1.00  0.00     0.164 A 
ATOM     20  N   UNL A   1      32.393  17.520  25.880  1.00  0.00    -0.236 NA
ATOM     21  N   UNL A   1      33.510  16.821  24.107  1.00  0.00    -0.333 N 
ATOM     22  C   UNL A   1      32.483  16.157  25.910  1.00  0.00     0.131 A 
ATOM     23  C   UNL A   1      33.159  15.698  24.811  1.00  0.00     0.107 A 
ATOM     24  C   UNL A   1      34.282  16.777  22.890  1.00  0.00     0.151 C 
ENDBRANCH  18  19
ENDBRANCH  15  18
ENDBRANCH   9  15
ENDBRANCH   3   5
ENDBRANCH   2   3
ENDBRANCH   1   2
BRANCH   1  25
ATOM     25  C   UNL A   1      39.260  20.169  25.478  1.00  0.00     0.275 C 
BRANCH  25  26
ATOM     26  O   UNL A   1      40.121  19.644  26.506  1.00  0.00    -0.458 OA
BRANCH  26  27
ATOM     27  C   UNL A   1      41.432  19.582  26.176  1.00  0.00     0.338 C 
ATOM     28  O   UNL A   1      41.996  18.661  25.598  1.00  0.00    -0.246 OA
BRANCH  27  29
ATOM     29  C   UNL A   1      42.114  20.853  26.486  1.00  0.00     0.060 A 
ATOM     30  C   UNL A   1      42.168  21.248  27.826  1.00  0.00     0.016 A 
ATOM     31  C   UNL A   1      42.639  21.683  25.492  1.00  0.00     0.016 A 
ATOM     32  C   UNL A   1      42.760  22.456  28.186  1.00  0.00     0.010 A 
ATOM     33  C   UNL A   1      43.204  22.914  25.848  1.00  0.00     0.010 A 
ATOM     34  C   UNL A   1      43.262  23.308  27.196  1.00  0.00    -0.014 A 
BRANCH  34  35
ATOM     35  C   UNL A   1      43.718  24.666  27.577  1.00  0.00     0.031 A 
ATOM     36  C   UNL A   1      42.695  25.696  27.953  1.00  0.00     0.074 A 
ATOM     37  C   UNL A   1      45.027  24.963  27.635  1.00  0.00     0.049 A 
ATOM     38  N   UNL A   1      42.862  26.943  28.311  1.00  0.00    -0.248 NA
ATOM     39  C   UNL A   1      41.292  25.255  27.927  1.00  0.00     0.031 C 
ATOM     40  C   UNL A   1      46.116  24.032  27.358  1.00  0.00     0.029 A 
ATOM     41  N   UNL A   1      45.660  26.140  27.952  1.00  0.00    -0.354 N 
ATOM     42  C   UNL A   1      41.587  27.439  28.549  1.00  0.00     0.074 A 
ATOM     43  C   UNL A   1      40.658  26.362  28.283  1.00  0.00     0.031 C 
ATOM     44  C   UNL A   1      47.287  24.669  27.524  1.00  0.00     0.029 A 
ATOM     45  C   UNL A   1      47.029  26.066  27.873  1.00  0.00     0.049 A 
ATOM     46  H   UNL A   1      45.179  26.959  28.212  1.00  0.00     0.167 HD
ATOM     47  C   UNL A   1      41.225  28.682  28.946  1.00  0.00     0.037 A 
ATOM     48  C   UNL A   1      47.960  27.024  28.039  1.00  0.00     0.037 A 
ATOM     49  C   UNL A   1      42.149  29.763  29.175  1.00  0.00     0.049 A 
ATOM     50  C   UNL A   1      47.525  28.429  28.376  1.00  0.00     0.074 A 
ATOM     51  C   UNL A   1      41.879  31.064  29.558  1.00  0.00     0.029 A 
ATOM     52  N   UNL A   1      43.525  29.669  29.020  1.00  0.00    -0.354 N 
ATOM     53  N   UNL A   1      46.321  28.891  28.607  1.00  0.00    -0.248 NA
ATOM     54  C   UNL A   1      48.583  29.445  28.465  1.00  0.00     0.031 C 
ATOM     55  C   UNL A   1      43.085  31.773  29.578  1.00  0.00     0.029 A 
ATOM     56  C   UNL A   1      44.115  30.899  29.270  1.00  0.00     0.049 A 
ATOM     57  H   UNL A   1      44.011  28.851  28.769  1.00  0.00     0.167 HD
ATOM     58  C   UNL A   1      46.478  30.241  28.900  1.00  0.00     0.074 A 
ATOM     59  C   UNL A   1      47.896  30.521  28.825  1.00  0.00     0.031 C 
ATOM     60  C   UNL A   1      45.531  31.163  29.205  1.00  0.00     0.037 A 
BRANCH  47  61
ATOM     61  C   UNL A   1      39.756  28.947  29.089  1.00  0.00     0.064 A 
ATOM     62  C   UNL A   1      39.089  28.785  30.313  1.00  0.00     0.173 A 
ATOM     63  C   UNL A   1      39.000  29.350  27.978  1.00  0.00     0.173 A 
ATOM     64  F   UNL A   1      39.764  28.384  31.402  1.00  0.00    -0.203 F 
ATOM     65  C   UNL A   1      37.713  28.976  30.409  1.00  0.00     0.198 A 
ATOM     66  C   UNL A   1      37.629  29.569  28.085  1.00  0.00     0.198 A 
ATOM     67  F   UNL A   1      39.589  29.522  26.785  1.00  0.00    -0.203 F 
ATOM     68  F   UNL A   1      37.086  28.752  31.572  1.00  0.00    -0.200 F 
ATOM     69  C   UNL A   1      36.985  29.371  29.296  1.00  0.00     0.200 A 
ATOM     70  F   UNL A   1      36.930  29.961  27.011  1.00  0.00    -0.200 F 
ATOM     71  F   UNL A   1      35.660  29.546  29.388  1.00  0.00    -0.200 F 
ENDBRANCH  47  61
BRANCH  48  72
ATOM     72  C   UNL A   1      49.403  26.699  27.875  1.00  0.00     0.064 A 
ATOM     73  C   UNL A   1      49.989  26.641  26.603  1.00  0.00     0.173 A 
ATOM     74  C   UNL A   1      50.216  26.417  28.982  1.00  0.00     0.173 A 
ATOM     75  F   UNL A   1      49.245  26.873  25.512  1.00  0.00    -0.203 F 
ATOM     76  C   UNL A   1      51.331  26.299  26.445  1.00  0.00     0.198 A 
ATOM     77  C   UNL A   1      51.565  26.104  28.824  1.00  0.00     0.198 A 
ATOM     78  F   UNL A   1      49.703  26.450  30.221  1.00  0.00    -0.203 F 
ATOM     79  F   UNL A   1      51.854  26.206  25.215  1.00  0.00    -0.200 F 
ATOM     80  C   UNL A   1      52.120  26.038  27.555  1.00  0.00     0.200 A 
ATOM     81  F   UNL A   1      52.326  25.860  29.901  1.00  0.00    -0.200 F 
ATOM     82  F   UNL A   1      53.410  25.713  27.401  1.00  0.00    -0.200 F 
ENDBRANCH  48  72
BRANCH  60  83
ATOM     83  C   UNL A   1      45.997  32.554  29.533  1.00  0.00     0.064 A 
ATOM     84  C   UNL A   1      46.099  33.554  28.554  1.00  0.00     0.173 A 
ATOM     85  C   UNL A   1      46.299  32.902  30.859  1.00  0.00     0.173 A 
ATOM     86  F   UNL A   1      45.837  33.270  27.270  1.00  0.00    -0.203 F 
ATOM     87  C   UNL A   1      46.510  34.843  28.887  1.00  0.00     0.198 A 
ATOM     88  C   UNL A   1      46.678  34.200  31.193  1.00  0.00     0.198 A 
ATOM     89  F   UNL A   1      46.210  31.987  31.836  1.00  0.00    -0.203 F 
ATOM     90  F   UNL A   1      46.646  35.769  27.928  1.00  0.00    -0.200 F 
ATOM     91  C   UNL A   1      46.790  35.167  30.207  1.00  0.00     0.200 A 
ATOM     92  F   UNL A   1      46.934  34.514  32.470  1.00  0.00    -0.200 F 
ATOM     93  F   UNL A   1      47.175  36.411  30.526  1.00  0.00    -0.200 F 
ENDBRANCH  60  83
ENDBRANCH  34  35
ENDBRANCH  27  29
ENDBRANCH  26  27
ENDBRANCH  25  26
ENDBRANCH   1  25
TORSDOF 16
ENDMDL
MODEL 3
REMARK VINA RESULT:     -10.6      1.323      7.657
REMARK SMILES CC[NH2+][C@@]1(C(=O)OCCOC(=O)c2ccc(-c3c4nc(c(-c5c(F)c(F)c(F)c(F)c5F)c5ccc([nH]5)c(-c5c(F)c(F)c(F)c(F)c5F)c5nc(c(-c6c(F)c(F)c(F)c(F)c6F)c6ccc3[nH]6)C=C5)C=C4)cc2)CC[C@@H]([N@@H+](C)Cc2nccn2C)C1
REMARK SMILES IDX 8 1 7 2 5 3 6 4 4 5 76 6 88 7 77 8 78 9 3 10 2 13 1 14 79 15
REMARK SMILES IDX 80 16 81 18 82 19 83 20 86 21 84 22 85 23 87 24 9 25 10 26
REMARK SMILES IDX 11 27 12 28 13 29 14 30 75 31 15 32 74 33 16 34 17 35 18 36
REMARK SMILES IDX 68 37 19 38 73 39 67 40 69 41 20 42 72 43 66 44 65 45 21 47
REMARK SMILES IDX 53 48 33 49 52 50 34 51 37 52 51 53 70 54 35 55 36 56 50 58
REMARK SMILES IDX 71 59 38 60 22 61 23 62 31 63 24 64 25 65 29 66 32 67 26 68
REMARK SMILES IDX 27 69 30 70 28 71 54 72 55 73 63 74 56 75 57 76 61 77 64 78
REMARK SMILES IDX 58 79 59 80 62 81 60 82 39 83 40 84 48 85 41 86 42 87 46 88
REMARK SMILES IDX 49 89 43 90 44 91 47 92 45 93
REMARK H PARENT 3 11 3 12 79 17 69 46 37 57
REMARK Flexibility Score: inf
ROOT
ATOM      1  C   UNL A   1      31.796  28.705  27.395  1.00  0.00     0.274 C 
ENDROOT
BRANCH   1   2
ATOM      2  O   UNL A   1      32.128  27.752  26.366  1.00  0.00    -0.457 OA
BRANCH   2   3
ATOM      3  C   UNL A   1      31.112  26.911  26.015  1.00  0.00     0.368 C 
ATOM      4  O   UNL A   1      30.558  26.163  26.814  1.00  0.00    -0.245 OA
BRANCH   3   5
ATOM      5  C   UNL A   1      30.791  26.960  24.484  1.00  0.00     0.200 C 
ATOM      6  C   UNL A   1      29.685  25.953  24.161  1.00  0.00     0.087 C 
ATOM      7  C   UNL A   1      31.970  26.515  23.592  1.00  0.00     0.146 C 
ATOM      8  C   UNL A   1      30.401  24.641  23.872  1.00  0.00     0.072 C 
ATOM      9  C   UNL A   1      31.790  25.008  23.321  1.00  0.00     0.191 C 
BRANCH   5  10
ATOM     10  N   UNL A   1      30.453  28.364  24.114  1.00  0.00    -0.332 N 
ATOM     11  H   UNL A   1      29.472  28.385  23.835  1.00  0.00     0.347 HD
ATOM     12  H   UNL A   1      30.666  28.924  24.940  1.00  0.00     0.347 HD
BRANCH  10  13
ATOM     13  C   UNL A   1      31.238  28.949  23.030  1.00  0.00     0.257 C 
ATOM     14  C   UNL A   1      30.276  29.554  22.020  1.00  0.00     0.071 C 
ENDBRANCH  10  13
ENDBRANCH   5  10
BRANCH   9  15
ATOM     15  N   UNL A   1      32.151  24.568  21.962  1.00  0.00    -0.328 N 
ATOM     16  C   UNL A   1      32.523  25.686  21.092  1.00  0.00     0.333 C 
ATOM     17  H   UNL A   1      31.262  24.167  21.664  1.00  0.00     0.348 HD
BRANCH  15  18
ATOM     18  C   UNL A   1      33.060  23.418  21.787  1.00  0.00     0.338 C 
BRANCH  18  19
ATOM     19  C   UNL A   1      33.994  23.112  22.924  1.00  0.00     0.164 A 
ATOM     20  N   UNL A   1      35.145  23.725  23.149  1.00  0.00    -0.236 NA
ATOM     21  N   UNL A   1      33.796  22.133  23.876  1.00  0.00    -0.333 N 
ATOM     22  C   UNL A   1      35.645  23.201  24.308  1.00  0.00     0.131 A 
ATOM     23  C   UNL A   1      34.816  22.221  24.787  1.00  0.00     0.107 A 
ATOM     24  C   UNL A   1      32.721  21.178  23.989  1.00  0.00     0.151 C 
ENDBRANCH  18  19
ENDBRANCH  15  18
ENDBRANCH   9  15
ENDBRANCH   3   5
ENDBRANCH   2   3
ENDBRANCH   1   2
BRANCH   1  25
ATOM     25  C   UNL A   1      31.813  30.149  26.883  1.00  0.00     0.275 C 
BRANCH  25  26
ATOM     26  O   UNL A   1      33.134  30.583  26.508  1.00  0.00    -0.458 OA
BRANCH  26  27
ATOM     27  C   UNL A   1      33.662  31.551  27.293  1.00  0.00     0.338 C 
ATOM     28  O   UNL A   1      33.121  32.600  27.620  1.00  0.00    -0.246 OA
BRANCH  27  29
ATOM     29  C   UNL A   1      34.966  31.133  27.840  1.00  0.00     0.060 A 
ATOM     30  C   UNL A   1      35.109  29.796  28.222  1.00  0.00     0.016 A 
ATOM     31  C   UNL A   1      36.017  32.032  28.040  1.00  0.00     0.016 A 
ATOM     32  C   UNL A   1      36.299  29.342  28.784  1.00  0.00     0.010 A 
ATOM     33  C   UNL A   1      37.203  31.585  28.637  1.00  0.00     0.010 A 
ATOM     34  C   UNL A   1      37.347  30.240  29.017  1.00  0.00    -0.014 A 
BRANCH  34  35
ATOM     35  C   UNL A   1      38.531  29.783  29.783  1.00  0.00     0.031 A 
ATOM     36  C   UNL A   1      38.744  30.309  31.171  1.00  0.00     0.074 A 
ATOM     37  C   UNL A   1      39.378  28.876  29.268  1.00  0.00     0.049 A 
ATOM     38  N   UNL A   1      39.709  30.057  32.018  1.00  0.00    -0.248 NA
ATOM     39  C   UNL A   1      37.726  31.243  31.673  1.00  0.00     0.031 C 
ATOM     40  C   UNL A   1      39.242  28.243  27.960  1.00  0.00     0.029 A 
ATOM     41  N   UNL A   1      40.523  28.328  29.792  1.00  0.00    -0.354 N 
ATOM     42  C   UNL A   1      39.418  30.802  33.151  1.00  0.00     0.074 A 
ATOM     43  C   UNL A   1      38.193  31.526  32.879  1.00  0.00     0.031 C 
ATOM     44  C   UNL A   1      40.260  27.385  27.783  1.00  0.00     0.029 A 
ATOM     45  C   UNL A   1      41.145  27.443  28.946  1.00  0.00     0.049 A 
ATOM     46  H   UNL A   1      40.865  28.547  30.689  1.00  0.00     0.167 HD
ATOM     47  C   UNL A   1      40.112  30.882  34.311  1.00  0.00     0.037 A 
ATOM     48  C   UNL A   1      42.308  26.780  29.089  1.00  0.00     0.037 A 
ATOM     49  C   UNL A   1      41.349  30.190  34.567  1.00  0.00     0.049 A 
ATOM     50  C   UNL A   1      43.120  26.969  30.347  1.00  0.00     0.074 A 
ATOM     51  C   UNL A   1      42.139  30.223  35.701  1.00  0.00     0.029 A 
ATOM     52  N   UNL A   1      41.986  29.353  33.660  1.00  0.00    -0.354 N 
ATOM     53  N   UNL A   1      42.837  27.668  31.419  1.00  0.00    -0.248 NA
ATOM     54  C   UNL A   1      44.416  26.279  30.407  1.00  0.00     0.031 C 
ATOM     55  C   UNL A   1      43.283  29.453  35.460  1.00  0.00     0.029 A 
ATOM     56  C   UNL A   1      43.175  28.888  34.200  1.00  0.00     0.049 A 
ATOM     57  H   UNL A   1      41.643  29.125  32.766  1.00  0.00     0.167 HD
ATOM     58  C   UNL A   1      43.902  27.479  32.291  1.00  0.00     0.074 A 
ATOM     59  C   UNL A   1      44.833  26.592  31.627  1.00  0.00     0.031 C 
ATOM     60  C   UNL A   1      44.089  27.994  33.532  1.00  0.00     0.037 A 
BRANCH  47  61
ATOM     61  C   UNL A   1      39.574  31.808  35.362  1.00  0.00     0.064 A 
ATOM     62  C   UNL A   1      39.999  33.142  35.461  1.00  0.00     0.173 A 
ATOM     63  C   UNL A   1      38.633  31.347  36.295  1.00  0.00     0.173 A 
ATOM     64  F   UNL A   1      40.911  33.627  34.604  1.00  0.00    -0.203 F 
ATOM     65  C   UNL A   1      39.533  33.967  36.482  1.00  0.00     0.198 A 
ATOM     66  C   UNL A   1      38.147  32.184  37.295  1.00  0.00     0.198 A 
ATOM     67  F   UNL A   1      38.192  30.082  36.242  1.00  0.00    -0.203 F 
ATOM     68  F   UNL A   1      40.001  35.217  36.598  1.00  0.00    -0.200 F 
ATOM     69  C   UNL A   1      38.605  33.488  37.396  1.00  0.00     0.200 A 
ATOM     70  F   UNL A   1      37.243  31.723  38.170  1.00  0.00    -0.200 F 
ATOM     71  F   UNL A   1      38.164  34.280  38.382  1.00  0.00    -0.200 F 
ENDBRANCH  47  61
BRANCH  48  72
ATOM     72  C   UNL A   1      42.793  25.882  28.006  1.00  0.00     0.064 A 
ATOM     73  C   UNL A   1      43.589  26.374  26.963  1.00  0.00     0.173 A 
ATOM     74  C   UNL A   1      42.449  24.522  27.979  1.00  0.00     0.173 A 
ATOM     75  F   UNL A   1      43.919  27.674  26.929  1.00  0.00    -0.203 F 
ATOM     76  C   UNL A   1      44.012  25.544  25.927  1.00  0.00     0.198 A 
ATOM     77  C   UNL A   1      42.897  23.687  26.957  1.00  0.00     0.198 A 
ATOM     78  F   UNL A   1      41.682  24.002  28.948  1.00  0.00    -0.203 F 
ATOM     79  F   UNL A   1      44.734  26.051  24.918  1.00  0.00    -0.200 F 
ATOM     80  C   UNL A   1      43.673  24.199  25.929  1.00  0.00     0.200 A 
ATOM     81  F   UNL A   1      42.573  22.386  26.967  1.00  0.00    -0.200 F 
ATOM     82  F   UNL A   1      44.082  23.401  24.933  1.00  0.00    -0.200 F 
ENDBRANCH  48  72
BRANCH  60  83
ATOM     83  C   UNL A   1      45.323  27.573  34.280  1.00  0.00     0.064 A 
ATOM     84  C   UNL A   1      45.348  26.422  35.083  1.00  0.00     0.173 A 
ATOM     85  C   UNL A   1      46.512  28.307  34.151  1.00  0.00     0.173 A 
ATOM     86  F   UNL A   1      44.235  25.693  35.253  1.00  0.00    -0.203 F 
ATOM     87  C   UNL A   1      46.511  26.038  35.747  1.00  0.00     0.198 A 
ATOM     88  C   UNL A   1      47.680  27.902  34.790  1.00  0.00     0.198 A 
ATOM     89  F   UNL A   1      46.545  29.412  33.389  1.00  0.00    -0.203 F 
ATOM     90  F   UNL A   1      46.500  24.962  36.546  1.00  0.00    -0.200 F 
ATOM     91  C   UNL A   1      47.678  26.773  35.593  1.00  0.00     0.200 A 
ATOM     92  F   UNL A   1      48.810  28.606  34.627  1.00  0.00    -0.200 F 
ATOM     93  F   UNL A   1      48.798  26.395  36.224  1.00  0.00    -0.200 F 
ENDBRANCH  60  83
ENDBRANCH  34  35
ENDBRANCH  27  29
ENDBRANCH  26  27
ENDBRANCH  25  26
ENDBRANCH   1  25
TORSDOF 16
ENDMDL
