MODEL 1
REMARK VINA RESULT:     -12.7      0.000      0.000
REMARK SMILES C[C@@H](C(=O)OCCOC(=O)c1ccc(-c2c3nc(c(-c4c(F)c(F)c(F)c(F)c4F)c4ccc([nH]4)c(-c4c(F)c(F)c(F)c(F)c4F)c4nc(c(-c5c(F)c(F)c(F)c(F)c5F)c5ccc2[nH]5)C=C4)C=C3)cc1)c1cc(/C=C/S(C)(=O)=O)cc(C(=O)c2ccccc2)c1
REMARK SMILES IDX 6 1 5 2 3 3 4 4 2 5 1 6 74 7 75 8 93 9 76 10 84 11 83 12
REMARK SMILES IDX 77 13 78 14 79 15 80 16 81 17 82 18 85 19 86 20 87 21 88 22
REMARK SMILES IDX 92 23 89 24 91 25 90 26 7 27 8 28 9 29 10 30 11 31 12 32
REMARK SMILES IDX 73 33 13 34 72 35 14 36 15 37 16 38 66 39 17 40 71 41 65 42
REMARK SMILES IDX 67 43 18 44 70 45 64 46 63 47 19 49 51 50 31 51 50 52 32 53
REMARK SMILES IDX 35 54 49 55 68 56 33 57 34 58 48 60 69 61 36 62 20 63 21 64
REMARK SMILES IDX 29 65 22 66 23 67 27 68 30 69 24 70 25 71 28 72 26 73 52 74
REMARK SMILES IDX 53 75 61 76 54 77 55 78 59 79 62 80 56 81 57 82 60 83 58 84
REMARK SMILES IDX 37 85 38 86 46 87 39 88 40 89 44 90 47 91 41 92 42 93 45 94
REMARK SMILES IDX 43 95
REMARK H PARENT 67 48 35 59
REMARK Flexibility Score: inf
ROOT
ATOM      1  C   UNL A   1      31.698  30.956  26.506  1.00  0.00     0.274 C 
ENDROOT
BRANCH   1   2
ATOM      2  O   UNL A   1      32.480  30.128  27.388  1.00  0.00    -0.462 OA
BRANCH   2   3
ATOM      3  C   UNL A   1      32.163  28.807  27.432  1.00  0.00     0.313 C 
ATOM      4  O   UNL A   1      31.186  28.352  28.018  1.00  0.00    -0.252 OA
BRANCH   3   5
ATOM      5  C   UNL A   1      33.182  27.928  26.701  1.00  0.00     0.126 C 
ATOM      6  C   UNL A   1      34.549  28.582  26.487  1.00  0.00     0.025 C 
BRANCH   5   7
ATOM      7  C   UNL A   1      32.604  27.377  25.402  1.00  0.00    -0.033 A 
ATOM      8  C   UNL A   1      31.441  27.956  24.859  1.00  0.00     0.012 A 
ATOM      9  C   UNL A   1      33.237  26.347  24.693  1.00  0.00     0.016 A 
ATOM     10  C   UNL A   1      30.882  27.505  23.652  1.00  0.00    -0.024 A 
ATOM     11  C   UNL A   1      32.713  25.890  23.480  1.00  0.00     0.023 A 
ATOM     12  C   UNL A   1      31.534  26.466  22.971  1.00  0.00     0.020 A 
BRANCH  10  13
ATOM     13  C   UNL A   1      29.650  28.082  23.073  1.00  0.00     0.020 C 
ATOM     14  C   UNL A   1      29.344  29.390  23.059  1.00  0.00     0.106 C 
BRANCH  14  15
ATOM     15  S   UNL A   1      27.825  29.946  22.427  1.00  0.00     0.168 S 
ATOM     16  C   UNL A   1      27.724  31.563  23.162  1.00  0.00     0.163 C 
ATOM     17  O   UNL A   1      27.974  30.138  20.997  1.00  0.00    -0.225 OA
ATOM     18  O   UNL A   1      26.728  29.162  22.959  1.00  0.00    -0.225 OA
ENDBRANCH  14  15
ENDBRANCH  10  13
BRANCH  11  19
ATOM     19  C   UNL A   1      33.430  24.872  22.663  1.00  0.00     0.193 C 
ATOM     20  O   UNL A   1      33.638  25.061  21.468  1.00  0.00    -0.289 OA
BRANCH  19  21
ATOM     21  C   UNL A   1      33.970  23.640  23.272  1.00  0.00     0.022 A 
ATOM     22  C   UNL A   1      33.083  22.626  23.638  1.00  0.00     0.012 A 
ATOM     23  C   UNL A   1      35.334  23.499  23.515  1.00  0.00     0.012 A 
ATOM     24  C   UNL A   1      33.545  21.474  24.265  1.00  0.00     0.001 A 
ATOM     25  C   UNL A   1      35.800  22.335  24.131  1.00  0.00     0.001 A 
ATOM     26  C   UNL A   1      34.908  21.328  24.512  1.00  0.00     0.000 A 
ENDBRANCH  19  21
ENDBRANCH  11  19
ENDBRANCH   5   7
ENDBRANCH   3   5
ENDBRANCH   2   3
ENDBRANCH   1   2
BRANCH   1  27
ATOM     27  C   UNL A   1      31.534  32.368  27.066  1.00  0.00     0.275 C 
BRANCH  27  28
ATOM     28  O   UNL A   1      32.711  33.165  26.823  1.00  0.00    -0.458 OA
BRANCH  28  29
ATOM     29  C   UNL A   1      33.294  33.670  27.931  1.00  0.00     0.338 C 
ATOM     30  O   UNL A   1      32.865  34.550  28.659  1.00  0.00    -0.246 OA
BRANCH  29  31
ATOM     31  C   UNL A   1      34.540  32.950  28.239  1.00  0.00     0.060 A 
ATOM     32  C   UNL A   1      34.427  31.691  28.820  1.00  0.00     0.016 A 
ATOM     33  C   UNL A   1      35.778  33.597  28.201  1.00  0.00     0.016 A 
ATOM     34  C   UNL A   1      35.523  31.130  29.471  1.00  0.00     0.010 A 
ATOM     35  C   UNL A   1      36.901  32.986  28.788  1.00  0.00     0.010 A 
ATOM     36  C   UNL A   1      36.777  31.765  29.474  1.00  0.00    -0.014 A 
BRANCH  36  37
ATOM     37  C   UNL A   1      37.918  31.134  30.204  1.00  0.00     0.031 A 
ATOM     38  C   UNL A   1      38.219  31.456  31.649  1.00  0.00     0.074 A 
ATOM     39  C   UNL A   1      38.656  30.191  29.584  1.00  0.00     0.049 A 
ATOM     40  N   UNL A   1      39.205  31.046  32.414  1.00  0.00    -0.248 NA
ATOM     41  C   UNL A   1      37.285  32.350  32.333  1.00  0.00     0.031 C 
ATOM     42  C   UNL A   1      38.449  29.721  28.215  1.00  0.00     0.029 A 
ATOM     43  N   UNL A   1      39.720  29.447  30.034  1.00  0.00    -0.354 N 
ATOM     44  C   UNL A   1      38.986  31.622  33.663  1.00  0.00     0.074 A 
ATOM     45  C   UNL A   1      37.793  32.427  33.553  1.00  0.00     0.031 C 
ATOM     46  C   UNL A   1      39.328  28.747  27.947  1.00  0.00     0.029 A 
ATOM     47  C   UNL A   1      40.225  28.594  29.087  1.00  0.00     0.049 A 
ATOM     48  H   UNL A   1      40.083  29.520  30.946  1.00  0.00     0.167 HD
ATOM     49  C   UNL A   1      39.709  31.497  34.802  1.00  0.00     0.037 A 
ATOM     50  C   UNL A   1      41.323  27.814  29.103  1.00  0.00     0.037 A 
ATOM     51  C   UNL A   1      40.908  30.713  34.918  1.00  0.00     0.049 A 
ATOM     52  C   UNL A   1      42.190  27.790  30.327  1.00  0.00     0.074 A 
ATOM     53  C   UNL A   1      41.751  30.572  36.007  1.00  0.00     0.029 A 
ATOM     54  N   UNL A   1      41.433  29.933  33.900  1.00  0.00    -0.354 N 
ATOM     55  N   UNL A   1      42.019  28.401  31.474  1.00  0.00    -0.248 NA
ATOM     56  C   UNL A   1      43.417  26.987  30.252  1.00  0.00     0.031 C 
ATOM     57  C   UNL A   1      42.809  29.736  35.634  1.00  0.00     0.029 A 
ATOM     58  C   UNL A   1      42.602  29.325  34.327  1.00  0.00     0.049 A 
ATOM     59  H   UNL A   1      41.034  29.827  33.006  1.00  0.00     0.167 HD
ATOM     60  C   UNL A   1      43.109  28.055  32.258  1.00  0.00     0.074 A 
ATOM     61  C   UNL A   1      43.928  27.163  31.463  1.00  0.00     0.031 C 
ATOM     62  C   UNL A   1      43.408  28.447  33.520  1.00  0.00     0.037 A 
BRANCH  49  63
ATOM     63  C   UNL A   1      39.244  32.266  36.006  1.00  0.00     0.064 A 
ATOM     64  C   UNL A   1      38.334  31.720  36.923  1.00  0.00     0.173 A 
ATOM     65  C   UNL A   1      39.738  33.555  36.257  1.00  0.00     0.173 A 
ATOM     66  F   UNL A   1      37.829  30.494  36.727  1.00  0.00    -0.203 F 
ATOM     67  C   UNL A   1      37.917  32.448  38.036  1.00  0.00     0.198 A 
ATOM     68  C   UNL A   1      39.335  34.270  37.382  1.00  0.00     0.198 A 
ATOM     69  F   UNL A   1      40.615  34.120  35.413  1.00  0.00    -0.203 F 
ATOM     70  F   UNL A   1      37.020  31.923  38.883  1.00  0.00    -0.200 F 
ATOM     71  C   UNL A   1      38.422  33.720  38.268  1.00  0.00     0.200 A 
ATOM     72  F   UNL A   1      39.832  35.494  37.609  1.00  0.00    -0.200 F 
ATOM     73  F   UNL A   1      38.023  34.417  39.340  1.00  0.00    -0.200 F 
ENDBRANCH  49  63
BRANCH  50  74
ATOM     74  C   UNL A   1      41.690  27.060  27.877  1.00  0.00     0.064 A 
ATOM     75  C   UNL A   1      42.474  27.636  26.871  1.00  0.00     0.173 A 
ATOM     76  C   UNL A   1      41.290  25.724  27.711  1.00  0.00     0.173 A 
ATOM     77  F   UNL A   1      42.852  28.919  26.968  1.00  0.00    -0.203 F 
ATOM     78  C   UNL A   1      42.849  26.904  25.746  1.00  0.00     0.198 A 
ATOM     79  C   UNL A   1      41.693  24.983  26.604  1.00  0.00     0.198 A 
ATOM     80  F   UNL A   1      40.532  25.127  28.643  1.00  0.00    -0.203 F 
ATOM     81  F   UNL A   1      43.571  27.485  24.779  1.00  0.00    -0.200 F 
ATOM     82  C   UNL A   1      42.469  25.574  25.621  1.00  0.00     0.200 A 
ATOM     83  F   UNL A   1      41.336  23.696  26.496  1.00  0.00    -0.200 F 
ATOM     84  F   UNL A   1      42.845  24.866  24.548  1.00  0.00    -0.200 F 
ENDBRANCH  50  74
BRANCH  62  85
ATOM     85  C   UNL A   1      44.669  27.908  34.123  1.00  0.00     0.064 A 
ATOM     86  C   UNL A   1      44.683  26.683  34.805  1.00  0.00     0.173 A 
ATOM     87  C   UNL A   1      45.880  28.601  33.981  1.00  0.00     0.173 A 
ATOM     88  F   UNL A   1      43.545  25.992  34.977  1.00  0.00    -0.203 F 
ATOM     89  C   UNL A   1      45.864  26.181  35.343  1.00  0.00     0.198 A 
ATOM     90  C   UNL A   1      47.063  28.084  34.500  1.00  0.00     0.198 A 
ATOM     91  F   UNL A   1      45.917  29.773  33.330  1.00  0.00    -0.203 F 
ATOM     92  F   UNL A   1      45.849  25.028  36.025  1.00  0.00    -0.200 F 
ATOM     93  C   UNL A   1      47.052  26.877  35.185  1.00  0.00     0.200 A 
ATOM     94  F   UNL A   1      48.213  28.752  34.337  1.00  0.00    -0.200 F 
ATOM     95  F   UNL A   1      48.189  26.390  35.700  1.00  0.00    -0.200 F 
ENDBRANCH  62  85
ENDBRANCH  36  37
ENDBRANCH  29  31
ENDBRANCH  28  29
ENDBRANCH  27  28
ENDBRANCH   1  27
TORSDOF 16
ENDMDL
MODEL 2
REMARK VINA RESULT:     -12.5      0.997      7.142
REMARK SMILES C[C@@H](C(=O)OCCOC(=O)c1ccc(-c2c3nc(c(-c4c(F)c(F)c(F)c(F)c4F)c4ccc([nH]4)c(-c4c(F)c(F)c(F)c(F)c4F)c4nc(c(-c5c(F)c(F)c(F)c(F)c5F)c5ccc2[nH]5)C=C4)C=C3)cc1)c1cc(/C=C/S(C)(=O)=O)cc(C(=O)c2ccccc2)c1
REMARK SMILES IDX 6 1 5 2 3 3 4 4 2 5 1 6 74 7 75 8 93 9 76 10 84 11 83 12
REMARK SMILES IDX 77 13 78 14 79 15 80 16 81 17 82 18 85 19 86 20 87 21 88 22
REMARK SMILES IDX 92 23 89 24 91 25 90 26 7 27 8 28 9 29 10 30 11 31 12 32
REMARK SMILES IDX 73 33 13 34 72 35 14 36 15 37 16 38 66 39 17 40 71 41 65 42
REMARK SMILES IDX 67 43 18 44 70 45 64 46 63 47 19 49 51 50 31 51 50 52 32 53
REMARK SMILES IDX 35 54 49 55 68 56 33 57 34 58 48 60 69 61 36 62 20 63 21 64
REMARK SMILES IDX 29 65 22 66 23 67 27 68 30 69 24 70 25 71 28 72 26 73 52 74
REMARK SMILES IDX 53 75 61 76 54 77 55 78 59 79 62 80 56 81 57 82 60 83 58 84
REMARK SMILES IDX 37 85 38 86 46 87 39 88 40 89 44 90 47 91 41 92 42 93 45 94
REMARK SMILES IDX 43 95
REMARK H PARENT 67 48 35 59
REMARK Flexibility Score: inf
ROOT
ATOM      1  C   UNL A   1      31.806  30.908  26.565  1.00  0.00     0.274 C 
ENDROOT
BRANCH   1   2
ATOM      2  O   UNL A   1      32.632  30.055  27.381  1.00  0.00    -0.462 OA
BRANCH   2   3
ATOM      3  C   UNL A   1      32.327  28.731  27.391  1.00  0.00     0.313 C 
ATOM      4  O   UNL A   1      31.369  28.249  27.986  1.00  0.00    -0.252 OA
BRANCH   3   5
ATOM      5  C   UNL A   1      33.333  27.884  26.605  1.00  0.00     0.126 C 
ATOM      6  C   UNL A   1      34.662  28.585  26.313  1.00  0.00     0.025 C 
BRANCH   5   7
ATOM      7  C   UNL A   1      32.702  27.308  25.342  1.00  0.00    -0.033 A 
ATOM      8  C   UNL A   1      31.586  27.948  24.769  1.00  0.00     0.012 A 
ATOM      9  C   UNL A   1      33.244  26.190  24.693  1.00  0.00     0.016 A 
ATOM     10  C   UNL A   1      30.983  27.476  23.593  1.00  0.00    -0.024 A 
ATOM     11  C   UNL A   1      32.675  25.708  23.510  1.00  0.00     0.023 A 
ATOM     12  C   UNL A   1      31.543  26.349  22.971  1.00  0.00     0.020 A 
BRANCH  10  13
ATOM     13  C   UNL A   1      29.798  28.117  22.984  1.00  0.00     0.020 C 
ATOM     14  C   UNL A   1      29.457  29.407  23.135  1.00  0.00     0.106 C 
BRANCH  14  15
ATOM     15  S   UNL A   1      27.992  30.032  22.442  1.00  0.00     0.168 S 
ATOM     16  C   UNL A   1      28.030  31.711  23.027  1.00  0.00     0.163 C 
ATOM     17  O   UNL A   1      28.158  30.079  21.002  1.00  0.00    -0.225 OA
ATOM     18  O   UNL A   1      26.831  29.396  23.033  1.00  0.00    -0.225 OA
ENDBRANCH  14  15
ENDBRANCH  10  13
BRANCH  11  19
ATOM     19  C   UNL A   1      33.300  24.589  22.751  1.00  0.00     0.193 C 
ATOM     20  O   UNL A   1      33.279  24.575  21.524  1.00  0.00    -0.289 OA
BRANCH  19  21
ATOM     21  C   UNL A   1      34.021  23.502  23.442  1.00  0.00     0.022 A 
ATOM     22  C   UNL A   1      35.415  23.537  23.480  1.00  0.00     0.012 A 
ATOM     23  C   UNL A   1      33.332  22.436  24.016  1.00  0.00     0.012 A 
ATOM     24  C   UNL A   1      36.134  22.504  24.072  1.00  0.00     0.001 A 
ATOM     25  C   UNL A   1      34.053  21.406  24.624  1.00  0.00     0.001 A 
ATOM     26  C   UNL A   1      35.451  21.436  24.646  1.00  0.00     0.000 A 
ENDBRANCH  19  21
ENDBRANCH  11  19
ENDBRANCH   5   7
ENDBRANCH   3   5
ENDBRANCH   2   3
ENDBRANCH   1   2
BRANCH   1  27
ATOM     27  C   UNL A   1      31.759  32.332  27.117  1.00  0.00     0.275 C 
BRANCH  27  28
ATOM     28  O   UNL A   1      33.079  32.908  27.187  1.00  0.00    -0.458 OA
BRANCH  28  29
ATOM     29  C   UNL A   1      33.216  33.911  28.079  1.00  0.00     0.338 C 
ATOM     30  O   UNL A   1      32.528  34.914  28.177  1.00  0.00    -0.246 OA
BRANCH  29  31
ATOM     31  C   UNL A   1      34.294  33.616  29.035  1.00  0.00     0.060 A 
ATOM     32  C   UNL A   1      35.591  33.953  28.664  1.00  0.00     0.016 A 
ATOM     33  C   UNL A   1      34.072  32.799  30.147  1.00  0.00     0.016 A 
ATOM     34  C   UNL A   1      36.672  33.377  29.328  1.00  0.00     0.010 A 
ATOM     35  C   UNL A   1      35.169  32.287  30.864  1.00  0.00     0.010 A 
ATOM     36  C   UNL A   1      36.484  32.530  30.433  1.00  0.00    -0.014 A 
BRANCH  36  37
ATOM     37  C   UNL A   1      37.674  31.918  31.100  1.00  0.00     0.031 A 
ATOM     38  C   UNL A   1      38.510  30.855  30.426  1.00  0.00     0.074 A 
ATOM     39  C   UNL A   1      38.064  32.380  32.305  1.00  0.00     0.049 A 
ATOM     40  N   UNL A   1      39.536  30.176  30.886  1.00  0.00    -0.248 NA
ATOM     41  C   UNL A   1      38.154  30.513  29.049  1.00  0.00     0.031 C 
ATOM     42  C   UNL A   1      37.404  33.449  33.055  1.00  0.00     0.029 A 
ATOM     43  N   UNL A   1      39.122  32.020  33.103  1.00  0.00    -0.354 N 
ATOM     44  C   UNL A   1      39.946  29.350  29.843  1.00  0.00     0.074 A 
ATOM     45  C   UNL A   1      39.050  29.590  28.736  1.00  0.00     0.031 C 
ATOM     46  C   UNL A   1      38.089  33.683  34.181  1.00  0.00     0.029 A 
ATOM     47  C   UNL A   1      39.175  32.715  34.284  1.00  0.00     0.049 A 
ATOM     48  H   UNL A   1      39.779  31.330  32.852  1.00  0.00     0.167 HD
ATOM     49  C   UNL A   1      40.974  28.468  29.802  1.00  0.00     0.037 A 
ATOM     50  C   UNL A   1      39.968  32.559  35.361  1.00  0.00     0.037 A 
ATOM     51  C   UNL A   1      41.861  28.207  30.903  1.00  0.00     0.049 A 
ATOM     52  C   UNL A   1      41.016  31.485  35.353  1.00  0.00     0.074 A 
ATOM     53  C   UNL A   1      42.892  27.288  30.988  1.00  0.00     0.029 A 
ATOM     54  N   UNL A   1      41.818  28.876  32.116  1.00  0.00    -0.354 N 
ATOM     55  N   UNL A   1      41.342  30.655  34.393  1.00  0.00    -0.248 NA
ATOM     56  C   UNL A   1      41.791  31.310  36.588  1.00  0.00     0.031 C 
ATOM     57  C   UNL A   1      43.448  27.373  32.270  1.00  0.00     0.029 A 
ATOM     58  C   UNL A   1      42.789  28.374  32.966  1.00  0.00     0.049 A 
ATOM     59  H   UNL A   1      41.190  29.600  32.340  1.00  0.00     0.167 HD
ATOM     60  C   UNL A   1      42.360  29.863  34.902  1.00  0.00     0.074 A 
ATOM     61  C   UNL A   1      42.613  30.325  36.252  1.00  0.00     0.031 C 
ATOM     62  C   UNL A   1      43.021  28.840  34.308  1.00  0.00     0.037 A 
BRANCH  49  63
ATOM     63  C   UNL A   1      41.166  27.684  28.535  1.00  0.00     0.064 A 
ATOM     64  C   UNL A   1      40.437  26.514  28.274  1.00  0.00     0.173 A 
ATOM     65  C   UNL A   1      42.074  28.124  27.560  1.00  0.00     0.173 A 
ATOM     66  F   UNL A   1      39.560  26.049  29.175  1.00  0.00    -0.203 F 
ATOM     67  C   UNL A   1      40.627  25.802  27.091  1.00  0.00     0.198 A 
ATOM     68  C   UNL A   1      42.245  27.422  26.371  1.00  0.00     0.198 A 
ATOM     69  F   UNL A   1      42.792  29.240  27.759  1.00  0.00    -0.203 F 
ATOM     70  F   UNL A   1      39.946  24.668  26.874  1.00  0.00    -0.200 F 
ATOM     71  C   UNL A   1      41.526  26.259  26.139  1.00  0.00     0.200 A 
ATOM     72  F   UNL A   1      43.107  27.870  25.447  1.00  0.00    -0.200 F 
ATOM     73  F   UNL A   1      41.706  25.575  25.000  1.00  0.00    -0.200 F 
ENDBRANCH  49  63
BRANCH  50  74
ATOM     74  C   UNL A   1      39.729  33.402  36.561  1.00  0.00     0.064 A 
ATOM     75  C   UNL A   1      40.390  34.623  36.740  1.00  0.00     0.173 A 
ATOM     76  C   UNL A   1      38.797  33.013  37.537  1.00  0.00     0.173 A 
ATOM     77  F   UNL A   1      41.314  35.021  35.853  1.00  0.00    -0.203 F 
ATOM     78  C   UNL A   1      40.126  35.425  37.847  1.00  0.00     0.198 A 
ATOM     79  C   UNL A   1      38.508  33.831  38.624  1.00  0.00     0.198 A 
ATOM     80  F   UNL A   1      38.142  31.849  37.415  1.00  0.00    -0.203 F 
ATOM     81  F   UNL A   1      40.794  36.573  38.017  1.00  0.00    -0.200 F 
ATOM     82  C   UNL A   1      39.175  35.035  38.781  1.00  0.00     0.200 A 
ATOM     83  F   UNL A   1      37.579  33.455  39.514  1.00  0.00    -0.200 F 
ATOM     84  F   UNL A   1      38.908  35.816  39.836  1.00  0.00    -0.200 F 
ENDBRANCH  50  74
BRANCH  62  85
ATOM     85  C   UNL A   1      44.086  28.157  35.109  1.00  0.00     0.064 A 
ATOM     86  C   UNL A   1      43.804  27.013  35.869  1.00  0.00     0.173 A 
ATOM     87  C   UNL A   1      45.408  28.626  35.085  1.00  0.00     0.173 A 
ATOM     88  F   UNL A   1      42.551  26.538  35.934  1.00  0.00    -0.203 F 
ATOM     89  C   UNL A   1      44.805  26.375  36.594  1.00  0.00     0.198 A 
ATOM     90  C   UNL A   1      46.411  27.970  35.791  1.00  0.00     0.198 A 
ATOM     91  F   UNL A   1      45.727  29.712  34.365  1.00  0.00    -0.203 F 
ATOM     92  F   UNL A   1      44.507  25.305  37.345  1.00  0.00    -0.200 F 
ATOM     93  C   UNL A   1      46.107  26.849  36.549  1.00  0.00     0.200 A 
ATOM     94  F   UNL A   1      47.671  28.422  35.739  1.00  0.00    -0.200 F 
ATOM     95  F   UNL A   1      47.071  26.229  37.244  1.00  0.00    -0.200 F 
ENDBRANCH  62  85
ENDBRANCH  36  37
ENDBRANCH  29  31
ENDBRANCH  28  29
ENDBRANCH  27  28
ENDBRANCH   1  27
TORSDOF 16
ENDMDL
MODEL 3
REMARK VINA RESULT:     -12.4      1.609      3.740
REMARK SMILES C[C@@H](C(=O)OCCOC(=O)c1ccc(-c2c3nc(c(-c4c(F)c(F)c(F)c(F)c4F)c4ccc([nH]4)c(-c4c(F)c(F)c(F)c(F)c4F)c4nc(c(-c5c(F)c(F)c(F)c(F)c5F)c5ccc2[nH]5)C=C4)C=C3)cc1)c1cc(/C=C/S(C)(=O)=O)cc(C(=O)c2ccccc2)c1
REMARK SMILES IDX 6 1 5 2 3 3 4 4 2 5 1 6 74 7 75 8 93 9 76 10 84 11 83 12
REMARK SMILES IDX 77 13 78 14 79 15 80 16 81 17 82 18 85 19 86 20 87 21 88 22
REMARK SMILES IDX 92 23 89 24 91 25 90 26 7 27 8 28 9 29 10 30 11 31 12 32
REMARK SMILES IDX 73 33 13 34 72 35 14 36 15 37 16 38 66 39 17 40 71 41 65 42
REMARK SMILES IDX 67 43 18 44 70 45 64 46 63 47 19 49 51 50 31 51 50 52 32 53
REMARK SMILES IDX 35 54 49 55 68 56 33 57 34 58 48 60 69 61 36 62 20 63 21 64
REMARK SMILES IDX 29 65 22 66 23 67 27 68 30 69 24 70 25 71 28 72 26 73 52 74
REMARK SMILES IDX 53 75 61 76 54 77 55 78 59 79 62 80 56 81 57 82 60 83 58 84
REMARK SMILES IDX 37 85 38 86 46 87 39 88 40 89 44 90 47 91 41 92 42 93 45 94
REMARK SMILES IDX 43 95
REMARK H PARENT 67 48 35 59
REMARK Flexibility Score: inf
ROOT
ATOM      1  C   UNL A   1      31.476  31.785  26.603  1.00  0.00     0.274 C 
ENDROOT
BRANCH   1   2
ATOM      2  O   UNL A   1      32.599  30.882  26.624  1.00  0.00    -0.462 OA
BRANCH   2   3
ATOM      3  C   UNL A   1      32.375  29.635  27.114  1.00  0.00     0.313 C 
ATOM      4  O   UNL A   1      31.328  29.280  27.646  1.00  0.00    -0.252 OA
BRANCH   3   5
ATOM      5  C   UNL A   1      33.591  28.713  26.971  1.00  0.00     0.126 C 
ATOM      6  C   UNL A   1      34.920  29.443  26.760  1.00  0.00     0.025 C 
BRANCH   5   7
ATOM      7  C   UNL A   1      33.352  27.646  25.909  1.00  0.00    -0.033 A 
ATOM      8  C   UNL A   1      33.808  26.332  26.130  1.00  0.00     0.012 A 
ATOM      9  C   UNL A   1      32.629  27.919  24.740  1.00  0.00     0.016 A 
ATOM     10  C   UNL A   1      33.591  25.305  25.198  1.00  0.00    -0.024 A 
ATOM     11  C   UNL A   1      32.383  26.912  23.802  1.00  0.00     0.023 A 
ATOM     12  C   UNL A   1      32.871  25.613  24.033  1.00  0.00     0.020 A 
BRANCH  10  13
ATOM     13  C   UNL A   1      34.078  23.923  25.397  1.00  0.00     0.020 C 
ATOM     14  C   UNL A   1      34.080  22.964  24.457  1.00  0.00     0.106 C 
BRANCH  14  15
ATOM     15  S   UNL A   1      34.596  21.348  24.830  1.00  0.00     0.168 S 
ATOM     16  C   UNL A   1      34.469  21.353  26.604  1.00  0.00     0.163 C 
ATOM     17  O   UNL A   1      33.591  20.427  24.334  1.00  0.00    -0.225 OA
ATOM     18  O   UNL A   1      35.995  21.165  24.498  1.00  0.00    -0.225 OA
ENDBRANCH  14  15
ENDBRANCH  10  13
BRANCH  11  19
ATOM     19  C   UNL A   1      31.527  27.159  22.608  1.00  0.00     0.193 C 
ATOM     20  O   UNL A   1      31.758  26.594  21.544  1.00  0.00    -0.289 OA
BRANCH  19  21
ATOM     21  C   UNL A   1      30.339  28.032  22.683  1.00  0.00     0.022 A 
ATOM     22  C   UNL A   1      29.170  27.530  23.256  1.00  0.00     0.012 A 
ATOM     23  C   UNL A   1      30.363  29.323  22.160  1.00  0.00     0.012 A 
ATOM     24  C   UNL A   1      28.012  28.300  23.297  1.00  0.00     0.001 A 
ATOM     25  C   UNL A   1      29.205  30.103  22.214  1.00  0.00     0.001 A 
ATOM     26  C   UNL A   1      28.031  29.590  22.774  1.00  0.00     0.000 A 
ENDBRANCH  19  21
ENDBRANCH  11  19
ENDBRANCH   5   7
ENDBRANCH   3   5
ENDBRANCH   2   3
ENDBRANCH   1   2
BRANCH   1  27
ATOM     27  C   UNL A   1      31.927  33.237  26.750  1.00  0.00     0.275 C 
BRANCH  27  28
ATOM     28  O   UNL A   1      32.302  33.531  28.111  1.00  0.00    -0.458 OA
BRANCH  28  29
ATOM     29  C   UNL A   1      33.394  34.313  28.244  1.00  0.00     0.338 C 
ATOM     30  O   UNL A   1      33.441  35.532  28.212  1.00  0.00    -0.246 OA
BRANCH  29  31
ATOM     31  C   UNL A   1      34.586  33.500  28.531  1.00  0.00     0.060 A 
ATOM     32  C   UNL A   1      34.391  32.268  29.146  1.00  0.00     0.016 A 
ATOM     33  C   UNL A   1      35.871  34.042  28.438  1.00  0.00     0.016 A 
ATOM     34  C   UNL A   1      35.459  31.633  29.775  1.00  0.00     0.010 A 
ATOM     35  C   UNL A   1      36.960  33.354  29.005  1.00  0.00     0.010 A 
ATOM     36  C   UNL A   1      36.759  32.164  29.724  1.00  0.00    -0.014 A 
BRANCH  36  37
ATOM     37  C   UNL A   1      37.869  31.457  30.434  1.00  0.00     0.031 A 
ATOM     38  C   UNL A   1      38.187  31.723  31.887  1.00  0.00     0.074 A 
ATOM     39  C   UNL A   1      38.558  30.496  29.787  1.00  0.00     0.049 A 
ATOM     40  N   UNL A   1      39.152  31.245  32.638  1.00  0.00    -0.248 NA
ATOM     41  C   UNL A   1      37.299  32.644  32.597  1.00  0.00     0.031 C 
ATOM     42  C   UNL A   1      38.326  30.074  28.406  1.00  0.00     0.029 A 
ATOM     43  N   UNL A   1      39.584  29.688  30.213  1.00  0.00    -0.354 N 
ATOM     44  C   UNL A   1      38.963  31.796  33.902  1.00  0.00     0.074 A 
ATOM     45  C   UNL A   1      37.811  32.662  33.817  1.00  0.00     0.031 C 
ATOM     46  C   UNL A   1      39.155  29.065  28.109  1.00  0.00     0.029 A 
ATOM     47  C   UNL A   1      40.045  28.837  29.242  1.00  0.00     0.049 A 
ATOM     48  H   UNL A   1      39.951  29.717  31.126  1.00  0.00     0.167 HD
ATOM     49  C   UNL A   1      39.680  31.605  35.035  1.00  0.00     0.037 A 
ATOM     50  C   UNL A   1      41.103  28.003  29.234  1.00  0.00     0.037 A 
ATOM     51  C   UNL A   1      40.840  30.759  35.127  1.00  0.00     0.049 A 
ATOM     52  C   UNL A   1      41.969  27.903  30.455  1.00  0.00     0.074 A 
ATOM     53  C   UNL A   1      41.676  30.546  36.210  1.00  0.00     0.029 A 
ATOM     54  N   UNL A   1      41.324  29.982  34.087  1.00  0.00    -0.354 N 
ATOM     55  N   UNL A   1      41.830  28.490  31.619  1.00  0.00    -0.248 NA
ATOM     56  C   UNL A   1      43.155  27.042  30.355  1.00  0.00     0.031 C 
ATOM     57  C   UNL A   1      42.691  29.669  35.812  1.00  0.00     0.029 A 
ATOM     58  C   UNL A   1      42.462  29.305  34.494  1.00  0.00     0.049 A 
ATOM     59  H   UNL A   1      40.919  29.921  33.192  1.00  0.00     0.167 HD
ATOM     60  C   UNL A   1      42.903  28.069  32.390  1.00  0.00     0.074 A 
ATOM     61  C   UNL A   1      43.675  27.160  31.569  1.00  0.00     0.031 C 
ATOM     62  C   UNL A   1      43.223  28.411  33.662  1.00  0.00     0.037 A 
BRANCH  49  63
ATOM     63  C   UNL A   1      39.256  32.362  36.261  1.00  0.00     0.064 A 
ATOM     64  C   UNL A   1      39.773  33.632  36.560  1.00  0.00     0.173 A 
ATOM     65  C   UNL A   1      38.300  31.819  37.134  1.00  0.00     0.173 A 
ATOM     66  F   UNL A   1      40.691  34.193  35.761  1.00  0.00    -0.203 F 
ATOM     67  C   UNL A   1      39.364  34.320  37.700  1.00  0.00     0.198 A 
ATOM     68  C   UNL A   1      37.879  32.520  38.261  1.00  0.00     0.198 A 
ATOM     69  F   UNL A   1      37.771  30.611  36.891  1.00  0.00    -0.203 F 
ATOM     70  F   UNL A   1      39.895  35.517  37.987  1.00  0.00    -0.200 F 
ATOM     71  C   UNL A   1      38.414  33.766  38.547  1.00  0.00     0.200 A 
ATOM     72  F   UNL A   1      36.954  31.988  39.072  1.00  0.00    -0.200 F 
ATOM     73  F   UNL A   1      38.020  34.431  39.642  1.00  0.00    -0.200 F 
ENDBRANCH  49  63
BRANCH  50  74
ATOM     74  C   UNL A   1      41.431  27.266  27.987  1.00  0.00     0.064 A 
ATOM     75  C   UNL A   1      42.230  27.835  26.989  1.00  0.00     0.173 A 
ATOM     76  C   UNL A   1      40.977  25.951  27.792  1.00  0.00     0.173 A 
ATOM     77  F   UNL A   1      42.659  29.099  27.114  1.00  0.00    -0.203 F 
ATOM     78  C   UNL A   1      42.566  27.117  25.844  1.00  0.00     0.198 A 
ATOM     79  C   UNL A   1      41.342  25.222  26.664  1.00  0.00     0.198 A 
ATOM     80  F   UNL A   1      40.203  25.362  28.716  1.00  0.00    -0.203 F 
ATOM     81  F   UNL A   1      43.304  27.692  24.885  1.00  0.00    -0.200 F 
ATOM     82  C   UNL A   1      42.133  25.807  25.689  1.00  0.00     0.200 A 
ATOM     83  F   UNL A   1      40.933  23.953  26.528  1.00  0.00    -0.200 F 
ATOM     84  F   UNL A   1      42.473  25.111  24.596  1.00  0.00    -0.200 F 
ENDBRANCH  50  74
BRANCH  62  85
ATOM     85  C   UNL A   1      44.455  27.794  34.246  1.00  0.00     0.064 A 
ATOM     86  C   UNL A   1      44.414  26.542  34.876  1.00  0.00     0.173 A 
ATOM     87  C   UNL A   1      45.695  28.440  34.139  1.00  0.00     0.173 A 
ATOM     88  F   UNL A   1      43.247  25.894  35.013  1.00  0.00    -0.203 F 
ATOM     89  C   UNL A   1      45.569  25.968  35.397  1.00  0.00     0.198 A 
ATOM     90  C   UNL A   1      46.852  27.852  34.641  1.00  0.00     0.198 A 
ATOM     91  F   UNL A   1      45.786  29.636  33.538  1.00  0.00    -0.203 F 
ATOM     92  F   UNL A   1      45.502  24.788  36.030  1.00  0.00    -0.200 F 
ATOM     93  C   UNL A   1      46.787  26.619  35.273  1.00  0.00     0.200 A 
ATOM     94  F   UNL A   1      48.031  28.477  34.512  1.00  0.00    -0.200 F 
ATOM     95  F   UNL A   1      47.899  26.062  35.772  1.00  0.00    -0.200 F 
ENDBRANCH  62  85
ENDBRANCH  36  37
ENDBRANCH  29  31
ENDBRANCH  28  29
ENDBRANCH  27  28
ENDBRANCH   1  27
TORSDOF 16
ENDMDL
