MODEL 1
REMARK VINA RESULT:     -11.5      0.000      0.000
REMARK SMILES Cc1cc(N(C)C(C)C)cc(C(=O)OCCOC(=O)c2ccc(-c3c4nc(c(-c5c(F)c(F)c(F)c(F)c5F)c5ccc([nH]5)c(-c5c(F)c(F)c(F)c(F)c5F)c5nc(c(-c6c(F)c(F)c(F)c(F)c6F)c6ccc3[nH]6)C=C5)C=C4)cc2)c1N
REMARK SMILES IDX 15 1 14 2 12 3 13 4 11 5 1 6 2 7 3 8 83 9 4 10 10 11 84 12
REMARK SMILES IDX 5 15 6 16 7 17 8 18 9 19 16 20 17 21 18 22 19 23 20 24 21 25
REMARK SMILES IDX 82 26 22 27 81 28 23 29 24 30 25 31 75 32 26 33 80 34 74 35
REMARK SMILES IDX 76 36 27 37 79 38 73 39 72 40 28 42 60 43 40 44 59 45 41 46
REMARK SMILES IDX 44 47 58 48 77 49 42 50 43 51 57 53 78 54 45 55 29 56 30 57
REMARK SMILES IDX 38 58 31 59 32 60 36 61 39 62 33 63 34 64 37 65 35 66 61 67
REMARK SMILES IDX 62 68 70 69 63 70 64 71 68 72 71 73 65 74 66 75 69 76 67 77
REMARK SMILES IDX 46 78 47 79 55 80 48 81 49 82 53 83 56 84 50 85 51 86 54 87
REMARK SMILES IDX 52 88
REMARK H PARENT 84 13 84 14 76 41 44 52
REMARK Flexibility Score: inf
ROOT
ATOM      1  C   UNL A   1      31.374  28.196  25.469  1.00  0.00     0.275 C 
ENDROOT
BRANCH   1   2
ATOM      2  O   UNL A   1      32.637  27.498  25.507  1.00  0.00    -0.458 OA
BRANCH   2   3
ATOM      3  C   UNL A   1      32.761  26.424  24.681  1.00  0.00     0.340 C 
ATOM      4  O   UNL A   1      32.464  26.385  23.498  1.00  0.00    -0.246 OA
BRANCH   3   5
ATOM      5  C   UNL A   1      33.433  25.302  25.397  1.00  0.00     0.085 A 
ATOM      6  C   UNL A   1      32.554  22.437  27.724  1.00  0.00     0.047 C 
ATOM      7  C   UNL A   1      33.317  23.410  26.864  1.00  0.00    -0.025 A 
ATOM      8  C   UNL A   1      34.644  23.097  26.506  1.00  0.00     0.031 A 
ATOM      9  C   UNL A   1      32.740  24.595  26.398  1.00  0.00     0.049 A 
ATOM     10  C   UNL A   1      35.446  23.907  25.690  1.00  0.00     0.038 A 
ATOM     11  C   UNL A   1      34.770  24.979  25.085  1.00  0.00     0.043 A 
BRANCH   9  12
ATOM     12  N   UNL A   1      31.457  24.958  26.811  1.00  0.00    -0.398 N 
ATOM     13  H   UNL A   1      31.300  25.845  27.207  1.00  0.00     0.156 HD
ATOM     14  H   UNL A   1      30.708  24.327  26.705  1.00  0.00     0.156 HD
ENDBRANCH   9  12
BRANCH  10  15
ATOM     15  N   UNL A   1      36.801  23.656  25.484  1.00  0.00    -0.372 N 
ATOM     16  C   UNL A   1      37.777  24.070  26.500  1.00  0.00     0.144 C 
BRANCH  15  17
ATOM     17  C   UNL A   1      37.338  22.694  24.485  1.00  0.00     0.075 C 
ATOM     18  C   UNL A   1      37.435  21.257  25.004  1.00  0.00     0.030 C 
ATOM     19  C   UNL A   1      36.652  22.825  23.126  1.00  0.00     0.030 C 
ENDBRANCH  15  17
ENDBRANCH  10  15
ENDBRANCH   3   5
ENDBRANCH   2   3
ENDBRANCH   1   2
BRANCH   1  20
ATOM     20  C   UNL A   1      31.603  29.698  25.299  1.00  0.00     0.275 C 
BRANCH  20  21
ATOM     21  O   UNL A   1      32.948  30.009  25.694  1.00  0.00    -0.458 OA
BRANCH  21  22
ATOM     22  C   UNL A   1      33.086  30.881  26.719  1.00  0.00     0.338 C 
ATOM     23  O   UNL A   1      32.280  31.731  27.078  1.00  0.00    -0.246 OA
BRANCH  22  24
ATOM     24  C   UNL A   1      34.394  30.664  27.374  1.00  0.00     0.060 A 
ATOM     25  C   UNL A   1      34.839  29.368  27.627  1.00  0.00     0.016 A 
ATOM     26  C   UNL A   1      35.154  31.746  27.817  1.00  0.00     0.016 A 
ATOM     27  C   UNL A   1      36.005  29.145  28.359  1.00  0.00     0.010 A 
ATOM     28  C   UNL A   1      36.368  31.521  28.483  1.00  0.00     0.010 A 
ATOM     29  C   UNL A   1      36.799  30.216  28.789  1.00  0.00    -0.014 A 
BRANCH  29  30
ATOM     30  C   UNL A   1      38.020  29.978  29.619  1.00  0.00     0.031 A 
ATOM     31  C   UNL A   1      39.153  29.152  29.063  1.00  0.00     0.074 A 
ATOM     32  C   UNL A   1      38.156  30.511  30.851  1.00  0.00     0.049 A 
ATOM     33  N   UNL A   1      40.183  28.627  29.681  1.00  0.00    -0.248 NA
ATOM     34  C   UNL A   1      39.113  28.867  27.620  1.00  0.00     0.031 C 
ATOM     35  C   UNL A   1      37.191  31.389  31.511  1.00  0.00     0.029 A 
ATOM     36  N   UNL A   1      39.175  30.397  31.770  1.00  0.00    -0.354 N 
ATOM     37  C   UNL A   1      40.865  27.888  28.722  1.00  0.00     0.074 A 
ATOM     38  C   UNL A   1      40.141  28.043  27.477  1.00  0.00     0.031 C 
ATOM     39  C   UNL A   1      37.681  31.771  32.701  1.00  0.00     0.029 A 
ATOM     40  C   UNL A   1      38.948  31.087  32.937  1.00  0.00     0.049 A 
ATOM     41  H   UNL A   1      39.991  29.870  31.605  1.00  0.00     0.167 HD
ATOM     42  C   UNL A   1      41.987  27.143  28.868  1.00  0.00     0.037 A 
ATOM     43  C   UNL A   1      39.650  31.128  34.088  1.00  0.00     0.037 A 
ATOM     44  C   UNL A   1      42.755  27.054  30.082  1.00  0.00     0.049 A 
ATOM     45  C   UNL A   1      40.890  30.287  34.232  1.00  0.00     0.074 A 
ATOM     46  C   UNL A   1      43.902  26.318  30.329  1.00  0.00     0.029 A 
ATOM     47  N   UNL A   1      42.473  27.752  31.246  1.00  0.00    -0.354 N 
ATOM     48  N   UNL A   1      41.463  29.502  33.354  1.00  0.00    -0.248 NA
ATOM     49  C   UNL A   1      41.563  30.316  35.539  1.00  0.00     0.031 C 
ATOM     50  C   UNL A   1      44.302  26.554  31.648  1.00  0.00     0.029 A 
ATOM     51  C   UNL A   1      43.426  27.466  32.212  1.00  0.00     0.049 A 
ATOM     52  H   UNL A   1      41.709  28.361  31.369  1.00  0.00     0.167 HD
ATOM     53  C   UNL A   1      42.559  28.945  33.999  1.00  0.00     0.074 A 
ATOM     54  C   UNL A   1      42.591  29.505  35.333  1.00  0.00     0.031 C 
ATOM     55  C   UNL A   1      43.450  28.037  33.532  1.00  0.00     0.037 A 
BRANCH  42  56
ATOM     56  C   UNL A   1      42.440  26.328  27.692  1.00  0.00     0.064 A 
ATOM     57  C   UNL A   1      43.445  26.769  26.821  1.00  0.00     0.173 A 
ATOM     58  C   UNL A   1      41.885  25.058  27.465  1.00  0.00     0.173 A 
ATOM     59  F   UNL A   1      43.997  27.981  26.986  1.00  0.00    -0.203 F 
ATOM     60  C   UNL A   1      43.865  25.978  25.754  1.00  0.00     0.198 A 
ATOM     61  C   UNL A   1      42.327  24.258  26.415  1.00  0.00     0.198 A 
ATOM     62  F   UNL A   1      40.924  24.585  28.275  1.00  0.00    -0.203 F 
ATOM     63  F   UNL A   1      44.800  26.435  24.910  1.00  0.00    -0.200 F 
ATOM     64  C   UNL A   1      43.312  24.721  25.557  1.00  0.00     0.200 A 
ATOM     65  F   UNL A   1      41.800  23.039  26.237  1.00  0.00    -0.200 F 
ATOM     66  F   UNL A   1      43.726  23.957  24.537  1.00  0.00    -0.200 F 
ENDBRANCH  42  56
BRANCH  43  67
ATOM     67  C   UNL A   1      39.163  31.952  35.227  1.00  0.00     0.064 A 
ATOM     68  C   UNL A   1      38.413  31.383  36.265  1.00  0.00     0.173 A 
ATOM     69  C   UNL A   1      39.426  33.330  35.295  1.00  0.00     0.173 A 
ATOM     70  F   UNL A   1      38.104  30.078  36.230  1.00  0.00    -0.203 F 
ATOM     71  C   UNL A   1      37.939  32.159  37.321  1.00  0.00     0.198 A 
ATOM     72  C   UNL A   1      38.981  34.098  36.368  1.00  0.00     0.198 A 
ATOM     73  F   UNL A   1      40.130  33.927  34.323  1.00  0.00    -0.203 F 
ATOM     74  F   UNL A   1      37.183  31.598  38.276  1.00  0.00    -0.200 F 
ATOM     75  C   UNL A   1      38.231  33.513  37.377  1.00  0.00     0.200 A 
ATOM     76  F   UNL A   1      39.277  35.403  36.423  1.00  0.00    -0.200 F 
ATOM     77  F   UNL A   1      37.783  34.257  38.398  1.00  0.00    -0.200 F 
ENDBRANCH  43  67
BRANCH  55  78
ATOM     78  C   UNL A   1      44.549  27.613  34.461  1.00  0.00     0.064 A 
ATOM     79  C   UNL A   1      44.413  26.493  35.293  1.00  0.00     0.173 A 
ATOM     80  C   UNL A   1      45.761  28.318  34.497  1.00  0.00     0.173 A 
ATOM     81  F   UNL A   1      43.266  25.797  35.305  1.00  0.00    -0.203 F 
ATOM     82  C   UNL A   1      45.443  26.107  36.146  1.00  0.00     0.198 A 
ATOM     83  C   UNL A   1      46.799  27.915  35.333  1.00  0.00     0.198 A 
ATOM     84  F   UNL A   1      45.942  29.394  33.716  1.00  0.00    -0.203 F 
ATOM     85  F   UNL A   1      45.277  25.058  36.964  1.00  0.00    -0.200 F 
ATOM     86  C   UNL A   1      46.636  26.814  36.161  1.00  0.00     0.200 A 
ATOM     87  F   UNL A   1      47.954  28.595  35.342  1.00  0.00    -0.200 F 
ATOM     88  F   UNL A   1      47.628  26.440  36.981  1.00  0.00    -0.200 F 
ENDBRANCH  55  78
ENDBRANCH  29  30
ENDBRANCH  22  24
ENDBRANCH  21  22
ENDBRANCH  20  21
ENDBRANCH   1  20
TORSDOF 14
ENDMDL
MODEL 2
REMARK VINA RESULT:     -11.4      3.580      9.337
REMARK SMILES Cc1cc(N(C)C(C)C)cc(C(=O)OCCOC(=O)c2ccc(-c3c4nc(c(-c5c(F)c(F)c(F)c(F)c5F)c5ccc([nH]5)c(-c5c(F)c(F)c(F)c(F)c5F)c5nc(c(-c6c(F)c(F)c(F)c(F)c6F)c6ccc3[nH]6)C=C5)C=C4)cc2)c1N
REMARK SMILES IDX 15 1 14 2 12 3 13 4 11 5 1 6 2 7 3 8 83 9 4 10 10 11 84 12
REMARK SMILES IDX 5 15 6 16 7 17 8 18 9 19 16 20 17 21 18 22 19 23 20 24 21 25
REMARK SMILES IDX 82 26 22 27 81 28 23 29 24 30 25 31 75 32 26 33 80 34 74 35
REMARK SMILES IDX 76 36 27 37 79 38 73 39 72 40 28 42 60 43 40 44 59 45 41 46
REMARK SMILES IDX 44 47 58 48 77 49 42 50 43 51 57 53 78 54 45 55 29 56 30 57
REMARK SMILES IDX 38 58 31 59 32 60 36 61 39 62 33 63 34 64 37 65 35 66 61 67
REMARK SMILES IDX 62 68 70 69 63 70 64 71 68 72 71 73 65 74 66 75 69 76 67 77
REMARK SMILES IDX 46 78 47 79 55 80 48 81 49 82 53 83 56 84 50 85 51 86 54 87
REMARK SMILES IDX 52 88
REMARK H PARENT 84 13 84 14 76 41 44 52
REMARK Flexibility Score: inf
ROOT
ATOM      1  C   UNL A   1      32.918  35.145  28.684  1.00  0.00     0.275 C 
ENDROOT
BRANCH   1   2
ATOM      2  O   UNL A   1      34.265  34.898  28.226  1.00  0.00    -0.458 OA
BRANCH   2   3
ATOM      3  C   UNL A   1      35.004  34.025  28.962  1.00  0.00     0.340 C 
ATOM      4  O   UNL A   1      35.542  34.259  30.032  1.00  0.00    -0.246 OA
BRANCH   3   5
ATOM      5  C   UNL A   1      34.976  32.673  28.334  1.00  0.00     0.085 A 
ATOM      6  C   UNL A   1      37.287  29.720  27.757  1.00  0.00     0.047 C 
ATOM      7  C   UNL A   1      36.087  30.630  27.754  1.00  0.00    -0.025 A 
ATOM      8  C   UNL A   1      34.834  30.093  27.396  1.00  0.00     0.031 A 
ATOM      9  C   UNL A   1      36.180  31.977  28.115  1.00  0.00     0.049 A 
ATOM     10  C   UNL A   1      33.642  30.831  27.381  1.00  0.00     0.038 A 
ATOM     11  C   UNL A   1      33.742  32.116  27.937  1.00  0.00     0.043 A 
BRANCH   9  12
ATOM     12  N   UNL A   1      37.426  32.544  28.392  1.00  0.00    -0.398 N 
ATOM     13  H   UNL A   1      38.249  32.042  28.194  1.00  0.00     0.156 HD
ATOM     14  H   UNL A   1      37.481  33.444  28.786  1.00  0.00     0.156 HD
ENDBRANCH   9  12
BRANCH  10  15
ATOM     15  N   UNL A   1      32.450  30.320  26.870  1.00  0.00    -0.372 N 
ATOM     16  C   UNL A   1      31.474  31.231  26.261  1.00  0.00     0.144 C 
BRANCH  15  17
ATOM     17  C   UNL A   1      32.210  28.884  26.565  1.00  0.00     0.075 C 
ATOM     18  C   UNL A   1      31.569  28.109  27.719  1.00  0.00     0.030 C 
ATOM     19  C   UNL A   1      31.523  28.684  25.215  1.00  0.00     0.030 C 
ENDBRANCH  15  17
ENDBRANCH  10  15
ENDBRANCH   3   5
ENDBRANCH   2   3
ENDBRANCH   1   2
BRANCH   1  20
ATOM     20  C   UNL A   1      32.931  36.095  29.882  1.00  0.00     0.275 C 
BRANCH  20  21
ATOM     21  O   UNL A   1      32.183  35.500  30.954  1.00  0.00    -0.458 OA
BRANCH  21  22
ATOM     22  C   UNL A   1      32.464  35.943  32.200  1.00  0.00     0.338 C 
ATOM     23  O   UNL A   1      31.889  36.835  32.813  1.00  0.00    -0.246 OA
BRANCH  22  24
ATOM     24  C   UNL A   1      33.604  35.178  32.747  1.00  0.00     0.060 A 
ATOM     25  C   UNL A   1      34.830  35.809  32.952  1.00  0.00     0.016 A 
ATOM     26  C   UNL A   1      33.491  33.809  32.985  1.00  0.00     0.016 A 
ATOM     27  C   UNL A   1      35.951  35.075  33.342  1.00  0.00     0.010 A 
ATOM     28  C   UNL A   1      34.599  33.088  33.456  1.00  0.00     0.010 A 
ATOM     29  C   UNL A   1      35.855  33.705  33.616  1.00  0.00    -0.014 A 
BRANCH  29  30
ATOM     30  C   UNL A   1      37.067  32.910  33.983  1.00  0.00     0.031 A 
ATOM     31  C   UNL A   1      37.692  33.084  35.344  1.00  0.00     0.074 A 
ATOM     32  C   UNL A   1      37.609  32.009  33.136  1.00  0.00     0.049 A 
ATOM     33  N   UNL A   1      38.861  32.686  35.782  1.00  0.00    -0.248 NA
ATOM     34  C   UNL A   1      36.898  33.817  36.343  1.00  0.00     0.031 C 
ATOM     35  C   UNL A   1      37.091  31.666  31.812  1.00  0.00     0.029 A 
ATOM     36  N   UNL A   1      38.717  31.205  33.273  1.00  0.00    -0.354 N 
ATOM     37  C   UNL A   1      38.974  33.188  37.073  1.00  0.00     0.074 A 
ATOM     38  C   UNL A   1      37.749  33.907  37.355  1.00  0.00     0.031 C 
ATOM     39  C   UNL A   1      37.849  30.694  31.280  1.00  0.00     0.029 A 
ATOM     40  C   UNL A   1      38.965  30.413  32.177  1.00  0.00     0.049 A 
ATOM     41  H   UNL A   1      39.281  31.197  34.081  1.00  0.00     0.167 HD
ATOM     42  C   UNL A   1      40.007  33.065  37.941  1.00  0.00     0.037 A 
ATOM     43  C   UNL A   1      39.997  29.591  31.898  1.00  0.00     0.037 A 
ATOM     44  C   UNL A   1      41.190  32.281  37.696  1.00  0.00     0.049 A 
ATOM     45  C   UNL A   1      41.138  29.474  32.872  1.00  0.00     0.074 A 
ATOM     46  C   UNL A   1      42.295  32.104  38.512  1.00  0.00     0.029 A 
ATOM     47  N   UNL A   1      41.407  31.515  36.562  1.00  0.00    -0.354 N 
ATOM     48  N   UNL A   1      41.288  30.044  34.042  1.00  0.00    -0.248 NA
ATOM     49  C   UNL A   1      42.268  28.624  32.471  1.00  0.00     0.031 C 
ATOM     50  C   UNL A   1      43.189  31.247  37.863  1.00  0.00     0.029 A 
ATOM     51  C   UNL A   1      42.626  30.861  36.658  1.00  0.00     0.049 A 
ATOM     52  H   UNL A   1      40.788  31.445  35.799  1.00  0.00     0.167 HD
ATOM     53  C   UNL A   1      42.522  29.623  34.516  1.00  0.00     0.074 A 
ATOM     54  C   UNL A   1      43.070  28.725  33.522  1.00  0.00     0.031 C 
ATOM     55  C   UNL A   1      43.154  29.964  35.666  1.00  0.00     0.037 A 
BRANCH  42  56
ATOM     56  C   UNL A   1      39.927  33.827  39.231  1.00  0.00     0.064 A 
ATOM     57  C   UNL A   1      40.488  35.102  39.380  1.00  0.00     0.173 A 
ATOM     58  C   UNL A   1      39.233  33.282  40.323  1.00  0.00     0.173 A 
ATOM     59  F   UNL A   1      41.174  35.660  38.371  1.00  0.00    -0.203 F 
ATOM     60  C   UNL A   1      40.372  35.798  40.582  1.00  0.00     0.198 A 
ATOM     61  C   UNL A   1      39.095  33.992  41.513  1.00  0.00     0.198 A 
ATOM     62  F   UNL A   1      38.671  32.067  40.230  1.00  0.00    -0.203 F 
ATOM     63  F   UNL A   1      40.950  37.000  40.716  1.00  0.00    -0.200 F 
ATOM     64  C   UNL A   1      39.670  35.246  41.644  1.00  0.00     0.200 A 
ATOM     65  F   UNL A   1      38.403  33.462  42.532  1.00  0.00    -0.200 F 
ATOM     66  F   UNL A   1      39.551  35.922  42.795  1.00  0.00    -0.200 F 
ENDBRANCH  42  56
BRANCH  43  67
ATOM     67  C   UNL A   1      40.033  28.853  30.605  1.00  0.00     0.064 A 
ATOM     68  C   UNL A   1      40.660  29.399  29.477  1.00  0.00     0.173 A 
ATOM     69  C   UNL A   1      39.428  27.594  30.468  1.00  0.00     0.173 A 
ATOM     70  F   UNL A   1      41.222  30.615  29.546  1.00  0.00    -0.203 F 
ATOM     71  C   UNL A   1      40.675  28.718  28.261  1.00  0.00     0.198 A 
ATOM     72  C   UNL A   1      39.473  26.899  29.262  1.00  0.00     0.198 A 
ATOM     73  F   UNL A   1      38.805  27.031  31.514  1.00  0.00    -0.203 F 
ATOM     74  F   UNL A   1      41.240  29.284  27.185  1.00  0.00    -0.200 F 
ATOM     75  C   UNL A   1      40.090  27.465  28.157  1.00  0.00     0.200 A 
ATOM     76  F   UNL A   1      38.918  25.683  29.171  1.00  0.00    -0.200 F 
ATOM     77  F   UNL A   1      40.113  26.806  26.990  1.00  0.00    -0.200 F 
ENDBRANCH  43  67
BRANCH  55  78
ATOM     78  C   UNL A   1      44.496  29.344  35.921  1.00  0.00     0.064 A 
ATOM     79  C   UNL A   1      45.682  29.967  35.508  1.00  0.00     0.173 A 
ATOM     80  C   UNL A   1      44.597  28.128  36.614  1.00  0.00     0.173 A 
ATOM     81  F   UNL A   1      45.635  31.123  34.828  1.00  0.00    -0.203 F 
ATOM     82  C   UNL A   1      46.921  29.384  35.758  1.00  0.00     0.198 A 
ATOM     83  C   UNL A   1      45.838  27.559  36.884  1.00  0.00     0.198 A 
ATOM     84  F   UNL A   1      43.491  27.495  37.035  1.00  0.00    -0.203 F 
ATOM     85  F   UNL A   1      48.040  29.975  35.317  1.00  0.00    -0.200 F 
ATOM     86  C   UNL A   1      46.998  28.184  36.450  1.00  0.00     0.200 A 
ATOM     87  F   UNL A   1      45.913  26.404  37.559  1.00  0.00    -0.200 F 
ATOM     88  F   UNL A   1      48.192  27.625  36.691  1.00  0.00    -0.200 F 
ENDBRANCH  55  78
ENDBRANCH  29  30
ENDBRANCH  22  24
ENDBRANCH  21  22
ENDBRANCH  20  21
ENDBRANCH   1  20
TORSDOF 14
ENDMDL
MODEL 3
REMARK VINA RESULT:     -11.2      0.960      2.054
REMARK SMILES Cc1cc(N(C)C(C)C)cc(C(=O)OCCOC(=O)c2ccc(-c3c4nc(c(-c5c(F)c(F)c(F)c(F)c5F)c5ccc([nH]5)c(-c5c(F)c(F)c(F)c(F)c5F)c5nc(c(-c6c(F)c(F)c(F)c(F)c6F)c6ccc3[nH]6)C=C5)C=C4)cc2)c1N
REMARK SMILES IDX 15 1 14 2 12 3 13 4 11 5 1 6 2 7 3 8 83 9 4 10 10 11 84 12
REMARK SMILES IDX 5 15 6 16 7 17 8 18 9 19 16 20 17 21 18 22 19 23 20 24 21 25
REMARK SMILES IDX 82 26 22 27 81 28 23 29 24 30 25 31 75 32 26 33 80 34 74 35
REMARK SMILES IDX 76 36 27 37 79 38 73 39 72 40 28 42 60 43 40 44 59 45 41 46
REMARK SMILES IDX 44 47 58 48 77 49 42 50 43 51 57 53 78 54 45 55 29 56 30 57
REMARK SMILES IDX 38 58 31 59 32 60 36 61 39 62 33 63 34 64 37 65 35 66 61 67
REMARK SMILES IDX 62 68 70 69 63 70 64 71 68 72 71 73 65 74 66 75 69 76 67 77
REMARK SMILES IDX 46 78 47 79 55 80 48 81 49 82 53 83 56 84 50 85 51 86 54 87
REMARK SMILES IDX 52 88
REMARK H PARENT 84 13 84 14 76 41 44 52
REMARK Flexibility Score: inf
ROOT
ATOM      1  C   UNL A   1      31.445  28.887  24.141  1.00  0.00     0.275 C 
ENDROOT
BRANCH   1   2
ATOM      2  O   UNL A   1      31.711  27.534  24.570  1.00  0.00    -0.458 OA
BRANCH   2   3
ATOM      3  C   UNL A   1      30.700  26.638  24.408  1.00  0.00     0.340 C 
ATOM      4  O   UNL A   1      29.662  26.825  23.797  1.00  0.00    -0.246 OA
BRANCH   3   5
ATOM      5  C   UNL A   1      31.086  25.320  24.990  1.00  0.00     0.085 A 
ATOM      6  C   UNL A   1      29.591  22.578  27.144  1.00  0.00     0.047 C 
ATOM      7  C   UNL A   1      30.544  23.396  26.313  1.00  0.00    -0.025 A 
ATOM      8  C   UNL A   1      31.725  22.786  25.845  1.00  0.00     0.031 A 
ATOM      9  C   UNL A   1      30.277  24.727  25.978  1.00  0.00     0.049 A 
ATOM     10  C   UNL A   1      32.675  23.434  25.042  1.00  0.00     0.038 A 
ATOM     11  C   UNL A   1      32.277  24.694  24.566  1.00  0.00     0.043 A 
BRANCH   9  12
ATOM     12  N   UNL A   1      29.153  25.369  26.501  1.00  0.00    -0.398 N 
ATOM     13  H   UNL A   1      29.059  26.344  26.415  1.00  0.00     0.156 HD
ATOM     14  H   UNL A   1      28.454  24.845  26.955  1.00  0.00     0.156 HD
ENDBRANCH   9  12
BRANCH  10  15
ATOM     15  N   UNL A   1      33.907  22.863  24.729  1.00  0.00    -0.372 N 
ATOM     16  C   UNL A   1      33.964  21.469  24.275  1.00  0.00     0.144 C 
BRANCH  15  17
ATOM     17  C   UNL A   1      35.153  23.634  24.476  1.00  0.00     0.075 C 
ATOM     18  C   UNL A   1      35.873  24.078  25.751  1.00  0.00     0.030 C 
ATOM     19  C   UNL A   1      36.058  22.954  23.449  1.00  0.00     0.030 C 
ENDBRANCH  15  17
ENDBRANCH  10  15
ENDBRANCH   3   5
ENDBRANCH   2   3
ENDBRANCH   1   2
BRANCH   1  20
ATOM     20  C   UNL A   1      31.453  29.835  25.341  1.00  0.00     0.275 C 
BRANCH  20  21
ATOM     21  O   UNL A   1      32.806  29.995  25.796  1.00  0.00    -0.458 OA
BRANCH  21  22
ATOM     22  C   UNL A   1      33.017  30.957  26.722  1.00  0.00     0.338 C 
ATOM     23  O   UNL A   1      32.269  31.885  27.005  1.00  0.00    -0.246 OA
BRANCH  22  24
ATOM     24  C   UNL A   1      34.324  30.731  27.375  1.00  0.00     0.060 A 
ATOM     25  C   UNL A   1      34.760  29.432  27.627  1.00  0.00     0.016 A 
ATOM     26  C   UNL A   1      35.093  31.808  27.814  1.00  0.00     0.016 A 
ATOM     27  C   UNL A   1      35.926  29.202  28.357  1.00  0.00     0.010 A 
ATOM     28  C   UNL A   1      36.307  31.575  28.478  1.00  0.00     0.010 A 
ATOM     29  C   UNL A   1      36.730  30.267  28.784  1.00  0.00    -0.014 A 
BRANCH  29  30
ATOM     30  C   UNL A   1      37.951  30.021  29.611  1.00  0.00     0.031 A 
ATOM     31  C   UNL A   1      39.081  29.195  29.050  1.00  0.00     0.074 A 
ATOM     32  C   UNL A   1      38.090  30.546  30.846  1.00  0.00     0.049 A 
ATOM     33  N   UNL A   1      40.110  28.663  29.663  1.00  0.00    -0.248 NA
ATOM     34  C   UNL A   1      39.039  28.918  27.605  1.00  0.00     0.031 C 
ATOM     35  C   UNL A   1      37.128  31.424  31.512  1.00  0.00     0.029 A 
ATOM     36  N   UNL A   1      39.110  30.425  31.763  1.00  0.00    -0.354 N 
ATOM     37  C   UNL A   1      40.789  27.928  28.698  1.00  0.00     0.074 A 
ATOM     38  C   UNL A   1      40.064  28.092  27.456  1.00  0.00     0.031 C 
ATOM     39  C   UNL A   1      37.621  31.797  32.703  1.00  0.00     0.029 A 
ATOM     40  C   UNL A   1      38.886  31.108  32.934  1.00  0.00     0.049 A 
ATOM     41  H   UNL A   1      39.924  29.896  31.595  1.00  0.00     0.167 HD
ATOM     42  C   UNL A   1      41.909  27.179  28.839  1.00  0.00     0.037 A 
ATOM     43  C   UNL A   1      39.589  31.141  34.084  1.00  0.00     0.037 A 
ATOM     44  C   UNL A   1      42.678  27.081  30.052  1.00  0.00     0.049 A 
ATOM     45  C   UNL A   1      40.827  30.296  34.222  1.00  0.00     0.074 A 
ATOM     46  C   UNL A   1      43.823  26.340  30.293  1.00  0.00     0.029 A 
ATOM     47  N   UNL A   1      42.399  27.773  31.220  1.00  0.00    -0.354 N 
ATOM     48  N   UNL A   1      41.397  29.513  33.340  1.00  0.00    -0.248 NA
ATOM     49  C   UNL A   1      41.502  30.315  35.529  1.00  0.00     0.031 C 
ATOM     50  C   UNL A   1      44.225  26.567  31.613  1.00  0.00     0.029 A 
ATOM     51  C   UNL A   1      43.353  27.478  32.183  1.00  0.00     0.049 A 
ATOM     52  H   UNL A   1      41.638  28.383  31.348  1.00  0.00     0.167 HD
ATOM     53  C   UNL A   1      42.492  28.950  33.979  1.00  0.00     0.074 A 
ATOM     54  C   UNL A   1      42.528  29.503  35.317  1.00  0.00     0.031 C 
ATOM     55  C   UNL A   1      43.380  28.042  33.507  1.00  0.00     0.037 A 
BRANCH  42  56
ATOM     56  C   UNL A   1      42.358  26.369  27.658  1.00  0.00     0.064 A 
ATOM     57  C   UNL A   1      43.348  26.822  26.777  1.00  0.00     0.173 A 
ATOM     58  C   UNL A   1      41.814  25.093  27.437  1.00  0.00     0.173 A 
ATOM     59  F   UNL A   1      43.889  28.039  26.936  1.00  0.00    -0.203 F 
ATOM     60  C   UNL A   1      43.766  26.035  25.705  1.00  0.00     0.198 A 
ATOM     61  C   UNL A   1      42.254  24.298  26.382  1.00  0.00     0.198 A 
ATOM     62  F   UNL A   1      40.868  24.609  28.257  1.00  0.00    -0.203 F 
ATOM     63  F   UNL A   1      44.687  26.503  24.851  1.00  0.00    -0.200 F 
ATOM     64  C   UNL A   1      43.224  24.772  25.514  1.00  0.00     0.200 A 
ATOM     65  F   UNL A   1      41.739  23.073  26.209  1.00  0.00    -0.200 F 
ATOM     66  F   UNL A   1      43.636  24.013  24.489  1.00  0.00    -0.200 F 
ENDBRANCH  42  56
BRANCH  43  67
ATOM     67  C   UNL A   1      39.106  31.960  35.229  1.00  0.00     0.064 A 
ATOM     68  C   UNL A   1      39.389  33.331  35.310  1.00  0.00     0.173 A 
ATOM     69  C   UNL A   1      38.364  31.387  36.273  1.00  0.00     0.173 A 
ATOM     70  F   UNL A   1      40.126  33.919  34.355  1.00  0.00    -0.203 F 
ATOM     71  C   UNL A   1      38.955  34.093  36.392  1.00  0.00     0.198 A 
ATOM     72  C   UNL A   1      37.901  32.157  37.337  1.00  0.00     0.198 A 
ATOM     73  F   UNL A   1      38.074  30.078  36.251  1.00  0.00    -0.203 F 
ATOM     74  F   UNL A   1      39.280  35.392  36.467  1.00  0.00    -0.200 F 
ATOM     75  C   UNL A   1      38.203  33.509  37.400  1.00  0.00     0.200 A 
ATOM     76  F   UNL A   1      37.164  31.590  38.302  1.00  0.00    -0.200 F 
ATOM     77  F   UNL A   1      37.778  34.245  38.436  1.00  0.00    -0.200 F 
ENDBRANCH  43  67
BRANCH  55  78
ATOM     78  C   UNL A   1      44.479  27.610  34.432  1.00  0.00     0.064 A 
ATOM     79  C   UNL A   1      45.688  28.316  34.513  1.00  0.00     0.173 A 
ATOM     80  C   UNL A   1      44.307  26.496  35.268  1.00  0.00     0.173 A 
ATOM     81  F   UNL A   1      45.903  29.378  33.723  1.00  0.00    -0.203 F 
ATOM     82  C   UNL A   1      46.696  27.908  35.382  1.00  0.00     0.198 A 
ATOM     83  C   UNL A   1      45.308  26.105  36.152  1.00  0.00     0.198 A 
ATOM     84  F   UNL A   1      43.166  25.791  35.231  1.00  0.00    -0.203 F 
ATOM     85  F   UNL A   1      47.861  28.571  35.414  1.00  0.00    -0.200 F 
ATOM     86  C   UNL A   1      46.504  26.807  36.204  1.00  0.00     0.200 A 
ATOM     87  F   UNL A   1      45.119  25.046  36.951  1.00  0.00    -0.200 F 
ATOM     88  F   UNL A   1      47.475  26.416  37.040  1.00  0.00    -0.200 F 
ENDBRANCH  55  78
ENDBRANCH  29  30
ENDBRANCH  22  24
ENDBRANCH  21  22
ENDBRANCH  20  21
ENDBRANCH   1  20
TORSDOF 14
ENDMDL
