MODEL 1
REMARK VINA RESULT:     -14.7      0.000      0.000
REMARK SMILES O=C(OCCOC(=O)c1ccc(N2C(=O)C[C@H]([NH+]3CCN(c4ccc(F)cc4)CC3)C2=O)cc1)c1ccc(-c2c3nc(c(-c4c(F)c(F)c(F)c(F)c4F)c4ccc([nH]4)c(-c4c(F)c(F)c(F)c(F)c4F)c4nc(c(-c5c(F)c(F)c(F)c(F)c5F)c5ccc2[nH]5)C=C4)C=C3)cc1
REMARK SMILES IDX 5 1 4 2 3 3 2 4 1 5 35 6 36 7 97 8 37 9 96 10 38 11 39 12
REMARK SMILES IDX 40 13 90 14 41 15 95 16 89 17 91 18 42 19 94 20 88 21 87 22
REMARK SMILES IDX 43 24 75 25 55 26 74 27 56 28 59 29 73 30 92 31 57 32 58 33
REMARK SMILES IDX 72 35 93 36 60 37 44 38 45 39 53 40 46 41 47 42 51 43 54 44
REMARK SMILES IDX 48 45 49 46 52 47 50 48 76 49 77 50 85 51 78 52 79 53 83 54
REMARK SMILES IDX 86 55 80 56 81 57 84 58 82 59 61 60 62 61 70 62 63 63 64 64
REMARK SMILES IDX 68 65 71 66 65 67 66 68 69 69 67 70 6 71 7 72 8 73 9 74
REMARK SMILES IDX 10 75 34 76 11 77 33 78 12 79 13 80 14 81 31 82 15 83 16 84
REMARK SMILES IDX 17 85 32 86 18 87 19 88 30 89 20 91 29 92 21 93 22 94 23 95
REMARK SMILES IDX 28 96 24 97 27 98 25 99 26 100
REMARK H PARENT 91 23 59 34 18 90
REMARK Flexibility Score: inf
ROOT
ATOM      1  C   UNL A   1      41.760  20.787  26.590  1.00  0.00     0.275 C 
ENDROOT
BRANCH   1   2
ATOM      2  C   UNL A   1      42.927  21.338  25.761  1.00  0.00     0.275 C 
BRANCH   2   3
ATOM      3  O   UNL A   1      42.635  22.566  25.076  1.00  0.00    -0.458 OA
BRANCH   3   4
ATOM      4  C   UNL A   1      43.256  23.765  25.148  1.00  0.00     0.338 C 
ATOM      5  O   UNL A   1      44.253  23.949  24.451  1.00  0.00    -0.246 OA
BRANCH   4   6
ATOM      6  C   UNL A   1      42.899  24.836  26.138  1.00  0.00     0.060 A 
ATOM      7  C   UNL A   1      43.468  26.109  26.248  1.00  0.00     0.016 A 
ATOM      8  C   UNL A   1      41.847  24.520  27.015  1.00  0.00     0.016 A 
ATOM      9  C   UNL A   1      42.956  27.066  27.130  1.00  0.00     0.010 A 
ATOM     10  C   UNL A   1      41.319  25.476  27.883  1.00  0.00     0.010 A 
ATOM     11  C   UNL A   1      41.870  26.761  27.943  1.00  0.00    -0.014 A 
BRANCH  11  12
ATOM     12  C   UNL A   1      41.437  27.683  29.015  1.00  0.00     0.031 A 
ATOM     13  C   UNL A   1      42.171  27.601  30.315  1.00  0.00     0.074 A 
ATOM     14  C   UNL A   1      40.432  28.559  28.842  1.00  0.00     0.049 A 
ATOM     15  N   UNL A   1      41.933  28.208  31.445  1.00  0.00    -0.248 NA
ATOM     16  C   UNL A   1      43.354  26.723  30.334  1.00  0.00     0.031 C 
ATOM     17  C   UNL A   1      39.749  28.816  27.579  1.00  0.00     0.029 A 
ATOM     18  N   UNL A   1      39.790  29.380  29.736  1.00  0.00    -0.354 N 
ATOM     19  C   UNL A   1      42.944  27.793  32.299  1.00  0.00     0.074 A 
ATOM     20  C   UNL A   1      43.744  26.822  31.591  1.00  0.00     0.031 C 
ATOM     21  C   UNL A   1      38.728  29.663  27.791  1.00  0.00     0.029 A 
ATOM     22  C   UNL A   1      38.683  30.003  29.209  1.00  0.00     0.049 A 
ATOM     23  H   UNL A   1      40.092  29.508  30.665  1.00  0.00     0.167 HD
ATOM     24  C   UNL A   1      43.204  28.220  33.554  1.00  0.00     0.037 A 
ATOM     25  C   UNL A   1      37.728  30.737  29.813  1.00  0.00     0.037 A 
ATOM     26  C   UNL A   1      42.377  29.166  34.242  1.00  0.00     0.049 A 
ATOM     27  C   UNL A   1      37.909  31.048  31.282  1.00  0.00     0.074 A 
ATOM     28  C   UNL A   1      42.525  29.686  35.511  1.00  0.00     0.029 A 
ATOM     29  N   UNL A   1      41.217  29.718  33.708  1.00  0.00    -0.354 N 
ATOM     30  N   UNL A   1      38.879  30.670  32.083  1.00  0.00    -0.248 NA
ATOM     31  C   UNL A   1      36.890  31.881  31.932  1.00  0.00     0.031 C 
ATOM     32  C   UNL A   1      41.417  30.502  35.770  1.00  0.00     0.029 A 
ATOM     33  C   UNL A   1      40.616  30.546  34.636  1.00  0.00     0.049 A 
ATOM     34  H   UNL A   1      40.875  29.543  32.801  1.00  0.00     0.167 HD
ATOM     35  C   UNL A   1      38.639  31.291  33.302  1.00  0.00     0.074 A 
ATOM     36  C   UNL A   1      37.398  32.025  33.150  1.00  0.00     0.031 C 
ATOM     37  C   UNL A   1      39.392  31.286  34.431  1.00  0.00     0.037 A 
BRANCH  24  38
ATOM     38  C   UNL A   1      44.401  27.620  34.230  1.00  0.00     0.064 A 
ATOM     39  C   UNL A   1      45.679  28.195  34.113  1.00  0.00     0.173 A 
ATOM     40  C   UNL A   1      44.290  26.406  34.921  1.00  0.00     0.173 A 
ATOM     41  F   UNL A   1      45.844  29.344  33.440  1.00  0.00    -0.203 F 
ATOM     42  C   UNL A   1      46.806  27.543  34.605  1.00  0.00     0.198 A 
ATOM     43  C   UNL A   1      45.416  25.775  35.444  1.00  0.00     0.198 A 
ATOM     44  F   UNL A   1      43.095  25.814  35.062  1.00  0.00    -0.203 F 
ATOM     45  F   UNL A   1      48.024  28.062  34.394  1.00  0.00    -0.200 F 
ATOM     46  C   UNL A   1      46.674  26.332  35.269  1.00  0.00     0.200 A 
ATOM     47  F   UNL A   1      45.286  24.609  36.091  1.00  0.00    -0.200 F 
ATOM     48  F   UNL A   1      47.761  25.693  35.721  1.00  0.00    -0.200 F 
ENDBRANCH  24  38
BRANCH  25  49
ATOM     49  C   UNL A   1      36.532  31.191  29.043  1.00  0.00     0.064 A 
ATOM     50  C   UNL A   1      36.350  32.528  28.673  1.00  0.00     0.173 A 
ATOM     51  C   UNL A   1      35.535  30.281  28.652  1.00  0.00     0.173 A 
ATOM     52  F   UNL A   1      37.272  33.444  29.001  1.00  0.00    -0.203 F 
ATOM     53  C   UNL A   1      35.206  32.943  27.986  1.00  0.00     0.198 A 
ATOM     54  C   UNL A   1      34.394  30.691  27.964  1.00  0.00     0.198 A 
ATOM     55  F   UNL A   1      35.667  28.978  28.933  1.00  0.00    -0.203 F 
ATOM     56  F   UNL A   1      35.046  34.236  27.674  1.00  0.00    -0.200 F 
ATOM     57  C   UNL A   1      34.225  32.025  27.637  1.00  0.00     0.200 A 
ATOM     58  F   UNL A   1      33.453  29.795  27.636  1.00  0.00    -0.200 F 
ATOM     59  F   UNL A   1      33.122  32.426  26.993  1.00  0.00    -0.200 F 
ENDBRANCH  25  49
BRANCH  37  60
ATOM     60  C   UNL A   1      38.958  32.167  35.564  1.00  0.00     0.064 A 
ATOM     61  C   UNL A   1      38.229  31.673  36.652  1.00  0.00     0.173 A 
ATOM     62  C   UNL A   1      39.400  33.499  35.613  1.00  0.00     0.173 A 
ATOM     63  F   UNL A   1      37.778  30.410  36.645  1.00  0.00    -0.203 F 
ATOM     64  C   UNL A   1      37.959  32.482  37.753  1.00  0.00     0.198 A 
ATOM     65  C   UNL A   1      39.156  34.294  36.727  1.00  0.00     0.198 A 
ATOM     66  F   UNL A   1      40.111  34.013  34.597  1.00  0.00    -0.203 F 
ATOM     67  F   UNL A   1      37.246  31.998  38.779  1.00  0.00    -0.200 F 
ATOM     68  C   UNL A   1      38.437  33.785  37.796  1.00  0.00     0.200 A 
ATOM     69  F   UNL A   1      39.638  35.544  36.775  1.00  0.00    -0.200 F 
ATOM     70  F   UNL A   1      38.206  34.549  38.873  1.00  0.00    -0.200 F 
ENDBRANCH  37  60
ENDBRANCH  11  12
ENDBRANCH   4   6
ENDBRANCH   3   4
ENDBRANCH   2   3
ENDBRANCH   1   2
BRANCH   1  71
ATOM     71  O   UNL A   1      40.493  21.406  26.299  1.00  0.00    -0.458 OA
BRANCH  71  72
ATOM     72  C   UNL A   1      39.554  20.584  25.752  1.00  0.00     0.338 C 
ATOM     73  O   UNL A   1      39.643  19.389  25.580  1.00  0.00    -0.246 OA
BRANCH  72  74
ATOM     74  C   UNL A   1      38.309  21.353  25.519  1.00  0.00     0.060 A 
ATOM     75  C   UNL A   1      37.196  20.686  25.001  1.00  0.00     0.018 A 
ATOM     76  C   UNL A   1      38.225  22.712  25.815  1.00  0.00     0.018 A 
ATOM     77  C   UNL A   1      35.965  21.348  24.884  1.00  0.00     0.028 A 
ATOM     78  C   UNL A   1      37.017  23.392  25.597  1.00  0.00     0.028 A 
ATOM     79  C   UNL A   1      35.862  22.712  25.180  1.00  0.00     0.052 A 
BRANCH  79  80
ATOM     80  N   UNL A   1      34.644  23.406  24.967  1.00  0.00    -0.245 N 
ATOM     81  C   UNL A   1      33.757  23.642  25.983  1.00  0.00     0.240 C 
ATOM     82  C   UNL A   1      34.250  23.984  23.775  1.00  0.00     0.292 C 
ATOM     83  O   UNL A   1      33.790  23.221  27.132  1.00  0.00    -0.274 OA
ATOM     84  C   UNL A   1      32.717  24.608  25.520  1.00  0.00     0.176 C 
ATOM     85  C   UNL A   1      33.008  24.840  24.048  1.00  0.00     0.284 C 
ATOM     86  O   UNL A   1      34.800  23.872  22.686  1.00  0.00    -0.267 OA
BRANCH  85  87
ATOM     87  N   UNL A   1      31.919  24.718  23.055  1.00  0.00    -0.321 N 
ATOM     88  C   UNL A   1      30.533  24.648  23.548  1.00  0.00     0.284 C 
ATOM     89  C   UNL A   1      31.976  25.735  21.979  1.00  0.00     0.284 C 
ATOM     90  H   UNL A   1      32.134  23.788  22.694  1.00  0.00     0.348 HD
ATOM     91  C   UNL A   1      29.884  25.986  23.962  1.00  0.00     0.178 C 
ATOM     92  C   UNL A   1      31.426  27.142  22.318  1.00  0.00     0.178 C 
ATOM     93  N   UNL A   1      30.130  27.078  23.012  1.00  0.00    -0.360 N 
BRANCH  93  94
ATOM     94  C   UNL A   1      29.445  28.278  23.184  1.00  0.00     0.037 A 
ATOM     95  C   UNL A   1      28.054  28.381  23.031  1.00  0.00     0.029 A 
ATOM     96  C   UNL A   1      30.152  29.446  23.501  1.00  0.00     0.029 A 
ATOM     97  C   UNL A   1      27.397  29.612  23.137  1.00  0.00     0.041 A 
ATOM     98  C   UNL A   1      29.506  30.681  23.608  1.00  0.00     0.041 A 
ATOM     99  C   UNL A   1      28.134  30.754  23.412  1.00  0.00     0.123 A 
ATOM    100  F   UNL A   1      27.514  31.938  23.491  1.00  0.00    -0.207 F 
ENDBRANCH  93  94
ENDBRANCH  85  87
ENDBRANCH  79  80
ENDBRANCH  72  74
ENDBRANCH  71  72
ENDBRANCH   1  71
TORSDOF 14
ENDMDL
MODEL 2
REMARK VINA RESULT:     -14.4      0.205      1.538
REMARK SMILES O=C(OCCOC(=O)c1ccc(N2C(=O)C[C@H]([NH+]3CCN(c4ccc(F)cc4)CC3)C2=O)cc1)c1ccc(-c2c3nc(c(-c4c(F)c(F)c(F)c(F)c4F)c4ccc([nH]4)c(-c4c(F)c(F)c(F)c(F)c4F)c4nc(c(-c5c(F)c(F)c(F)c(F)c5F)c5ccc2[nH]5)C=C4)C=C3)cc1
REMARK SMILES IDX 5 1 4 2 3 3 2 4 1 5 35 6 36 7 97 8 37 9 96 10 38 11 39 12
REMARK SMILES IDX 40 13 90 14 41 15 95 16 89 17 91 18 42 19 94 20 88 21 87 22
REMARK SMILES IDX 43 24 75 25 55 26 74 27 56 28 59 29 73 30 92 31 57 32 58 33
REMARK SMILES IDX 72 35 93 36 60 37 44 38 45 39 53 40 46 41 47 42 51 43 54 44
REMARK SMILES IDX 48 45 49 46 52 47 50 48 76 49 77 50 85 51 78 52 79 53 83 54
REMARK SMILES IDX 86 55 80 56 81 57 84 58 82 59 61 60 62 61 70 62 63 63 64 64
REMARK SMILES IDX 68 65 71 66 65 67 66 68 69 69 67 70 6 71 7 72 8 73 9 74
REMARK SMILES IDX 10 75 34 76 11 77 33 78 12 79 13 80 14 81 31 82 15 83 16 84
REMARK SMILES IDX 17 85 32 86 18 87 19 88 30 89 20 91 29 92 21 93 22 94 23 95
REMARK SMILES IDX 28 96 24 97 27 98 25 99 26 100
REMARK H PARENT 91 23 59 34 18 90
REMARK Flexibility Score: inf
ROOT
ATOM      1  C   UNL A   1      41.674  20.983  26.689  1.00  0.00     0.275 C 
ENDROOT
BRANCH   1   2
ATOM      2  C   UNL A   1      42.814  21.373  25.740  1.00  0.00     0.275 C 
BRANCH   2   3
ATOM      3  O   UNL A   1      42.624  22.633  25.078  1.00  0.00    -0.458 OA
BRANCH   3   4
ATOM      4  C   UNL A   1      43.301  23.795  25.219  1.00  0.00     0.338 C 
ATOM      5  O   UNL A   1      44.357  23.934  24.603  1.00  0.00    -0.246 OA
BRANCH   4   6
ATOM      6  C   UNL A   1      42.927  24.870  26.197  1.00  0.00     0.060 A 
ATOM      7  C   UNL A   1      43.375  26.195  26.210  1.00  0.00     0.016 A 
ATOM      8  C   UNL A   1      41.990  24.495  27.176  1.00  0.00     0.016 A 
ATOM      9  C   UNL A   1      42.849  27.138  27.100  1.00  0.00     0.010 A 
ATOM     10  C   UNL A   1      41.447  25.434  28.053  1.00  0.00     0.010 A 
ATOM     11  C   UNL A   1      41.872  26.767  28.017  1.00  0.00    -0.014 A 
BRANCH  11  12
ATOM     12  C   UNL A   1      41.445  27.691  29.090  1.00  0.00     0.031 A 
ATOM     13  C   UNL A   1      42.182  27.609  30.388  1.00  0.00     0.074 A 
ATOM     14  C   UNL A   1      40.440  28.568  28.919  1.00  0.00     0.049 A 
ATOM     15  N   UNL A   1      41.949  28.217  31.518  1.00  0.00    -0.248 NA
ATOM     16  C   UNL A   1      43.363  26.728  30.404  1.00  0.00     0.031 C 
ATOM     17  C   UNL A   1      39.754  28.827  27.658  1.00  0.00     0.029 A 
ATOM     18  N   UNL A   1      39.803  29.391  29.815  1.00  0.00    -0.354 N 
ATOM     19  C   UNL A   1      42.961  27.800  32.369  1.00  0.00     0.074 A 
ATOM     20  C   UNL A   1      43.757  26.828  31.659  1.00  0.00     0.031 C 
ATOM     21  C   UNL A   1      38.735  29.676  27.872  1.00  0.00     0.029 A 
ATOM     22  C   UNL A   1      38.696  30.017  29.290  1.00  0.00     0.049 A 
ATOM     23  H   UNL A   1      40.108  29.520  30.742  1.00  0.00     0.167 HD
ATOM     24  C   UNL A   1      43.226  28.228  33.623  1.00  0.00     0.037 A 
ATOM     25  C   UNL A   1      37.744  30.753  29.897  1.00  0.00     0.037 A 
ATOM     26  C   UNL A   1      42.402  29.176  34.313  1.00  0.00     0.049 A 
ATOM     27  C   UNL A   1      37.930  31.065  31.365  1.00  0.00     0.074 A 
ATOM     28  C   UNL A   1      42.555  29.697  35.582  1.00  0.00     0.029 A 
ATOM     29  N   UNL A   1      41.242  29.729  33.782  1.00  0.00    -0.354 N 
ATOM     30  N   UNL A   1      38.901  30.686  32.163  1.00  0.00    -0.248 NA
ATOM     31  C   UNL A   1      36.914  31.900  32.017  1.00  0.00     0.031 C 
ATOM     32  C   UNL A   1      41.450  30.515  35.843  1.00  0.00     0.029 A 
ATOM     33  C   UNL A   1      40.645  30.559  34.711  1.00  0.00     0.049 A 
ATOM     34  H   UNL A   1      40.897  29.554  32.876  1.00  0.00     0.167 HD
ATOM     35  C   UNL A   1      38.666  31.308  33.382  1.00  0.00     0.074 A 
ATOM     36  C   UNL A   1      37.426  32.044  33.234  1.00  0.00     0.031 C 
ATOM     37  C   UNL A   1      39.423  31.301  34.509  1.00  0.00     0.037 A 
BRANCH  24  38
ATOM     38  C   UNL A   1      44.423  27.626  34.296  1.00  0.00     0.064 A 
ATOM     39  C   UNL A   1      44.319  26.469  35.090  1.00  0.00     0.173 A 
ATOM     40  C   UNL A   1      45.669  28.263  34.230  1.00  0.00     0.173 A 
ATOM     41  F   UNL A   1      43.142  25.835  35.207  1.00  0.00    -0.203 F 
ATOM     42  C   UNL A   1      45.399  26.015  35.840  1.00  0.00     0.198 A 
ATOM     43  C   UNL A   1      46.758  27.784  34.954  1.00  0.00     0.198 A 
ATOM     44  F   UNL A   1      45.825  29.370  33.489  1.00  0.00    -0.203 F 
ATOM     45  F   UNL A   1      45.247  24.968  36.665  1.00  0.00    -0.200 F 
ATOM     46  C   UNL A   1      46.617  26.673  35.773  1.00  0.00     0.200 A 
ATOM     47  F   UNL A   1      47.937  28.416  34.883  1.00  0.00    -0.200 F 
ATOM     48  F   UNL A   1      47.650  26.250  36.515  1.00  0.00    -0.200 F 
ENDBRANCH  24  38
BRANCH  25  49
ATOM     49  C   UNL A   1      36.547  31.209  29.130  1.00  0.00     0.064 A 
ATOM     50  C   UNL A   1      35.524  30.329  28.756  1.00  0.00     0.173 A 
ATOM     51  C   UNL A   1      36.397  32.555  28.754  1.00  0.00     0.173 A 
ATOM     52  F   UNL A   1      35.597  29.035  29.097  1.00  0.00    -0.203 F 
ATOM     53  C   UNL A   1      34.429  30.765  28.005  1.00  0.00     0.198 A 
ATOM     54  C   UNL A   1      35.304  32.993  28.007  1.00  0.00     0.198 A 
ATOM     55  F   UNL A   1      37.315  33.460  29.119  1.00  0.00    -0.203 F 
ATOM     56  F   UNL A   1      33.483  29.891  27.636  1.00  0.00    -0.200 F 
ATOM     57  C   UNL A   1      34.323  32.095  27.625  1.00  0.00     0.200 A 
ATOM     58  F   UNL A   1      35.216  34.279  27.645  1.00  0.00    -0.200 F 
ATOM     59  F   UNL A   1      33.282  32.508  26.891  1.00  0.00    -0.200 F 
ENDBRANCH  25  49
BRANCH  37  60
ATOM     60  C   UNL A   1      38.993  32.185  35.643  1.00  0.00     0.064 A 
ATOM     61  C   UNL A   1      38.273  31.691  36.737  1.00  0.00     0.173 A 
ATOM     62  C   UNL A   1      39.433  33.518  35.686  1.00  0.00     0.173 A 
ATOM     63  F   UNL A   1      37.825  30.427  36.736  1.00  0.00    -0.203 F 
ATOM     64  C   UNL A   1      38.008  32.502  37.838  1.00  0.00     0.198 A 
ATOM     65  C   UNL A   1      39.194  34.315  36.800  1.00  0.00     0.198 A 
ATOM     66  F   UNL A   1      40.136  34.031  34.665  1.00  0.00    -0.203 F 
ATOM     67  F   UNL A   1      37.302  32.019  38.869  1.00  0.00    -0.200 F 
ATOM     68  C   UNL A   1      38.482  33.806  37.875  1.00  0.00     0.200 A 
ATOM     69  F   UNL A   1      39.673  35.566  36.842  1.00  0.00    -0.200 F 
ATOM     70  F   UNL A   1      38.256  34.572  38.951  1.00  0.00    -0.200 F 
ENDBRANCH  37  60
ENDBRANCH  11  12
ENDBRANCH   4   6
ENDBRANCH   3   4
ENDBRANCH   2   3
ENDBRANCH   1   2
BRANCH   1  71
ATOM     71  O   UNL A   1      40.407  21.577  26.355  1.00  0.00    -0.458 OA
BRANCH  71  72
ATOM     72  C   UNL A   1      39.509  20.740  25.762  1.00  0.00     0.338 C 
ATOM     73  O   UNL A   1      39.644  19.555  25.553  1.00  0.00    -0.246 OA
BRANCH  72  74
ATOM     74  C   UNL A   1      38.242  21.473  25.528  1.00  0.00     0.060 A 
ATOM     75  C   UNL A   1      37.152  20.774  25.001  1.00  0.00     0.018 A 
ATOM     76  C   UNL A   1      38.115  22.827  25.829  1.00  0.00     0.018 A 
ATOM     77  C   UNL A   1      35.902  21.399  24.882  1.00  0.00     0.028 A 
ATOM     78  C   UNL A   1      36.888  23.471  25.610  1.00  0.00     0.028 A 
ATOM     79  C   UNL A   1      35.756  22.758  25.184  1.00  0.00     0.052 A 
BRANCH  79  80
ATOM     80  N   UNL A   1      34.518  23.415  24.970  1.00  0.00    -0.245 N 
ATOM     81  C   UNL A   1      33.582  23.541  25.961  1.00  0.00     0.240 C 
ATOM     82  C   UNL A   1      34.147  24.062  23.806  1.00  0.00     0.292 C 
ATOM     83  O   UNL A   1      33.588  23.039  27.078  1.00  0.00    -0.274 OA
ATOM     84  C   UNL A   1      32.520  24.495  25.524  1.00  0.00     0.176 C 
ATOM     85  C   UNL A   1      32.859  24.844  24.086  1.00  0.00     0.284 C 
ATOM     86  O   UNL A   1      34.744  24.051  22.736  1.00  0.00    -0.267 OA
BRANCH  85  87
ATOM     87  N   UNL A   1      31.816  24.750  23.041  1.00  0.00    -0.321 N 
ATOM     88  C   UNL A   1      30.410  24.658  23.469  1.00  0.00     0.284 C 
ATOM     89  C   UNL A   1      31.915  25.803  22.003  1.00  0.00     0.284 C 
ATOM     90  H   UNL A   1      32.052  23.834  22.660  1.00  0.00     0.348 HD
ATOM     91  C   UNL A   1      29.735  25.978  23.898  1.00  0.00     0.178 C 
ATOM     92  C   UNL A   1      31.341  27.195  22.364  1.00  0.00     0.178 C 
ATOM     93  N   UNL A   1      30.016  27.102  22.996  1.00  0.00    -0.360 N 
BRANCH  93  94
ATOM     94  C   UNL A   1      29.317  28.292  23.177  1.00  0.00     0.037 A 
ATOM     95  C   UNL A   1      27.921  28.374  23.053  1.00  0.00     0.029 A 
ATOM     96  C   UNL A   1      30.013  29.473  23.473  1.00  0.00     0.029 A 
ATOM     97  C   UNL A   1      27.248  29.595  23.168  1.00  0.00     0.041 A 
ATOM     98  C   UNL A   1      29.350  30.699  23.587  1.00  0.00     0.041 A 
ATOM     99  C   UNL A   1      27.974  30.750  23.421  1.00  0.00     0.123 A 
ATOM    100  F   UNL A   1      27.337  31.925  23.507  1.00  0.00    -0.207 F 
ENDBRANCH  93  94
ENDBRANCH  85  87
ENDBRANCH  79  80
ENDBRANCH  72  74
ENDBRANCH  71  72
ENDBRANCH   1  71
TORSDOF 14
ENDMDL
MODEL 3
REMARK VINA RESULT:     -14.3      5.181     10.518
REMARK SMILES O=C(OCCOC(=O)c1ccc(N2C(=O)C[C@H]([NH+]3CCN(c4ccc(F)cc4)CC3)C2=O)cc1)c1ccc(-c2c3nc(c(-c4c(F)c(F)c(F)c(F)c4F)c4ccc([nH]4)c(-c4c(F)c(F)c(F)c(F)c4F)c4nc(c(-c5c(F)c(F)c(F)c(F)c5F)c5ccc2[nH]5)C=C4)C=C3)cc1
REMARK SMILES IDX 5 1 4 2 3 3 2 4 1 5 35 6 36 7 97 8 37 9 96 10 38 11 39 12
REMARK SMILES IDX 40 13 90 14 41 15 95 16 89 17 91 18 42 19 94 20 88 21 87 22
REMARK SMILES IDX 43 24 75 25 55 26 74 27 56 28 59 29 73 30 92 31 57 32 58 33
REMARK SMILES IDX 72 35 93 36 60 37 44 38 45 39 53 40 46 41 47 42 51 43 54 44
REMARK SMILES IDX 48 45 49 46 52 47 50 48 76 49 77 50 85 51 78 52 79 53 83 54
REMARK SMILES IDX 86 55 80 56 81 57 84 58 82 59 61 60 62 61 70 62 63 63 64 64
REMARK SMILES IDX 68 65 71 66 65 67 66 68 69 69 67 70 6 71 7 72 8 73 9 74
REMARK SMILES IDX 10 75 34 76 11 77 33 78 12 79 13 80 14 81 31 82 15 83 16 84
REMARK SMILES IDX 17 85 32 86 18 87 19 88 30 89 20 91 29 92 21 93 22 94 23 95
REMARK SMILES IDX 28 96 24 97 27 98 25 99 26 100
REMARK H PARENT 91 23 59 34 18 90
REMARK Flexibility Score: inf
ROOT
ATOM      1  C   UNL A   1      34.318  33.849  28.865  1.00  0.00     0.275 C 
ENDROOT
BRANCH   1   2
ATOM      2  C   UNL A   1      34.395  33.928  30.395  1.00  0.00     0.275 C 
BRANCH   2   3
ATOM      3  O   UNL A   1      34.443  32.649  31.049  1.00  0.00    -0.458 OA
BRANCH   3   4
ATOM      4  C   UNL A   1      35.360  32.153  31.909  1.00  0.00     0.338 C 
ATOM      5  O   UNL A   1      35.195  32.344  33.113  1.00  0.00    -0.246 OA
BRANCH   4   6
ATOM      6  C   UNL A   1      36.649  31.512  31.483  1.00  0.00     0.060 A 
ATOM      7  C   UNL A   1      37.655  31.005  32.311  1.00  0.00     0.016 A 
ATOM      8  C   UNL A   1      36.827  31.380  30.095  1.00  0.00     0.016 A 
ATOM      9  C   UNL A   1      38.753  30.311  31.791  1.00  0.00     0.010 A 
ATOM     10  C   UNL A   1      37.909  30.673  29.570  1.00  0.00     0.010 A 
ATOM     11  C   UNL A   1      38.880  30.129  30.418  1.00  0.00    -0.014 A 
BRANCH  11  12
ATOM     12  C   UNL A   1      40.120  29.575  29.835  1.00  0.00     0.031 A 
ATOM     13  C   UNL A   1      41.265  30.520  29.654  1.00  0.00     0.074 A 
ATOM     14  C   UNL A   1      40.227  28.283  29.478  1.00  0.00     0.049 A 
ATOM     15  N   UNL A   1      42.418  30.330  29.074  1.00  0.00    -0.248 NA
ATOM     16  C   UNL A   1      41.087  31.865  30.229  1.00  0.00     0.031 C 
ATOM     17  C   UNL A   1      39.229  27.252  29.739  1.00  0.00     0.029 A 
ATOM     18  N   UNL A   1      41.216  27.617  28.796  1.00  0.00    -0.354 N 
ATOM     19  C   UNL A   1      43.102  31.527  29.228  1.00  0.00     0.074 A 
ATOM     20  C   UNL A   1      42.211  32.460  29.875  1.00  0.00     0.031 C 
ATOM     21  C   UNL A   1      39.608  26.106  29.151  1.00  0.00     0.029 A 
ATOM     22  C   UNL A   1      40.877  26.325  28.466  1.00  0.00     0.049 A 
ATOM     23  H   UNL A   1      42.082  28.024  28.565  1.00  0.00     0.167 HD
ATOM     24  C   UNL A   1      44.381  31.806  28.894  1.00  0.00     0.037 A 
ATOM     25  C   UNL A   1      41.508  25.436  27.673  1.00  0.00     0.037 A 
ATOM     26  C   UNL A   1      45.235  30.867  28.228  1.00  0.00     0.049 A 
ATOM     27  C   UNL A   1      42.860  25.827  27.122  1.00  0.00     0.074 A 
ATOM     28  C   UNL A   1      46.548  31.017  27.835  1.00  0.00     0.029 A 
ATOM     29  N   UNL A   1      44.834  29.594  27.836  1.00  0.00    -0.354 N 
ATOM     30  N   UNL A   1      43.514  26.954  27.286  1.00  0.00    -0.248 NA
ATOM     31  C   UNL A   1      43.566  24.844  26.291  1.00  0.00     0.031 C 
ATOM     32  C   UNL A   1      46.922  29.859  27.144  1.00  0.00     0.029 A 
ATOM     33  C   UNL A   1      45.863  28.959  27.169  1.00  0.00     0.049 A 
ATOM     34  H   UNL A   1      43.946  29.204  28.008  1.00  0.00     0.167 HD
ATOM     35  C   UNL A   1      44.743  26.783  26.662  1.00  0.00     0.074 A 
ATOM     36  C   UNL A   1      44.719  25.463  26.064  1.00  0.00     0.031 C 
ATOM     37  C   UNL A   1      45.807  27.626  26.616  1.00  0.00     0.037 A 
BRANCH  24  38
ATOM     38  C   UNL A   1      44.872  33.185  29.220  1.00  0.00     0.064 A 
ATOM     39  C   UNL A   1      44.653  34.269  28.351  1.00  0.00     0.173 A 
ATOM     40  C   UNL A   1      45.652  33.409  30.362  1.00  0.00     0.173 A 
ATOM     41  F   UNL A   1      43.933  34.102  27.231  1.00  0.00    -0.203 F 
ATOM     42  C   UNL A   1      45.252  35.505  28.581  1.00  0.00     0.198 A 
ATOM     43  C   UNL A   1      46.219  34.657  30.608  1.00  0.00     0.198 A 
ATOM     44  F   UNL A   1      45.892  32.410  31.224  1.00  0.00    -0.203 F 
ATOM     45  F   UNL A   1      45.109  36.494  27.687  1.00  0.00    -0.200 F 
ATOM     46  C   UNL A   1      46.035  35.697  29.709  1.00  0.00     0.200 A 
ATOM     47  F   UNL A   1      46.970  34.844  31.701  1.00  0.00    -0.200 F 
ATOM     48  F   UNL A   1      46.631  36.879  29.917  1.00  0.00    -0.200 F 
ENDBRANCH  24  38
BRANCH  25  49
ATOM     49  C   UNL A   1      40.860  24.132  27.347  1.00  0.00     0.064 A 
ATOM     50  C   UNL A   1      41.326  22.919  27.868  1.00  0.00     0.173 A 
ATOM     51  C   UNL A   1      39.742  24.070  26.498  1.00  0.00     0.173 A 
ATOM     52  F   UNL A   1      42.379  22.909  28.698  1.00  0.00    -0.203 F 
ATOM     53  C   UNL A   1      40.732  21.702  27.522  1.00  0.00     0.198 A 
ATOM     54  C   UNL A   1      39.145  22.858  26.153  1.00  0.00     0.198 A 
ATOM     55  F   UNL A   1      39.215  25.197  26.000  1.00  0.00    -0.203 F 
ATOM     56  F   UNL A   1      41.222  20.556  28.014  1.00  0.00    -0.200 F 
ATOM     57  C   UNL A   1      39.646  21.672  26.660  1.00  0.00     0.200 A 
ATOM     58  F   UNL A   1      38.099  22.843  25.316  1.00  0.00    -0.200 F 
ATOM     59  F   UNL A   1      39.087  20.504  26.315  1.00  0.00    -0.200 F 
ENDBRANCH  25  49
BRANCH  37  60
ATOM     60  C   UNL A   1      47.070  27.121  25.983  1.00  0.00     0.064 A 
ATOM     61  C   UNL A   1      47.395  27.399  24.650  1.00  0.00     0.173 A 
ATOM     62  C   UNL A   1      48.025  26.462  26.775  1.00  0.00     0.173 A 
ATOM     63  F   UNL A   1      46.511  28.017  23.854  1.00  0.00    -0.203 F 
ATOM     64  C   UNL A   1      48.635  27.036  24.131  1.00  0.00     0.198 A 
ATOM     65  C   UNL A   1      49.273  26.129  26.262  1.00  0.00     0.198 A 
ATOM     66  F   UNL A   1      47.761  26.185  28.061  1.00  0.00    -0.203 F 
ATOM     67  F   UNL A   1      48.923  27.294  22.848  1.00  0.00    -0.200 F 
ATOM     68  C   UNL A   1      49.577  26.417  24.941  1.00  0.00     0.200 A 
ATOM     69  F   UNL A   1      50.189  25.552  27.053  1.00  0.00    -0.200 F 
ATOM     70  F   UNL A   1      50.783  26.101  24.447  1.00  0.00    -0.200 F 
ENDBRANCH  37  60
ENDBRANCH  11  12
ENDBRANCH   4   6
ENDBRANCH   3   4
ENDBRANCH   2   3
ENDBRANCH   1   2
BRANCH   1  71
ATOM     71  O   UNL A   1      34.069  32.525  28.360  1.00  0.00    -0.458 OA
BRANCH  71  72
ATOM     72  C   UNL A   1      32.935  32.388  27.616  1.00  0.00     0.338 C 
ATOM     73  O   UNL A   1      32.147  33.259  27.322  1.00  0.00    -0.246 OA
BRANCH  72  74
ATOM     74  C   UNL A   1      32.870  31.009  27.077  1.00  0.00     0.060 A 
ATOM     75  C   UNL A   1      31.775  30.651  26.285  1.00  0.00     0.018 A 
ATOM     76  C   UNL A   1      33.874  30.078  27.332  1.00  0.00     0.018 A 
ATOM     77  C   UNL A   1      31.738  29.398  25.654  1.00  0.00     0.028 A 
ATOM     78  C   UNL A   1      33.778  28.791  26.781  1.00  0.00     0.028 A 
ATOM     79  C   UNL A   1      32.741  28.452  25.897  1.00  0.00     0.052 A 
BRANCH  79  80
ATOM     80  N   UNL A   1      32.653  27.151  25.340  1.00  0.00    -0.245 N 
ATOM     81  C   UNL A   1      33.357  26.792  24.221  1.00  0.00     0.240 C 
ATOM     82  C   UNL A   1      31.943  26.095  25.881  1.00  0.00     0.292 C 
ATOM     83  O   UNL A   1      34.029  27.505  23.487  1.00  0.00    -0.274 OA
ATOM     84  C   UNL A   1      33.272  25.313  24.035  1.00  0.00     0.176 C 
ATOM     85  C   UNL A   1      32.322  24.824  25.114  1.00  0.00     0.284 C 
ATOM     86  O   UNL A   1      31.166  26.139  26.827  1.00  0.00    -0.267 OA
BRANCH  85  87
ATOM     87  N   UNL A   1      31.195  23.937  24.753  1.00  0.00    -0.321 N 
ATOM     88  C   UNL A   1      31.154  23.383  23.389  1.00  0.00     0.284 C 
ATOM     89  C   UNL A   1      30.981  22.825  25.709  1.00  0.00     0.284 C 
ATOM     90  H   UNL A   1      30.434  24.615  24.801  1.00  0.00     0.348 HD
ATOM     91  C   UNL A   1      32.076  22.176  23.110  1.00  0.00     0.178 C 
ATOM     92  C   UNL A   1      31.912  21.596  25.571  1.00  0.00     0.178 C 
ATOM     93  N   UNL A   1      32.053  21.162  24.172  1.00  0.00    -0.360 N 
BRANCH  93  94
ATOM     94  C   UNL A   1      32.699  19.949  23.949  1.00  0.00     0.037 A 
ATOM     95  C   UNL A   1      32.222  18.997  23.033  1.00  0.00     0.029 A 
ATOM     96  C   UNL A   1      33.860  19.633  24.669  1.00  0.00     0.029 A 
ATOM     97  C   UNL A   1      32.848  17.756  22.879  1.00  0.00     0.041 A 
ATOM     98  C   UNL A   1      34.491  18.394  24.524  1.00  0.00     0.041 A 
ATOM     99  C   UNL A   1      33.970  17.461  23.638  1.00  0.00     0.123 A 
ATOM    100  F   UNL A   1      34.558  16.264  23.512  1.00  0.00    -0.207 F 
ENDBRANCH  93  94
ENDBRANCH  85  87
ENDBRANCH  79  80
ENDBRANCH  72  74
ENDBRANCH  71  72
ENDBRANCH   1  71
TORSDOF 14
ENDMDL
