MODEL 1
REMARK VINA RESULT:     -15.0      0.000      0.000
REMARK SMILES Cc1cccc(-n2c(C)cc(/C=N\c3ccc(O)c(C(=O)OCCOC(=O)c4ccc(-c5c6nc(c(-c7c(F)c(F)c(F)c(F)c7F)c7ccc([nH]7)c(-c7c(F)c(F)c(F)c(F)c7F)c7nc(c(-c8c(F)c(F)c(F)c(F)c8F)c8ccc5[nH]8)C=C7)C=C6)cc4)c3)c2C)c1
REMARK SMILES IDX 23 1 22 2 20 3 21 4 19 5 14 6 15 7 91 8 16 9 17 10 13 11
REMARK SMILES IDX 12 12 11 13 7 14 8 15 92 16 9 17 10 18 93 19 6 20 1 21 2 22
REMARK SMILES IDX 3 23 94 24 4 25 5 26 18 27 24 29 25 30 26 31 27 32 28 33
REMARK SMILES IDX 29 34 90 35 30 36 89 37 31 38 32 39 33 40 83 41 34 42 88 43
REMARK SMILES IDX 82 44 84 45 35 46 87 47 81 48 80 49 36 51 68 52 48 53 67 54
REMARK SMILES IDX 49 55 52 56 66 57 85 58 50 59 51 60 65 62 86 63 53 64 37 65
REMARK SMILES IDX 38 66 46 67 39 68 40 69 44 70 47 71 41 72 42 73 45 74 43 75
REMARK SMILES IDX 69 76 70 77 78 78 71 79 72 80 76 81 79 82 73 83 74 84 77 85
REMARK SMILES IDX 75 86 54 87 55 88 63 89 56 90 57 91 61 92 64 93 58 94 59 95
REMARK SMILES IDX 62 96 60 97
REMARK H PARENT 18 28 84 50 52 61
REMARK Flexibility Score: inf
ROOT
ATOM      1  C   UNL A   1      39.594  21.814  26.609  1.00  0.00     0.275 C 
ENDROOT
BRANCH   1   2
ATOM      2  O   UNL A   1      38.735  21.726  25.454  1.00  0.00    -0.458 OA
BRANCH   2   3
ATOM      3  C   UNL A   1      37.600  22.707  25.356  1.00  0.00     0.342 C 
ATOM      4  O   UNL A   1      38.197  23.734  25.805  1.00  0.00    -0.246 OA
BRANCH   3   5
ATOM      5  C   UNL A   1      35.609  22.357  24.607  1.00  0.00     0.103 A 
ATOM      6  C   UNL A   1      33.653  22.803  22.710  1.00  0.00     0.064 A 
ATOM      7  C   UNL A   1      32.893  21.735  23.093  1.00  0.00     0.032 A 
ATOM      8  C   UNL A   1      34.907  23.015  23.366  1.00  0.00     0.048 A 
ATOM      9  C   UNL A   1      33.258  21.084  24.255  1.00  0.00     0.049 A 
ATOM     10  C   UNL A   1      34.444  21.426  25.003  1.00  0.00     0.130 A 
BRANCH   6  11
ATOM     11  N   UNL A   1      33.304  23.635  21.645  1.00  0.00    -0.256 NA
ATOM     12  C   UNL A   1      32.839  24.849  21.735  1.00  0.00     0.121 C 
BRANCH  12  13
ATOM     13  C   UNL A   1      32.510  25.722  22.866  1.00  0.00     0.014 A 
ATOM     14  N   UNL A   1      32.397  27.322  24.463  1.00  0.00    -0.318 N 
ATOM     15  C   UNL A   1      31.561  26.304  24.875  1.00  0.00     0.021 A 
ATOM     16  C   UNL A   1      32.882  27.024  23.190  1.00  0.00     0.029 A 
ATOM     17  C   UNL A   1      30.764  26.359  26.133  1.00  0.00     0.065 C 
ATOM     18  C   UNL A   1      31.597  25.328  23.900  1.00  0.00     0.033 A 
ATOM     19  C   UNL A   1      33.736  27.991  22.455  1.00  0.00     0.065 C 
BRANCH  14  20
ATOM     20  C   UNL A   1      32.846  28.413  25.253  1.00  0.00     0.046 A 
ATOM     21  C   UNL A   1      31.403  31.701  26.501  1.00  0.00     0.044 C 
ATOM     22  C   UNL A   1      32.276  30.492  26.349  1.00  0.00    -0.049 A 
ATOM     23  C   UNL A   1      33.315  30.268  27.266  1.00  0.00     0.003 A 
ATOM     24  C   UNL A   1      32.043  29.556  25.333  1.00  0.00     0.030 A 
ATOM     25  C   UNL A   1      34.150  29.158  27.139  1.00  0.00     0.002 A 
ATOM     26  C   UNL A   1      33.931  28.241  26.117  1.00  0.00     0.026 A 
ENDBRANCH  14  20
ENDBRANCH  12  13
ENDBRANCH   6  11
BRANCH  10  27
ATOM     27  O   UNL A   1      34.259  20.846  26.272  1.00  0.00    -0.507 OA
ATOM     28  H   UNL A   1      34.068  19.932  26.346  1.00  0.00     0.293 HD
ENDBRANCH  10  27
ENDBRANCH   3   5
ENDBRANCH   2   3
ENDBRANCH   1   2
BRANCH   1  29
ATOM     29  C   UNL A   1      41.053  21.690  26.149  1.00  0.00     0.275 C 
BRANCH  29  30
ATOM     30  O   UNL A   1      41.677  22.953  25.790  1.00  0.00    -0.458 OA
BRANCH  30  31
ATOM     31  C   UNL A   1      41.844  23.898  26.759  1.00  0.00     0.338 C 
ATOM     32  O   UNL A   1      42.621  23.836  27.691  1.00  0.00    -0.246 OA
BRANCH  31  33
ATOM     33  C   UNL A   1      40.842  24.976  26.610  1.00  0.00     0.060 A 
ATOM     34  C   UNL A   1      41.396  26.469  25.750  1.00  0.00     0.016 A 
ATOM     35  C   UNL A   1      39.734  25.102  28.022  1.00  0.00     0.016 A 
ATOM     36  C   UNL A   1      40.867  28.135  26.371  1.00  0.00     0.010 A 
ATOM     37  C   UNL A   1      39.239  26.761  28.649  1.00  0.00     0.010 A 
ATOM     38  C   UNL A   1      39.815  28.261  27.830  1.00  0.00    -0.014 A 
BRANCH  38  39
ATOM     39  C   UNL A   1      39.965  29.370  28.775  1.00  0.00     0.031 A 
ATOM     40  C   UNL A   1      38.878  30.343  28.952  1.00  0.00     0.074 A 
ATOM     41  C   UNL A   1      41.019  29.344  29.626  1.00  0.00     0.049 A 
ATOM     42  N   UNL A   1      39.055  31.486  29.513  1.00  0.00    -0.248 NA
ATOM     43  C   UNL A   1      37.511  30.152  28.485  1.00  0.00     0.031 C 
ATOM     44  C   UNL A   1      41.230  30.074  30.872  1.00  0.00     0.029 A 
ATOM     45  N   UNL A   1      42.222  28.676  29.453  1.00  0.00    -0.354 N 
ATOM     46  C   UNL A   1      37.827  32.065  29.715  1.00  0.00     0.074 A 
ATOM     47  C   UNL A   1      36.897  31.218  29.013  1.00  0.00     0.031 C 
ATOM     48  C   UNL A   1      42.531  29.999  31.213  1.00  0.00     0.029 A 
ATOM     49  C   UNL A   1      43.244  29.311  30.149  1.00  0.00     0.049 A 
ATOM     50  H   UNL A   1      42.336  27.861  28.911  1.00  0.00     0.167 HD
ATOM     51  C   UNL A   1      37.760  33.146  30.544  1.00  0.00     0.037 A 
ATOM     52  C   UNL A   1      44.280  29.819  29.415  1.00  0.00     0.037 A 
ATOM     53  C   UNL A   1      39.099  33.500  31.025  1.00  0.00     0.049 A 
ATOM     54  C   UNL A   1      44.146  31.326  29.225  1.00  0.00     0.074 A 
ATOM     55  C   UNL A   1      39.826  33.209  32.169  1.00  0.00     0.029 A 
ATOM     56  N   UNL A   1      40.028  33.928  30.096  1.00  0.00    -0.354 N 
ATOM     57  N   UNL A   1      43.209  32.057  29.770  1.00  0.00    -0.248 NA
ATOM     58  C   UNL A   1      45.015  32.121  28.359  1.00  0.00     0.031 C 
ATOM     59  C   UNL A   1      41.207  33.450  31.889  1.00  0.00     0.029 A 
ATOM     60  C   UNL A   1      41.315  33.923  30.592  1.00  0.00     0.049 A 
ATOM     61  H   UNL A   1      39.797  34.203  29.180  1.00  0.00     0.167 HD
ATOM     62  C   UNL A   1      43.288  33.345  29.322  1.00  0.00     0.074 A 
ATOM     63  C   UNL A   1      44.430  33.330  28.422  1.00  0.00     0.031 C 
ATOM     64  C   UNL A   1      42.402  34.318  29.704  1.00  0.00     0.037 A 
BRANCH  51  65
ATOM     65  C   UNL A   1      36.490  33.763  31.075  1.00  0.00     0.064 A 
ATOM     66  C   UNL A   1      35.528  34.284  30.183  1.00  0.00     0.173 A 
ATOM     67  C   UNL A   1      36.161  33.895  32.438  1.00  0.00     0.173 A 
ATOM     68  F   UNL A   1      35.661  34.150  28.857  1.00  0.00    -0.203 F 
ATOM     69  C   UNL A   1      34.389  34.967  30.618  1.00  0.00     0.198 A 
ATOM     70  C   UNL A   1      35.046  34.621  32.876  1.00  0.00     0.198 A 
ATOM     71  F   UNL A   1      36.866  33.278  33.393  1.00  0.00    -0.203 F 
ATOM     72  F   UNL A   1      33.515  35.442  29.719  1.00  0.00    -0.200 F 
ATOM     73  C   UNL A   1      34.164  35.164  31.964  1.00  0.00     0.200 A 
ATOM     74  F   UNL A   1      34.830  34.781  34.189  1.00  0.00    -0.200 F 
ATOM     75  F   UNL A   1      33.092  35.851  32.382  1.00  0.00    -0.200 F 
ENDBRANCH  51  65
BRANCH  52  76
ATOM     76  C   UNL A   1      44.793  28.816  28.419  1.00  0.00     0.064 A 
ATOM     77  C   UNL A   1      45.347  27.617  28.929  1.00  0.00     0.173 A 
ATOM     78  C   UNL A   1      44.446  28.815  27.063  1.00  0.00     0.173 A 
ATOM     79  F   UNL A   1      45.740  27.557  30.213  1.00  0.00    -0.203 F 
ATOM     80  C   UNL A   1      45.398  26.445  28.175  1.00  0.00     0.198 A 
ATOM     81  C   UNL A   1      44.526  27.642  26.298  1.00  0.00     0.198 A 
ATOM     82  F   UNL A   1      43.887  29.895  26.501  1.00  0.00    -0.203 F 
ATOM     83  F   UNL A   1      45.797  25.296  28.743  1.00  0.00    -0.200 F 
ATOM     84  C   UNL A   1      44.963  26.452  26.865  1.00  0.00     0.200 A 
ATOM     85  F   UNL A   1      44.047  27.632  25.045  1.00  0.00    -0.200 F 
ATOM     86  F   UNL A   1      44.902  25.309  26.166  1.00  0.00    -0.200 F 
ENDBRANCH  52  76
BRANCH  64  87
ATOM     87  C   UNL A   1      42.489  35.754  29.241  1.00  0.00     0.064 A 
ATOM     88  C   UNL A   1      41.923  36.183  28.031  1.00  0.00     0.173 A 
ATOM     89  C   UNL A   1      43.233  36.734  29.941  1.00  0.00     0.173 A 
ATOM     90  F   UNL A   1      41.313  35.316  27.210  1.00  0.00    -0.203 F 
ATOM     91  C   UNL A   1      41.993  37.515  27.616  1.00  0.00     0.198 A 
ATOM     92  C   UNL A   1      43.365  38.043  29.488  1.00  0.00     0.198 A 
ATOM     93  F   UNL A   1      43.837  36.478  31.109  1.00  0.00    -0.203 F 
ATOM     94  F   UNL A   1      41.354  37.895  26.500  1.00  0.00    -0.200 F 
ATOM     95  C   UNL A   1      42.715  38.443  28.343  1.00  0.00     0.200 A 
ATOM     96  F   UNL A   1      44.112  38.912  30.183  1.00  0.00    -0.200 F 
ATOM     97  F   UNL A   1      42.787  39.718  27.940  1.00  0.00    -0.200 F 
ENDBRANCH  64  87
ENDBRANCH  38  39
ENDBRANCH  31  33
ENDBRANCH  30  31
ENDBRANCH  29  30
ENDBRANCH   1  29
TORSDOF 15
ENDMDL
MODEL 2
REMARK VINA RESULT:     -14.9      3.929     10.540
REMARK SMILES Cc1cccc(-n2c(C)cc(/C=N\c3ccc(O)c(C(=O)OCCOC(=O)c4ccc(-c5c6nc(c(-c7c(F)c(F)c(F)c(F)c7F)c7ccc([nH]7)c(-c7c(F)c(F)c(F)c(F)c7F)c7nc(c(-c8c(F)c(F)c(F)c(F)c8F)c8ccc5[nH]8)C=C7)C=C6)cc4)c3)c2C)c1
REMARK SMILES IDX 23 1 22 2 20 3 21 4 19 5 14 6 15 7 91 8 16 9 17 10 13 11
REMARK SMILES IDX 12 12 11 13 7 14 8 15 92 16 9 17 10 18 93 19 6 20 1 21 2 22
REMARK SMILES IDX 3 23 94 24 4 25 5 26 18 27 24 29 25 30 26 31 27 32 28 33
REMARK SMILES IDX 29 34 90 35 30 36 89 37 31 38 32 39 33 40 83 41 34 42 88 43
REMARK SMILES IDX 82 44 84 45 35 46 87 47 81 48 80 49 36 51 68 52 48 53 67 54
REMARK SMILES IDX 49 55 52 56 66 57 85 58 50 59 51 60 65 62 86 63 53 64 37 65
REMARK SMILES IDX 38 66 46 67 39 68 40 69 44 70 47 71 41 72 42 73 45 74 43 75
REMARK SMILES IDX 69 76 70 77 78 78 71 79 72 80 76 81 79 82 73 83 74 84 77 85
REMARK SMILES IDX 75 86 54 87 55 88 63 89 56 90 57 91 61 92 64 93 58 94 59 95
REMARK SMILES IDX 62 96 60 97
REMARK H PARENT 18 28 84 50 52 61
REMARK Flexibility Score: inf
ROOT
ATOM      1  C   UNL A   1      34.385  31.863  27.627  1.00  0.00     0.275 C 
ENDROOT
BRANCH   1   2
ATOM      2  O   UNL A   1      33.208  31.029  27.616  1.00  0.00    -0.458 OA
BRANCH   2   3
ATOM      3  C   UNL A   1      33.374  29.597  27.190  1.00  0.00     0.342 C 
ATOM      4  O   UNL A   1      34.477  29.354  27.771  1.00  0.00    -0.246 OA
BRANCH   3   5
ATOM      5  C   UNL A   1      32.036  28.409  25.988  1.00  0.00     0.103 A 
ATOM      6  C   UNL A   1      30.313  26.268  25.733  1.00  0.00     0.064 A 
ATOM      7  C   UNL A   1      29.754  26.723  24.573  1.00  0.00     0.032 A 
ATOM      8  C   UNL A   1      31.289  27.085  26.384  1.00  0.00     0.048 A 
ATOM      9  C   UNL A   1      30.350  27.814  23.971  1.00  0.00     0.049 A 
ATOM     10  C   UNL A   1      31.454  28.529  24.565  1.00  0.00     0.130 A 
BRANCH   6  11
ATOM     11  N   UNL A   1      29.902  25.088  26.357  1.00  0.00    -0.256 NA
ATOM     12  C   UNL A   1      30.545  23.955  26.365  1.00  0.00     0.121 C 
BRANCH  12  13
ATOM     13  C   UNL A   1      31.807  23.508  25.768  1.00  0.00     0.014 A 
ATOM     14  N   UNL A   1      33.916  22.822  25.312  1.00  0.00    -0.318 N 
ATOM     15  C   UNL A   1      33.359  23.192  24.105  1.00  0.00     0.021 A 
ATOM     16  C   UNL A   1      32.941  22.901  26.305  1.00  0.00     0.029 A 
ATOM     17  C   UNL A   1      34.083  23.097  22.806  1.00  0.00     0.065 C 
ATOM     18  C   UNL A   1      32.062  23.591  24.359  1.00  0.00     0.033 A 
ATOM     19  C   UNL A   1      33.232  22.471  27.696  1.00  0.00     0.065 C 
BRANCH  14  20
ATOM     20  C   UNL A   1      35.291  22.573  25.562  1.00  0.00     0.046 A 
ATOM     21  C   UNL A   1      37.759  19.764  24.877  1.00  0.00     0.044 C 
ATOM     22  C   UNL A   1      37.181  21.107  25.209  1.00  0.00    -0.049 A 
ATOM     23  C   UNL A   1      38.038  22.205  25.384  1.00  0.00     0.003 A 
ATOM     24  C   UNL A   1      35.796  21.294  25.302  1.00  0.00     0.030 A 
ATOM     25  C   UNL A   1      37.528  23.462  25.706  1.00  0.00     0.002 A 
ATOM     26  C   UNL A   1      36.153  23.643  25.819  1.00  0.00     0.026 A 
ENDBRANCH  14  20
ENDBRANCH  12  13
ENDBRANCH   6  11
BRANCH  10  27
ATOM     27  O   UNL A   1      32.015  29.277  23.514  1.00  0.00    -0.507 OA
ATOM     28  H   UNL A   1      32.605  28.870  22.911  1.00  0.00     0.293 HD
ENDBRANCH  10  27
ENDBRANCH   3   5
ENDBRANCH   2   3
ENDBRANCH   1   2
BRANCH   1  29
ATOM     29  C   UNL A   1      34.418  32.652  28.944  1.00  0.00     0.275 C 
BRANCH  29  30
ATOM     30  O   UNL A   1      35.151  31.996  30.015  1.00  0.00    -0.458 OA
BRANCH  30  31
ATOM     31  C   UNL A   1      36.485  31.769  29.850  1.00  0.00     0.338 C 
ATOM     32  O   UNL A   1      37.359  32.613  29.847  1.00  0.00    -0.246 OA
BRANCH  31  33
ATOM     33  C   UNL A   1      36.732  30.345  29.533  1.00  0.00     0.060 A 
ATOM     34  C   UNL A   1      37.084  29.261  30.940  1.00  0.00     0.016 A 
ATOM     35  C   UNL A   1      37.601  30.116  27.974  1.00  0.00     0.016 A 
ATOM     36  C   UNL A   1      38.391  27.954  30.786  1.00  0.00     0.010 A 
ATOM     37  C   UNL A   1      38.918  28.835  27.842  1.00  0.00     0.010 A 
ATOM     38  C   UNL A   1      39.310  27.774  29.245  1.00  0.00    -0.014 A 
BRANCH  38  39
ATOM     39  C   UNL A   1      40.722  27.383  29.251  1.00  0.00     0.031 A 
ATOM     40  C   UNL A   1      41.135  26.097  28.673  1.00  0.00     0.074 A 
ATOM     41  C   UNL A   1      41.641  28.319  29.591  1.00  0.00     0.049 A 
ATOM     42  N   UNL A   1      42.278  25.563  28.916  1.00  0.00    -0.248 NA
ATOM     43  C   UNL A   1      40.301  25.270  27.809  1.00  0.00     0.031 C 
ATOM     44  C   UNL A   1      43.080  28.346  29.346  1.00  0.00     0.029 A 
ATOM     45  N   UNL A   1      41.439  29.452  30.365  1.00  0.00    -0.354 N 
ATOM     46  C   UNL A   1      42.444  24.490  28.077  1.00  0.00     0.074 A 
ATOM     47  C   UNL A   1      41.163  24.316  27.438  1.00  0.00     0.031 C 
ATOM     48  C   UNL A   1      43.644  29.283  30.131  1.00  0.00     0.029 A 
ATOM     49  C   UNL A   1      42.616  29.831  31.001  1.00  0.00     0.049 A 
ATOM     50  H   UNL A   1      40.579  29.924  30.451  1.00  0.00     0.167 HD
ATOM     51  C   UNL A   1      43.692  23.951  27.968  1.00  0.00     0.037 A 
ATOM     52  C   UNL A   1      42.623  29.812  32.368  1.00  0.00     0.037 A 
ATOM     53  C   UNL A   1      44.624  24.647  28.860  1.00  0.00     0.049 A 
ATOM     54  C   UNL A   1      43.319  28.566  32.906  1.00  0.00     0.074 A 
ATOM     55  C   UNL A   1      45.527  25.686  28.699  1.00  0.00     0.029 A 
ATOM     56  N   UNL A   1      44.406  24.555  30.221  1.00  0.00    -0.354 N 
ATOM     57  N   UNL A   1      43.914  27.673  32.159  1.00  0.00    -0.248 NA
ATOM     58  C   UNL A   1      43.347  28.193  34.319  1.00  0.00     0.031 C 
ATOM     59  C   UNL A   1      45.820  26.223  29.992  1.00  0.00     0.029 A 
ATOM     60  C   UNL A   1      45.128  25.487  30.939  1.00  0.00     0.049 A 
ATOM     61  H   UNL A   1      43.802  23.897  30.634  1.00  0.00     0.167 HD
ATOM     62  C   UNL A   1      44.341  26.623  32.921  1.00  0.00     0.074 A 
ATOM     63  C   UNL A   1      43.944  26.989  34.271  1.00  0.00     0.031 C 
ATOM     64  C   UNL A   1      44.964  25.526  32.387  1.00  0.00     0.037 A 
BRANCH  51  65
ATOM     65  C   UNL A   1      44.121  22.941  26.932  1.00  0.00     0.064 A 
ATOM     66  C   UNL A   1      45.223  23.210  26.093  1.00  0.00     0.173 A 
ATOM     67  C   UNL A   1      43.489  21.705  26.696  1.00  0.00     0.173 A 
ATOM     68  F   UNL A   1      45.977  24.305  26.261  1.00  0.00    -0.203 F 
ATOM     69  C   UNL A   1      45.594  22.366  25.043  1.00  0.00     0.198 A 
ATOM     70  C   UNL A   1      43.829  20.881  25.615  1.00  0.00     0.198 A 
ATOM     71  F   UNL A   1      42.565  21.217  27.531  1.00  0.00    -0.203 F 
ATOM     72  F   UNL A   1      46.650  22.681  24.278  1.00  0.00    -0.200 F 
ATOM     73  C   UNL A   1      44.877  21.217  24.783  1.00  0.00     0.200 A 
ATOM     74  F   UNL A   1      43.135  19.756  25.392  1.00  0.00    -0.200 F 
ATOM     75  F   UNL A   1      45.209  20.426  23.754  1.00  0.00    -0.200 F 
ENDBRANCH  51  65
BRANCH  52  76
ATOM     76  C   UNL A   1      41.411  30.497  32.936  1.00  0.00     0.064 A 
ATOM     77  C   UNL A   1      41.246  31.873  32.646  1.00  0.00     0.173 A 
ATOM     78  C   UNL A   1      40.281  29.818  33.407  1.00  0.00     0.173 A 
ATOM     79  F   UNL A   1      42.296  32.597  32.227  1.00  0.00    -0.203 F 
ATOM     80  C   UNL A   1      39.995  32.490  32.670  1.00  0.00     0.198 A 
ATOM     81  C   UNL A   1      39.029  30.450  33.459  1.00  0.00     0.198 A 
ATOM     82  F   UNL A   1      40.335  28.507  33.678  1.00  0.00    -0.203 F 
ATOM     83  F   UNL A   1      39.862  33.758  32.250  1.00  0.00    -0.200 F 
ATOM     84  C   UNL A   1      38.881  31.770  33.053  1.00  0.00     0.200 A 
ATOM     85  F   UNL A   1      37.938  29.736  33.772  1.00  0.00    -0.200 F 
ATOM     86  F   UNL A   1      37.660  32.319  32.974  1.00  0.00    -0.200 F 
ENDBRANCH  52  76
BRANCH  64  87
ATOM     87  C   UNL A   1      45.467  24.367  33.215  1.00  0.00     0.064 A 
ATOM     88  C   UNL A   1      44.628  23.317  33.618  1.00  0.00     0.173 A 
ATOM     89  C   UNL A   1      46.787  24.314  33.726  1.00  0.00     0.173 A 
ATOM     90  F   UNL A   1      43.321  23.325  33.315  1.00  0.00    -0.203 F 
ATOM     91  C   UNL A   1      45.102  22.240  34.370  1.00  0.00     0.198 A 
ATOM     92  C   UNL A   1      47.238  23.278  34.538  1.00  0.00     0.198 A 
ATOM     93  F   UNL A   1      47.706  25.245  33.437  1.00  0.00    -0.203 F 
ATOM     94  F   UNL A   1      44.285  21.215  34.648  1.00  0.00    -0.200 F 
ATOM     95  C   UNL A   1      46.406  22.222  34.831  1.00  0.00     0.200 A 
ATOM     96  F   UNL A   1      48.490  23.308  35.015  1.00  0.00    -0.200 F 
ATOM     97  F   UNL A   1      46.857  21.192  35.559  1.00  0.00    -0.200 F 
ENDBRANCH  64  87
ENDBRANCH  38  39
ENDBRANCH  31  33
ENDBRANCH  30  31
ENDBRANCH  29  30
ENDBRANCH   1  29
TORSDOF 15
ENDMDL
MODEL 3
REMARK VINA RESULT:     -14.6      1.453      2.297
REMARK SMILES Cc1cccc(-n2c(C)cc(/C=N\c3ccc(O)c(C(=O)OCCOC(=O)c4ccc(-c5c6nc(c(-c7c(F)c(F)c(F)c(F)c7F)c7ccc([nH]7)c(-c7c(F)c(F)c(F)c(F)c7F)c7nc(c(-c8c(F)c(F)c(F)c(F)c8F)c8ccc5[nH]8)C=C7)C=C6)cc4)c3)c2C)c1
REMARK SMILES IDX 23 1 22 2 20 3 21 4 19 5 14 6 15 7 91 8 16 9 17 10 13 11
REMARK SMILES IDX 12 12 11 13 7 14 8 15 92 16 9 17 10 18 93 19 6 20 1 21 2 22
REMARK SMILES IDX 3 23 94 24 4 25 5 26 18 27 24 29 25 30 26 31 27 32 28 33
REMARK SMILES IDX 29 34 90 35 30 36 89 37 31 38 32 39 33 40 83 41 34 42 88 43
REMARK SMILES IDX 82 44 84 45 35 46 87 47 81 48 80 49 36 51 68 52 48 53 67 54
REMARK SMILES IDX 49 55 52 56 66 57 85 58 50 59 51 60 65 62 86 63 53 64 37 65
REMARK SMILES IDX 38 66 46 67 39 68 40 69 44 70 47 71 41 72 42 73 45 74 43 75
REMARK SMILES IDX 69 76 70 77 78 78 71 79 72 80 76 81 79 82 73 83 74 84 77 85
REMARK SMILES IDX 75 86 54 87 55 88 63 89 56 90 57 91 61 92 64 93 58 94 59 95
REMARK SMILES IDX 62 96 60 97
REMARK H PARENT 18 28 84 50 52 61
REMARK Flexibility Score: inf
ROOT
ATOM      1  C   UNL A   1      40.658  20.131  26.092  1.00  0.00     0.275 C 
ENDROOT
BRANCH   1   2
ATOM      2  O   UNL A   1      39.513  20.995  25.944  1.00  0.00    -0.458 OA
BRANCH   2   3
ATOM      3  C   UNL A   1      38.348  20.474  25.149  1.00  0.00     0.342 C 
ATOM      4  O   UNL A   1      38.731  19.270  25.018  1.00  0.00    -0.246 OA
BRANCH   3   5
ATOM      5  C   UNL A   1      36.586  21.547  24.523  1.00  0.00     0.103 A 
ATOM      6  C   UNL A   1      33.905  22.130  24.830  1.00  0.00     0.064 A 
ATOM      7  C   UNL A   1      33.956  23.256  24.059  1.00  0.00     0.032 A 
ATOM      8  C   UNL A   1      35.122  21.421  25.078  1.00  0.00     0.048 A 
ATOM      9  C   UNL A   1      35.124  23.492  23.362  1.00  0.00     0.049 A 
ATOM     10  C   UNL A   1      36.296  22.660  23.495  1.00  0.00     0.130 A 
BRANCH   6  11
ATOM     11  N   UNL A   1      32.737  21.699  25.461  1.00  0.00    -0.256 NA
ATOM     12  C   UNL A   1      31.695  22.431  25.739  1.00  0.00     0.121 C 
BRANCH  12  13
ATOM     13  C   UNL A   1      31.377  23.848  25.543  1.00  0.00     0.014 A 
ATOM     14  N   UNL A   1      30.864  25.912  24.765  1.00  0.00    -0.318 N 
ATOM     15  C   UNL A   1      31.292  26.083  26.066  1.00  0.00     0.021 A 
ATOM     16  C   UNL A   1      30.802  24.548  24.484  1.00  0.00     0.029 A 
ATOM     17  C   UNL A   1      31.346  27.411  26.741  1.00  0.00     0.065 C 
ATOM     18  C   UNL A   1      31.587  24.831  26.567  1.00  0.00     0.033 A 
ATOM     19  C   UNL A   1      30.282  24.061  23.182  1.00  0.00     0.065 C 
BRANCH  14  20
ATOM     20  C   UNL A   1      30.683  26.935  23.798  1.00  0.00     0.046 A 
ATOM     21  C   UNL A   1      27.879  29.275  22.744  1.00  0.00     0.044 C 
ATOM     22  C   UNL A   1      29.236  28.664  22.925  1.00  0.00    -0.049 A 
ATOM     23  C   UNL A   1      30.369  29.343  22.450  1.00  0.00     0.003 A 
ATOM     24  C   UNL A   1      29.396  27.448  23.603  1.00  0.00     0.030 A 
ATOM     25  C   UNL A   1      31.641  28.790  22.593  1.00  0.00     0.002 A 
ATOM     26  C   UNL A   1      31.798  27.573  23.247  1.00  0.00     0.026 A 
ENDBRANCH  14  20
ENDBRANCH  12  13
ENDBRANCH   6  11
BRANCH  10  27
ATOM     27  O   UNL A   1      37.093  22.965  22.377  1.00  0.00    -0.507 OA
ATOM     28  H   UNL A   1      37.126  22.376  21.649  1.00  0.00     0.293 HD
ENDBRANCH  10  27
ENDBRANCH   3   5
ENDBRANCH   2   3
ENDBRANCH   1   2
BRANCH   1  29
ATOM     29  C   UNL A   1      41.920  21.000  26.198  1.00  0.00     0.275 C 
BRANCH  29  30
ATOM     30  O   UNL A   1      41.740  22.373  25.755  1.00  0.00    -0.458 OA
BRANCH  30  31
ATOM     31  C   UNL A   1      41.974  23.381  26.642  1.00  0.00     0.338 C 
ATOM     32  O   UNL A   1      42.747  23.345  27.579  1.00  0.00    -0.246 OA
BRANCH  31  33
ATOM     33  C   UNL A   1      41.048  24.509  26.400  1.00  0.00     0.060 A 
ATOM     34  C   UNL A   1      41.773  25.996  25.665  1.00  0.00     0.016 A 
ATOM     35  C   UNL A   1      39.773  24.652  27.662  1.00  0.00     0.016 A 
ATOM     36  C   UNL A   1      41.241  27.669  26.266  1.00  0.00     0.010 A 
ATOM     37  C   UNL A   1      39.274  26.316  28.273  1.00  0.00     0.010 A 
ATOM     38  C   UNL A   1      40.015  27.807  27.582  1.00  0.00    -0.014 A 
BRANCH  38  39
ATOM     39  C   UNL A   1      40.091  28.883  28.572  1.00  0.00     0.031 A 
ATOM     40  C   UNL A   1      39.003  29.866  28.682  1.00  0.00     0.074 A 
ATOM     41  C   UNL A   1      41.062  28.815  29.515  1.00  0.00     0.049 A 
ATOM     42  N   UNL A   1      39.141  30.987  29.294  1.00  0.00    -0.248 NA
ATOM     43  C   UNL A   1      37.683  29.709  28.085  1.00  0.00     0.031 C 
ATOM     44  C   UNL A   1      41.166  29.502  30.799  1.00  0.00     0.029 A 
ATOM     45  N   UNL A   1      42.268  28.135  29.431  1.00  0.00    -0.354 N 
ATOM     46  C   UNL A   1      37.906  31.577  29.402  1.00  0.00     0.074 A 
ATOM     47  C   UNL A   1      37.035  30.766  28.589  1.00  0.00     0.031 C 
ATOM     48  C   UNL A   1      42.428  29.397  31.255  1.00  0.00     0.029 A 
ATOM     49  C   UNL A   1      43.229  28.734  30.238  1.00  0.00     0.049 A 
ATOM     50  H   UNL A   1      42.422  27.337  28.875  1.00  0.00     0.167 HD
ATOM     51  C   UNL A   1      37.776  32.632  30.256  1.00  0.00     0.037 A 
ATOM     52  C   UNL A   1      44.334  29.250  29.619  1.00  0.00     0.037 A 
ATOM     53  C   UNL A   1      39.068  32.951  30.869  1.00  0.00     0.049 A 
ATOM     54  C   UNL A   1      44.234  30.764  29.468  1.00  0.00     0.074 A 
ATOM     55  C   UNL A   1      39.683  32.613  32.064  1.00  0.00     0.029 A 
ATOM     56  N   UNL A   1      40.083  33.395  30.044  1.00  0.00    -0.354 N 
ATOM     57  N   UNL A   1      43.260  31.491  29.949  1.00  0.00    -0.248 NA
ATOM     58  C   UNL A   1      45.189  31.573  28.712  1.00  0.00     0.031 C 
ATOM     59  C   UNL A   1      41.088  32.844  31.921  1.00  0.00     0.029 A 
ATOM     60  C   UNL A   1      41.320  33.356  30.655  1.00  0.00     0.049 A 
ATOM     61  H   UNL A   1      39.941  33.703  29.121  1.00  0.00     0.167 HD
ATOM     62  C   UNL A   1      43.395  32.791  29.553  1.00  0.00     0.074 A 
ATOM     63  C   UNL A   1      44.614  32.788  28.761  1.00  0.00     0.031 C 
ATOM     64  C   UNL A   1      42.488  33.764  29.883  1.00  0.00     0.037 A 
BRANCH  51  65
ATOM     65  C   UNL A   1      36.468  33.250  30.689  1.00  0.00     0.064 A 
ATOM     66  C   UNL A   1      35.674  33.952  29.757  1.00  0.00     0.173 A 
ATOM     67  C   UNL A   1      35.947  33.210  31.996  1.00  0.00     0.173 A 
ATOM     68  F   UNL A   1      35.997  33.997  28.458  1.00  0.00    -0.203 F 
ATOM     69  C   UNL A   1      34.514  34.640  30.125  1.00  0.00     0.198 A 
ATOM     70  C   UNL A   1      34.812  33.938  32.375  1.00  0.00     0.198 A 
ATOM     71  F   UNL A   1      36.474  32.420  32.939  1.00  0.00    -0.203 F 
ATOM     72  F   UNL A   1      33.805  35.292  29.192  1.00  0.00    -0.200 F 
ATOM     73  C   UNL A   1      34.100  34.661  31.440  1.00  0.00     0.200 A 
ATOM     74  F   UNL A   1      34.411  33.927  33.655  1.00  0.00    -0.200 F 
ATOM     75  F   UNL A   1      33.010  35.350  31.800  1.00  0.00    -0.200 F 
ENDBRANCH  51  65
BRANCH  52  76
ATOM     76  C   UNL A   1      44.925  28.272  28.642  1.00  0.00     0.064 A 
ATOM     77  C   UNL A   1      45.362  27.026  29.152  1.00  0.00     0.173 A 
ATOM     78  C   UNL A   1      44.748  28.351  27.256  1.00  0.00     0.173 A 
ATOM     79  F   UNL A   1      45.590  26.887  30.469  1.00  0.00    -0.203 F 
ATOM     80  C   UNL A   1      45.458  25.889  28.350  1.00  0.00     0.198 A 
ATOM     81  C   UNL A   1      44.875  27.213  26.446  1.00  0.00     0.198 A 
ATOM     82  F   UNL A   1      44.308  29.482  26.687  1.00  0.00    -0.203 F 
ATOM     83  F   UNL A   1      45.736  24.698  28.900  1.00  0.00    -0.200 F 
ATOM     84  C   UNL A   1      45.189  25.978  26.998  1.00  0.00     0.200 A 
ATOM     85  F   UNL A   1      44.554  27.285  25.145  1.00  0.00    -0.200 F 
ATOM     86  F   UNL A   1      45.169  24.873  26.238  1.00  0.00    -0.200 F 
ENDBRANCH  52  76
BRANCH  64  87
ATOM     87  C   UNL A   1      42.633  35.212  29.478  1.00  0.00     0.064 A 
ATOM     88  C   UNL A   1      43.266  36.157  30.300  1.00  0.00     0.173 A 
ATOM     89  C   UNL A   1      42.054  35.732  28.296  1.00  0.00     0.173 A 
ATOM     90  F   UNL A   1      43.733  35.814  31.510  1.00  0.00    -0.203 F 
ATOM     91  C   UNL A   1      43.412  37.491  29.913  1.00  0.00     0.198 A 
ATOM     92  C   UNL A   1      42.135  37.077  27.948  1.00  0.00     0.198 A 
ATOM     93  F   UNL A   1      41.411  34.958  27.411  1.00  0.00    -0.203 F 
ATOM     94  F   UNL A   1      44.108  38.333  30.690  1.00  0.00    -0.200 F 
ATOM     95  C   UNL A   1      42.845  37.951  28.739  1.00  0.00     0.200 A 
ATOM     96  F   UNL A   1      41.533  37.509  26.830  1.00  0.00    -0.200 F 
ATOM     97  F   UNL A   1      42.980  39.232  28.373  1.00  0.00    -0.200 F 
ENDBRANCH  64  87
ENDBRANCH  38  39
ENDBRANCH  31  33
ENDBRANCH  30  31
ENDBRANCH  29  30
ENDBRANCH   1  29
TORSDOF 15
ENDMDL
