MODEL 1
REMARK VINA RESULT:     -11.5      0.000      0.000
REMARK SMILES CO[C@@H]1C[C@H](C(=O)OCCOC(=O)c2ccc(-c3c4nc(c(-c5c(F)c(F)c(F)c(F)c5F)c5ccc([nH]5)c(-c5c(F)c(F)c(F)c(F)c5F)c5nc(c(-c6c(F)c(F)c(F)c(F)c6F)c6ccc3[nH]6)C=C5)C=C4)cc2)N(C(=O)N2CCC(C)(C)C2)C1
REMARK SMILES IDX 9 1 8 2 6 3 7 4 5 5 3 6 4 7 87 8 77 9 2 10 1 11 78 12 79 13
REMARK SMILES IDX 80 14 81 15 86 16 82 17 83 18 84 19 85 20 10 21 11 22 12 23
REMARK SMILES IDX 13 24 14 25 15 26 76 27 16 28 75 29 17 30 18 31 19 32 69 33
REMARK SMILES IDX 20 34 74 35 68 36 70 37 21 38 73 39 67 40 66 41 22 43 54 44
REMARK SMILES IDX 34 45 53 46 35 47 38 48 52 49 71 50 36 51 37 52 51 54 72 55
REMARK SMILES IDX 39 56 23 57 24 58 32 59 25 60 26 61 30 62 33 63 27 64 28 65
REMARK SMILES IDX 31 66 29 67 55 68 56 69 64 70 57 71 58 72 62 73 65 74 59 75
REMARK SMILES IDX 60 76 63 77 61 78 40 79 41 80 49 81 42 82 43 83 47 84 50 85
REMARK SMILES IDX 44 86 45 87 48 88 46 89
REMARK H PARENT 70 42 38 53
REMARK Flexibility Score: inf
ROOT
ATOM      1  C   UNL A   1      31.720  28.705  27.224  1.00  0.00     0.274 C 
ENDROOT
BRANCH   1   2
ATOM      2  O   UNL A   1      32.635  27.644  26.903  1.00  0.00    -0.461 OA
BRANCH   2   3
ATOM      3  C   UNL A   1      32.456  27.020  25.715  1.00  0.00     0.329 C 
ATOM      4  O   UNL A   1      33.301  26.977  24.825  1.00  0.00    -0.250 OA
BRANCH   3   5
ATOM      5  C   UNL A   1      31.062  26.380  25.567  1.00  0.00     0.199 C 
ATOM      6  C   UNL A   1      30.532  26.051  23.236  1.00  0.00     0.140 C 
ATOM      7  C   UNL A   1      30.154  26.890  24.461  1.00  0.00     0.071 C 
ATOM      8  C   UNL A   1      31.111  24.748  23.836  1.00  0.00     0.154 C 
ATOM      9  N   UNL A   1      31.176  24.964  25.279  1.00  0.00    -0.308 N 
BRANCH   6  10
ATOM     10  O   UNL A   1      31.498  26.690  22.399  1.00  0.00    -0.380 OA
ATOM     11  C   UNL A   1      32.314  25.781  21.663  1.00  0.00     0.195 C 
ENDBRANCH   6  10
BRANCH   9  12
ATOM     12  C   UNL A   1      31.632  24.003  26.146  1.00  0.00     0.320 C 
ATOM     13  O   UNL A   1      31.300  23.999  27.330  1.00  0.00    -0.248 OA
BRANCH  12  14
ATOM     14  N   UNL A   1      32.397  23.003  25.610  1.00  0.00    -0.324 N 
ATOM     15  C   UNL A   1      33.832  22.983  25.422  1.00  0.00     0.122 C 
ATOM     16  C   UNL A   1      31.846  21.692  25.326  1.00  0.00     0.127 C 
ATOM     17  C   UNL A   1      33.972  22.106  24.191  1.00  0.00     0.030 C 
ATOM     18  C   UNL A   1      32.898  21.010  24.412  1.00  0.00    -0.016 C 
ATOM     19  C   UNL A   1      32.278  20.572  23.081  1.00  0.00     0.013 C 
ATOM     20  C   UNL A   1      33.526  19.792  25.102  1.00  0.00     0.013 C 
ENDBRANCH  12  14
ENDBRANCH   9  12
ENDBRANCH   3   5
ENDBRANCH   2   3
ENDBRANCH   1   2
BRANCH   1  21
ATOM     21  C   UNL A   1      31.926  29.888  26.277  1.00  0.00     0.275 C 
BRANCH  21  22
ATOM     22  O   UNL A   1      33.303  30.314  26.275  1.00  0.00    -0.458 OA
BRANCH  22  23
ATOM     23  C   UNL A   1      33.586  31.341  27.108  1.00  0.00     0.338 C 
ATOM     24  O   UNL A   1      32.861  32.280  27.411  1.00  0.00    -0.246 OA
BRANCH  23  25
ATOM     25  C   UNL A   1      34.855  31.073  27.800  1.00  0.00     0.060 A 
ATOM     26  C   UNL A   1      35.026  29.799  28.352  1.00  0.00     0.016 A 
ATOM     27  C   UNL A   1      35.844  32.047  27.943  1.00  0.00     0.016 A 
ATOM     28  C   UNL A   1      36.204  29.471  29.010  1.00  0.00     0.010 A 
ATOM     29  C   UNL A   1      37.013  31.731  28.641  1.00  0.00     0.010 A 
ATOM     30  C   UNL A   1      37.197  30.442  29.171  1.00  0.00    -0.014 A 
BRANCH  30  31
ATOM     31  C   UNL A   1      38.394  30.111  29.970  1.00  0.00     0.031 A 
ATOM     32  C   UNL A   1      39.414  29.171  29.409  1.00  0.00     0.074 A 
ATOM     33  C   UNL A   1      38.576  30.686  31.170  1.00  0.00     0.049 A 
ATOM     34  N   UNL A   1      40.502  28.703  29.961  1.00  0.00    -0.248 NA
ATOM     35  C   UNL A   1      39.178  28.701  28.036  1.00  0.00     0.031 C 
ATOM     36  C   UNL A   1      37.678  31.666  31.775  1.00  0.00     0.029 A 
ATOM     37  N   UNL A   1      39.573  30.520  32.096  1.00  0.00    -0.354 N 
ATOM     38  C   UNL A   1      41.076  27.872  29.011  1.00  0.00     0.074 A 
ATOM     39  C   UNL A   1      40.215  27.897  27.847  1.00  0.00     0.031 C 
ATOM     40  C   UNL A   1      38.150  31.997  32.988  1.00  0.00     0.029 A 
ATOM     41  C   UNL A   1      39.360  31.222  33.254  1.00  0.00     0.049 A 
ATOM     42  H   UNL A   1      40.364  29.954  31.944  1.00  0.00     0.167 HD
ATOM     43  C   UNL A   1      42.215  27.146  29.109  1.00  0.00     0.037 A 
ATOM     44  C   UNL A   1      40.044  31.204  34.414  1.00  0.00     0.037 A 
ATOM     45  C   UNL A   1      43.052  27.116  30.280  1.00  0.00     0.049 A 
ATOM     46  C   UNL A   1      41.267  30.334  34.529  1.00  0.00     0.074 A 
ATOM     47  C   UNL A   1      44.226  26.413  30.487  1.00  0.00     0.029 A 
ATOM     48  N   UNL A   1      42.790  27.811  31.453  1.00  0.00    -0.354 N 
ATOM     49  N   UNL A   1      41.807  29.548  33.630  1.00  0.00    -0.248 NA
ATOM     50  C   UNL A   1      41.971  30.345  35.818  1.00  0.00     0.031 C 
ATOM     51  C   UNL A   1      44.648  26.647  31.801  1.00  0.00     0.029 A 
ATOM     52  C   UNL A   1      43.763  27.532  32.398  1.00  0.00     0.049 A 
ATOM     53  H   UNL A   1      42.024  28.414  31.591  1.00  0.00     0.167 HD
ATOM     54  C   UNL A   1      42.917  28.976  34.237  1.00  0.00     0.074 A 
ATOM     55  C   UNL A   1      42.982  29.522  35.578  1.00  0.00     0.031 C 
ATOM     56  C   UNL A   1      43.801  28.079  33.732  1.00  0.00     0.037 A 
BRANCH  43  57
ATOM     57  C   UNL A   1      42.573  26.282  27.938  1.00  0.00     0.064 A 
ATOM     58  C   UNL A   1      43.454  26.716  26.937  1.00  0.00     0.173 A 
ATOM     59  C   UNL A   1      42.004  25.005  27.806  1.00  0.00     0.173 A 
ATOM     60  F   UNL A   1      44.007  27.936  27.007  1.00  0.00    -0.203 F 
ATOM     61  C   UNL A   1      43.725  25.918  25.827  1.00  0.00     0.198 A 
ATOM     62  C   UNL A   1      42.296  24.201  26.708  1.00  0.00     0.198 A 
ATOM     63  F   UNL A   1      41.154  24.545  28.735  1.00  0.00    -0.203 F 
ATOM     64  F   UNL A   1      44.522  26.376  24.853  1.00  0.00    -0.200 F 
ATOM     65  C   UNL A   1      43.148  24.661  25.715  1.00  0.00     0.200 A 
ATOM     66  F   UNL A   1      41.741  22.986  26.603  1.00  0.00    -0.200 F 
ATOM     67  F   UNL A   1      43.400  23.900  24.641  1.00  0.00    -0.200 F 
ENDBRANCH  43  57
BRANCH  44  68
ATOM     68  C   UNL A   1      39.553  32.006  35.563  1.00  0.00     0.064 A 
ATOM     69  C   UNL A   1      38.574  31.510  36.433  1.00  0.00     0.173 A 
ATOM     70  C   UNL A   1      40.078  33.281  35.827  1.00  0.00     0.173 A 
ATOM     71  F   UNL A   1      38.026  30.308  36.207  1.00  0.00    -0.203 F 
ATOM     72  C   UNL A   1      38.140  32.258  37.526  1.00  0.00     0.198 A 
ATOM     73  C   UNL A   1      39.661  34.017  36.933  1.00  0.00     0.198 A 
ATOM     74  F   UNL A   1      41.016  33.800  35.022  1.00  0.00    -0.203 F 
ATOM     75  F   UNL A   1      37.184  31.772  38.328  1.00  0.00    -0.200 F 
ATOM     76  C   UNL A   1      38.690  33.506  37.781  1.00  0.00     0.200 A 
ATOM     77  F   UNL A   1      40.205  35.216  37.182  1.00  0.00    -0.200 F 
ATOM     78  F   UNL A   1      38.281  34.218  38.839  1.00  0.00    -0.200 F 
ENDBRANCH  44  68
BRANCH  56  79
ATOM     79  C   UNL A   1      44.918  27.640  34.631  1.00  0.00     0.064 A 
ATOM     80  C   UNL A   1      46.123  28.356  34.705  1.00  0.00     0.173 A 
ATOM     81  C   UNL A   1      44.766  26.519  35.460  1.00  0.00     0.173 A 
ATOM     82  F   UNL A   1      46.321  29.426  33.920  1.00  0.00    -0.203 F 
ATOM     83  C   UNL A   1      47.141  27.953  35.564  1.00  0.00     0.198 A 
ATOM     84  C   UNL A   1      45.777  26.135  36.336  1.00  0.00     0.198 A 
ATOM     85  F   UNL A   1      43.631  25.805  35.428  1.00  0.00    -0.203 F 
ATOM     86  F   UNL A   1      48.298  28.629  35.591  1.00  0.00    -0.200 F 
ATOM     87  C   UNL A   1      46.965  26.848  36.384  1.00  0.00     0.200 A 
ATOM     88  F   UNL A   1      45.600  25.074  37.136  1.00  0.00    -0.200 F 
ATOM     89  F   UNL A   1      47.943  26.467  37.217  1.00  0.00    -0.200 F 
ENDBRANCH  56  79
ENDBRANCH  30  31
ENDBRANCH  23  25
ENDBRANCH  22  23
ENDBRANCH  21  22
ENDBRANCH   1  21
TORSDOF 14
ENDMDL
MODEL 2
REMARK VINA RESULT:     -11.4      1.413      3.419
REMARK SMILES CO[C@@H]1C[C@H](C(=O)OCCOC(=O)c2ccc(-c3c4nc(c(-c5c(F)c(F)c(F)c(F)c5F)c5ccc([nH]5)c(-c5c(F)c(F)c(F)c(F)c5F)c5nc(c(-c6c(F)c(F)c(F)c(F)c6F)c6ccc3[nH]6)C=C5)C=C4)cc2)N(C(=O)N2CCC(C)(C)C2)C1
REMARK SMILES IDX 9 1 8 2 6 3 7 4 5 5 3 6 4 7 87 8 77 9 2 10 1 11 78 12 79 13
REMARK SMILES IDX 80 14 81 15 86 16 82 17 83 18 84 19 85 20 10 21 11 22 12 23
REMARK SMILES IDX 13 24 14 25 15 26 76 27 16 28 75 29 17 30 18 31 19 32 69 33
REMARK SMILES IDX 20 34 74 35 68 36 70 37 21 38 73 39 67 40 66 41 22 43 54 44
REMARK SMILES IDX 34 45 53 46 35 47 38 48 52 49 71 50 36 51 37 52 51 54 72 55
REMARK SMILES IDX 39 56 23 57 24 58 32 59 25 60 26 61 30 62 33 63 27 64 28 65
REMARK SMILES IDX 31 66 29 67 55 68 56 69 64 70 57 71 58 72 62 73 65 74 59 75
REMARK SMILES IDX 60 76 63 77 61 78 40 79 41 80 49 81 42 82 43 83 47 84 50 85
REMARK SMILES IDX 44 86 45 87 48 88 46 89
REMARK H PARENT 70 42 38 53
REMARK Flexibility Score: inf
ROOT
ATOM      1  C   UNL A   1      32.391  28.277  26.532  1.00  0.00     0.274 C 
ENDROOT
BRANCH   1   2
ATOM      2  O   UNL A   1      31.296  27.464  26.989  1.00  0.00    -0.461 OA
BRANCH   2   3
ATOM      3  C   UNL A   1      30.936  26.424  26.201  1.00  0.00     0.329 C 
ATOM      4  O   UNL A   1      30.377  25.411  26.611  1.00  0.00    -0.250 OA
BRANCH   3   5
ATOM      5  C   UNL A   1      31.323  26.618  24.722  1.00  0.00     0.199 C 
ATOM      6  C   UNL A   1      31.916  24.503  23.724  1.00  0.00     0.140 C 
ATOM      7  C   UNL A   1      32.511  25.838  24.184  1.00  0.00     0.071 C 
ATOM      8  C   UNL A   1      30.435  24.832  23.423  1.00  0.00     0.154 C 
ATOM      9  N   UNL A   1      30.236  26.214  23.851  1.00  0.00    -0.308 N 
BRANCH   6  10
ATOM     10  O   UNL A   1      32.010  23.479  24.718  1.00  0.00    -0.380 OA
ATOM     11  C   UNL A   1      32.375  22.203  24.198  1.00  0.00     0.195 C 
ENDBRANCH   6  10
BRANCH   9  12
ATOM     12  C   UNL A   1      29.031  26.858  23.722  1.00  0.00     0.320 C 
ATOM     13  O   UNL A   1      27.997  26.382  24.187  1.00  0.00    -0.248 OA
BRANCH  12  14
ATOM     14  N   UNL A   1      29.053  28.092  23.132  1.00  0.00    -0.324 N 
ATOM     15  C   UNL A   1      30.177  28.764  22.515  1.00  0.00     0.122 C 
ATOM     16  C   UNL A   1      27.834  28.836  22.876  1.00  0.00     0.127 C 
ATOM     17  C   UNL A   1      29.845  30.223  22.770  1.00  0.00     0.030 C 
ATOM     18  C   UNL A   1      28.310  30.280  22.565  1.00  0.00    -0.016 C 
ATOM     19  C   UNL A   1      27.666  31.294  23.517  1.00  0.00     0.013 C 
ATOM     20  C   UNL A   1      27.987  30.670  21.117  1.00  0.00     0.013 C 
ENDBRANCH  12  14
ENDBRANCH   9  12
ENDBRANCH   3   5
ENDBRANCH   2   3
ENDBRANCH   1   2
BRANCH   1  21
ATOM     21  C   UNL A   1      32.041  29.759  26.661  1.00  0.00     0.275 C 
BRANCH  21  22
ATOM     22  O   UNL A   1      33.149  30.589  26.262  1.00  0.00    -0.458 OA
BRANCH  22  23
ATOM     23  C   UNL A   1      33.447  31.596  27.115  1.00  0.00     0.338 C 
ATOM     24  O   UNL A   1      32.736  32.538  27.437  1.00  0.00    -0.246 OA
BRANCH  23  25
ATOM     25  C   UNL A   1      34.714  31.297  27.799  1.00  0.00     0.060 A 
ATOM     26  C   UNL A   1      34.846  30.029  28.374  1.00  0.00     0.016 A 
ATOM     27  C   UNL A   1      35.736  32.239  27.913  1.00  0.00     0.016 A 
ATOM     28  C   UNL A   1      36.019  29.673  29.027  1.00  0.00     0.010 A 
ATOM     29  C   UNL A   1      36.901  31.896  28.606  1.00  0.00     0.010 A 
ATOM     30  C   UNL A   1      37.046  30.612  29.160  1.00  0.00    -0.014 A 
BRANCH  30  31
ATOM     31  C   UNL A   1      38.239  30.255  29.952  1.00  0.00     0.031 A 
ATOM     32  C   UNL A   1      39.246  29.307  29.380  1.00  0.00     0.074 A 
ATOM     33  C   UNL A   1      38.431  30.814  31.159  1.00  0.00     0.049 A 
ATOM     34  N   UNL A   1      40.328  28.818  29.925  1.00  0.00    -0.248 NA
ATOM     35  C   UNL A   1      39.002  28.857  28.001  1.00  0.00     0.031 C 
ATOM     36  C   UNL A   1      37.547  31.799  31.777  1.00  0.00     0.029 A 
ATOM     37  N   UNL A   1      39.427  30.623  32.082  1.00  0.00    -0.354 N 
ATOM     38  C   UNL A   1      40.889  27.990  28.964  1.00  0.00     0.074 A 
ATOM     39  C   UNL A   1      40.027  28.041  27.802  1.00  0.00     0.031 C 
ATOM     40  C   UNL A   1      38.026  32.109  32.992  1.00  0.00     0.029 A 
ATOM     41  C   UNL A   1      39.225  31.314  33.248  1.00  0.00     0.049 A 
ATOM     42  H   UNL A   1      40.210  30.048  31.922  1.00  0.00     0.167 HD
ATOM     43  C   UNL A   1      42.018  27.248  29.052  1.00  0.00     0.037 A 
ATOM     44  C   UNL A   1      39.911  31.274  34.407  1.00  0.00     0.037 A 
ATOM     45  C   UNL A   1      42.855  27.192  30.222  1.00  0.00     0.049 A 
ATOM     46  C   UNL A   1      41.121  30.386  34.510  1.00  0.00     0.074 A 
ATOM     47  C   UNL A   1      44.020  26.471  30.419  1.00  0.00     0.029 A 
ATOM     48  N   UNL A   1      42.605  27.877  31.403  1.00  0.00    -0.354 N 
ATOM     49  N   UNL A   1      41.649  29.602  33.601  1.00  0.00    -0.248 NA
ATOM     50  C   UNL A   1      41.826  30.372  35.798  1.00  0.00     0.031 C 
ATOM     51  C   UNL A   1      44.447  26.683  31.735  1.00  0.00     0.029 A 
ATOM     52  C   UNL A   1      43.575  27.574  32.344  1.00  0.00     0.049 A 
ATOM     53  H   UNL A   1      41.848  28.489  31.549  1.00  0.00     0.167 HD
ATOM     54  C   UNL A   1      42.752  29.008  34.201  1.00  0.00     0.074 A 
ATOM     55  C   UNL A   1      42.826  29.538  35.547  1.00  0.00     0.031 C 
ATOM     56  C   UNL A   1      43.622  28.105  33.683  1.00  0.00     0.037 A 
BRANCH  43  57
ATOM     57  C   UNL A   1      42.362  26.392  27.871  1.00  0.00     0.064 A 
ATOM     58  C   UNL A   1      41.803  25.118  27.689  1.00  0.00     0.173 A 
ATOM     59  C   UNL A   1      43.286  26.846  26.917  1.00  0.00     0.173 A 
ATOM     60  F   UNL A   1      40.932  24.629  28.584  1.00  0.00    -0.203 F 
ATOM     61  C   UNL A   1      42.185  24.316  26.616  1.00  0.00     0.198 A 
ATOM     62  C   UNL A   1      43.646  26.053  25.832  1.00  0.00     0.198 A 
ATOM     63  F   UNL A   1      43.850  28.056  27.047  1.00  0.00    -0.203 F 
ATOM     64  F   UNL A   1      41.684  23.079  26.494  1.00  0.00    -0.200 F 
ATOM     65  C   UNL A   1      43.103  24.785  25.687  1.00  0.00     0.200 A 
ATOM     66  F   UNL A   1      44.530  26.508  24.934  1.00  0.00    -0.200 F 
ATOM     67  F   UNL A   1      43.477  24.008  24.661  1.00  0.00    -0.200 F 
ENDBRANCH  43  57
BRANCH  44  68
ATOM     68  C   UNL A   1      39.431  32.069  35.566  1.00  0.00     0.064 A 
ATOM     69  C   UNL A   1      38.547  31.528  36.506  1.00  0.00     0.173 A 
ATOM     70  C   UNL A   1      39.877  33.385  35.768  1.00  0.00     0.173 A 
ATOM     71  F   UNL A   1      38.076  30.283  36.342  1.00  0.00    -0.203 F 
ATOM     72  C   UNL A   1      38.125  32.272  37.606  1.00  0.00     0.198 A 
ATOM     73  C   UNL A   1      39.474  34.119  36.880  1.00  0.00     0.198 A 
ATOM     74  F   UNL A   1      40.723  33.949  34.893  1.00  0.00    -0.203 F 
ATOM     75  F   UNL A   1      37.258  31.740  38.478  1.00  0.00    -0.200 F 
ATOM     76  C   UNL A   1      38.596  33.563  37.798  1.00  0.00     0.200 A 
ATOM     77  F   UNL A   1      39.942  35.361  37.067  1.00  0.00    -0.200 F 
ATOM     78  F   UNL A   1      38.200  34.272  38.863  1.00  0.00    -0.200 F 
ENDBRANCH  44  68
BRANCH  56  79
ATOM     79  C   UNL A   1      44.734  27.640  34.576  1.00  0.00     0.064 A 
ATOM     80  C   UNL A   1      44.591  26.514  35.400  1.00  0.00     0.173 A 
ATOM     81  C   UNL A   1      45.972  28.300  34.573  1.00  0.00     0.173 A 
ATOM     82  F   UNL A   1      43.420  25.859  35.449  1.00  0.00    -0.203 F 
ATOM     83  C   UNL A   1      45.641  26.077  36.202  1.00  0.00     0.198 A 
ATOM     84  C   UNL A   1      47.028  27.845  35.358  1.00  0.00     0.198 A 
ATOM     85  F   UNL A   1      46.160  29.379  33.799  1.00  0.00    -0.203 F 
ATOM     86  F   UNL A   1      45.469  25.022  37.011  1.00  0.00    -0.200 F 
ATOM     87  C   UNL A   1      46.860  26.738  36.175  1.00  0.00     0.200 A 
ATOM     88  F   UNL A   1      48.209  28.478  35.321  1.00  0.00    -0.200 F 
ATOM     89  F   UNL A   1      47.872  26.311  36.942  1.00  0.00    -0.200 F 
ENDBRANCH  56  79
ENDBRANCH  30  31
ENDBRANCH  23  25
ENDBRANCH  22  23
ENDBRANCH  21  22
ENDBRANCH   1  21
TORSDOF 14
ENDMDL
MODEL 3
REMARK VINA RESULT:     -11.4      1.462      7.999
REMARK SMILES CO[C@@H]1C[C@H](C(=O)OCCOC(=O)c2ccc(-c3c4nc(c(-c5c(F)c(F)c(F)c(F)c5F)c5ccc([nH]5)c(-c5c(F)c(F)c(F)c(F)c5F)c5nc(c(-c6c(F)c(F)c(F)c(F)c6F)c6ccc3[nH]6)C=C5)C=C4)cc2)N(C(=O)N2CCC(C)(C)C2)C1
REMARK SMILES IDX 9 1 8 2 6 3 7 4 5 5 3 6 4 7 87 8 77 9 2 10 1 11 78 12 79 13
REMARK SMILES IDX 80 14 81 15 86 16 82 17 83 18 84 19 85 20 10 21 11 22 12 23
REMARK SMILES IDX 13 24 14 25 15 26 76 27 16 28 75 29 17 30 18 31 19 32 69 33
REMARK SMILES IDX 20 34 74 35 68 36 70 37 21 38 73 39 67 40 66 41 22 43 54 44
REMARK SMILES IDX 34 45 53 46 35 47 38 48 52 49 71 50 36 51 37 52 51 54 72 55
REMARK SMILES IDX 39 56 23 57 24 58 32 59 25 60 26 61 30 62 33 63 27 64 28 65
REMARK SMILES IDX 31 66 29 67 55 68 56 69 64 70 57 71 58 72 62 73 65 74 59 75
REMARK SMILES IDX 60 76 63 77 61 78 40 79 41 80 49 81 42 82 43 83 47 84 50 85
REMARK SMILES IDX 44 86 45 87 48 88 46 89
REMARK H PARENT 70 42 38 53
REMARK Flexibility Score: inf
ROOT
ATOM      1  C   UNL A   1      31.684  29.172  25.817  1.00  0.00     0.274 C 
ENDROOT
BRANCH   1   2
ATOM      2  O   UNL A   1      31.556  28.024  26.673  1.00  0.00    -0.461 OA
BRANCH   2   3
ATOM      3  C   UNL A   1      31.139  26.873  26.094  1.00  0.00     0.329 C 
ATOM      4  O   UNL A   1      30.597  25.954  26.702  1.00  0.00    -0.250 OA
BRANCH   3   5
ATOM      5  C   UNL A   1      31.434  26.809  24.584  1.00  0.00     0.199 C 
ATOM      6  C   UNL A   1      31.993  24.554  23.931  1.00  0.00     0.140 C 
ATOM      7  C   UNL A   1      32.597  25.950  24.117  1.00  0.00     0.071 C 
ATOM      8  C   UNL A   1      30.493  24.825  23.668  1.00  0.00     0.154 C 
ATOM      9  N   UNL A   1      30.303  26.259  23.863  1.00  0.00    -0.308 N 
BRANCH   6  10
ATOM     10  O   UNL A   1      32.158  23.718  25.079  1.00  0.00    -0.380 OA
ATOM     11  C   UNL A   1      31.086  22.800  25.282  1.00  0.00     0.195 C 
ENDBRANCH   6  10
BRANCH   9  12
ATOM     12  C   UNL A   1      29.084  26.869  23.697  1.00  0.00     0.320 C 
ATOM     13  O   UNL A   1      28.052  26.370  24.143  1.00  0.00    -0.248 OA
BRANCH  12  14
ATOM     14  N   UNL A   1      29.088  28.098  23.096  1.00  0.00    -0.324 N 
ATOM     15  C   UNL A   1      30.181  28.747  22.404  1.00  0.00     0.122 C 
ATOM     16  C   UNL A   1      27.866  28.856  22.907  1.00  0.00     0.127 C 
ATOM     17  C   UNL A   1      29.886  30.213  22.665  1.00  0.00     0.030 C 
ATOM     18  C   UNL A   1      28.342  30.291  22.553  1.00  0.00    -0.016 C 
ATOM     19  C   UNL A   1      27.772  31.322  23.533  1.00  0.00     0.013 C 
ATOM     20  C   UNL A   1      27.937  30.673  21.124  1.00  0.00     0.013 C 
ENDBRANCH  12  14
ENDBRANCH   9  12
ENDBRANCH   3   5
ENDBRANCH   2   3
ENDBRANCH   1   2
BRANCH   1  21
ATOM     21  C   UNL A   1      31.898  30.435  26.652  1.00  0.00     0.275 C 
BRANCH  21  22
ATOM     22  O   UNL A   1      33.206  30.993  26.420  1.00  0.00    -0.458 OA
BRANCH  22  23
ATOM     23  C   UNL A   1      33.597  31.928  27.315  1.00  0.00     0.338 C 
ATOM     24  O   UNL A   1      32.970  32.909  27.693  1.00  0.00    -0.246 OA
BRANCH  23  25
ATOM     25  C   UNL A   1      34.842  31.493  27.964  1.00  0.00     0.060 A 
ATOM     26  C   UNL A   1      34.889  30.179  28.440  1.00  0.00     0.016 A 
ATOM     27  C   UNL A   1      35.928  32.351  28.140  1.00  0.00     0.016 A 
ATOM     28  C   UNL A   1      36.037  29.695  29.055  1.00  0.00     0.010 A 
ATOM     29  C   UNL A   1      37.068  31.878  28.796  1.00  0.00     0.010 A 
ATOM     30  C   UNL A   1      37.126  30.549  29.249  1.00  0.00    -0.014 A 
BRANCH  30  31
ATOM     31  C   UNL A   1      38.295  30.052  30.003  1.00  0.00     0.031 A 
ATOM     32  C   UNL A   1      38.526  30.530  31.401  1.00  0.00     0.074 A 
ATOM     33  C   UNL A   1      39.114  29.146  29.442  1.00  0.00     0.049 A 
ATOM     34  N   UNL A   1      39.514  30.267  32.215  1.00  0.00    -0.248 NA
ATOM     35  C   UNL A   1      37.497  31.420  31.960  1.00  0.00     0.031 C 
ATOM     36  C   UNL A   1      38.939  28.565  28.114  1.00  0.00     0.029 A 
ATOM     37  N   UNL A   1      40.261  28.566  29.920  1.00  0.00    -0.354 N 
ATOM     38  C   UNL A   1      39.237  30.970  33.379  1.00  0.00     0.074 A 
ATOM     39  C   UNL A   1      37.989  31.672  33.165  1.00  0.00     0.031 C 
ATOM     40  C   UNL A   1      39.960  27.728  27.868  1.00  0.00     0.029 A 
ATOM     41  C   UNL A   1      40.875  27.748  29.007  1.00  0.00     0.049 A 
ATOM     42  H   UNL A   1      40.609  28.721  30.828  1.00  0.00     0.167 HD
ATOM     43  C   UNL A   1      39.968  31.028  34.517  1.00  0.00     0.037 A 
ATOM     44  C   UNL A   1      42.066  27.121  29.071  1.00  0.00     0.037 A 
ATOM     45  C   UNL A   1      41.217  30.339  34.708  1.00  0.00     0.049 A 
ATOM     46  C   UNL A   1      42.898  27.258  30.317  1.00  0.00     0.074 A 
ATOM     47  C   UNL A   1      42.040  30.331  35.821  1.00  0.00     0.029 A 
ATOM     48  N   UNL A   1      41.832  29.545  33.750  1.00  0.00    -0.354 N 
ATOM     49  N   UNL A   1      42.636  27.924  31.416  1.00  0.00    -0.248 NA
ATOM     50  C   UNL A   1      44.191  26.562  30.331  1.00  0.00     0.031 C 
ATOM     51  C   UNL A   1      43.175  29.571  35.518  1.00  0.00     0.029 A 
ATOM     52  C   UNL A   1      43.039  29.065  34.234  1.00  0.00     0.049 A 
ATOM     53  H   UNL A   1      41.464  29.351  32.858  1.00  0.00     0.167 HD
ATOM     54  C   UNL A   1      43.723  27.723  32.255  1.00  0.00     0.074 A 
ATOM     55  C   UNL A   1      44.641  26.857  31.544  1.00  0.00     0.031 C 
ATOM     56  C   UNL A   1      43.942  28.213  33.502  1.00  0.00     0.037 A 
BRANCH  43  57
ATOM     57  C   UNL A   1      39.456  31.920  35.607  1.00  0.00     0.064 A 
ATOM     58  C   UNL A   1      39.878  33.252  35.736  1.00  0.00     0.173 A 
ATOM     59  C   UNL A   1      38.545  31.425  36.553  1.00  0.00     0.173 A 
ATOM     60  F   UNL A   1      40.764  33.766  34.870  1.00  0.00    -0.203 F 
ATOM     61  C   UNL A   1      39.435  34.044  36.794  1.00  0.00     0.198 A 
ATOM     62  C   UNL A   1      38.085  32.226  37.594  1.00  0.00     0.198 A 
ATOM     63  F   UNL A   1      38.112  30.158  36.475  1.00  0.00    -0.203 F 
ATOM     64  F   UNL A   1      39.898  35.293  36.933  1.00  0.00    -0.200 F 
ATOM     65  C   UNL A   1      38.538  33.531  37.719  1.00  0.00     0.200 A 
ATOM     66  F   UNL A   1      37.215  31.731  38.485  1.00  0.00    -0.200 F 
ATOM     67  F   UNL A   1      38.121  34.291  38.743  1.00  0.00    -0.200 F 
ENDBRANCH  43  57
BRANCH  44  68
ATOM     68  C   UNL A   1      42.548  26.350  27.897  1.00  0.00     0.064 A 
ATOM     69  C   UNL A   1      43.355  26.941  26.917  1.00  0.00     0.173 A 
ATOM     70  C   UNL A   1      42.230  24.990  27.751  1.00  0.00     0.173 A 
ATOM     71  F   UNL A   1      43.664  28.242  27.003  1.00  0.00    -0.203 F 
ATOM     72  C   UNL A   1      43.826  26.202  25.834  1.00  0.00     0.198 A 
ATOM     73  C   UNL A   1      42.722  24.247  26.681  1.00  0.00     0.198 A 
ATOM     74  F   UNL A   1      41.459  24.379  28.663  1.00  0.00    -0.203 F 
ATOM     75  F   UNL A   1      44.575  26.797  24.896  1.00  0.00    -0.200 F 
ATOM     76  C   UNL A   1      43.518  24.854  25.722  1.00  0.00     0.200 A 
ATOM     77  F   UNL A   1      42.432  22.942  26.585  1.00  0.00    -0.200 F 
ATOM     78  F   UNL A   1      43.983  24.141  24.688  1.00  0.00    -0.200 F 
ENDBRANCH  44  68
BRANCH  56  79
ATOM     79  C   UNL A   1      45.221  27.815  34.176  1.00  0.00     0.064 A 
ATOM     80  C   UNL A   1      46.380  28.599  34.072  1.00  0.00     0.173 A 
ATOM     81  C   UNL A   1      45.276  26.661  34.973  1.00  0.00     0.173 A 
ATOM     82  F   UNL A   1      46.381  29.703  33.309  1.00  0.00    -0.203 F 
ATOM     83  C   UNL A   1      47.552  28.232  34.727  1.00  0.00     0.198 A 
ATOM     84  C   UNL A   1      46.443  26.312  35.646  1.00  0.00     0.198 A 
ATOM     85  F   UNL A   1      44.194  25.881  35.108  1.00  0.00    -0.203 F 
ATOM     86  F   UNL A   1      48.658  28.975  34.582  1.00  0.00    -0.200 F 
ATOM     87  C   UNL A   1      47.581  27.093  35.518  1.00  0.00     0.200 A 
ATOM     88  F   UNL A   1      46.466  25.218  36.420  1.00  0.00    -0.200 F 
ATOM     89  F   UNL A   1      48.708  26.747  36.155  1.00  0.00    -0.200 F 
ENDBRANCH  56  79
ENDBRANCH  30  31
ENDBRANCH  23  25
ENDBRANCH  22  23
ENDBRANCH  21  22
ENDBRANCH   1  21
TORSDOF 14
ENDMDL
