MODEL 1
REMARK VINA RESULT:     -14.4      0.000      0.000
REMARK SMILES Cc1ccc(S(=O)(=O)n2cc(C(=O)C(=O)N[C@@H](Cc3c[nH]c4ccccc34)C(=O)NCC(=O)OCCOC(=O)c3ccc(-c4c5nc(c(-c6c(F)c(F)c(F)c(F)c6F)c6ccc([nH]6)c(-c6c(F)c(F)c(F)c(F)c6F)c6nc(c(-c7c(F)c(F)c(F)c(F)c7F)c7ccc4[nH]7)C=C6)C=C5)cc3)c3ccccc32)cc1
REMARK SMILES IDX 32 1 33 2 31 3 30 4 28 5 29 6 17 8 16 9 14 10 15 11 12 13
REMARK SMILES IDX 13 14 11 15 9 16 10 17 108 18 103 19 107 20 104 21 106 22
REMARK SMILES IDX 105 23 6 24 7 25 8 26 5 27 1 28 2 29 3 30 110 31 4 32 109 33
REMARK SMILES IDX 18 34 19 35 20 36 27 37 21 38 22 39 26 40 23 42 25 43 24 44
REMARK SMILES IDX 34 45 35 46 36 47 37 48 38 49 39 50 40 51 41 52 102 53 42 54
REMARK SMILES IDX 101 55 43 56 44 57 45 58 95 59 46 60 100 61 94 62 96 63
REMARK SMILES IDX 47 64 99 65 93 66 92 67 48 69 80 70 60 71 79 72 61 73 64 74
REMARK SMILES IDX 78 75 97 76 62 77 63 78 77 80 98 81 65 82 49 83 50 84 58 85
REMARK SMILES IDX 51 86 52 87 56 88 59 89 53 90 54 91 57 92 55 93 81 94 82 95
REMARK SMILES IDX 90 96 83 97 84 98 88 99 91 100 85 101 86 102 89 103 87 104
REMARK SMILES IDX 66 105 67 106 75 107 68 108 69 109 73 110 76 111 70 112
REMARK SMILES IDX 71 113 74 114 72 115
REMARK H PARENT 30 7 16 12 21 41 96 68 64 79
REMARK Flexibility Score: inf
ROOT
ATOM      1  C   UNL A   1      32.531  29.648  26.919  1.00  0.00     0.325 C 
ATOM      2  O   UNL A   1      31.611  30.099  26.253  1.00  0.00    -0.250 OA
ENDROOT
BRANCH   1   3
ATOM      3  C   UNL A   1      32.732  28.154  27.245  1.00  0.00     0.238 C 
BRANCH   3   4
ATOM      4  N   UNL A   1      31.500  27.363  27.200  1.00  0.00    -0.343 N 
ATOM      5  C   UNL A   1      31.086  26.340  26.394  1.00  0.00     0.243 C 
ATOM      6  O   UNL A   1      29.939  25.918  26.593  1.00  0.00    -0.273 OA
ATOM      7  H   UNL A   1      30.841  27.619  27.885  1.00  0.00     0.164 HD
BRANCH   5   8
ATOM      8  C   UNL A   1      31.916  25.781  25.191  1.00  0.00     0.176 C 
BRANCH   8   9
ATOM      9  N   UNL A   1      31.182  25.017  24.189  1.00  0.00    -0.337 N 
ATOM     10  C   UNL A   1      30.894  23.683  24.023  1.00  0.00     0.293 C 
ATOM     11  O   UNL A   1      30.333  23.278  23.012  1.00  0.00    -0.265 OA
ATOM     12  H   UNL A   1      30.809  25.581  23.473  1.00  0.00     0.164 HD
BRANCH  10  13
ATOM     13  C   UNL A   1      31.164  22.720  25.159  1.00  0.00     0.252 C 
ATOM     14  O   UNL A   1      30.299  22.705  26.036  1.00  0.00    -0.283 OA
BRANCH  13  15
ATOM     15  C   UNL A   1      32.404  21.950  25.267  1.00  0.00     0.054 A 
ATOM     16  N   UNL A   1      34.462  21.130  25.728  1.00  0.00    -0.240 N 
ATOM     17  C   UNL A   1      33.564  22.160  26.021  1.00  0.00     0.117 A 
ATOM     18  C   UNL A   1      33.749  20.146  25.021  1.00  0.00     0.065 A 
ATOM     19  C   UNL A   1      32.650  20.796  24.469  1.00  0.00     0.012 A 
ATOM     20  C   UNL A   1      34.122  18.856  24.601  1.00  0.00     0.028 A 
ATOM     21  C   UNL A   1      32.016  20.226  23.345  1.00  0.00     0.011 A 
ATOM     22  C   UNL A   1      33.517  18.340  23.453  1.00  0.00     0.002 A 
ATOM     23  C   UNL A   1      32.505  19.036  22.807  1.00  0.00     0.001 A 
BRANCH  16  24
ATOM     24  S   UNL A   1      36.060  21.375  25.051  1.00  0.00     0.268 S 
ATOM     25  O   UNL A   1      35.782  21.876  23.716  1.00  0.00    -0.201 OA
ATOM     26  O   UNL A   1      36.699  20.080  25.252  1.00  0.00    -0.201 OA
BRANCH  24  27
ATOM     27  C   UNL A   1      37.265  22.465  25.721  1.00  0.00     0.088 A 
ATOM     28  C   UNL A   1      40.665  24.272  27.684  1.00  0.00     0.044 C 
ATOM     29  C   UNL A   1      39.483  23.689  26.961  1.00  0.00    -0.051 A 
ATOM     30  C   UNL A   1      39.558  22.355  26.589  1.00  0.00     0.005 A 
ATOM     31  C   UNL A   1      38.294  24.407  26.699  1.00  0.00     0.005 A 
ATOM     32  C   UNL A   1      38.471  21.764  25.970  1.00  0.00     0.022 A 
ATOM     33  C   UNL A   1      37.170  23.800  26.080  1.00  0.00     0.022 A 
ENDBRANCH  24  27
ENDBRANCH  16  24
ENDBRANCH  13  15
ENDBRANCH  10  13
ENDBRANCH   8   9
BRANCH   8  34
ATOM     34  C   UNL A   1      32.728  26.930  24.495  1.00  0.00     0.072 C 
BRANCH  34  35
ATOM     35  C   UNL A   1      32.006  27.811  23.477  1.00  0.00    -0.020 A 
ATOM     36  C   UNL A   1      32.681  28.726  22.649  1.00  0.00     0.087 A 
ATOM     37  C   UNL A   1      30.594  27.956  23.208  1.00  0.00     0.003 A 
ATOM     38  N   UNL A   1      31.884  29.620  21.938  1.00  0.00    -0.361 N 
ATOM     39  C   UNL A   1      30.564  29.488  22.294  1.00  0.00     0.046 A 
ATOM     40  C   UNL A   1      28.992  27.218  23.745  1.00  0.00     0.010 A 
ATOM     41  H   UNL A   1      32.220  30.259  21.270  1.00  0.00     0.166 HD
ATOM     42  C   UNL A   1      29.033  30.497  22.254  1.00  0.00     0.026 A 
ATOM     43  C   UNL A   1      27.394  28.074  23.460  1.00  0.00     0.001 A 
ATOM     44  C   UNL A   1      27.445  29.792  22.886  1.00  0.00     0.002 A 
ENDBRANCH  34  35
ENDBRANCH   8  34
ENDBRANCH   5   8
ENDBRANCH   3   4
ENDBRANCH   1   3
BRANCH   1  45
ATOM     45  O   UNL A   1      33.526  30.389  27.479  1.00  0.00    -0.461 OA
BRANCH  45  46
ATOM     46  C   UNL A   1      34.937  30.026  27.452  1.00  0.00     0.274 C 
BRANCH  46  47
ATOM     47  C   UNL A   1      35.894  30.439  28.601  1.00  0.00     0.275 C 
BRANCH  47  48
ATOM     48  O   UNL A   1      36.376  29.353  29.422  1.00  0.00    -0.458 OA
BRANCH  48  49
ATOM     49  C   UNL A   1      37.073  29.707  30.537  1.00  0.00     0.338 C 
ATOM     50  O   UNL A   1      36.709  30.509  31.376  1.00  0.00    -0.246 OA
BRANCH  49  51
ATOM     51  C   UNL A   1      38.395  29.050  30.505  1.00  0.00     0.060 A 
ATOM     52  C   UNL A   1      39.415  29.322  31.374  1.00  0.00     0.016 A 
ATOM     53  C   UNL A   1      38.581  27.988  29.662  1.00  0.00     0.016 A 
ATOM     54  C   UNL A   1      40.662  28.685  31.131  1.00  0.00     0.010 A 
ATOM     55  C   UNL A   1      39.673  27.147  29.801  1.00  0.00     0.010 A 
ATOM     56  C   UNL A   1      41.032  27.680  29.994  1.00  0.00    -0.014 A 
BRANCH  56  57
ATOM     57  C   UNL A   1      42.771  27.387  28.799  1.00  0.00     0.031 A 
ATOM     58  C   UNL A   1      43.650  25.924  28.477  1.00  0.00     0.074 A 
ATOM     59  C   UNL A   1      43.524  28.171  27.795  1.00  0.00     0.049 A 
ATOM     60  N   UNL A   1      43.438  25.100  27.472  1.00  0.00    -0.248 NA
ATOM     61  C   UNL A   1      44.716  25.441  29.384  1.00  0.00     0.031 C 
ATOM     62  C   UNL A   1      44.272  27.726  26.600  1.00  0.00     0.029 A 
ATOM     63  N   UNL A   1      43.553  29.589  27.551  1.00  0.00    -0.354 N 
ATOM     64  C   UNL A   1      44.284  24.008  27.620  1.00  0.00     0.074 A 
ATOM     65  C   UNL A   1      44.932  24.214  28.909  1.00  0.00     0.031 C 
ATOM     66  C   UNL A   1      44.872  28.772  25.999  1.00  0.00     0.029 A 
ATOM     67  C   UNL A   1      44.687  29.922  26.846  1.00  0.00     0.049 A 
ATOM     68  H   UNL A   1      42.864  30.227  27.845  1.00  0.00     0.167 HD
ATOM     69  C   UNL A   1      45.088  23.590  26.600  1.00  0.00     0.037 A 
ATOM     70  C   UNL A   1      45.609  30.747  27.406  1.00  0.00     0.037 A 
ATOM     71  C   UNL A   1      45.949  24.609  26.036  1.00  0.00     0.049 A 
ATOM     72  C   UNL A   1      46.913  30.021  27.437  1.00  0.00     0.074 A 
ATOM     73  C   UNL A   1      46.022  25.229  24.802  1.00  0.00     0.029 A 
ATOM     74  N   UNL A   1      46.880  25.249  26.850  1.00  0.00    -0.354 N 
ATOM     75  N   UNL A   1      46.978  28.718  27.483  1.00  0.00    -0.248 NA
ATOM     76  C   UNL A   1      48.214  30.655  27.295  1.00  0.00     0.031 C 
ATOM     77  C   UNL A   1      46.963  26.289  24.903  1.00  0.00     0.029 A 
ATOM     78  C   UNL A   1      47.485  26.292  26.189  1.00  0.00     0.049 A 
ATOM     79  H   UNL A   1      47.080  24.989  27.778  1.00  0.00     0.167 HD
ATOM     80  C   UNL A   1      48.242  28.343  27.162  1.00  0.00     0.074 A 
ATOM     81  C   UNL A   1      49.009  29.577  27.162  1.00  0.00     0.031 C 
ATOM     82  C   UNL A   1      48.552  27.068  26.805  1.00  0.00     0.037 A 
BRANCH  69  83
ATOM     83  C   UNL A   1      44.795  22.224  26.025  1.00  0.00     0.064 A 
ATOM     84  C   UNL A   1      45.701  21.550  25.184  1.00  0.00     0.173 A 
ATOM     85  C   UNL A   1      43.603  21.517  26.321  1.00  0.00     0.173 A 
ATOM     86  F   UNL A   1      46.881  22.092  24.857  1.00  0.00    -0.203 F 
ATOM     87  C   UNL A   1      45.426  20.281  24.657  1.00  0.00     0.198 A 
ATOM     88  C   UNL A   1      43.332  20.250  25.794  1.00  0.00     0.198 A 
ATOM     89  F   UNL A   1      42.680  22.027  27.154  1.00  0.00    -0.203 F 
ATOM     90  F   UNL A   1      46.323  19.683  23.858  1.00  0.00    -0.200 F 
ATOM     91  C   UNL A   1      44.243  19.634  24.959  1.00  0.00     0.200 A 
ATOM     92  F   UNL A   1      42.186  19.628  26.108  1.00  0.00    -0.200 F 
ATOM     93  F   UNL A   1      43.987  18.417  24.461  1.00  0.00    -0.200 F 
ENDBRANCH  69  83
BRANCH  70  94
ATOM     94  C   UNL A   1      45.044  31.714  28.397  1.00  0.00     0.064 A 
ATOM     95  C   UNL A   1      44.502  32.928  27.904  1.00  0.00     0.173 A 
ATOM     96  C   UNL A   1      44.717  31.372  29.713  1.00  0.00     0.173 A 
ATOM     97  F   UNL A   1      44.753  33.308  26.640  1.00  0.00    -0.203 F 
ATOM     98  C   UNL A   1      43.603  33.696  28.647  1.00  0.00     0.198 A 
ATOM     99  C   UNL A   1      43.836  32.162  30.468  1.00  0.00     0.198 A 
ATOM    100  F   UNL A   1      45.162  30.226  30.247  1.00  0.00    -0.203 F 
ATOM    101  F   UNL A   1      43.015  34.764  28.088  1.00  0.00    -0.200 F 
ATOM    102  C   UNL A   1      43.258  33.304  29.926  1.00  0.00     0.200 A 
ATOM    103  F   UNL A   1      43.467  31.763  31.695  1.00  0.00    -0.200 F 
ATOM    104  F   UNL A   1      42.334  33.991  30.613  1.00  0.00    -0.200 F 
ENDBRANCH  70  94
BRANCH  82 105
ATOM    105  C   UNL A   1      49.938  26.511  26.868  1.00  0.00     0.064 A 
ATOM    106  C   UNL A   1      50.682  26.228  25.709  1.00  0.00     0.173 A 
ATOM    107  C   UNL A   1      50.633  26.425  28.093  1.00  0.00     0.173 A 
ATOM    108  F   UNL A   1      50.163  26.408  24.487  1.00  0.00    -0.203 F 
ATOM    109  C   UNL A   1      52.008  25.808  25.777  1.00  0.00     0.198 A 
ATOM    110  C   UNL A   1      51.971  26.050  28.151  1.00  0.00     0.198 A 
ATOM    111  F   UNL A   1      50.049  26.740  29.257  1.00  0.00    -0.203 F 
ATOM    112  F   UNL A   1      52.665  25.515  24.646  1.00  0.00    -0.200 F 
ATOM    113  C   UNL A   1      52.653  25.725  26.996  1.00  0.00     0.200 A 
ATOM    114  F   UNL A   1      52.603  26.036  29.333  1.00  0.00    -0.200 F 
ATOM    115  F   UNL A   1      53.940  25.360  27.054  1.00  0.00    -0.200 F 
ENDBRANCH  82 105
ENDBRANCH  56  57
ENDBRANCH  49  51
ENDBRANCH  48  49
ENDBRANCH  47  48
ENDBRANCH  46  47
ENDBRANCH  45  46
ENDBRANCH   1  45
TORSDOF 20
ENDMDL
MODEL 2
REMARK VINA RESULT:     -14.1      5.595     10.431
REMARK SMILES Cc1ccc(S(=O)(=O)n2cc(C(=O)C(=O)N[C@@H](Cc3c[nH]c4ccccc34)C(=O)NCC(=O)OCCOC(=O)c3ccc(-c4c5nc(c(-c6c(F)c(F)c(F)c(F)c6F)c6ccc([nH]6)c(-c6c(F)c(F)c(F)c(F)c6F)c6nc(c(-c7c(F)c(F)c(F)c(F)c7F)c7ccc4[nH]7)C=C6)C=C5)cc3)c3ccccc32)cc1
REMARK SMILES IDX 32 1 33 2 31 3 30 4 28 5 29 6 17 8 16 9 14 10 15 11 12 13
REMARK SMILES IDX 13 14 11 15 9 16 10 17 108 18 103 19 107 20 104 21 106 22
REMARK SMILES IDX 105 23 6 24 7 25 8 26 5 27 1 28 2 29 3 30 110 31 4 32 109 33
REMARK SMILES IDX 18 34 19 35 20 36 27 37 21 38 22 39 26 40 23 42 25 43 24 44
REMARK SMILES IDX 34 45 35 46 36 47 37 48 38 49 39 50 40 51 41 52 102 53 42 54
REMARK SMILES IDX 101 55 43 56 44 57 45 58 95 59 46 60 100 61 94 62 96 63
REMARK SMILES IDX 47 64 99 65 93 66 92 67 48 69 80 70 60 71 79 72 61 73 64 74
REMARK SMILES IDX 78 75 97 76 62 77 63 78 77 80 98 81 65 82 49 83 50 84 58 85
REMARK SMILES IDX 51 86 52 87 56 88 59 89 53 90 54 91 57 92 55 93 81 94 82 95
REMARK SMILES IDX 90 96 83 97 84 98 88 99 91 100 85 101 86 102 89 103 87 104
REMARK SMILES IDX 66 105 67 106 75 107 68 108 69 109 73 110 76 111 70 112
REMARK SMILES IDX 71 113 74 114 72 115
REMARK H PARENT 30 7 16 12 21 41 96 68 64 79
REMARK Flexibility Score: inf
ROOT
ATOM      1  C   UNL A   1      32.656  29.737  27.037  1.00  0.00     0.325 C 
ATOM      2  O   UNL A   1      31.944  30.229  26.175  1.00  0.00    -0.250 OA
ENDROOT
BRANCH   1   3
ATOM      3  C   UNL A   1      32.839  28.222  27.268  1.00  0.00     0.238 C 
BRANCH   3   4
ATOM      4  N   UNL A   1      31.595  27.455  27.201  1.00  0.00    -0.343 N 
ATOM      5  C   UNL A   1      31.172  26.445  26.383  1.00  0.00     0.243 C 
ATOM      6  O   UNL A   1      30.015  26.043  26.564  1.00  0.00    -0.273 OA
ATOM      7  H   UNL A   1      30.931  27.717  27.881  1.00  0.00     0.164 HD
BRANCH   5   8
ATOM      8  C   UNL A   1      32.007  25.880  25.186  1.00  0.00     0.176 C 
BRANCH   8   9
ATOM      9  N   UNL A   1      31.285  25.073  24.210  1.00  0.00    -0.337 N 
ATOM     10  C   UNL A   1      31.029  23.728  24.081  1.00  0.00     0.293 C 
ATOM     11  O   UNL A   1      30.472  23.282  23.084  1.00  0.00    -0.265 OA
ATOM     12  H   UNL A   1      30.895  25.608  23.481  1.00  0.00     0.164 HD
BRANCH  10  13
ATOM     13  C   UNL A   1      31.331  22.803  25.239  1.00  0.00     0.252 C 
ATOM     14  O   UNL A   1      30.475  22.795  26.126  1.00  0.00    -0.283 OA
BRANCH  13  15
ATOM     15  C   UNL A   1      32.586  22.060  25.355  1.00  0.00     0.054 A 
ATOM     16  N   UNL A   1      34.674  21.306  25.793  1.00  0.00    -0.240 N 
ATOM     17  C   UNL A   1      33.772  22.343  26.042  1.00  0.00     0.117 A 
ATOM     18  C   UNL A   1      33.950  20.260  25.195  1.00  0.00     0.065 A 
ATOM     19  C   UNL A   1      32.819  20.850  24.641  1.00  0.00     0.012 A 
ATOM     20  C   UNL A   1      34.326  18.946  24.861  1.00  0.00     0.028 A 
ATOM     21  C   UNL A   1      32.149  20.186  23.591  1.00  0.00     0.011 A 
ATOM     22  C   UNL A   1      33.685  18.334  23.783  1.00  0.00     0.002 A 
ATOM     23  C   UNL A   1      32.635  18.964  23.128  1.00  0.00     0.001 A 
BRANCH  16  24
ATOM     24  S   UNL A   1      36.240  21.518  25.033  1.00  0.00     0.268 S 
ATOM     25  O   UNL A   1      35.908  22.122  23.753  1.00  0.00    -0.201 OA
ATOM     26  O   UNL A   1      36.821  20.184  25.110  1.00  0.00    -0.201 OA
BRANCH  24  27
ATOM     27  C   UNL A   1      37.538  22.502  25.694  1.00  0.00     0.088 A 
ATOM     28  C   UNL A   1      41.102  24.009  27.617  1.00  0.00     0.044 C 
ATOM     29  C   UNL A   1      39.866  23.531  26.909  1.00  0.00    -0.051 A 
ATOM     30  C   UNL A   1      39.829  22.199  26.521  1.00  0.00     0.005 A 
ATOM     31  C   UNL A   1      38.734  24.343  26.675  1.00  0.00     0.005 A 
ATOM     32  C   UNL A   1      38.688  21.704  25.914  1.00  0.00     0.022 A 
ATOM     33  C   UNL A   1      37.555  23.835  26.069  1.00  0.00     0.022 A 
ENDBRANCH  24  27
ENDBRANCH  16  24
ENDBRANCH  13  15
ENDBRANCH  10  13
ENDBRANCH   8   9
BRANCH   8  34
ATOM     34  C   UNL A   1      32.780  27.034  24.455  1.00  0.00     0.072 C 
BRANCH  34  35
ATOM     35  C   UNL A   1      32.017  27.891  23.447  1.00  0.00    -0.020 A 
ATOM     36  C   UNL A   1      32.648  28.836  22.619  1.00  0.00     0.087 A 
ATOM     37  C   UNL A   1      30.597  27.982  23.189  1.00  0.00     0.003 A 
ATOM     38  N   UNL A   1      31.811  29.701  21.918  1.00  0.00    -0.361 N 
ATOM     39  C   UNL A   1      30.501  29.515  22.282  1.00  0.00     0.046 A 
ATOM     40  C   UNL A   1      29.030  27.178  23.733  1.00  0.00     0.010 A 
ATOM     41  H   UNL A   1      32.117  30.357  21.250  1.00  0.00     0.166 HD
ATOM     42  C   UNL A   1      28.930  30.463  22.259  1.00  0.00     0.026 A 
ATOM     43  C   UNL A   1      27.398  27.972  23.465  1.00  0.00     0.001 A 
ATOM     44  C   UNL A   1      27.377  29.693  22.899  1.00  0.00     0.002 A 
ENDBRANCH  34  35
ENDBRANCH   8  34
ENDBRANCH   5   8
ENDBRANCH   3   4
ENDBRANCH   1   3
BRANCH   1  45
ATOM     45  O   UNL A   1      33.402  30.442  27.931  1.00  0.00    -0.461 OA
BRANCH  45  46
ATOM     46  C   UNL A   1      34.085  31.694  27.627  1.00  0.00     0.274 C 
BRANCH  46  47
ATOM     47  C   UNL A   1      33.448  33.062  27.984  1.00  0.00     0.275 C 
BRANCH  47  48
ATOM     48  O   UNL A   1      34.242  33.908  28.844  1.00  0.00    -0.458 OA
BRANCH  48  49
ATOM     49  C   UNL A   1      33.562  34.612  29.789  1.00  0.00     0.338 C 
ATOM     50  O   UNL A   1      32.620  35.354  29.580  1.00  0.00    -0.246 OA
BRANCH  49  51
ATOM     51  C   UNL A   1      34.224  34.426  31.096  1.00  0.00     0.060 A 
ATOM     52  C   UNL A   1      34.342  35.399  32.049  1.00  0.00     0.016 A 
ATOM     53  C   UNL A   1      34.613  33.165  31.462  1.00  0.00     0.016 A 
ATOM     54  C   UNL A   1      35.113  35.088  33.202  1.00  0.00     0.010 A 
ATOM     55  C   UNL A   1      34.951  32.874  32.773  1.00  0.00     0.010 A 
ATOM     56  C   UNL A   1      35.844  33.751  33.548  1.00  0.00    -0.014 A 
BRANCH  56  57
ATOM     57  C   UNL A   1      37.706  33.291  34.474  1.00  0.00     0.031 A 
ATOM     58  C   UNL A   1      38.756  34.317  35.402  1.00  0.00     0.074 A 
ATOM     59  C   UNL A   1      38.464  32.062  34.799  1.00  0.00     0.049 A 
ATOM     60  N   UNL A   1      38.723  34.477  36.710  1.00  0.00    -0.248 NA
ATOM     61  C   UNL A   1      39.777  35.172  34.758  1.00  0.00     0.031 C 
ATOM     62  C   UNL A   1      39.360  31.765  35.937  1.00  0.00     0.029 A 
ATOM     63  N   UNL A   1      38.371  30.736  34.248  1.00  0.00    -0.354 N 
ATOM     64  C   UNL A   1      39.659  35.444  37.052  1.00  0.00     0.074 A 
ATOM     65  C   UNL A   1      40.161  35.941  35.777  1.00  0.00     0.031 C 
ATOM     66  C   UNL A   1      39.903  30.540  35.807  1.00  0.00     0.029 A 
ATOM     67  C   UNL A   1      39.524  30.034  34.512  1.00  0.00     0.049 A 
ATOM     68  H   UNL A   1      37.595  30.382  33.755  1.00  0.00     0.167 HD
ATOM     69  C   UNL A   1      40.591  35.218  38.021  1.00  0.00     0.037 A 
ATOM     70  C   UNL A   1      40.302  29.607  33.484  1.00  0.00     0.037 A 
ATOM     71  C   UNL A   1      41.391  34.024  37.839  1.00  0.00     0.049 A 
ATOM     72  C   UNL A   1      41.665  30.187  33.671  1.00  0.00     0.074 A 
ATOM     73  C   UNL A   1      41.513  32.835  38.535  1.00  0.00     0.029 A 
ATOM     74  N   UNL A   1      42.173  33.889  36.696  1.00  0.00    -0.354 N 
ATOM     75  N   UNL A   1      41.858  31.306  34.314  1.00  0.00    -0.248 NA
ATOM     76  C   UNL A   1      42.901  29.528  33.281  1.00  0.00     0.031 C 
ATOM     77  C   UNL A   1      42.328  31.962  37.765  1.00  0.00     0.029 A 
ATOM     78  C   UNL A   1      42.726  32.632  36.617  1.00  0.00     0.049 A 
ATOM     79  H   UNL A   1      42.313  34.600  36.030  1.00  0.00     0.167 HD
ATOM     80  C   UNL A   1      43.178  31.402  34.614  1.00  0.00     0.074 A 
ATOM     81  C   UNL A   1      43.811  30.335  33.859  1.00  0.00     0.031 C 
ATOM     82  C   UNL A   1      43.648  32.272  35.549  1.00  0.00     0.037 A 
BRANCH  69  83
ATOM     83  C   UNL A   1      40.493  36.068  39.266  1.00  0.00     0.064 A 
ATOM     84  C   UNL A   1      41.213  37.269  39.418  1.00  0.00     0.173 A 
ATOM     85  C   UNL A   1      39.643  35.731  40.349  1.00  0.00     0.173 A 
ATOM     86  F   UNL A   1      42.023  37.721  38.451  1.00  0.00    -0.203 F 
ATOM     87  C   UNL A   1      41.114  38.057  40.571  1.00  0.00     0.198 A 
ATOM     88  C   UNL A   1      39.546  36.521  41.500  1.00  0.00     0.198 A 
ATOM     89  F   UNL A   1      38.862  34.639  40.307  1.00  0.00    -0.203 F 
ATOM     90  F   UNL A   1      41.824  39.191  40.667  1.00  0.00    -0.200 F 
ATOM     91  C   UNL A   1      40.284  37.682  41.611  1.00  0.00     0.200 A 
ATOM     92  F   UNL A   1      38.725  36.152  42.494  1.00  0.00    -0.200 F 
ATOM     93  F   UNL A   1      40.185  38.442  42.710  1.00  0.00    -0.200 F 
ENDBRANCH  69  83
BRANCH  70  94
ATOM     94  C   UNL A   1      39.552  29.348  32.216  1.00  0.00     0.064 A 
ATOM     95  C   UNL A   1      39.541  30.368  31.231  1.00  0.00     0.173 A 
ATOM     96  C   UNL A   1      39.151  28.073  31.802  1.00  0.00     0.173 A 
ATOM     97  F   UNL A   1      39.938  31.611  31.551  1.00  0.00    -0.203 F 
ATOM     98  C   UNL A   1      39.247  30.104  29.892  1.00  0.00     0.198 A 
ATOM     99  C   UNL A   1      38.827  27.818  30.459  1.00  0.00     0.198 A 
ATOM    100  F   UNL A   1      39.162  27.045  32.661  1.00  0.00    -0.203 F 
ATOM    101  F   UNL A   1      39.378  31.074  28.975  1.00  0.00    -0.200 F 
ATOM    102  C   UNL A   1      38.904  28.824  29.503  1.00  0.00     0.200 A 
ATOM    103  F   UNL A   1      38.533  26.568  30.070  1.00  0.00    -0.200 F 
ATOM    104  F   UNL A   1      38.701  28.547  28.207  1.00  0.00    -0.200 F 
ENDBRANCH  70  94
BRANCH  82 105
ATOM    105  C   UNL A   1      45.071  32.723  35.607  1.00  0.00     0.064 A 
ATOM    106  C   UNL A   1      46.001  32.148  36.491  1.00  0.00     0.173 A 
ATOM    107  C   UNL A   1      45.594  33.614  34.645  1.00  0.00     0.173 A 
ATOM    108  F   UNL A   1      45.639  31.190  37.356  1.00  0.00    -0.203 F 
ATOM    109  C   UNL A   1      47.347  32.502  36.468  1.00  0.00     0.198 A 
ATOM    110  C   UNL A   1      46.948  33.928  34.596  1.00  0.00     0.198 A 
ATOM    111  F   UNL A   1      44.817  34.168  33.705  1.00  0.00    -0.203 F 
ATOM    112  F   UNL A   1      48.189  31.953  37.355  1.00  0.00    -0.200 F 
ATOM    113  C   UNL A   1      47.821  33.386  35.517  1.00  0.00     0.200 A 
ATOM    114  F   UNL A   1      47.405  34.736  33.629  1.00  0.00    -0.200 F 
ATOM    115  F   UNL A   1      49.123  33.692  35.472  1.00  0.00    -0.200 F 
ENDBRANCH  82 105
ENDBRANCH  56  57
ENDBRANCH  49  51
ENDBRANCH  48  49
ENDBRANCH  47  48
ENDBRANCH  46  47
ENDBRANCH  45  46
ENDBRANCH   1  45
TORSDOF 20
ENDMDL
MODEL 3
REMARK VINA RESULT:     -14.0      4.340      7.010
REMARK SMILES Cc1ccc(S(=O)(=O)n2cc(C(=O)C(=O)N[C@@H](Cc3c[nH]c4ccccc34)C(=O)NCC(=O)OCCOC(=O)c3ccc(-c4c5nc(c(-c6c(F)c(F)c(F)c(F)c6F)c6ccc([nH]6)c(-c6c(F)c(F)c(F)c(F)c6F)c6nc(c(-c7c(F)c(F)c(F)c(F)c7F)c7ccc4[nH]7)C=C6)C=C5)cc3)c3ccccc32)cc1
REMARK SMILES IDX 32 1 33 2 31 3 30 4 28 5 29 6 17 8 16 9 14 10 15 11 12 13
REMARK SMILES IDX 13 14 11 15 9 16 10 17 108 18 103 19 107 20 104 21 106 22
REMARK SMILES IDX 105 23 6 24 7 25 8 26 5 27 1 28 2 29 3 30 110 31 4 32 109 33
REMARK SMILES IDX 18 34 19 35 20 36 27 37 21 38 22 39 26 40 23 42 25 43 24 44
REMARK SMILES IDX 34 45 35 46 36 47 37 48 38 49 39 50 40 51 41 52 102 53 42 54
REMARK SMILES IDX 101 55 43 56 44 57 45 58 95 59 46 60 100 61 94 62 96 63
REMARK SMILES IDX 47 64 99 65 93 66 92 67 48 69 80 70 60 71 79 72 61 73 64 74
REMARK SMILES IDX 78 75 97 76 62 77 63 78 77 80 98 81 65 82 49 83 50 84 58 85
REMARK SMILES IDX 51 86 52 87 56 88 59 89 53 90 54 91 57 92 55 93 81 94 82 95
REMARK SMILES IDX 90 96 83 97 84 98 88 99 91 100 85 101 86 102 89 103 87 104
REMARK SMILES IDX 66 105 67 106 75 107 68 108 69 109 73 110 76 111 70 112
REMARK SMILES IDX 71 113 74 114 72 115
REMARK H PARENT 30 7 16 12 21 41 96 68 64 79
REMARK Flexibility Score: inf
ROOT
ATOM      1  C   UNL A   1      32.389  29.828  26.818  1.00  0.00     0.325 C 
ATOM      2  O   UNL A   1      31.758  30.262  25.867  1.00  0.00    -0.250 OA
ENDROOT
BRANCH   1   3
ATOM      3  C   UNL A   1      32.675  28.334  27.077  1.00  0.00     0.238 C 
BRANCH   3   4
ATOM      4  N   UNL A   1      31.478  27.491  27.084  1.00  0.00    -0.343 N 
ATOM      5  C   UNL A   1      31.107  26.404  26.344  1.00  0.00     0.243 C 
ATOM      6  O   UNL A   1      29.979  25.947  26.571  1.00  0.00    -0.273 OA
ATOM      7  H   UNL A   1      30.808  27.761  27.754  1.00  0.00     0.164 HD
BRANCH   5   8
ATOM      8  C   UNL A   1      31.959  25.807  25.175  1.00  0.00     0.176 C 
BRANCH   8   9
ATOM      9  N   UNL A   1      31.253  24.972  24.211  1.00  0.00    -0.337 N 
ATOM     10  C   UNL A   1      31.030  23.620  24.096  1.00  0.00     0.293 C 
ATOM     11  O   UNL A   1      30.479  23.151  23.107  1.00  0.00    -0.265 OA
ATOM     12  H   UNL A   1      30.845  25.491  23.479  1.00  0.00     0.164 HD
BRANCH  10  13
ATOM     13  C   UNL A   1      31.361  22.714  25.262  1.00  0.00     0.252 C 
ATOM     14  O   UNL A   1      30.534  22.730  26.176  1.00  0.00    -0.283 OA
BRANCH  13  15
ATOM     15  C   UNL A   1      32.613  21.962  25.351  1.00  0.00     0.054 A 
ATOM     16  N   UNL A   1      34.702  21.189  25.754  1.00  0.00    -0.240 N 
ATOM     17  C   UNL A   1      33.808  22.227  26.031  1.00  0.00     0.117 A 
ATOM     18  C   UNL A   1      33.966  20.159  25.144  1.00  0.00     0.065 A 
ATOM     19  C   UNL A   1      32.833  20.765  24.612  1.00  0.00     0.012 A 
ATOM     20  C   UNL A   1      34.332  18.849  24.782  1.00  0.00     0.028 A 
ATOM     21  C   UNL A   1      32.149  20.124  23.557  1.00  0.00     0.011 A 
ATOM     22  C   UNL A   1      33.676  18.261  23.700  1.00  0.00     0.002 A 
ATOM     23  C   UNL A   1      32.624  18.908  23.066  1.00  0.00     0.001 A 
BRANCH  16  24
ATOM     24  S   UNL A   1      36.261  21.408  24.982  1.00  0.00     0.268 S 
ATOM     25  O   UNL A   1      35.928  22.110  23.754  1.00  0.00    -0.201 OA
ATOM     26  O   UNL A   1      36.800  20.054  24.954  1.00  0.00    -0.201 OA
BRANCH  24  27
ATOM     27  C   UNL A   1      37.600  22.302  25.687  1.00  0.00     0.088 A 
ATOM     28  C   UNL A   1      41.224  23.562  27.675  1.00  0.00     0.044 C 
ATOM     29  C   UNL A   1      39.969  23.171  26.947  1.00  0.00    -0.051 A 
ATOM     30  C   UNL A   1      39.874  21.862  26.498  1.00  0.00     0.005 A 
ATOM     31  C   UNL A   1      38.874  24.042  26.750  1.00  0.00     0.005 A 
ATOM     32  C   UNL A   1      38.714  21.445  25.870  1.00  0.00     0.022 A 
ATOM     33  C   UNL A   1      37.675  23.615  26.122  1.00  0.00     0.022 A 
ENDBRANCH  24  27
ENDBRANCH  16  24
ENDBRANCH  13  15
ENDBRANCH  10  13
ENDBRANCH   8   9
BRANCH   8  34
ATOM     34  C   UNL A   1      32.743  26.941  24.424  1.00  0.00     0.072 C 
BRANCH  34  35
ATOM     35  C   UNL A   1      31.971  27.834  23.455  1.00  0.00    -0.020 A 
ATOM     36  C   UNL A   1      32.593  28.814  22.663  1.00  0.00     0.087 A 
ATOM     37  C   UNL A   1      30.550  27.928  23.207  1.00  0.00     0.003 A 
ATOM     38  N   UNL A   1      31.749  29.703  22.001  1.00  0.00    -0.361 N 
ATOM     39  C   UNL A   1      30.441  29.496  22.364  1.00  0.00     0.046 A 
ATOM     40  C   UNL A   1      28.989  27.095  23.726  1.00  0.00     0.010 A 
ATOM     41  H   UNL A   1      32.049  30.386  21.359  1.00  0.00     0.166 HD
ATOM     42  C   UNL A   1      28.866  30.436  22.386  1.00  0.00     0.026 A 
ATOM     43  C   UNL A   1      27.352  27.890  23.496  1.00  0.00     0.001 A 
ATOM     44  C   UNL A   1      27.319  29.633  23.001  1.00  0.00     0.002 A 
ENDBRANCH  34  35
ENDBRANCH   8  34
ENDBRANCH   5   8
ENDBRANCH   3   4
ENDBRANCH   1   3
BRANCH   1  45
ATOM     45  O   UNL A   1      32.944  30.589  27.801  1.00  0.00    -0.461 OA
BRANCH  45  46
ATOM     46  C   UNL A   1      33.820  31.729  27.564  1.00  0.00     0.274 C 
BRANCH  46  47
ATOM     47  C   UNL A   1      33.282  33.182  27.630  1.00  0.00     0.275 C 
BRANCH  47  48
ATOM     48  O   UNL A   1      34.059  34.093  28.437  1.00  0.00    -0.458 OA
BRANCH  48  49
ATOM     49  C   UNL A   1      33.574  34.358  29.681  1.00  0.00     0.338 C 
ATOM     50  O   UNL A   1      32.559  34.982  29.928  1.00  0.00    -0.246 OA
BRANCH  49  51
ATOM     51  C   UNL A   1      34.539  33.871  30.686  1.00  0.00     0.060 A 
ATOM     52  C   UNL A   1      35.103  34.650  31.658  1.00  0.00     0.016 A 
ATOM     53  C   UNL A   1      34.779  32.526  30.769  1.00  0.00     0.016 A 
ATOM     54  C   UNL A   1      36.103  34.050  32.472  1.00  0.00     0.010 A 
ATOM     55  C   UNL A   1      35.421  31.981  31.869  1.00  0.00     0.010 A 
ATOM     56  C   UNL A   1      36.644  32.586  32.421  1.00  0.00    -0.014 A 
BRANCH  56  57
ATOM     57  C   UNL A   1      38.577  31.724  32.664  1.00  0.00     0.031 A 
ATOM     58  C   UNL A   1      39.259  30.320  31.901  1.00  0.00     0.074 A 
ATOM     59  C   UNL A   1      39.862  32.133  33.273  1.00  0.00     0.049 A 
ATOM     60  N   UNL A   1      39.951  30.309  30.781  1.00  0.00    -0.248 NA
ATOM     61  C   UNL A   1      39.054  28.960  32.448  1.00  0.00     0.031 C 
ATOM     62  C   UNL A   1      41.251  31.817  32.876  1.00  0.00     0.029 A 
ATOM     63  N   UNL A   1      40.145  33.133  34.268  1.00  0.00    -0.354 N 
ATOM     64  C   UNL A   1      40.238  28.988  30.460  1.00  0.00     0.074 A 
ATOM     65  C   UNL A   1      39.516  28.202  31.453  1.00  0.00     0.031 C 
ATOM     66  C   UNL A   1      42.127  32.341  33.756  1.00  0.00     0.029 A 
ATOM     67  C   UNL A   1      41.367  32.885  34.852  1.00  0.00     0.049 A 
ATOM     68  H   UNL A   1      39.553  33.886  34.497  1.00  0.00     0.167 HD
ATOM     69  C   UNL A   1      41.510  28.586  30.181  1.00  0.00     0.037 A 
ATOM     70  C   UNL A   1      41.433  32.605  36.179  1.00  0.00     0.037 A 
ATOM     71  C   UNL A   1      42.495  28.909  31.192  1.00  0.00     0.049 A 
ATOM     72  C   UNL A   1      42.082  31.270  36.333  1.00  0.00     0.074 A 
ATOM     73  C   UNL A   1      43.597  29.743  31.228  1.00  0.00     0.029 A 
ATOM     74  N   UNL A   1      42.346  28.405  32.482  1.00  0.00    -0.354 N 
ATOM     75  N   UNL A   1      42.021  30.360  35.400  1.00  0.00    -0.248 NA
ATOM     76  C   UNL A   1      42.934  30.892  37.449  1.00  0.00     0.031 C 
ATOM     77  C   UNL A   1      44.071  29.782  32.567  1.00  0.00     0.029 A 
ATOM     78  C   UNL A   1      43.274  28.947  33.338  1.00  0.00     0.049 A 
ATOM     79  H   UNL A   1      41.664  27.746  32.746  1.00  0.00     0.167 HD
ATOM     80  C   UNL A   1      42.959  29.416  35.664  1.00  0.00     0.074 A 
ATOM     81  C   UNL A   1      43.429  29.721  37.004  1.00  0.00     0.031 C 
ATOM     82  C   UNL A   1      43.371  28.519  34.727  1.00  0.00     0.037 A 
BRANCH  69  83
ATOM     83  C   UNL A   1      41.773  28.108  28.772  1.00  0.00     0.064 A 
ATOM     84  C   UNL A   1      42.622  27.020  28.490  1.00  0.00     0.173 A 
ATOM     85  C   UNL A   1      41.157  28.702  27.642  1.00  0.00     0.173 A 
ATOM     86  F   UNL A   1      43.238  26.347  29.472  1.00  0.00    -0.203 F 
ATOM     87  C   UNL A   1      42.859  26.578  27.183  1.00  0.00     0.198 A 
ATOM     88  C   UNL A   1      41.395  28.258  26.338  1.00  0.00     0.198 A 
ATOM     89  F   UNL A   1      40.284  29.714  27.778  1.00  0.00    -0.203 F 
ATOM     90  F   UNL A   1      43.679  25.538  26.969  1.00  0.00    -0.200 F 
ATOM     91  C   UNL A   1      42.249  27.197  26.109  1.00  0.00     0.200 A 
ATOM     92  F   UNL A   1      40.784  28.859  25.306  1.00  0.00    -0.200 F 
ATOM     93  F   UNL A   1      42.470  26.766  24.859  1.00  0.00    -0.200 F 
ENDBRANCH  69  83
BRANCH  70  94
ATOM     94  C   UNL A   1      40.338  33.222  36.990  1.00  0.00     0.064 A 
ATOM     95  C   UNL A   1      39.187  32.437  37.257  1.00  0.00     0.173 A 
ATOM     96  C   UNL A   1      40.504  34.372  37.768  1.00  0.00     0.173 A 
ATOM     97  F   UNL A   1      38.975  31.304  36.565  1.00  0.00    -0.203 F 
ATOM     98  C   UNL A   1      38.316  32.728  38.308  1.00  0.00     0.198 A 
ATOM     99  C   UNL A   1      39.609  34.679  38.806  1.00  0.00     0.198 A 
ATOM    100  F   UNL A   1      41.581  35.154  37.603  1.00  0.00    -0.203 F 
ATOM    101  F   UNL A   1      37.317  31.883  38.604  1.00  0.00    -0.200 F 
ATOM    102  C   UNL A   1      38.536  33.844  39.093  1.00  0.00     0.200 A 
ATOM    103  F   UNL A   1      39.843  35.738  39.596  1.00  0.00    -0.200 F 
ATOM    104  F   UNL A   1      37.752  34.085  40.153  1.00  0.00    -0.200 F 
ENDBRANCH  70  94
BRANCH  82 105
ATOM    105  C   UNL A   1      44.044  27.229  35.065  1.00  0.00     0.064 A 
ATOM    106  C   UNL A   1      43.338  26.015  35.138  1.00  0.00     0.173 A 
ATOM    107  C   UNL A   1      45.450  27.138  35.140  1.00  0.00     0.173 A 
ATOM    108  F   UNL A   1      42.012  25.968  34.944  1.00  0.00    -0.203 F 
ATOM    109  C   UNL A   1      43.988  24.803  35.352  1.00  0.00     0.198 A 
ATOM    110  C   UNL A   1      46.098  25.919  35.306  1.00  0.00     0.198 A 
ATOM    111  F   UNL A   1      46.232  28.218  35.011  1.00  0.00    -0.203 F 
ATOM    112  F   UNL A   1      43.269  23.677  35.450  1.00  0.00    -0.200 F 
ATOM    113  C   UNL A   1      45.367  24.754  35.430  1.00  0.00     0.200 A 
ATOM    114  F   UNL A   1      47.438  25.877  35.316  1.00  0.00    -0.200 F 
ATOM    115  F   UNL A   1      45.992  23.582  35.595  1.00  0.00    -0.200 F 
ENDBRANCH  82 105
ENDBRANCH  56  57
ENDBRANCH  49  51
ENDBRANCH  48  49
ENDBRANCH  47  48
ENDBRANCH  46  47
ENDBRANCH  45  46
ENDBRANCH   1  45
TORSDOF 20
ENDMDL
