MODEL 1
REMARK VINA RESULT:     -13.0      0.000      0.000
REMARK SMILES O=C(OCCOC(=O)c1cc(-c2ccccn2)nc2ccc(F)cc12)c1ccc(-c2c3nc(c(-c4c(F)c(F)c(F)c(F)c4F)c4ccc([nH]4)c(-c4c(F)c(F)c(F)c(F)c4F)c4nc(c(-c5c(F)c(F)c(F)c(F)c5F)c5ccc2[nH]5)C=C4)C=C3)cc1
REMARK SMILES IDX 4 1 3 2 2 3 1 4 26 5 27 6 88 7 28 8 87 9 29 10 30 11 31 12
REMARK SMILES IDX 81 13 32 14 86 15 80 16 82 17 33 18 85 19 79 20 78 21 34 23
REMARK SMILES IDX 66 24 46 25 65 26 47 27 50 28 64 29 83 30 48 31 49 32 63 34
REMARK SMILES IDX 84 35 51 36 35 37 36 38 44 39 37 40 38 41 42 42 45 43 39 44
REMARK SMILES IDX 40 45 43 46 41 47 67 48 68 49 76 50 69 51 70 52 74 53 77 54
REMARK SMILES IDX 71 55 72 56 75 57 73 58 52 59 53 60 61 61 54 62 55 63 59 64
REMARK SMILES IDX 62 65 56 66 57 67 60 68 58 69 5 70 6 71 7 72 8 73 9 74 10 75
REMARK SMILES IDX 25 76 11 77 19 78 24 79 18 80 20 81 22 82 21 83 23 84 12 85
REMARK SMILES IDX 13 86 17 87 14 88 16 89 15 90
REMARK H PARENT 82 22 50 33
REMARK Flexibility Score: inf
ROOT
ATOM      1  C   UNL A   1      39.220  19.927  25.337  1.00  0.00     0.275 C 
ENDROOT
BRANCH   1   2
ATOM      2  O   UNL A   1      40.226  19.377  26.205  1.00  0.00    -0.458 OA
BRANCH   2   3
ATOM      3  C   UNL A   1      41.559  19.587  26.046  1.00  0.00     0.338 C 
ATOM      4  O   UNL A   1      42.321  18.669  25.766  1.00  0.00    -0.246 OA
BRANCH   3   5
ATOM      5  C   UNL A   1      42.122  20.872  26.531  1.00  0.00     0.060 A 
ATOM      6  C   UNL A   1      42.534  21.779  25.552  1.00  0.00     0.016 A 
ATOM      7  C   UNL A   1      42.241  21.226  27.878  1.00  0.00     0.016 A 
ATOM      8  C   UNL A   1      43.189  22.956  25.912  1.00  0.00     0.010 A 
ATOM      9  C   UNL A   1      42.867  22.426  28.244  1.00  0.00     0.010 A 
ATOM     10  C   UNL A   1      43.361  23.295  27.265  1.00  0.00    -0.014 A 
BRANCH  10  11
ATOM     11  C   UNL A   1      43.800  24.672  27.613  1.00  0.00     0.031 A 
ATOM     12  C   UNL A   1      45.247  25.091  27.655  1.00  0.00     0.074 A 
ATOM     13  C   UNL A   1      42.812  25.542  27.905  1.00  0.00     0.049 A 
ATOM     14  N   UNL A   1      45.753  26.289  27.828  1.00  0.00    -0.248 NA
ATOM     15  C   UNL A   1      46.269  24.042  27.499  1.00  0.00     0.031 C 
ATOM     16  C   UNL A   1      41.384  25.200  27.952  1.00  0.00     0.029 A 
ATOM     17  N   UNL A   1      42.838  26.875  28.212  1.00  0.00    -0.354 N 
ATOM     18  C   UNL A   1      47.136  26.149  27.728  1.00  0.00     0.074 A 
ATOM     19  C   UNL A   1      47.402  24.738  27.557  1.00  0.00     0.031 C 
ATOM     20  C   UNL A   1      40.673  26.295  28.243  1.00  0.00     0.029 A 
ATOM     21  C   UNL A   1      41.592  27.404  28.448  1.00  0.00     0.049 A 
ATOM     22  H   UNL A   1      43.667  27.403  28.258  1.00  0.00     0.167 HD
ATOM     23  C   UNL A   1      48.072  27.133  27.741  1.00  0.00     0.037 A 
ATOM     24  C   UNL A   1      41.229  28.648  28.810  1.00  0.00     0.037 A 
ATOM     25  C   UNL A   1      47.744  28.527  27.900  1.00  0.00     0.049 A 
ATOM     26  C   UNL A   1      42.303  29.684  28.925  1.00  0.00     0.074 A 
ATOM     27  C   UNL A   1      48.585  29.623  27.826  1.00  0.00     0.029 A 
ATOM     28  N   UNL A   1      46.478  29.009  28.202  1.00  0.00    -0.354 N 
ATOM     29  N   UNL A   1      43.584  29.568  28.666  1.00  0.00    -0.248 NA
ATOM     30  C   UNL A   1      41.895  31.019  29.377  1.00  0.00     0.031 C 
ATOM     31  C   UNL A   1      47.839  30.763  28.130  1.00  0.00     0.029 A 
ATOM     32  C   UNL A   1      46.530  30.382  28.379  1.00  0.00     0.049 A 
ATOM     33  H   UNL A   1      45.666  28.458  28.278  1.00  0.00     0.167 HD
ATOM     34  C   UNL A   1      44.134  30.815  28.904  1.00  0.00     0.074 A 
ATOM     35  C   UNL A   1      43.046  31.678  29.319  1.00  0.00     0.031 C 
ATOM     36  C   UNL A   1      45.423  31.210  28.786  1.00  0.00     0.037 A 
BRANCH  23  37
ATOM     37  C   UNL A   1      49.530  26.797  27.561  1.00  0.00     0.064 A 
ATOM     38  C   UNL A   1      50.364  26.569  28.669  1.00  0.00     0.173 A 
ATOM     39  C   UNL A   1      50.060  26.503  26.300  1.00  0.00     0.173 A 
ATOM     40  F   UNL A   1      49.878  26.648  29.910  1.00  0.00    -0.203 F 
ATOM     41  C   UNL A   1      51.684  26.151  28.527  1.00  0.00     0.198 A 
ATOM     42  C   UNL A   1      51.372  26.038  26.159  1.00  0.00     0.198 A 
ATOM     43  F   UNL A   1      49.294  26.615  25.205  1.00  0.00    -0.203 F 
ATOM     44  F   UNL A   1      52.447  25.972  29.615  1.00  0.00    -0.200 F 
ATOM     45  C   UNL A   1      52.188  25.879  27.270  1.00  0.00     0.200 A 
ATOM     46  F   UNL A   1      51.841  25.716  24.945  1.00  0.00    -0.200 F 
ATOM     47  F   UNL A   1      53.444  25.433  27.133  1.00  0.00    -0.200 F 
ENDBRANCH  23  37
BRANCH  24  48
ATOM     48  C   UNL A   1      39.798  28.941  29.082  1.00  0.00     0.064 A 
ATOM     49  C   UNL A   1      38.932  29.359  28.064  1.00  0.00     0.173 A 
ATOM     50  C   UNL A   1      39.253  28.749  30.363  1.00  0.00     0.173 A 
ATOM     51  F   UNL A   1      39.405  29.571  26.827  1.00  0.00    -0.203 F 
ATOM     52  C   UNL A   1      37.577  29.570  28.315  1.00  0.00     0.198 A 
ATOM     53  C   UNL A   1      37.894  28.931  30.606  1.00  0.00     0.198 A 
ATOM     54  F   UNL A   1      40.038  28.345  31.373  1.00  0.00    -0.203 F 
ATOM     55  F   UNL A   1      36.774  29.993  27.330  1.00  0.00    -0.200 F 
ATOM     56  C   UNL A   1      37.057  29.345  29.582  1.00  0.00     0.200 A 
ATOM     57  F   UNL A   1      37.395  28.691  31.826  1.00  0.00    -0.200 F 
ATOM     58  F   UNL A   1      35.751  29.530  29.816  1.00  0.00    -0.200 F 
ENDBRANCH  24  48
BRANCH  36  59
ATOM     59  C   UNL A   1      45.730  32.638  29.110  1.00  0.00     0.064 A 
ATOM     60  C   UNL A   1      46.199  33.005  30.378  1.00  0.00     0.173 A 
ATOM     61  C   UNL A   1      45.643  33.627  28.120  1.00  0.00     0.173 A 
ATOM     62  F   UNL A   1      46.282  32.092  31.358  1.00  0.00    -0.203 F 
ATOM     63  C   UNL A   1      46.571  34.319  30.645  1.00  0.00     0.198 A 
ATOM     64  C   UNL A   1      46.043  34.932  28.382  1.00  0.00     0.198 A 
ATOM     65  F   UNL A   1      45.208  33.316  26.889  1.00  0.00    -0.203 F 
ATOM     66  F   UNL A   1      46.997  34.655  31.869  1.00  0.00    -0.200 F 
ATOM     67  C   UNL A   1      46.505  35.277  29.644  1.00  0.00     0.200 A 
ATOM     68  F   UNL A   1      45.997  35.853  27.409  1.00  0.00    -0.200 F 
ATOM     69  F   UNL A   1      46.890  36.536  29.895  1.00  0.00    -0.200 F 
ENDBRANCH  36  59
ENDBRANCH  10  11
ENDBRANCH   3   5
ENDBRANCH   2   3
ENDBRANCH   1   2
BRANCH   1  70
ATOM     70  C   UNL A   1      38.756  21.340  25.708  1.00  0.00     0.275 C 
BRANCH  70  71
ATOM     71  O   UNL A   1      37.789  21.886  24.798  1.00  0.00    -0.458 OA
BRANCH  71  72
ATOM     72  C   UNL A   1      36.736  22.515  25.385  1.00  0.00     0.339 C 
ATOM     73  O   UNL A   1      36.790  23.466  26.146  1.00  0.00    -0.246 OA
BRANCH  72  74
ATOM     74  C   UNL A   1      35.475  21.920  24.896  1.00  0.00     0.071 A 
ATOM     75  C   UNL A   1      35.263  20.547  25.087  1.00  0.00     0.047 A 
ATOM     76  C   UNL A   1      34.539  22.715  24.180  1.00  0.00     0.018 A 
ATOM     77  C   UNL A   1      34.117  19.994  24.546  1.00  0.00     0.090 A 
ATOM     78  C   UNL A   1      33.421  22.034  23.669  1.00  0.00     0.072 A 
ATOM     79  C   UNL A   1      34.664  24.094  23.872  1.00  0.00     0.050 A 
ATOM     80  N   UNL A   1      33.215  20.739  23.864  1.00  0.00    -0.246 NA
ATOM     81  C   UNL A   1      32.495  22.685  22.874  1.00  0.00     0.032 A 
ATOM     82  C   UNL A   1      33.718  24.727  23.071  1.00  0.00     0.123 A 
ATOM     83  C   UNL A   1      32.635  24.032  22.561  1.00  0.00     0.041 A 
ATOM     84  F   UNL A   1      33.863  26.023  22.772  1.00  0.00    -0.207 F 
BRANCH  77  85
ATOM     85  C   UNL A   1      33.744  18.580  24.629  1.00  0.00     0.089 A 
ATOM     86  C   UNL A   1      34.593  17.565  24.202  1.00  0.00     0.030 A 
ATOM     87  N   UNL A   1      32.585  18.331  25.300  1.00  0.00    -0.255 NA
ATOM     88  C   UNL A   1      34.290  16.260  24.571  1.00  0.00     0.004 A 
ATOM     89  C   UNL A   1      32.309  17.056  25.628  1.00  0.00     0.112 A 
ATOM     90  C   UNL A   1      33.143  16.003  25.318  1.00  0.00     0.020 A 
ENDBRANCH  77  85
ENDBRANCH  72  74
ENDBRANCH  71  72
ENDBRANCH  70  71
ENDBRANCH   1  70
TORSDOF 12
ENDMDL
MODEL 2
REMARK VINA RESULT:     -12.9      0.293      1.628
REMARK SMILES O=C(OCCOC(=O)c1cc(-c2ccccn2)nc2ccc(F)cc12)c1ccc(-c2c3nc(c(-c4c(F)c(F)c(F)c(F)c4F)c4ccc([nH]4)c(-c4c(F)c(F)c(F)c(F)c4F)c4nc(c(-c5c(F)c(F)c(F)c(F)c5F)c5ccc2[nH]5)C=C4)C=C3)cc1
REMARK SMILES IDX 4 1 3 2 2 3 1 4 26 5 27 6 88 7 28 8 87 9 29 10 30 11 31 12
REMARK SMILES IDX 81 13 32 14 86 15 80 16 82 17 33 18 85 19 79 20 78 21 34 23
REMARK SMILES IDX 66 24 46 25 65 26 47 27 50 28 64 29 83 30 48 31 49 32 63 34
REMARK SMILES IDX 84 35 51 36 35 37 36 38 44 39 37 40 38 41 42 42 45 43 39 44
REMARK SMILES IDX 40 45 43 46 41 47 67 48 68 49 76 50 69 51 70 52 74 53 77 54
REMARK SMILES IDX 71 55 72 56 75 57 73 58 52 59 53 60 61 61 54 62 55 63 59 64
REMARK SMILES IDX 62 65 56 66 57 67 60 68 58 69 5 70 6 71 7 72 8 73 9 74 10 75
REMARK SMILES IDX 25 76 11 77 19 78 24 79 18 80 20 81 22 82 21 83 23 84 12 85
REMARK SMILES IDX 13 86 17 87 14 88 16 89 15 90
REMARK H PARENT 82 22 50 33
REMARK Flexibility Score: inf
ROOT
ATOM      1  C   UNL A   1      39.036  19.833  25.328  1.00  0.00     0.275 C 
ENDROOT
BRANCH   1   2
ATOM      2  O   UNL A   1      40.069  19.356  26.206  1.00  0.00    -0.458 OA
BRANCH   2   3
ATOM      3  C   UNL A   1      41.394  19.584  26.009  1.00  0.00     0.338 C 
ATOM      4  O   UNL A   1      42.156  18.682  25.678  1.00  0.00    -0.246 OA
BRANCH   3   5
ATOM      5  C   UNL A   1      41.961  20.861  26.512  1.00  0.00     0.060 A 
ATOM      6  C   UNL A   1      42.353  21.790  25.546  1.00  0.00     0.016 A 
ATOM      7  C   UNL A   1      42.101  21.186  27.864  1.00  0.00     0.016 A 
ATOM      8  C   UNL A   1      43.009  22.962  25.920  1.00  0.00     0.010 A 
ATOM      9  C   UNL A   1      42.728  22.381  28.245  1.00  0.00     0.010 A 
ATOM     10  C   UNL A   1      43.203  23.273  27.277  1.00  0.00    -0.014 A 
BRANCH  10  11
ATOM     11  C   UNL A   1      43.642  24.643  27.646  1.00  0.00     0.031 A 
ATOM     12  C   UNL A   1      45.089  25.063  27.689  1.00  0.00     0.074 A 
ATOM     13  C   UNL A   1      42.655  25.508  27.959  1.00  0.00     0.049 A 
ATOM     14  N   UNL A   1      45.596  26.258  27.879  1.00  0.00    -0.248 NA
ATOM     15  C   UNL A   1      46.111  24.018  27.509  1.00  0.00     0.031 C 
ATOM     16  C   UNL A   1      41.227  25.163  28.008  1.00  0.00     0.029 A 
ATOM     17  N   UNL A   1      42.681  26.835  28.289  1.00  0.00    -0.354 N 
ATOM     18  C   UNL A   1      46.978  26.122  27.771  1.00  0.00     0.074 A 
ATOM     19  C   UNL A   1      47.244  24.714  27.573  1.00  0.00     0.031 C 
ATOM     20  C   UNL A   1      40.517  26.252  28.322  1.00  0.00     0.029 A 
ATOM     21  C   UNL A   1      41.436  27.359  28.541  1.00  0.00     0.049 A 
ATOM     22  H   UNL A   1      43.511  27.363  28.340  1.00  0.00     0.167 HD
ATOM     23  C   UNL A   1      47.913  27.106  27.795  1.00  0.00     0.037 A 
ATOM     24  C   UNL A   1      41.075  28.596  28.927  1.00  0.00     0.037 A 
ATOM     25  C   UNL A   1      47.585  28.497  27.981  1.00  0.00     0.049 A 
ATOM     26  C   UNL A   1      42.149  29.631  29.054  1.00  0.00     0.074 A 
ATOM     27  C   UNL A   1      48.425  29.594  27.921  1.00  0.00     0.029 A 
ATOM     28  N   UNL A   1      46.320  28.972  28.297  1.00  0.00    -0.354 N 
ATOM     29  N   UNL A   1      43.428  29.521  28.787  1.00  0.00    -0.248 NA
ATOM     30  C   UNL A   1      41.742  30.957  29.532  1.00  0.00     0.031 C 
ATOM     31  C   UNL A   1      47.679  30.728  28.250  1.00  0.00     0.029 A 
ATOM     32  C   UNL A   1      46.372  30.342  28.499  1.00  0.00     0.049 A 
ATOM     33  H   UNL A   1      45.509  28.420  28.368  1.00  0.00     0.167 HD
ATOM     34  C   UNL A   1      43.978  30.764  29.043  1.00  0.00     0.074 A 
ATOM     35  C   UNL A   1      42.892  31.618  29.479  1.00  0.00     0.031 C 
ATOM     36  C   UNL A   1      45.267  31.162  28.926  1.00  0.00     0.037 A 
BRANCH  23  37
ATOM     37  C   UNL A   1      49.370  26.774  27.602  1.00  0.00     0.064 A 
ATOM     38  C   UNL A   1      50.213  26.540  28.702  1.00  0.00     0.173 A 
ATOM     39  C   UNL A   1      49.891  26.491  26.335  1.00  0.00     0.173 A 
ATOM     40  F   UNL A   1      49.737  26.608  29.948  1.00  0.00    -0.203 F 
ATOM     41  C   UNL A   1      51.533  26.126  28.547  1.00  0.00     0.198 A 
ATOM     42  C   UNL A   1      51.203  26.030  26.181  1.00  0.00     0.198 A 
ATOM     43  F   UNL A   1      49.117  26.609  25.247  1.00  0.00    -0.203 F 
ATOM     44  F   UNL A   1      52.305  25.941  29.628  1.00  0.00    -0.200 F 
ATOM     45  C   UNL A   1      52.028  25.865  27.285  1.00  0.00     0.200 A 
ATOM     46  F   UNL A   1      51.664  25.718  24.961  1.00  0.00    -0.200 F 
ATOM     47  F   UNL A   1      53.284  25.423  27.135  1.00  0.00    -0.200 F 
ENDBRANCH  23  37
BRANCH  24  48
ATOM     48  C   UNL A   1      39.645  28.883  29.211  1.00  0.00     0.064 A 
ATOM     49  C   UNL A   1      39.109  28.721  30.495  1.00  0.00     0.173 A 
ATOM     50  C   UNL A   1      38.797  29.388  28.211  1.00  0.00     0.173 A 
ATOM     51  F   UNL A   1      39.872  28.229  31.482  1.00  0.00    -0.203 F 
ATOM     52  C   UNL A   1      37.783  29.053  30.767  1.00  0.00     0.198 A 
ATOM     53  C   UNL A   1      37.482  29.748  28.491  1.00  0.00     0.198 A 
ATOM     54  F   UNL A   1      39.261  29.567  26.964  1.00  0.00    -0.203 F 
ATOM     55  F   UNL A   1      37.287  28.865  31.998  1.00  0.00    -0.200 F 
ATOM     56  C   UNL A   1      36.974  29.577  29.768  1.00  0.00     0.200 A 
ATOM     57  F   UNL A   1      36.713  30.273  27.527  1.00  0.00    -0.200 F 
ATOM     58  F   UNL A   1      35.705  29.914  30.038  1.00  0.00    -0.200 F 
ENDBRANCH  24  48
BRANCH  36  59
ATOM     59  C   UNL A   1      45.574  32.584  29.274  1.00  0.00     0.064 A 
ATOM     60  C   UNL A   1      45.421  33.607  28.329  1.00  0.00     0.173 A 
ATOM     61  C   UNL A   1      45.931  32.935  30.584  1.00  0.00     0.173 A 
ATOM     62  F   UNL A   1      45.096  33.312  27.061  1.00  0.00    -0.203 F 
ATOM     63  C   UNL A   1      45.617  34.937  28.685  1.00  0.00     0.198 A 
ATOM     64  C   UNL A   1      46.098  34.267  30.942  1.00  0.00     0.198 A 
ATOM     65  F   UNL A   1      46.077  31.986  31.522  1.00  0.00    -0.203 F 
ATOM     66  F   UNL A   1      45.488  35.900  27.763  1.00  0.00    -0.200 F 
ATOM     67  C   UNL A   1      45.943  35.266  29.993  1.00  0.00     0.200 A 
ATOM     68  F   UNL A   1      46.393  34.585  32.210  1.00  0.00    -0.200 F 
ATOM     69  F   UNL A   1      46.104  36.551  30.340  1.00  0.00    -0.200 F 
ENDBRANCH  36  59
ENDBRANCH  10  11
ENDBRANCH   3   5
ENDBRANCH   2   3
ENDBRANCH   1   2
BRANCH   1  70
ATOM     70  C   UNL A   1      38.660  21.307  25.523  1.00  0.00     0.275 C 
BRANCH  70  71
ATOM     71  O   UNL A   1      37.592  21.746  24.670  1.00  0.00    -0.458 OA
BRANCH  71  72
ATOM     72  C   UNL A   1      36.567  22.374  25.306  1.00  0.00     0.339 C 
ATOM     73  O   UNL A   1      36.659  23.289  26.106  1.00  0.00    -0.246 OA
BRANCH  72  74
ATOM     74  C   UNL A   1      35.281  21.829  24.820  1.00  0.00     0.071 A 
ATOM     75  C   UNL A   1      35.028  20.460  24.986  1.00  0.00     0.047 A 
ATOM     76  C   UNL A   1      34.363  22.668  24.132  1.00  0.00     0.018 A 
ATOM     77  C   UNL A   1      33.858  19.955  24.448  1.00  0.00     0.090 A 
ATOM     78  C   UNL A   1      33.218  22.034  23.622  1.00  0.00     0.072 A 
ATOM     79  C   UNL A   1      34.529  24.048  23.851  1.00  0.00     0.050 A 
ATOM     80  N   UNL A   1      32.973  20.743  23.793  1.00  0.00    -0.246 NA
ATOM     81  C   UNL A   1      32.304  22.731  22.851  1.00  0.00     0.032 A 
ATOM     82  C   UNL A   1      33.595  24.729  23.076  1.00  0.00     0.123 A 
ATOM     83  C   UNL A   1      32.484  24.079  22.564  1.00  0.00     0.041 A 
ATOM     84  F   UNL A   1      33.778  26.026  22.801  1.00  0.00    -0.207 F 
BRANCH  77  85
ATOM     85  C   UNL A   1      33.441  18.552  24.506  1.00  0.00     0.089 A 
ATOM     86  C   UNL A   1      34.011  17.577  23.695  1.00  0.00     0.030 A 
ATOM     87  N   UNL A   1      32.581  18.251  25.518  1.00  0.00    -0.255 NA
ATOM     88  C   UNL A   1      33.768  16.245  24.004  1.00  0.00     0.004 A 
ATOM     89  C   UNL A   1      32.351  16.952  25.784  1.00  0.00     0.112 A 
ATOM     90  C   UNL A   1      32.945  15.926  25.083  1.00  0.00     0.020 A 
ENDBRANCH  77  85
ENDBRANCH  72  74
ENDBRANCH  71  72
ENDBRANCH  70  71
ENDBRANCH   1  70
TORSDOF 12
ENDMDL
MODEL 3
REMARK VINA RESULT:     -12.8      2.162      2.873
REMARK SMILES O=C(OCCOC(=O)c1cc(-c2ccccn2)nc2ccc(F)cc12)c1ccc(-c2c3nc(c(-c4c(F)c(F)c(F)c(F)c4F)c4ccc([nH]4)c(-c4c(F)c(F)c(F)c(F)c4F)c4nc(c(-c5c(F)c(F)c(F)c(F)c5F)c5ccc2[nH]5)C=C4)C=C3)cc1
REMARK SMILES IDX 4 1 3 2 2 3 1 4 26 5 27 6 88 7 28 8 87 9 29 10 30 11 31 12
REMARK SMILES IDX 81 13 32 14 86 15 80 16 82 17 33 18 85 19 79 20 78 21 34 23
REMARK SMILES IDX 66 24 46 25 65 26 47 27 50 28 64 29 83 30 48 31 49 32 63 34
REMARK SMILES IDX 84 35 51 36 35 37 36 38 44 39 37 40 38 41 42 42 45 43 39 44
REMARK SMILES IDX 40 45 43 46 41 47 67 48 68 49 76 50 69 51 70 52 74 53 77 54
REMARK SMILES IDX 71 55 72 56 75 57 73 58 52 59 53 60 61 61 54 62 55 63 59 64
REMARK SMILES IDX 62 65 56 66 57 67 60 68 58 69 5 70 6 71 7 72 8 73 9 74 10 75
REMARK SMILES IDX 25 76 11 77 19 78 24 79 18 80 20 81 22 82 21 83 23 84 12 85
REMARK SMILES IDX 13 86 17 87 14 88 16 89 15 90
REMARK H PARENT 82 22 50 33
REMARK Flexibility Score: inf
ROOT
ATOM      1  C   UNL A   1      37.433  21.374  24.686  1.00  0.00     0.275 C 
ENDROOT
BRANCH   1   2
ATOM      2  O   UNL A   1      37.886  21.631  26.026  1.00  0.00    -0.458 OA
BRANCH   2   3
ATOM      3  C   UNL A   1      39.195  21.689  26.385  1.00  0.00     0.338 C 
ATOM      4  O   UNL A   1      39.822  20.679  26.682  1.00  0.00    -0.246 OA
BRANCH   3   5
ATOM      5  C   UNL A   1      39.763  23.019  26.724  1.00  0.00     0.060 A 
ATOM      6  C   UNL A   1      40.798  23.031  27.662  1.00  0.00     0.016 A 
ATOM      7  C   UNL A   1      39.347  24.226  26.156  1.00  0.00     0.016 A 
ATOM      8  C   UNL A   1      41.307  24.240  28.135  1.00  0.00     0.010 A 
ATOM      9  C   UNL A   1      39.882  25.442  26.603  1.00  0.00     0.010 A 
ATOM     10  C   UNL A   1      40.856  25.462  27.608  1.00  0.00    -0.014 A 
BRANCH  10  11
ATOM     11  C   UNL A   1      41.610  26.704  27.921  1.00  0.00     0.031 A 
ATOM     12  C   UNL A   1      43.040  26.928  27.504  1.00  0.00     0.074 A 
ATOM     13  C   UNL A   1      40.933  27.635  28.623  1.00  0.00     0.049 A 
ATOM     14  N   UNL A   1      43.770  28.013  27.612  1.00  0.00    -0.248 NA
ATOM     15  C   UNL A   1      43.763  25.797  26.899  1.00  0.00     0.031 C 
ATOM     16  C   UNL A   1      39.562  27.470  29.125  1.00  0.00     0.029 A 
ATOM     17  N   UNL A   1      41.282  28.892  29.036  1.00  0.00    -0.354 N 
ATOM     18  C   UNL A   1      45.000  27.720  27.028  1.00  0.00     0.074 A 
ATOM     19  C   UNL A   1      44.954  26.330  26.633  1.00  0.00     0.031 C 
ATOM     20  C   UNL A   1      39.180  28.587  29.753  1.00  0.00     0.029 A 
ATOM     21  C   UNL A   1      40.289  29.529  29.740  1.00  0.00     0.049 A 
ATOM     22  H   UNL A   1      42.157  29.299  28.847  1.00  0.00     0.167 HD
ATOM     23  C   UNL A   1      46.041  28.566  26.817  1.00  0.00     0.037 A 
ATOM     24  C   UNL A   1      40.279  30.739  30.329  1.00  0.00     0.037 A 
ATOM     25  C   UNL A   1      46.023  29.949  27.220  1.00  0.00     0.049 A 
ATOM     26  C   UNL A   1      41.491  31.603  30.171  1.00  0.00     0.074 A 
ATOM     27  C   UNL A   1      46.967  30.930  26.972  1.00  0.00     0.029 A 
ATOM     28  N   UNL A   1      45.025  30.533  27.987  1.00  0.00    -0.354 N 
ATOM     29  N   UNL A   1      42.578  31.370  29.476  1.00  0.00    -0.248 NA
ATOM     30  C   UNL A   1      41.484  32.893  30.870  1.00  0.00     0.031 C 
ATOM     31  C   UNL A   1      46.564  32.094  27.630  1.00  0.00     0.029 A 
ATOM     32  C   UNL A   1      45.362  31.845  28.275  1.00  0.00     0.049 A 
ATOM     33  H   UNL A   1      44.202  30.083  28.283  1.00  0.00     0.167 HD
ATOM     34  C   UNL A   1      43.377  32.488  29.635  1.00  0.00     0.074 A 
ATOM     35  C   UNL A   1      42.646  33.406  30.485  1.00  0.00     0.031 C 
ATOM     36  C   UNL A   1      44.606  32.733  29.120  1.00  0.00     0.037 A 
BRANCH  23  37
ATOM     37  C   UNL A   1      47.282  28.082  26.112  1.00  0.00     0.064 A 
ATOM     38  C   UNL A   1      48.399  27.632  26.836  1.00  0.00     0.173 A 
ATOM     39  C   UNL A   1      47.300  27.875  24.728  1.00  0.00     0.173 A 
ATOM     40  F   UNL A   1      48.383  27.625  28.171  1.00  0.00    -0.203 F 
ATOM     41  C   UNL A   1      49.513  27.080  26.209  1.00  0.00     0.198 A 
ATOM     42  C   UNL A   1      48.400  27.277  24.103  1.00  0.00     0.198 A 
ATOM     43  F   UNL A   1      46.234  28.202  23.984  1.00  0.00    -0.203 F 
ATOM     44  F   UNL A   1      50.565  26.689  26.943  1.00  0.00    -0.200 F 
ATOM     45  C   UNL A   1      49.512  26.897  24.841  1.00  0.00     0.200 A 
ATOM     46  F   UNL A   1      48.373  27.044  22.783  1.00  0.00    -0.200 F 
ATOM     47  F   UNL A   1      50.564  26.324  24.240  1.00  0.00    -0.200 F 
ENDBRANCH  23  37
BRANCH  24  48
ATOM     48  C   UNL A   1      39.086  31.163  31.107  1.00  0.00     0.064 A 
ATOM     49  C   UNL A   1      38.009  31.816  30.494  1.00  0.00     0.173 A 
ATOM     50  C   UNL A   1      38.973  30.865  32.475  1.00  0.00     0.173 A 
ATOM     51  F   UNL A   1      38.073  32.136  29.193  1.00  0.00    -0.203 F 
ATOM     52  C   UNL A   1      36.867  32.152  31.218  1.00  0.00     0.198 A 
ATOM     53  C   UNL A   1      37.820  31.175  33.191  1.00  0.00     0.198 A 
ATOM     54  F   UNL A   1      39.974  30.236  33.111  1.00  0.00    -0.203 F 
ATOM     55  F   UNL A   1      35.860  32.799  30.615  1.00  0.00    -0.200 F 
ATOM     56  C   UNL A   1      36.769  31.822  32.563  1.00  0.00     0.200 A 
ATOM     57  F   UNL A   1      37.723  30.834  34.483  1.00  0.00    -0.200 F 
ATOM     58  F   UNL A   1      35.661  32.129  33.252  1.00  0.00    -0.200 F 
ENDBRANCH  24  48
BRANCH  36  59
ATOM     59  C   UNL A   1      45.237  34.045  29.462  1.00  0.00     0.064 A 
ATOM     60  C   UNL A   1      46.105  34.165  30.555  1.00  0.00     0.173 A 
ATOM     61  C   UNL A   1      45.047  35.163  28.637  1.00  0.00     0.173 A 
ATOM     62  F   UNL A   1      46.301  33.124  31.379  1.00  0.00    -0.203 F 
ATOM     63  C   UNL A   1      46.762  35.364  30.813  1.00  0.00     0.198 A 
ATOM     64  C   UNL A   1      45.728  36.350  28.881  1.00  0.00     0.198 A 
ATOM     65  F   UNL A   1      44.232  35.088  27.574  1.00  0.00    -0.203 F 
ATOM     66  F   UNL A   1      47.571  35.466  31.876  1.00  0.00    -0.200 F 
ATOM     67  C   UNL A   1      46.582  36.450  29.969  1.00  0.00     0.200 A 
ATOM     68  F   UNL A   1      45.568  37.393  28.054  1.00  0.00    -0.200 F 
ATOM     69  F   UNL A   1      47.237  37.595  30.202  1.00  0.00    -0.200 F 
ENDBRANCH  36  59
ENDBRANCH  10  11
ENDBRANCH   3   5
ENDBRANCH   2   3
ENDBRANCH   1   2
BRANCH   1  70
ATOM     70  C   UNL A   1      36.993  22.619  23.909  1.00  0.00     0.275 C 
BRANCH  70  71
ATOM     71  O   UNL A   1      35.871  23.297  24.495  1.00  0.00    -0.458 OA
BRANCH  71  72
ATOM     72  C   UNL A   1      34.734  23.283  23.749  1.00  0.00     0.339 C 
ATOM     73  O   UNL A   1      34.556  23.852  22.685  1.00  0.00    -0.246 OA
BRANCH  72  74
ATOM     74  C   UNL A   1      33.740  22.394  24.386  1.00  0.00     0.071 A 
ATOM     75  C   UNL A   1      33.846  21.012  24.180  1.00  0.00     0.047 A 
ATOM     76  C   UNL A   1      32.659  22.946  25.127  1.00  0.00     0.018 A 
ATOM     77  C   UNL A   1      32.857  20.206  24.713  1.00  0.00     0.090 A 
ATOM     78  C   UNL A   1      31.712  22.025  25.607  1.00  0.00     0.072 A 
ATOM     79  C   UNL A   1      32.409  24.323  25.357  1.00  0.00     0.050 A 
ATOM     80  N   UNL A   1      31.823  20.717  25.422  1.00  0.00    -0.246 NA
ATOM     81  C   UNL A   1      30.568  22.455  26.255  1.00  0.00     0.032 A 
ATOM     82  C   UNL A   1      31.252  24.730  26.015  1.00  0.00     0.123 A 
ATOM     83  C   UNL A   1      30.322  23.807  26.460  1.00  0.00     0.041 A 
ATOM     84  F   UNL A   1      31.021  26.035  26.205  1.00  0.00    -0.207 F 
BRANCH  77  85
ATOM     85  C   UNL A   1      32.794  18.749  24.579  1.00  0.00     0.089 A 
ATOM     86  C   UNL A   1      33.221  18.093  23.430  1.00  0.00     0.030 A 
ATOM     87  N   UNL A   1      32.444  18.083  25.714  1.00  0.00    -0.255 NA
ATOM     88  C   UNL A   1      33.393  16.716  23.489  1.00  0.00     0.004 A 
ATOM     89  C   UNL A   1      32.605  16.748  25.737  1.00  0.00     0.112 A 
ATOM     90  C   UNL A   1      33.105  16.034  24.669  1.00  0.00     0.020 A 
ENDBRANCH  77  85
ENDBRANCH  72  74
ENDBRANCH  71  72
ENDBRANCH  70  71
ENDBRANCH   1  70
TORSDOF 12
ENDMDL
