MODEL 1
REMARK VINA RESULT:     -12.8      0.000      0.000
REMARK SMILES COc1ccc(-c2ccc3n(c2=O)C[C@H]2C[C@@H]3CN(C(=O)CCCC(=O)OCCOC(=O)c3ccc(-c4c5nc(c(-c6c(F)c(F)c(F)c(F)c6F)c6ccc([nH]6)c(-c6c(F)c(F)c(F)c(F)c6F)c6nc(c(-c7c(F)c(F)c(F)c(F)c7F)c7ccc4[nH]7)C=C6)C=C5)cc3)C2)cc1
REMARK SMILES IDX 25 1 26 2 24 3 23 4 22 5 20 6 21 7 19 8 7 9 8 10 12 11 9 12
REMARK SMILES IDX 11 13 13 14 10 15 14 16 17 17 15 18 16 19 18 20 96 21 6 22
REMARK SMILES IDX 3 23 4 24 98 25 5 26 97 27 2 28 1 29 27 30 28 31 29 32 30 33
REMARK SMILES IDX 31 34 32 35 33 36 34 37 95 38 35 39 94 40 36 41 37 42 38 43
REMARK SMILES IDX 88 44 39 45 93 46 87 47 89 48 40 49 92 50 86 51 85 52 41 54
REMARK SMILES IDX 73 55 53 56 72 57 54 58 57 59 71 60 90 61 55 62 56 63 70 65
REMARK SMILES IDX 91 66 58 67 42 68 43 69 51 70 44 71 45 72 49 73 52 74 46 75
REMARK SMILES IDX 47 76 50 77 48 78 74 79 75 80 83 81 76 82 77 83 81 84 84 85
REMARK SMILES IDX 78 86 79 87 82 88 80 89 59 90 60 91 68 92 61 93 62 94 66 95
REMARK SMILES IDX 69 96 63 97 64 98 67 99 65 100
REMARK H PARENT 89 53 57 64
REMARK Flexibility Score: inf
ROOT
ATOM      1  C   UNL A   1      34.799  22.139  26.561  1.00  0.00     0.305 C 
ATOM      2  O   UNL A   1      34.187  22.140  27.624  1.00  0.00    -0.252 OA
ENDROOT
BRANCH   1   3
ATOM      3  C   UNL A   1      34.797  23.329  25.623  1.00  0.00     0.123 C 
BRANCH   3   4
ATOM      4  C   UNL A   1      34.027  24.560  26.079  1.00  0.00     0.022 C 
BRANCH   4   5
ATOM      5  C   UNL A   1      34.443  25.873  25.420  1.00  0.00     0.101 C 
BRANCH   5   6
ATOM      6  C   UNL A   1      33.484  27.024  25.674  1.00  0.00     0.222 C 
ATOM      7  O   UNL A   1      33.875  27.983  26.345  1.00  0.00    -0.275 OA
BRANCH   6   8
ATOM      8  N   UNL A   1      32.216  26.990  25.108  1.00  0.00    -0.342 N 
ATOM      9  C   UNL A   1      31.681  21.821  24.582  1.00  0.00     0.047 A 
ATOM     10  C   UNL A   1      31.109  22.152  25.752  1.00  0.00     0.016 A 
ATOM     11  C   UNL A   1      31.793  22.878  23.513  1.00  0.00     0.258 A 
ATOM     12  C   UNL A   1      30.563  23.458  25.979  1.00  0.00     0.023 A 
ATOM     13  N   UNL A   1      31.227  24.133  23.808  1.00  0.00    -0.311 N 
ATOM     14  O   UNL A   1      32.339  22.625  22.438  1.00  0.00    -0.269 OA
ATOM     15  C   UNL A   1      30.613  24.405  25.029  1.00  0.00     0.026 A 
ATOM     16  C   UNL A   1      31.241  25.125  22.729  1.00  0.00     0.131 C 
ATOM     17  C   UNL A   1      30.032  25.781  25.290  1.00  0.00     0.056 C 
ATOM     18  C   UNL A   1      30.780  26.549  23.085  1.00  0.00     0.029 C 
ATOM     19  C   UNL A   1      29.566  26.443  23.994  1.00  0.00     0.019 C 
ATOM     20  C   UNL A   1      31.086  26.663  25.981  1.00  0.00     0.129 C 
ATOM     21  C   UNL A   1      31.852  27.425  23.762  1.00  0.00     0.125 C 
BRANCH   9  22
ATOM     22  C   UNL A   1      32.156  20.440  24.383  1.00  0.00    -0.013 A 
ATOM     23  C   UNL A   1      33.008  17.787  23.964  1.00  0.00     0.118 A 
ATOM     24  C   UNL A   1      33.055  18.353  25.239  1.00  0.00     0.047 A 
ATOM     25  C   UNL A   1      32.517  18.537  22.898  1.00  0.00     0.047 A 
ATOM     26  C   UNL A   1      32.643  19.675  25.447  1.00  0.00     0.013 A 
ATOM     27  C   UNL A   1      32.098  19.855  23.106  1.00  0.00     0.013 A 
BRANCH  23  28
ATOM     28  O   UNL A   1      33.427  16.487  23.879  1.00  0.00    -0.497 OA
ATOM     29  C   UNL A   1      33.040  15.652  24.966  1.00  0.00     0.278 C 
ENDBRANCH  23  28
ENDBRANCH   9  22
ENDBRANCH   6   8
ENDBRANCH   5   6
ENDBRANCH   4   5
ENDBRANCH   3   4
ENDBRANCH   1   3
BRANCH   1  30
ATOM     30  O   UNL A   1      35.517  21.084  26.103  1.00  0.00    -0.462 OA
BRANCH  30  31
ATOM     31  C   UNL A   1      36.136  21.261  24.814  1.00  0.00     0.274 C 
BRANCH  31  32
ATOM     32  C   UNL A   1      37.660  21.195  24.911  1.00  0.00     0.275 C 
BRANCH  32  33
ATOM     33  O   UNL A   1      38.136  21.747  26.151  1.00  0.00    -0.458 OA
BRANCH  33  34
ATOM     34  C   UNL A   1      39.454  21.571  26.384  1.00  0.00     0.338 C 
ATOM     35  O   UNL A   1      40.141  20.592  26.120  1.00  0.00    -0.246 OA
BRANCH  34  36
ATOM     36  C   UNL A   1      40.018  22.808  26.925  1.00  0.00     0.060 A 
ATOM     37  C   UNL A   1      39.608  24.032  26.388  1.00  0.00     0.016 A 
ATOM     38  C   UNL A   1      41.019  22.748  27.890  1.00  0.00     0.016 A 
ATOM     39  C   UNL A   1      40.209  25.211  26.792  1.00  0.00     0.010 A 
ATOM     40  C   UNL A   1      41.620  23.933  28.304  1.00  0.00     0.010 A 
ATOM     41  C   UNL A   1      41.228  25.162  27.742  1.00  0.00    -0.014 A 
BRANCH  41  42
ATOM     42  C   UNL A   1      41.966  26.388  28.085  1.00  0.00     0.031 A 
ATOM     43  C   UNL A   1      41.261  27.442  28.876  1.00  0.00     0.074 A 
ATOM     44  C   UNL A   1      43.233  26.543  27.672  1.00  0.00     0.049 A 
ATOM     45  N   UNL A   1      41.582  28.693  29.058  1.00  0.00    -0.248 NA
ATOM     46  C   UNL A   1      40.014  27.030  29.541  1.00  0.00     0.031 C 
ATOM     47  C   UNL A   1      44.033  25.523  26.993  1.00  0.00     0.029 A 
ATOM     48  N   UNL A   1      44.060  27.632  27.742  1.00  0.00    -0.354 N 
ATOM     49  C   UNL A   1      40.554  29.232  29.817  1.00  0.00     0.074 A 
ATOM     50  C   UNL A   1      39.602  28.173  30.070  1.00  0.00     0.031 C 
ATOM     51  C   UNL A   1      45.229  26.047  26.681  1.00  0.00     0.029 A 
ATOM     52  C   UNL A   1      45.244  27.451  27.073  1.00  0.00     0.049 A 
ATOM     53  H   UNL A   1      43.828  28.460  28.223  1.00  0.00     0.167 HD
ATOM     54  C   UNL A   1      40.424  30.509  30.241  1.00  0.00     0.037 A 
ATOM     55  C   UNL A   1      46.198  28.347  26.761  1.00  0.00     0.037 A 
ATOM     56  C   UNL A   1      41.404  31.530  29.985  1.00  0.00     0.049 A 
ATOM     57  C   UNL A   1      46.000  29.777  27.183  1.00  0.00     0.074 A 
ATOM     58  C   UNL A   1      41.385  32.862  30.348  1.00  0.00     0.029 A 
ATOM     59  N   UNL A   1      42.593  31.314  29.298  1.00  0.00    -0.354 N 
ATOM     60  N   UNL A   1      45.000  30.313  27.842  1.00  0.00    -0.248 NA
ATOM     61  C   UNL A   1      47.049  30.730  26.804  1.00  0.00     0.031 C 
ATOM     62  C   UNL A   1      42.547  33.462  29.851  1.00  0.00     0.029 A 
ATOM     63  C   UNL A   1      43.312  32.494  29.217  1.00  0.00     0.049 A 
ATOM     64  H   UNL A   1      42.882  30.450  28.926  1.00  0.00     0.167 HD
ATOM     65  C   UNL A   1      45.308  31.657  27.980  1.00  0.00     0.074 A 
ATOM     66  C   UNL A   1      46.592  31.855  27.337  1.00  0.00     0.031 C 
ATOM     67  C   UNL A   1      44.597  32.642  28.583  1.00  0.00     0.037 A 
BRANCH  54  68
ATOM     68  C   UNL A   1      39.164  30.874  30.965  1.00  0.00     0.064 A 
ATOM     69  C   UNL A   1      39.053  30.782  32.360  1.00  0.00     0.173 A 
ATOM     70  C   UNL A   1      38.047  31.329  30.246  1.00  0.00     0.173 A 
ATOM     71  F   UNL A   1      40.084  30.333  33.091  1.00  0.00    -0.203 F 
ATOM     72  C   UNL A   1      37.864  31.111  33.007  1.00  0.00     0.198 A 
ATOM     73  C   UNL A   1      36.868  31.681  30.899  1.00  0.00     0.198 A 
ATOM     74  F   UNL A   1      38.098  31.430  28.910  1.00  0.00    -0.203 F 
ATOM     75  F   UNL A   1      37.765  30.972  34.337  1.00  0.00    -0.200 F 
ATOM     76  C   UNL A   1      36.775  31.566  32.277  1.00  0.00     0.200 A 
ATOM     77  F   UNL A   1      35.820  32.125  30.191  1.00  0.00    -0.200 F 
ATOM     78  F   UNL A   1      35.633  31.883  32.901  1.00  0.00    -0.200 F 
ENDBRANCH  54  68
BRANCH  55  79
ATOM     79  C   UNL A   1      47.380  27.920  25.971  1.00  0.00     0.064 A 
ATOM     80  C   UNL A   1      47.317  27.824  24.575  1.00  0.00     0.173 A 
ATOM     81  C   UNL A   1      48.603  27.622  26.591  1.00  0.00     0.173 A 
ATOM     82  F   UNL A   1      46.163  28.075  23.938  1.00  0.00    -0.203 F 
ATOM     83  C   UNL A   1      48.429  27.437  23.830  1.00  0.00     0.198 A 
ATOM     84  C   UNL A   1      49.722  27.263  25.843  1.00  0.00     0.198 A 
ATOM     85  F   UNL A   1      48.717  27.698  27.926  1.00  0.00    -0.203 F 
ATOM     86  F   UNL A   1      48.332  27.318  22.498  1.00  0.00    -0.200 F 
ATOM     87  C   UNL A   1      49.633  27.165  24.463  1.00  0.00     0.200 A 
ATOM     88  F   UNL A   1      50.886  27.013  26.459  1.00  0.00    -0.200 F 
ATOM     89  F   UNL A   1      50.703  26.802  23.745  1.00  0.00    -0.200 F 
ENDBRANCH  55  79
BRANCH  67  90
ATOM     90  C   UNL A   1      45.216  34.005  28.617  1.00  0.00     0.064 A 
ATOM     91  C   UNL A   1      44.981  34.942  27.603  1.00  0.00     0.173 A 
ATOM     92  C   UNL A   1      45.995  34.396  29.716  1.00  0.00     0.173 A 
ATOM     93  F   UNL A   1      44.254  34.605  26.526  1.00  0.00    -0.203 F 
ATOM     94  C   UNL A   1      45.515  36.225  27.683  1.00  0.00     0.198 A 
ATOM     95  C   UNL A   1      46.506  35.685  29.804  1.00  0.00     0.198 A 
ATOM     96  F   UNL A   1      46.240  33.532  30.713  1.00  0.00    -0.203 F 
ATOM     97  F   UNL A   1      45.305  37.098  26.689  1.00  0.00    -0.200 F 
ATOM     98  C   UNL A   1      46.268  36.598  28.786  1.00  0.00     0.200 A 
ATOM     99  F   UNL A   1      47.222  36.049  30.877  1.00  0.00    -0.200 F 
ATOM    100  F   UNL A   1      46.768  37.838  28.869  1.00  0.00    -0.200 F 
ENDBRANCH  67  90
ENDBRANCH  41  42
ENDBRANCH  34  36
ENDBRANCH  33  34
ENDBRANCH  32  33
ENDBRANCH  31  32
ENDBRANCH  30  31
ENDBRANCH   1  30
TORSDOF 17
ENDMDL
MODEL 2
REMARK VINA RESULT:     -12.4      5.039      9.079
REMARK SMILES COc1ccc(-c2ccc3n(c2=O)C[C@H]2C[C@@H]3CN(C(=O)CCCC(=O)OCCOC(=O)c3ccc(-c4c5nc(c(-c6c(F)c(F)c(F)c(F)c6F)c6ccc([nH]6)c(-c6c(F)c(F)c(F)c(F)c6F)c6nc(c(-c7c(F)c(F)c(F)c(F)c7F)c7ccc4[nH]7)C=C6)C=C5)cc3)C2)cc1
REMARK SMILES IDX 25 1 26 2 24 3 23 4 22 5 20 6 21 7 19 8 7 9 8 10 12 11 9 12
REMARK SMILES IDX 11 13 13 14 10 15 14 16 17 17 15 18 16 19 18 20 96 21 6 22
REMARK SMILES IDX 3 23 4 24 98 25 5 26 97 27 2 28 1 29 27 30 28 31 29 32 30 33
REMARK SMILES IDX 31 34 32 35 33 36 34 37 95 38 35 39 94 40 36 41 37 42 38 43
REMARK SMILES IDX 88 44 39 45 93 46 87 47 89 48 40 49 92 50 86 51 85 52 41 54
REMARK SMILES IDX 73 55 53 56 72 57 54 58 57 59 71 60 90 61 55 62 56 63 70 65
REMARK SMILES IDX 91 66 58 67 42 68 43 69 51 70 44 71 45 72 49 73 52 74 46 75
REMARK SMILES IDX 47 76 50 77 48 78 74 79 75 80 83 81 76 82 77 83 81 84 84 85
REMARK SMILES IDX 78 86 79 87 82 88 80 89 59 90 60 91 68 92 61 93 62 94 66 95
REMARK SMILES IDX 69 96 63 97 64 98 67 99 65 100
REMARK H PARENT 89 53 57 64
REMARK Flexibility Score: inf
ROOT
ATOM      1  C   UNL A   1      35.189  32.856  28.432  1.00  0.00     0.305 C 
ATOM      2  O   UNL A   1      36.074  33.055  27.607  1.00  0.00    -0.252 OA
ENDROOT
BRANCH   1   3
ATOM      3  C   UNL A   1      34.591  31.482  28.664  1.00  0.00     0.123 C 
BRANCH   3   4
ATOM      4  C   UNL A   1      34.652  30.503  27.501  1.00  0.00     0.022 C 
BRANCH   4   5
ATOM      5  C   UNL A   1      33.351  29.764  27.201  1.00  0.00     0.101 C 
BRANCH   5   6
ATOM      6  C   UNL A   1      33.500  28.628  26.203  1.00  0.00     0.222 C 
ATOM      7  O   UNL A   1      34.252  27.690  26.482  1.00  0.00    -0.275 OA
BRANCH   6   8
ATOM      8  N   UNL A   1      32.754  28.649  25.031  1.00  0.00    -0.342 N 
ATOM      9  C   UNL A   1      32.424  23.510  24.162  1.00  0.00     0.047 A 
ATOM     10  C   UNL A   1      31.314  23.861  24.831  1.00  0.00     0.016 A 
ATOM     11  C   UNL A   1      33.143  24.564  23.359  1.00  0.00     0.258 A 
ATOM     12  C   UNL A   1      30.777  25.189  24.754  1.00  0.00     0.023 A 
ATOM     13  N   UNL A   1      32.551  25.842  23.327  1.00  0.00    -0.311 N 
ATOM     14  O   UNL A   1      34.182  24.292  22.757  1.00  0.00    -0.269 OA
ATOM     15  C   UNL A   1      31.375  26.135  24.015  1.00  0.00     0.026 A 
ATOM     16  C   UNL A   1      33.191  26.836  22.461  1.00  0.00     0.131 C 
ATOM     17  C   UNL A   1      30.793  27.534  23.948  1.00  0.00     0.056 C 
ATOM     18  C   UNL A   1      32.659  28.277  22.541  1.00  0.00     0.029 C 
ATOM     19  C   UNL A   1      31.141  28.220  22.628  1.00  0.00     0.019 C 
ATOM     20  C   UNL A   1      31.321  28.368  25.128  1.00  0.00     0.129 C 
ATOM     21  C   UNL A   1      33.209  29.104  23.719  1.00  0.00     0.125 C 
BRANCH   9  22
ATOM     22  C   UNL A   1      32.883  22.110  24.221  1.00  0.00    -0.013 A 
ATOM     23  C   UNL A   1      33.696  19.415  24.340  1.00  0.00     0.118 A 
ATOM     24  C   UNL A   1      34.357  20.388  25.092  1.00  0.00     0.047 A 
ATOM     25  C   UNL A   1      32.615  19.781  23.542  1.00  0.00     0.047 A 
ATOM     26  C   UNL A   1      33.962  21.730  25.025  1.00  0.00     0.013 A 
ATOM     27  C   UNL A   1      32.215  21.120  23.481  1.00  0.00     0.013 A 
BRANCH  23  28
ATOM     28  O   UNL A   1      34.161  18.137  24.489  1.00  0.00    -0.497 OA
ATOM     29  C   UNL A   1      33.814  17.237  23.441  1.00  0.00     0.278 C 
ENDBRANCH  23  28
ENDBRANCH   9  22
ENDBRANCH   6   8
ENDBRANCH   5   6
ENDBRANCH   4   5
ENDBRANCH   3   4
ENDBRANCH   1   3
BRANCH   1  30
ATOM     30  O   UNL A   1      34.640  33.828  29.202  1.00  0.00    -0.462 OA
BRANCH  30  31
ATOM     31  C   UNL A   1      33.605  34.610  28.577  1.00  0.00     0.274 C 
BRANCH  31  32
ATOM     32  C   UNL A   1      33.136  35.747  29.485  1.00  0.00     0.275 C 
BRANCH  32  33
ATOM     33  O   UNL A   1      32.401  35.250  30.616  1.00  0.00    -0.458 OA
BRANCH  33  34
ATOM     34  C   UNL A   1      32.709  35.830  31.796  1.00  0.00     0.338 C 
ATOM     35  O   UNL A   1      32.158  36.783  32.333  1.00  0.00    -0.246 OA
BRANCH  34  36
ATOM     36  C   UNL A   1      33.778  35.069  32.443  1.00  0.00     0.060 A 
ATOM     37  C   UNL A   1      35.068  35.606  32.478  1.00  0.00     0.016 A 
ATOM     38  C   UNL A   1      33.522  33.787  32.924  1.00  0.00     0.016 A 
ATOM     39  C   UNL A   1      36.124  34.862  32.974  1.00  0.00     0.010 A 
ATOM     40  C   UNL A   1      34.581  33.040  33.429  1.00  0.00     0.010 A 
ATOM     41  C   UNL A   1      35.884  33.570  33.437  1.00  0.00    -0.014 A 
BRANCH  41  42
ATOM     42  C   UNL A   1      37.013  32.718  33.844  1.00  0.00     0.031 A 
ATOM     43  C   UNL A   1      37.659  32.981  35.166  1.00  0.00     0.074 A 
ATOM     44  C   UNL A   1      37.448  31.749  33.025  1.00  0.00     0.049 A 
ATOM     45  N   UNL A   1      38.813  32.574  35.618  1.00  0.00    -0.248 NA
ATOM     46  C   UNL A   1      36.905  33.831  36.101  1.00  0.00     0.031 C 
ATOM     47  C   UNL A   1      36.810  31.352  31.770  1.00  0.00     0.029 A 
ATOM     48  N   UNL A   1      38.549  30.940  33.117  1.00  0.00    -0.354 N 
ATOM     49  C   UNL A   1      38.947  33.158  36.870  1.00  0.00     0.074 A 
ATOM     50  C   UNL A   1      37.754  33.939  37.111  1.00  0.00     0.031 C 
ATOM     51  C   UNL A   1      37.550  30.391  31.192  1.00  0.00     0.029 A 
ATOM     52  C   UNL A   1      38.742  30.166  32.001  1.00  0.00     0.049 A 
ATOM     53  H   UNL A   1      39.141  30.915  33.905  1.00  0.00     0.167 HD
ATOM     54  C   UNL A   1      39.991  33.053  37.722  1.00  0.00     0.037 A 
ATOM     55  C   UNL A   1      39.800  29.411  31.652  1.00  0.00     0.037 A 
ATOM     56  C   UNL A   1      41.152  32.248  37.452  1.00  0.00     0.049 A 
ATOM     57  C   UNL A   1      40.980  29.365  32.584  1.00  0.00     0.074 A 
ATOM     58  C   UNL A   1      42.282  32.067  38.226  1.00  0.00     0.029 A 
ATOM     59  N   UNL A   1      41.318  31.478  36.307  1.00  0.00    -0.354 N 
ATOM     60  N   UNL A   1      41.146  29.966  33.738  1.00  0.00    -0.248 NA
ATOM     61  C   UNL A   1      42.126  28.552  32.159  1.00  0.00     0.031 C 
ATOM     62  C   UNL A   1      43.148  31.215  37.534  1.00  0.00     0.029 A 
ATOM     63  C   UNL A   1      42.539  30.829  36.348  1.00  0.00     0.049 A 
ATOM     64  H   UNL A   1      40.664  31.405  35.576  1.00  0.00     0.167 HD
ATOM     65  C   UNL A   1      42.401  29.587  34.191  1.00  0.00     0.074 A 
ATOM     66  C   UNL A   1      42.953  28.700  33.186  1.00  0.00     0.031 C 
ATOM     67  C   UNL A   1      43.041  29.938  35.333  1.00  0.00     0.037 A 
BRANCH  54  68
ATOM     68  C   UNL A   1      39.944  33.866  38.979  1.00  0.00     0.064 A 
ATOM     69  C   UNL A   1      40.530  35.137  39.066  1.00  0.00     0.173 A 
ATOM     70  C   UNL A   1      39.297  33.363  40.119  1.00  0.00     0.173 A 
ATOM     71  F   UNL A   1      41.179  35.654  38.012  1.00  0.00    -0.203 F 
ATOM     72  C   UNL A   1      40.489  35.865  40.253  1.00  0.00     0.198 A 
ATOM     73  C   UNL A   1      39.236  34.103  41.296  1.00  0.00     0.198 A 
ATOM     74  F   UNL A   1      38.725  32.149  40.090  1.00  0.00    -0.203 F 
ATOM     75  F   UNL A   1      41.095  37.058  40.328  1.00  0.00    -0.200 F 
ATOM     76  C   UNL A   1      39.837  35.351  41.364  1.00  0.00     0.200 A 
ATOM     77  F   UNL A   1      38.600  33.607  42.366  1.00  0.00    -0.200 F 
ATOM     78  F   UNL A   1      39.797  36.053  42.504  1.00  0.00    -0.200 F 
ENDBRANCH  54  68
BRANCH  55  79
ATOM     79  C   UNL A   1      39.801  28.699  30.350  1.00  0.00     0.064 A 
ATOM     80  C   UNL A   1      40.335  29.298  29.202  1.00  0.00     0.173 A 
ATOM     81  C   UNL A   1      39.290  27.398  30.230  1.00  0.00     0.173 A 
ATOM     82  F   UNL A   1      40.814  30.549  29.261  1.00  0.00    -0.203 F 
ATOM     83  C   UNL A   1      40.350  28.626  27.982  1.00  0.00     0.198 A 
ATOM     84  C   UNL A   1      39.331  26.716  29.016  1.00  0.00     0.198 A 
ATOM     85  F   UNL A   1      38.767  26.779  31.300  1.00  0.00    -0.203 F 
ATOM     86  F   UNL A   1      40.835  29.235  26.890  1.00  0.00    -0.200 F 
ATOM     87  C   UNL A   1      39.856  27.333  27.891  1.00  0.00     0.200 A 
ATOM     88  F   UNL A   1      38.863  25.463  28.937  1.00  0.00    -0.200 F 
ATOM     89  F   UNL A   1      39.879  26.685  26.719  1.00  0.00    -0.200 F 
ENDBRANCH  55  79
BRANCH  67  90
ATOM     90  C   UNL A   1      44.385  29.324  35.576  1.00  0.00     0.064 A 
ATOM     91  C   UNL A   1      45.566  29.954  35.163  1.00  0.00     0.173 A 
ATOM     92  C   UNL A   1      44.489  28.123  36.294  1.00  0.00     0.173 A 
ATOM     93  F   UNL A   1      45.511  31.096  34.460  1.00  0.00    -0.203 F 
ATOM     94  C   UNL A   1      46.808  29.398  35.452  1.00  0.00     0.198 A 
ATOM     95  C   UNL A   1      45.732  27.583  36.603  1.00  0.00     0.198 A 
ATOM     96  F   UNL A   1      43.385  27.488  36.715  1.00  0.00    -0.203 F 
ATOM     97  F   UNL A   1      47.925  29.999  35.023  1.00  0.00    -0.200 F 
ATOM     98  C   UNL A   1      46.890  28.219  36.179  1.00  0.00     0.200 A 
ATOM     99  F   UNL A   1      45.811  26.451  37.316  1.00  0.00    -0.200 F 
ATOM    100  F   UNL A   1      48.087  27.693  36.470  1.00  0.00    -0.200 F 
ENDBRANCH  67  90
ENDBRANCH  41  42
ENDBRANCH  34  36
ENDBRANCH  33  34
ENDBRANCH  32  33
ENDBRANCH  31  32
ENDBRANCH  30  31
ENDBRANCH   1  30
TORSDOF 17
ENDMDL
MODEL 3
REMARK VINA RESULT:     -12.3      2.510      8.715
REMARK SMILES COc1ccc(-c2ccc3n(c2=O)C[C@H]2C[C@@H]3CN(C(=O)CCCC(=O)OCCOC(=O)c3ccc(-c4c5nc(c(-c6c(F)c(F)c(F)c(F)c6F)c6ccc([nH]6)c(-c6c(F)c(F)c(F)c(F)c6F)c6nc(c(-c7c(F)c(F)c(F)c(F)c7F)c7ccc4[nH]7)C=C6)C=C5)cc3)C2)cc1
REMARK SMILES IDX 25 1 26 2 24 3 23 4 22 5 20 6 21 7 19 8 7 9 8 10 12 11 9 12
REMARK SMILES IDX 11 13 13 14 10 15 14 16 17 17 15 18 16 19 18 20 96 21 6 22
REMARK SMILES IDX 3 23 4 24 98 25 5 26 97 27 2 28 1 29 27 30 28 31 29 32 30 33
REMARK SMILES IDX 31 34 32 35 33 36 34 37 95 38 35 39 94 40 36 41 37 42 38 43
REMARK SMILES IDX 88 44 39 45 93 46 87 47 89 48 40 49 92 50 86 51 85 52 41 54
REMARK SMILES IDX 73 55 53 56 72 57 54 58 57 59 71 60 90 61 55 62 56 63 70 65
REMARK SMILES IDX 91 66 58 67 42 68 43 69 51 70 44 71 45 72 49 73 52 74 46 75
REMARK SMILES IDX 47 76 50 77 48 78 74 79 75 80 83 81 76 82 77 83 81 84 84 85
REMARK SMILES IDX 78 86 79 87 82 88 80 89 59 90 60 91 68 92 61 93 62 94 66 95
REMARK SMILES IDX 69 96 63 97 64 98 67 99 65 100
REMARK H PARENT 89 53 57 64
REMARK Flexibility Score: inf
ROOT
ATOM      1  C   UNL A   1      39.537  21.483  26.057  1.00  0.00     0.305 C 
ATOM      2  O   UNL A   1      40.018  22.524  26.491  1.00  0.00    -0.252 OA
ENDROOT
BRANCH   1   3
ATOM      3  C   UNL A   1      38.186  21.437  25.373  1.00  0.00     0.123 C 
BRANCH   3   4
ATOM      4  C   UNL A   1      37.194  22.532  25.739  1.00  0.00     0.022 C 
BRANCH   4   5
ATOM      5  C   UNL A   1      35.997  22.670  24.803  1.00  0.00     0.101 C 
BRANCH   5   6
ATOM      6  C   UNL A   1      34.700  22.115  25.369  1.00  0.00     0.222 C 
ATOM      7  O   UNL A   1      34.737  21.500  26.438  1.00  0.00    -0.275 OA
BRANCH   6   8
ATOM      8  N   UNL A   1      33.508  22.354  24.698  1.00  0.00    -0.342 N 
ATOM      9  C   UNL A   1      33.125  27.501  25.501  1.00  0.00     0.047 A 
ATOM     10  C   UNL A   1      33.720  27.339  24.308  1.00  0.00     0.016 A 
ATOM     11  C   UNL A   1      32.249  26.391  26.024  1.00  0.00     0.258 A 
ATOM     12  C   UNL A   1      33.498  26.169  23.509  1.00  0.00     0.023 A 
ATOM     13  N   UNL A   1      32.074  25.277  25.179  1.00  0.00    -0.311 N 
ATOM     14  O   UNL A   1      31.710  26.485  27.127  1.00  0.00    -0.269 OA
ATOM     15  C   UNL A   1      32.692  25.184  23.933  1.00  0.00     0.026 A 
ATOM     16  C   UNL A   1      31.139  24.248  25.641  1.00  0.00     0.131 C 
ATOM     17  C   UNL A   1      32.473  23.953  23.074  1.00  0.00     0.056 C 
ATOM     18  C   UNL A   1      31.063  22.953  24.814  1.00  0.00     0.029 C 
ATOM     19  C   UNL A   1      31.105  23.325  23.340  1.00  0.00     0.019 C 
ATOM     20  C   UNL A   1      33.584  22.926  23.352  1.00  0.00     0.129 C 
ATOM     21  C   UNL A   1      32.175  21.928  25.115  1.00  0.00     0.125 C 
BRANCH   9  22
ATOM     22  C   UNL A   1      33.333  28.760  26.240  1.00  0.00    -0.013 A 
ATOM     23  C   UNL A   1      33.711  31.200  27.597  1.00  0.00     0.118 A 
ATOM     24  C   UNL A   1      34.670  30.189  27.676  1.00  0.00     0.047 A 
ATOM     25  C   UNL A   1      32.569  31.003  26.824  1.00  0.00     0.047 A 
ATOM     26  C   UNL A   1      34.479  28.971  27.012  1.00  0.00     0.013 A 
ATOM     27  C   UNL A   1      32.381  29.790  26.154  1.00  0.00     0.013 A 
BRANCH  23  28
ATOM     28  O   UNL A   1      34.006  32.349  28.278  1.00  0.00    -0.497 OA
ATOM     29  C   UNL A   1      35.300  32.889  28.028  1.00  0.00     0.278 C 
ENDBRANCH  23  28
ENDBRANCH   9  22
ENDBRANCH   6   8
ENDBRANCH   5   6
ENDBRANCH   4   5
ENDBRANCH   3   4
ENDBRANCH   1   3
BRANCH   1  30
ATOM     30  O   UNL A   1      40.141  20.273  26.156  1.00  0.00    -0.462 OA
BRANCH  30  31
ATOM     31  C   UNL A   1      41.486  20.286  26.671  1.00  0.00     0.274 C 
BRANCH  31  32
ATOM     32  C   UNL A   1      42.287  19.081  26.178  1.00  0.00     0.275 C 
BRANCH  32  33
ATOM     33  O   UNL A   1      42.832  19.308  24.867  1.00  0.00    -0.458 OA
BRANCH  33  34
ATOM     34  C   UNL A   1      44.176  19.428  24.821  1.00  0.00     0.338 C 
ATOM     35  O   UNL A   1      45.002  18.552  24.599  1.00  0.00    -0.246 OA
BRANCH  34  36
ATOM     36  C   UNL A   1      44.540  20.837  24.972  1.00  0.00     0.060 A 
ATOM     37  C   UNL A   1      45.215  21.243  26.128  1.00  0.00     0.016 A 
ATOM     38  C   UNL A   1      44.127  21.765  24.020  1.00  0.00     0.016 A 
ATOM     39  C   UNL A   1      45.467  22.584  26.358  1.00  0.00     0.010 A 
ATOM     40  C   UNL A   1      44.386  23.114  24.246  1.00  0.00     0.010 A 
ATOM     41  C   UNL A   1      45.039  23.524  25.423  1.00  0.00    -0.014 A 
BRANCH  41  42
ATOM     42  C   UNL A   1      45.180  24.960  25.713  1.00  0.00     0.031 A 
ATOM     43  C   UNL A   1      46.524  25.590  25.540  1.00  0.00     0.074 A 
ATOM     44  C   UNL A   1      44.120  25.663  26.140  1.00  0.00     0.049 A 
ATOM     45  N   UNL A   1      46.967  26.732  25.987  1.00  0.00    -0.248 NA
ATOM     46  C   UNL A   1      47.510  24.815  24.768  1.00  0.00     0.031 C 
ATOM     47  C   UNL A   1      42.751  25.158  26.232  1.00  0.00     0.029 A 
ATOM     48  N   UNL A   1      44.039  26.949  26.602  1.00  0.00    -0.354 N 
ATOM     49  C   UNL A   1      48.296  26.794  25.593  1.00  0.00     0.074 A 
ATOM     50  C   UNL A   1      48.587  25.580  24.863  1.00  0.00     0.031 C 
ATOM     51  C   UNL A   1      41.968  26.117  26.751  1.00  0.00     0.029 A 
ATOM     52  C   UNL A   1      42.798  27.268  27.091  1.00  0.00     0.049 A 
ATOM     53  H   UNL A   1      44.795  27.581  26.586  1.00  0.00     0.167 HD
ATOM     54  C   UNL A   1      49.185  27.780  25.843  1.00  0.00     0.037 A 
ATOM     55  C   UNL A   1      42.401  28.346  27.792  1.00  0.00     0.037 A 
ATOM     56  C   UNL A   1      48.849  28.984  26.557  1.00  0.00     0.049 A 
ATOM     57  C   UNL A   1      43.424  29.398  28.120  1.00  0.00     0.074 A 
ATOM     58  C   UNL A   1      49.661  30.052  26.887  1.00  0.00     0.029 A 
ATOM     59  N   UNL A   1      47.580  29.274  27.043  1.00  0.00    -0.354 N 
ATOM     60  N   UNL A   1      44.700  29.436  27.811  1.00  0.00    -0.248 NA
ATOM     61  C   UNL A   1      42.962  30.547  28.906  1.00  0.00     0.031 C 
ATOM     62  C   UNL A   1      48.891  30.974  27.604  1.00  0.00     0.029 A 
ATOM     63  C   UNL A   1      47.589  30.501  27.682  1.00  0.00     0.049 A 
ATOM     64  H   UNL A   1      46.792  28.693  26.946  1.00  0.00     0.167 HD
ATOM     65  C   UNL A   1      45.187  30.620  28.342  1.00  0.00     0.074 A 
ATOM     66  C   UNL A   1      44.068  31.275  28.991  1.00  0.00     0.031 C 
ATOM     67  C   UNL A   1      46.445  31.124  28.299  1.00  0.00     0.037 A 
BRANCH  54  68
ATOM     68  C   UNL A   1      50.600  27.569  25.398  1.00  0.00     0.064 A 
ATOM     69  C   UNL A   1      51.597  27.122  26.276  1.00  0.00     0.173 A 
ATOM     70  C   UNL A   1      50.962  27.816  24.064  1.00  0.00     0.173 A 
ATOM     71  F   UNL A   1      51.309  26.891  27.565  1.00  0.00    -0.203 F 
ATOM     72  C   UNL A   1      52.910  26.950  25.841  1.00  0.00     0.198 A 
ATOM     73  C   UNL A   1      52.268  27.619  23.627  1.00  0.00     0.198 A 
ATOM     74  F   UNL A   1      50.046  28.251  23.185  1.00  0.00    -0.203 F 
ATOM     75  F   UNL A   1      53.858  26.566  26.707  1.00  0.00    -0.200 F 
ATOM     76  C   UNL A   1      53.243  27.193  24.516  1.00  0.00     0.200 A 
ATOM     77  F   UNL A   1      52.586  27.849  22.345  1.00  0.00    -0.200 F 
ATOM     78  F   UNL A   1      54.505  27.026  24.099  1.00  0.00    -0.200 F 
ENDBRANCH  54  68
BRANCH  55  79
ATOM     79  C   UNL A   1      40.998  28.443  28.266  1.00  0.00     0.064 A 
ATOM     80  C   UNL A   1      40.637  27.995  29.543  1.00  0.00     0.173 A 
ATOM     81  C   UNL A   1      39.993  29.004  27.463  1.00  0.00     0.173 A 
ATOM     82  F   UNL A   1      41.557  27.430  30.339  1.00  0.00    -0.203 F 
ATOM     83  C   UNL A   1      39.324  28.098  29.996  1.00  0.00     0.198 A 
ATOM     84  C   UNL A   1      38.687  29.131  27.927  1.00  0.00     0.198 A 
ATOM     85  F   UNL A   1      40.286  29.447  26.231  1.00  0.00    -0.203 F 
ATOM     86  F   UNL A   1      38.997  27.630  31.209  1.00  0.00    -0.200 F 
ATOM     87  C   UNL A   1      38.351  28.673  29.192  1.00  0.00     0.200 A 
ATOM     88  F   UNL A   1      37.754  29.699  27.150  1.00  0.00    -0.200 F 
ATOM     89  F   UNL A   1      37.091  28.779  29.632  1.00  0.00    -0.200 F 
ENDBRANCH  55  79
BRANCH  67  90
ATOM     90  C   UNL A   1      46.663  32.466  28.927  1.00  0.00     0.064 A 
ATOM     91  C   UNL A   1      46.466  33.653  28.210  1.00  0.00     0.173 A 
ATOM     92  C   UNL A   1      47.005  32.558  30.285  1.00  0.00     0.173 A 
ATOM     93  F   UNL A   1      46.153  33.609  26.906  1.00  0.00    -0.203 F 
ATOM     94  C   UNL A   1      46.613  34.890  28.829  1.00  0.00     0.198 A 
ATOM     95  C   UNL A   1      47.127  33.796  30.905  1.00  0.00     0.198 A 
ATOM     96  F   UNL A   1      47.197  31.447  31.011  1.00  0.00    -0.203 F 
ATOM     97  F   UNL A   1      46.450  36.015  28.120  1.00  0.00    -0.200 F 
ATOM     98  C   UNL A   1      46.934  34.961  30.177  1.00  0.00     0.200 A 
ATOM     99  F   UNL A   1      47.425  33.863  32.210  1.00  0.00    -0.200 F 
ATOM    100  F   UNL A   1      47.061  36.153  30.775  1.00  0.00    -0.200 F 
ENDBRANCH  67  90
ENDBRANCH  41  42
ENDBRANCH  34  36
ENDBRANCH  33  34
ENDBRANCH  32  33
ENDBRANCH  31  32
ENDBRANCH  30  31
ENDBRANCH   1  30
TORSDOF 17
ENDMDL
