MODEL 1
REMARK VINA RESULT:     -10.5      0.000      0.000
REMARK SMILES C[C@@H]1CC(=O)N(CC(C)(C)C(=O)OCCOC(=O)c2ccc(-c3c4nc(c(-c5c(F)c(F)c(F)c(F)c5F)c5ccc([nH]5)c(-c5c(F)c(F)c(F)c(F)c5F)c5nc(c(-c6c(F)c(F)c(F)c(F)c6F)c6ccc3[nH]6)C=C5)C=C4)cc2)C1
REMARK SMILES IDX 14 1 13 2 11 3 12 4 8 5 9 6 10 7 7 8 6 9 1 10 2 11 3 12
REMARK SMILES IDX 82 13 4 14 5 15 15 16 16 17 17 18 18 19 19 20 20 21 81 22
REMARK SMILES IDX 21 23 80 24 22 25 23 26 24 27 74 28 25 29 79 30 73 31 75 32
REMARK SMILES IDX 26 33 78 34 72 35 71 36 27 38 59 39 39 40 58 41 40 42 43 43
REMARK SMILES IDX 57 44 76 45 41 46 42 47 56 49 77 50 44 51 28 52 29 53 37 54
REMARK SMILES IDX 30 55 31 56 35 57 38 58 32 59 33 60 36 61 34 62 60 63 61 64
REMARK SMILES IDX 69 65 62 66 63 67 67 68 70 69 64 70 65 71 68 72 66 73 45 74
REMARK SMILES IDX 46 75 54 76 47 77 48 78 52 79 55 80 49 81 50 82 53 83 51 84
REMARK H PARENT 75 37 43 48
REMARK Flexibility Score: inf
ROOT
ATOM      1  C   UNL A   1      38.029  20.018  24.886  1.00  0.00     0.274 C 
ENDROOT
BRANCH   1   2
ATOM      2  O   UNL A   1      38.124  21.456  24.895  1.00  0.00    -0.462 OA
BRANCH   2   3
ATOM      3  C   UNL A   1      37.068  22.132  24.370  1.00  0.00     0.313 C 
ATOM      4  O   UNL A   1      36.832  22.188  23.167  1.00  0.00    -0.252 OA
BRANCH   3   5
ATOM      5  C   UNL A   1      36.293  22.945  25.420  1.00  0.00     0.080 C 
ATOM      6  C   UNL A   1      35.292  23.806  24.631  1.00  0.00     0.025 C 
ATOM      7  C   UNL A   1      37.200  23.909  26.213  1.00  0.00     0.025 C 
BRANCH   5   8
ATOM      8  C   UNL A   1      35.561  22.036  26.450  1.00  0.00     0.137 C 
BRANCH   8   9
ATOM      9  N   UNL A   1      34.168  21.728  26.174  1.00  0.00    -0.341 N 
ATOM     10  C   UNL A   1      30.584  22.549  26.052  1.00  0.00     0.010 C 
ATOM     11  C   UNL A   1      32.009  22.301  25.607  1.00  0.00     0.015 C 
ATOM     12  C   UNL A   1      32.259  20.873  25.122  1.00  0.00     0.105 C 
ATOM     13  C   UNL A   1      33.050  22.467  26.705  1.00  0.00     0.123 C 
ATOM     14  C   UNL A   1      33.753  20.755  25.271  1.00  0.00     0.222 C 
ATOM     15  O   UNL A   1      34.454  19.937  24.702  1.00  0.00    -0.275 OA
ENDBRANCH   8   9
ENDBRANCH   5   8
ENDBRANCH   3   5
ENDBRANCH   2   3
ENDBRANCH   1   2
BRANCH   1  16
ATOM     16  C   UNL A   1      39.157  19.395  25.708  1.00  0.00     0.275 C 
BRANCH  16  17
ATOM     17  O   UNL A   1      40.254  20.313  25.850  1.00  0.00    -0.458 OA
BRANCH  17  18
ATOM     18  C   UNL A   1      40.749  20.417  27.108  1.00  0.00     0.338 C 
ATOM     19  O   UNL A   1      40.968  19.504  27.889  1.00  0.00    -0.246 OA
BRANCH  18  20
ATOM     20  C   UNL A   1      41.144  21.812  27.383  1.00  0.00     0.060 A 
ATOM     21  C   UNL A   1      40.744  22.784  26.462  1.00  0.00     0.016 A 
ATOM     22  C   UNL A   1      41.886  22.174  28.510  1.00  0.00     0.016 A 
ATOM     23  C   UNL A   1      41.013  24.129  26.700  1.00  0.00     0.010 A 
ATOM     24  C   UNL A   1      42.204  23.520  28.722  1.00  0.00     0.010 A 
ATOM     25  C   UNL A   1      41.754  24.505  27.825  1.00  0.00    -0.014 A 
BRANCH  25  26
ATOM     26  C   UNL A   1      42.154  25.922  27.981  1.00  0.00     0.031 A 
ATOM     27  C   UNL A   1      43.467  26.362  27.410  1.00  0.00     0.074 A 
ATOM     28  C   UNL A   1      41.342  26.813  28.576  1.00  0.00     0.049 A 
ATOM     29  N   UNL A   1      44.030  27.542  27.430  1.00  0.00    -0.248 NA
ATOM     30  C   UNL A   1      44.249  25.331  26.709  1.00  0.00     0.031 C 
ATOM     31  C   UNL A   1      40.012  26.521  29.105  1.00  0.00     0.029 A 
ATOM     32  N   UNL A   1      41.520  28.150  28.834  1.00  0.00    -0.354 N 
ATOM     33  C   UNL A   1      45.225  27.399  26.741  1.00  0.00     0.074 A 
ATOM     34  C   UNL A   1      45.313  26.017  26.322  1.00  0.00     0.031 C 
ATOM     35  C   UNL A   1      39.496  27.644  29.635  1.00  0.00     0.029 A 
ATOM     36  C   UNL A   1      40.475  28.723  29.515  1.00  0.00     0.049 A 
ATOM     37  H   UNL A   1      42.321  28.650  28.555  1.00  0.00     0.167 HD
ATOM     38  C   UNL A   1      46.170  28.334  26.491  1.00  0.00     0.037 A 
ATOM     39  C   UNL A   1      40.344  29.971  30.009  1.00  0.00     0.037 A 
ATOM     40  C   UNL A   1      46.104  29.695  26.950  1.00  0.00     0.049 A 
ATOM     41  C   UNL A   1      41.465  30.962  29.814  1.00  0.00     0.074 A 
ATOM     42  C   UNL A   1      47.030  30.708  26.778  1.00  0.00     0.029 A 
ATOM     43  N   UNL A   1      45.060  30.226  27.691  1.00  0.00    -0.354 N 
ATOM     44  N   UNL A   1      42.591  30.826  29.157  1.00  0.00    -0.248 NA
ATOM     45  C   UNL A   1      41.298  32.284  30.440  1.00  0.00     0.031 C 
ATOM     46  C   UNL A   1      46.570  31.839  27.461  1.00  0.00     0.029 A 
ATOM     47  C   UNL A   1      45.331  31.548  28.009  1.00  0.00     0.049 A 
ATOM     48  H   UNL A   1      44.246  29.738  27.952  1.00  0.00     0.167 HD
ATOM     49  C   UNL A   1      43.251  32.043  29.266  1.00  0.00     0.074 A 
ATOM     50  C   UNL A   1      42.393  32.915  30.040  1.00  0.00     0.031 C 
ATOM     51  C   UNL A   1      44.460  32.406  28.771  1.00  0.00     0.037 A 
BRANCH  38  52
ATOM     52  C   UNL A   1      47.383  27.885  25.736  1.00  0.00     0.064 A 
ATOM     53  C   UNL A   1      47.384  27.783  24.338  1.00  0.00     0.173 A 
ATOM     54  C   UNL A   1      48.557  27.546  26.424  1.00  0.00     0.173 A 
ATOM     55  F   UNL A   1      46.277  28.075  23.637  1.00  0.00    -0.203 F 
ATOM     56  C   UNL A   1      48.510  27.330  23.656  1.00  0.00     0.198 A 
ATOM     57  C   UNL A   1      49.689  27.119  25.737  1.00  0.00     0.198 A 
ATOM     58  F   UNL A   1      48.603  27.625  27.762  1.00  0.00    -0.203 F 
ATOM     59  F   UNL A   1      48.475  27.190  22.323  1.00  0.00    -0.200 F 
ATOM     60  C   UNL A   1      49.663  27.003  24.356  1.00  0.00     0.200 A 
ATOM     61  F   UNL A   1      50.804  26.809  26.415  1.00  0.00    -0.200 F 
ATOM     62  F   UNL A   1      50.746  26.565  23.699  1.00  0.00    -0.200 F 
ENDBRANCH  38  52
BRANCH  39  63
ATOM     63  C   UNL A   1      39.126  30.354  30.774  1.00  0.00     0.064 A 
ATOM     64  C   UNL A   1      38.033  30.960  30.138  1.00  0.00     0.173 A 
ATOM     65  C   UNL A   1      39.052  30.172  32.163  1.00  0.00     0.173 A 
ATOM     66  F   UNL A   1      38.066  31.186  28.816  1.00  0.00    -0.203 F 
ATOM     67  C   UNL A   1      36.924  31.392  30.866  1.00  0.00     0.198 A 
ATOM     68  C   UNL A   1      37.931  30.576  32.884  1.00  0.00     0.198 A 
ATOM     69  F   UNL A   1      40.074  29.608  32.822  1.00  0.00    -0.203 F 
ATOM     70  F   UNL A   1      35.920  32.021  30.243  1.00  0.00    -0.200 F 
ATOM     71  C   UNL A   1      36.873  31.194  32.238  1.00  0.00     0.200 A 
ATOM     72  F   UNL A   1      37.883  30.378  34.209  1.00  0.00    -0.200 F 
ATOM     73  F   UNL A   1      35.810  31.615  32.938  1.00  0.00    -0.200 F 
ENDBRANCH  39  63
BRANCH  51  74
ATOM     74  C   UNL A   1      44.915  33.817  29.014  1.00  0.00     0.064 A 
ATOM     75  C   UNL A   1      44.570  34.864  28.149  1.00  0.00     0.173 A 
ATOM     76  C   UNL A   1      45.663  34.131  30.161  1.00  0.00     0.173 A 
ATOM     77  F   UNL A   1      43.869  34.614  27.032  1.00  0.00    -0.203 F 
ATOM     78  C   UNL A   1      44.973  36.171  28.410  1.00  0.00     0.198 A 
ATOM     79  C   UNL A   1      46.038  35.444  30.434  1.00  0.00     0.198 A 
ATOM     80  F   UNL A   1      46.013  33.167  31.024  1.00  0.00    -0.203 F 
ATOM     81  F   UNL A   1      44.669  37.151  27.547  1.00  0.00    -0.200 F 
ATOM     82  C   UNL A   1      45.699  36.461  29.556  1.00  0.00     0.200 A 
ATOM     83  F   UNL A   1      46.725  35.723  31.551  1.00  0.00    -0.200 F 
ATOM     84  F   UNL A   1      46.076  37.721  29.813  1.00  0.00    -0.200 F 
ENDBRANCH  51  74
ENDBRANCH  25  26
ENDBRANCH  18  20
ENDBRANCH  17  18
ENDBRANCH  16  17
ENDBRANCH   1  16
TORSDOF 13
ENDMDL
MODEL 2
REMARK VINA RESULT:     -10.5      1.818      7.879
REMARK SMILES C[C@@H]1CC(=O)N(CC(C)(C)C(=O)OCCOC(=O)c2ccc(-c3c4nc(c(-c5c(F)c(F)c(F)c(F)c5F)c5ccc([nH]5)c(-c5c(F)c(F)c(F)c(F)c5F)c5nc(c(-c6c(F)c(F)c(F)c(F)c6F)c6ccc3[nH]6)C=C5)C=C4)cc2)C1
REMARK SMILES IDX 14 1 13 2 11 3 12 4 8 5 9 6 10 7 7 8 6 9 1 10 2 11 3 12
REMARK SMILES IDX 82 13 4 14 5 15 15 16 16 17 17 18 18 19 19 20 20 21 81 22
REMARK SMILES IDX 21 23 80 24 22 25 23 26 24 27 74 28 25 29 79 30 73 31 75 32
REMARK SMILES IDX 26 33 78 34 72 35 71 36 27 38 59 39 39 40 58 41 40 42 43 43
REMARK SMILES IDX 57 44 76 45 41 46 42 47 56 49 77 50 44 51 28 52 29 53 37 54
REMARK SMILES IDX 30 55 31 56 35 57 38 58 32 59 33 60 36 61 34 62 60 63 61 64
REMARK SMILES IDX 69 65 62 66 63 67 67 68 70 69 64 70 65 71 68 72 66 73 45 74
REMARK SMILES IDX 46 75 54 76 47 77 48 78 52 79 55 80 49 81 50 82 53 83 51 84
REMARK H PARENT 75 37 43 48
REMARK Flexibility Score: inf
ROOT
ATOM      1  C   UNL A   1      38.324  19.791  25.022  1.00  0.00     0.274 C 
ENDROOT
BRANCH   1   2
ATOM      2  O   UNL A   1      37.845  21.149  24.964  1.00  0.00    -0.462 OA
BRANCH   2   3
ATOM      3  C   UNL A   1      36.495  21.309  24.939  1.00  0.00     0.313 C 
ATOM      4  O   UNL A   1      35.702  20.394  25.133  1.00  0.00    -0.252 OA
BRANCH   3   5
ATOM      5  C   UNL A   1      36.065  22.716  24.489  1.00  0.00     0.080 C 
ATOM      6  C   UNL A   1      36.676  22.915  23.092  1.00  0.00     0.025 C 
ATOM      7  C   UNL A   1      36.629  23.828  25.399  1.00  0.00     0.025 C 
BRANCH   5   8
ATOM      8  C   UNL A   1      34.517  22.879  24.454  1.00  0.00     0.137 C 
BRANCH   8   9
ATOM      9  N   UNL A   1      34.001  24.233  24.561  1.00  0.00    -0.341 N 
ATOM     10  C   UNL A   1      33.260  27.329  26.405  1.00  0.00     0.010 C 
ATOM     11  C   UNL A   1      33.946  26.345  25.483  1.00  0.00     0.015 C 
ATOM     12  C   UNL A   1      33.495  26.455  24.025  1.00  0.00     0.105 C 
ATOM     13  C   UNL A   1      33.672  24.882  25.805  1.00  0.00     0.123 C 
ATOM     14  C   UNL A   1      33.875  25.103  23.484  1.00  0.00     0.222 C 
ATOM     15  O   UNL A   1      34.026  24.834  22.304  1.00  0.00    -0.275 OA
ENDBRANCH   8   9
ENDBRANCH   5   8
ENDBRANCH   3   5
ENDBRANCH   2   3
ENDBRANCH   1   2
BRANCH   1  16
ATOM     16  C   UNL A   1      39.507  19.675  25.984  1.00  0.00     0.275 C 
BRANCH  16  17
ATOM     17  O   UNL A   1      40.704  19.301  25.279  1.00  0.00    -0.458 OA
BRANCH  17  18
ATOM     18  C   UNL A   1      41.818  19.232  26.050  1.00  0.00     0.338 C 
ATOM     19  O   UNL A   1      42.468  18.234  26.316  1.00  0.00    -0.246 OA
BRANCH  18  20
ATOM     20  C   UNL A   1      42.254  20.591  26.430  1.00  0.00     0.060 A 
ATOM     21  C   UNL A   1      42.532  21.486  25.394  1.00  0.00     0.016 A 
ATOM     22  C   UNL A   1      42.388  20.992  27.761  1.00  0.00     0.016 A 
ATOM     23  C   UNL A   1      42.870  22.807  25.679  1.00  0.00     0.010 A 
ATOM     24  C   UNL A   1      42.780  22.304  28.049  1.00  0.00     0.010 A 
ATOM     25  C   UNL A   1      43.007  23.221  27.008  1.00  0.00    -0.014 A 
BRANCH  25  26
ATOM     26  C   UNL A   1      43.510  24.586  27.287  1.00  0.00     0.031 A 
ATOM     27  C   UNL A   1      42.559  25.598  27.846  1.00  0.00     0.074 A 
ATOM     28  C   UNL A   1      44.801  24.904  27.092  1.00  0.00     0.049 A 
ATOM     29  N   UNL A   1      42.766  26.851  28.160  1.00  0.00    -0.248 NA
ATOM     30  C   UNL A   1      41.186  25.131  28.098  1.00  0.00     0.031 C 
ATOM     31  C   UNL A   1      45.836  23.987  26.622  1.00  0.00     0.029 A 
ATOM     32  N   UNL A   1      45.463  26.095  27.268  1.00  0.00    -0.354 N 
ATOM     33  C   UNL A   1      41.557  27.318  28.651  1.00  0.00     0.074 A 
ATOM     34  C   UNL A   1      40.617  26.221  28.588  1.00  0.00     0.031 C 
ATOM     35  C   UNL A   1      47.002  24.650  26.536  1.00  0.00     0.029 A 
ATOM     36  C   UNL A   1      46.788  26.047  26.910  1.00  0.00     0.049 A 
ATOM     37  H   UNL A   1      45.028  26.906  27.619  1.00  0.00     0.167 HD
ATOM     38  C   UNL A   1      41.255  28.557  29.104  1.00  0.00     0.037 A 
ATOM     39  C   UNL A   1      47.708  27.030  26.864  1.00  0.00     0.037 A 
ATOM     40  C   UNL A   1      42.176  29.660  29.121  1.00  0.00     0.049 A 
ATOM     41  C   UNL A   1      47.313  28.430  27.267  1.00  0.00     0.074 A 
ATOM     42  C   UNL A   1      41.953  30.964  29.528  1.00  0.00     0.029 A 
ATOM     43  N   UNL A   1      43.494  29.593  28.693  1.00  0.00    -0.354 N 
ATOM     44  N   UNL A   1      46.171  28.868  27.737  1.00  0.00    -0.248 NA
ATOM     45  C   UNL A   1      48.338  29.476  27.124  1.00  0.00     0.031 C 
ATOM     46  C   UNL A   1      43.121  31.698  29.296  1.00  0.00     0.029 A 
ATOM     47  C   UNL A   1      44.089  30.840  28.800  1.00  0.00     0.049 A 
ATOM     48  H   UNL A   1      43.940  28.780  28.364  1.00  0.00     0.167 HD
ATOM     49  C   UNL A   1      46.345  30.226  27.970  1.00  0.00     0.074 A 
ATOM     50  C   UNL A   1      47.710  30.540  27.605  1.00  0.00     0.031 C 
ATOM     51  C   UNL A   1      45.454  31.133  28.443  1.00  0.00     0.037 A 
BRANCH  38  52
ATOM     52  C   UNL A   1      39.846  28.788  29.556  1.00  0.00     0.064 A 
ATOM     53  C   UNL A   1      39.452  28.559  30.882  1.00  0.00     0.173 A 
ATOM     54  C   UNL A   1      38.877  29.236  28.647  1.00  0.00     0.173 A 
ATOM     55  F   UNL A   1      40.338  28.108  31.784  1.00  0.00    -0.203 F 
ATOM     56  C   UNL A   1      38.129  28.745  31.276  1.00  0.00     0.198 A 
ATOM     57  C   UNL A   1      37.562  29.445  29.050  1.00  0.00     0.198 A 
ATOM     58  F   UNL A   1      39.206  29.465  27.367  1.00  0.00    -0.203 F 
ATOM     59  F   UNL A   1      37.760  28.472  32.535  1.00  0.00    -0.200 F 
ATOM     60  C   UNL A   1      37.187  29.192  30.360  1.00  0.00     0.200 A 
ATOM     61  F   UNL A   1      36.654  29.884  28.166  1.00  0.00    -0.200 F 
ATOM     62  F   UNL A   1      35.913  29.369  30.740  1.00  0.00    -0.200 F 
ENDBRANCH  38  52
BRANCH  39  63
ATOM     63  C   UNL A   1      49.088  26.749  26.382  1.00  0.00     0.064 A 
ATOM     64  C   UNL A   1      49.442  26.950  25.040  1.00  0.00     0.173 A 
ATOM     65  C   UNL A   1      50.065  26.222  27.240  1.00  0.00     0.173 A 
ATOM     66  F   UNL A   1      48.536  27.421  24.171  1.00  0.00    -0.203 F 
ATOM     67  C   UNL A   1      50.711  26.611  24.571  1.00  0.00     0.198 A 
ATOM     68  C   UNL A   1      51.341  25.914  26.777  1.00  0.00     0.198 A 
ATOM     69  F   UNL A   1      49.776  25.999  28.531  1.00  0.00    -0.203 F 
ATOM     70  F   UNL A   1      51.004  26.758  23.272  1.00  0.00    -0.200 F 
ATOM     71  C   UNL A   1      51.661  26.099  25.441  1.00  0.00     0.200 A 
ATOM     72  F   UNL A   1      52.258  25.424  27.623  1.00  0.00    -0.200 F 
ATOM     73  F   UNL A   1      52.879  25.767  24.989  1.00  0.00    -0.200 F 
ENDBRANCH  39  63
BRANCH  51  74
ATOM     74  C   UNL A   1      45.933  32.544  28.631  1.00  0.00     0.064 A 
ATOM     75  C   UNL A   1      45.796  33.512  27.626  1.00  0.00     0.173 A 
ATOM     76  C   UNL A   1      46.488  32.945  29.857  1.00  0.00     0.173 A 
ATOM     77  F   UNL A   1      45.285  33.176  26.431  1.00  0.00    -0.203 F 
ATOM     78  C   UNL A   1      46.215  34.823  27.833  1.00  0.00     0.198 A 
ATOM     79  C   UNL A   1      46.878  34.264  30.071  1.00  0.00     0.198 A 
ATOM     80  F   UNL A   1      46.635  32.060  30.854  1.00  0.00    -0.203 F 
ATOM     81  F   UNL A   1      46.114  35.722  26.843  1.00  0.00    -0.200 F 
ATOM     82  C   UNL A   1      46.747  35.201  29.057  1.00  0.00     0.200 A 
ATOM     83  F   UNL A   1      47.376  34.629  31.260  1.00  0.00    -0.200 F 
ATOM     84  F   UNL A   1      47.139  36.466  29.259  1.00  0.00    -0.200 F 
ENDBRANCH  51  74
ENDBRANCH  25  26
ENDBRANCH  18  20
ENDBRANCH  17  18
ENDBRANCH  16  17
ENDBRANCH   1  16
TORSDOF 13
ENDMDL
MODEL 3
REMARK VINA RESULT:     -10.5      5.985      9.344
REMARK SMILES C[C@@H]1CC(=O)N(CC(C)(C)C(=O)OCCOC(=O)c2ccc(-c3c4nc(c(-c5c(F)c(F)c(F)c(F)c5F)c5ccc([nH]5)c(-c5c(F)c(F)c(F)c(F)c5F)c5nc(c(-c6c(F)c(F)c(F)c(F)c6F)c6ccc3[nH]6)C=C5)C=C4)cc2)C1
REMARK SMILES IDX 14 1 13 2 11 3 12 4 8 5 9 6 10 7 7 8 6 9 1 10 2 11 3 12
REMARK SMILES IDX 82 13 4 14 5 15 15 16 16 17 17 18 18 19 19 20 20 21 81 22
REMARK SMILES IDX 21 23 80 24 22 25 23 26 24 27 74 28 25 29 79 30 73 31 75 32
REMARK SMILES IDX 26 33 78 34 72 35 71 36 27 38 59 39 39 40 58 41 40 42 43 43
REMARK SMILES IDX 57 44 76 45 41 46 42 47 56 49 77 50 44 51 28 52 29 53 37 54
REMARK SMILES IDX 30 55 31 56 35 57 38 58 32 59 33 60 36 61 34 62 60 63 61 64
REMARK SMILES IDX 69 65 62 66 63 67 67 68 70 69 64 70 65 71 68 72 66 73 45 74
REMARK SMILES IDX 46 75 54 76 47 77 48 78 52 79 55 80 49 81 50 82 53 83 51 84
REMARK H PARENT 75 37 43 48
REMARK Flexibility Score: inf
ROOT
ATOM      1  C   UNL A   1      31.860  31.704  27.026  1.00  0.00     0.274 C 
ENDROOT
BRANCH   1   2
ATOM      2  O   UNL A   1      32.514  30.637  26.312  1.00  0.00    -0.462 OA
BRANCH   2   3
ATOM      3  C   UNL A   1      32.055  29.380  26.554  1.00  0.00     0.313 C 
ATOM      4  O   UNL A   1      31.649  29.010  27.651  1.00  0.00    -0.252 OA
BRANCH   3   5
ATOM      5  C   UNL A   1      32.242  28.431  25.359  1.00  0.00     0.080 C 
ATOM      6  C   UNL A   1      31.213  27.304  25.552  1.00  0.00     0.025 C 
ATOM      7  C   UNL A   1      33.639  27.776  25.333  1.00  0.00     0.025 C 
BRANCH   5   8
ATOM      8  C   UNL A   1      32.036  29.151  23.994  1.00  0.00     0.137 C 
BRANCH   8   9
ATOM      9  N   UNL A   1      30.663  29.410  23.594  1.00  0.00    -0.341 N 
ATOM     10  C   UNL A   1      27.677  31.537  23.285  1.00  0.00     0.010 C 
ATOM     11  C   UNL A   1      28.942  30.790  22.924  1.00  0.00     0.015 C 
ATOM     12  C   UNL A   1      28.686  29.400  22.339  1.00  0.00     0.105 C 
ATOM     13  C   UNL A   1      29.856  30.490  24.104  1.00  0.00     0.123 C 
ATOM     14  C   UNL A   1      30.005  28.716  22.585  1.00  0.00     0.222 C 
ATOM     15  O   UNL A   1      30.402  27.722  22.000  1.00  0.00    -0.275 OA
ENDBRANCH   8   9
ENDBRANCH   5   8
ENDBRANCH   3   5
ENDBRANCH   2   3
ENDBRANCH   1   2
BRANCH   1  16
ATOM     16  C   UNL A   1      32.888  32.647  27.651  1.00  0.00     0.275 C 
BRANCH  16  17
ATOM     17  O   UNL A   1      32.456  34.015  27.547  1.00  0.00    -0.458 OA
BRANCH  17  18
ATOM     18  C   UNL A   1      32.915  34.831  28.529  1.00  0.00     0.338 C 
ATOM     19  O   UNL A   1      32.375  35.837  28.961  1.00  0.00    -0.246 OA
BRANCH  18  20
ATOM     20  C   UNL A   1      34.128  34.252  29.141  1.00  0.00     0.060 A 
ATOM     21  C   UNL A   1      33.954  33.454  30.275  1.00  0.00     0.016 A 
ATOM     22  C   UNL A   1      35.407  34.475  28.626  1.00  0.00     0.016 A 
ATOM     23  C   UNL A   1      35.045  32.812  30.854  1.00  0.00     0.010 A 
ATOM     24  C   UNL A   1      36.511  33.873  29.241  1.00  0.00     0.010 A 
ATOM     25  C   UNL A   1      36.332  33.026  30.348  1.00  0.00    -0.014 A 
BRANCH  25  26
ATOM     26  C   UNL A   1      37.492  32.452  31.068  1.00  0.00     0.031 A 
ATOM     27  C   UNL A   1      38.266  31.350  30.414  1.00  0.00     0.074 A 
ATOM     28  C   UNL A   1      37.878  32.936  32.262  1.00  0.00     0.049 A 
ATOM     29  N   UNL A   1      39.308  30.691  30.852  1.00  0.00    -0.248 NA
ATOM     30  C   UNL A   1      37.813  30.943  29.074  1.00  0.00     0.031 C 
ATOM     31  C   UNL A   1      37.249  34.051  32.964  1.00  0.00     0.029 A 
ATOM     32  N   UNL A   1      38.899  32.547  33.094  1.00  0.00    -0.354 N 
ATOM     33  C   UNL A   1      39.637  29.799  29.843  1.00  0.00     0.074 A 
ATOM     34  C   UNL A   1      38.683  29.993  28.773  1.00  0.00     0.031 C 
ATOM     35  C   UNL A   1      37.891  34.252  34.128  1.00  0.00     0.029 A 
ATOM     36  C   UNL A   1      38.951  33.256  34.269  1.00  0.00     0.049 A 
ATOM     37  H   UNL A   1      39.533  31.828  32.869  1.00  0.00     0.167 HD
ATOM     38  C   UNL A   1      40.639  28.890  29.817  1.00  0.00     0.037 A 
ATOM     39  C   UNL A   1      39.748  33.092  35.343  1.00  0.00     0.037 A 
ATOM     40  C   UNL A   1      41.556  28.664  30.900  1.00  0.00     0.049 A 
ATOM     41  C   UNL A   1      40.785  31.995  35.333  1.00  0.00     0.074 A 
ATOM     42  C   UNL A   1      42.583  27.741  30.982  1.00  0.00     0.029 A 
ATOM     43  N   UNL A   1      41.542  29.358  32.101  1.00  0.00    -0.354 N 
ATOM     44  N   UNL A   1      41.098  31.157  34.375  1.00  0.00    -0.248 NA
ATOM     45  C   UNL A   1      41.574  31.816  36.562  1.00  0.00     0.031 C 
ATOM     46  C   UNL A   1      43.157  27.840  32.254  1.00  0.00     0.029 A 
ATOM     47  C   UNL A   1      42.526  28.864  32.943  1.00  0.00     0.049 A 
ATOM     48  H   UNL A   1      40.926  30.092  32.322  1.00  0.00     0.167 HD
ATOM     49  C   UNL A   1      42.132  30.373  34.872  1.00  0.00     0.074 A 
ATOM     50  C   UNL A   1      42.406  30.845  36.212  1.00  0.00     0.031 C 
ATOM     51  C   UNL A   1      42.794  29.353  34.272  1.00  0.00     0.037 A 
BRANCH  38  52
ATOM     52  C   UNL A   1      40.744  28.033  28.593  1.00  0.00     0.064 A 
ATOM     53  C   UNL A   1      41.516  28.419  27.488  1.00  0.00     0.173 A 
ATOM     54  C   UNL A   1      40.055  26.813  28.524  1.00  0.00     0.173 A 
ATOM     55  F   UNL A   1      42.175  29.588  27.498  1.00  0.00    -0.203 F 
ATOM     56  C   UNL A   1      41.573  27.625  26.345  1.00  0.00     0.198 A 
ATOM     57  C   UNL A   1      40.136  26.011  27.390  1.00  0.00     0.198 A 
ATOM     58  F   UNL A   1      39.301  26.403  29.555  1.00  0.00    -0.203 F 
ATOM     59  F   UNL A   1      42.275  28.036  25.279  1.00  0.00    -0.200 F 
ATOM     60  C   UNL A   1      40.887  26.421  26.300  1.00  0.00     0.200 A 
ATOM     61  F   UNL A   1      39.477  24.844  27.350  1.00  0.00    -0.200 F 
ATOM     62  F   UNL A   1      40.940  25.659  25.198  1.00  0.00    -0.200 F 
ENDBRANCH  38  52
BRANCH  39  63
ATOM     63  C   UNL A   1      39.583  33.957  36.543  1.00  0.00     0.064 A 
ATOM     64  C   UNL A   1      40.260  35.180  36.653  1.00  0.00     0.173 A 
ATOM     65  C   UNL A   1      38.787  33.554  37.626  1.00  0.00     0.173 A 
ATOM     66  F   UNL A   1      41.058  35.597  35.659  1.00  0.00    -0.203 F 
ATOM     67  C   UNL A   1      40.167  35.953  37.810  1.00  0.00     0.198 A 
ATOM     68  C   UNL A   1      38.671  34.342  38.768  1.00  0.00     0.198 A 
ATOM     69  F   UNL A   1      38.127  32.388  37.578  1.00  0.00    -0.203 F 
ATOM     70  F   UNL A   1      40.871  37.088  37.913  1.00  0.00    -0.200 F 
ATOM     71  C   UNL A   1      39.369  35.536  38.864  1.00  0.00     0.200 A 
ATOM     72  F   UNL A   1      37.894  33.938  39.782  1.00  0.00    -0.200 F 
ATOM     73  F   UNL A   1      39.285  36.276  39.979  1.00  0.00    -0.200 F 
ENDBRANCH  39  63
BRANCH  51  74
ATOM     74  C   UNL A   1      43.907  28.700  35.040  1.00  0.00     0.064 A 
ATOM     75  C   UNL A   1      43.686  27.576  35.849  1.00  0.00     0.173 A 
ATOM     76  C   UNL A   1      45.223  29.175  34.921  1.00  0.00     0.173 A 
ATOM     77  F   UNL A   1      42.445  27.092  36.008  1.00  0.00    -0.203 F 
ATOM     78  C   UNL A   1      44.738  26.964  36.527  1.00  0.00     0.198 A 
ATOM     79  C   UNL A   1      46.276  28.543  35.576  1.00  0.00     0.198 A 
ATOM     80  F   UNL A   1      45.489  30.242  34.154  1.00  0.00    -0.203 F 
ATOM     81  F   UNL A   1      44.498  25.917  37.329  1.00  0.00    -0.200 F 
ATOM     82  C   UNL A   1      46.032  27.442  36.383  1.00  0.00     0.200 A 
ATOM     83  F   UNL A   1      47.527  28.996  35.422  1.00  0.00    -0.200 F 
ATOM     84  F   UNL A   1      47.045  26.845  37.026  1.00  0.00    -0.200 F 
ENDBRANCH  51  74
ENDBRANCH  25  26
ENDBRANCH  18  20
ENDBRANCH  17  18
ENDBRANCH  16  17
ENDBRANCH   1  16
TORSDOF 13
ENDMDL
