MODEL 1
REMARK VINA RESULT:     -11.2      0.000      0.000
REMARK SMILES CC[N@@H+]1CCO[C@@H](c2ncc(C(=O)OCCOC(=O)c3ccc(-c4c5nc(c(-c6c(F)c(F)c(F)c(F)c6F)c6ccc([nH]6)c(-c6c(F)c(F)c(F)c(F)c6F)c6nc(c(-c7c(F)c(F)c(F)c(F)c7F)c7ccc4[nH]7)C=C6)C=C5)cc3)s2)C1
REMARK SMILES IDX 15 1 14 2 12 3 13 4 11 5 8 6 9 7 83 8 10 9 7 10 3 11 4 12
REMARK SMILES IDX 84 13 5 15 6 16 2 17 1 18 16 19 17 20 18 21 19 22 20 23
REMARK SMILES IDX 21 24 82 25 22 26 81 27 23 28 24 29 25 30 75 31 26 32 80 33
REMARK SMILES IDX 74 34 76 35 27 36 79 37 73 38 72 39 28 41 60 42 40 43 59 44
REMARK SMILES IDX 41 45 44 46 58 47 77 48 42 49 43 50 57 52 78 53 45 54 29 55
REMARK SMILES IDX 30 56 38 57 31 58 32 59 36 60 39 61 33 62 34 63 37 64 35 65
REMARK SMILES IDX 61 66 62 67 70 68 63 69 64 70 68 71 71 72 65 73 66 74 69 75
REMARK SMILES IDX 67 76 46 77 47 78 55 79 48 80 49 81 53 82 56 83 50 84 51 85
REMARK SMILES IDX 54 86 52 87
REMARK H PARENT 3 14 76 40 44 51
REMARK Flexibility Score: inf
ROOT
ATOM      1  C   UNL A   1      42.599  20.716  26.051  1.00  0.00     0.275 C 
ENDROOT
BRANCH   1   2
ATOM      2  O   UNL A   1      41.270  21.160  25.719  1.00  0.00    -0.458 OA
BRANCH   2   3
ATOM      3  C   UNL A   1      40.430  21.408  26.770  1.00  0.00     0.350 C 
ATOM      4  O   UNL A   1      40.678  21.117  27.930  1.00  0.00    -0.245 OA
BRANCH   3   5
ATOM      5  C   UNL A   1      39.276  22.145  26.309  1.00  0.00     0.132 A 
ATOM      6  C   UNL A   1      37.011  22.714  25.657  1.00  0.00     0.128 A 
ATOM      7  N   UNL A   1      37.625  23.787  26.120  1.00  0.00    -0.246 NA
ATOM      8  S   UNL A   1      38.038  21.354  25.413  1.00  0.00    -0.109 S 
ATOM      9  C   UNL A   1      38.912  23.459  26.506  1.00  0.00     0.139 A 
BRANCH   6  10
ATOM     10  C   UNL A   1      35.530  22.668  25.368  1.00  0.00     0.232 C 
ATOM     11  N   UNL A   1      33.461  21.227  25.526  1.00  0.00    -0.331 N 
ATOM     12  C   UNL A   1      32.783  22.411  26.074  1.00  0.00     0.291 C 
ATOM     13  C   UNL A   1      34.916  21.317  25.765  1.00  0.00     0.302 C 
ATOM     14  H   UNL A   1      33.099  20.430  26.049  1.00  0.00     0.348 HD
ATOM     15  C   UNL A   1      33.468  23.760  25.765  1.00  0.00     0.222 C 
ATOM     16  O   UNL A   1      34.871  23.748  26.065  1.00  0.00    -0.359 OA
BRANCH  11  17
ATOM     17  C   UNL A   1      33.093  20.836  24.162  1.00  0.00     0.258 C 
ATOM     18  C   UNL A   1      32.532  19.440  23.911  1.00  0.00     0.071 C 
ENDBRANCH  11  17
ENDBRANCH   6  10
ENDBRANCH   3   5
ENDBRANCH   2   3
ENDBRANCH   1   2
BRANCH   1  19
ATOM     19  C   UNL A   1      43.652  21.752  25.638  1.00  0.00     0.275 C 
BRANCH  19  20
ATOM     20  O   UNL A   1      43.056  22.916  25.031  1.00  0.00    -0.458 OA
BRANCH  20  21
ATOM     21  C   UNL A   1      43.758  24.063  25.189  1.00  0.00     0.338 C 
ATOM     22  O   UNL A   1      44.712  24.440  24.529  1.00  0.00    -0.246 OA
BRANCH  21  23
ATOM     23  C   UNL A   1      43.129  24.907  26.217  1.00  0.00     0.060 A 
ATOM     24  C   UNL A   1      43.554  26.231  26.305  1.00  0.00     0.016 A 
ATOM     25  C   UNL A   1      42.233  24.393  27.155  1.00  0.00     0.016 A 
ATOM     26  C   UNL A   1      43.109  27.050  27.337  1.00  0.00     0.010 A 
ATOM     27  C   UNL A   1      41.765  25.225  28.183  1.00  0.00     0.010 A 
ATOM     28  C   UNL A   1      42.211  26.557  28.291  1.00  0.00    -0.014 A 
BRANCH  28  29
ATOM     29  C   UNL A   1      41.781  27.432  29.414  1.00  0.00     0.031 A 
ATOM     30  C   UNL A   1      42.541  27.428  30.712  1.00  0.00     0.074 A 
ATOM     31  C   UNL A   1      40.728  28.258  29.259  1.00  0.00     0.049 A 
ATOM     32  N   UNL A   1      42.277  28.054  31.833  1.00  0.00    -0.248 NA
ATOM     33  C   UNL A   1      43.761  26.609  30.757  1.00  0.00     0.031 C 
ATOM     34  C   UNL A   1      39.939  28.395  28.035  1.00  0.00     0.029 A 
ATOM     35  N   UNL A   1      40.143  29.141  30.133  1.00  0.00    -0.354 N 
ATOM     36  C   UNL A   1      43.277  27.681  32.721  1.00  0.00     0.074 A 
ATOM     37  C   UNL A   1      44.144  26.760  32.017  1.00  0.00     0.031 C 
ATOM     38  C   UNL A   1      38.982  29.315  28.230  1.00  0.00     0.029 A 
ATOM     39  C   UNL A   1      39.049  29.786  29.611  1.00  0.00     0.049 A 
ATOM     40  H   UNL A   1      40.476  29.297  31.047  1.00  0.00     0.167 HD
ATOM     41  C   UNL A   1      43.456  28.076  34.005  1.00  0.00     0.037 A 
ATOM     42  C   UNL A   1      38.176  30.635  30.187  1.00  0.00     0.037 A 
ATOM     43  C   UNL A   1      42.603  29.012  34.693  1.00  0.00     0.049 A 
ATOM     44  C   UNL A   1      38.361  31.008  31.633  1.00  0.00     0.074 A 
ATOM     45  C   UNL A   1      42.711  29.489  35.989  1.00  0.00     0.029 A 
ATOM     46  N   UNL A   1      41.482  29.616  34.141  1.00  0.00    -0.354 N 
ATOM     47  N   UNL A   1      39.304  30.645  32.468  1.00  0.00    -0.248 NA
ATOM     48  C   UNL A   1      37.356  31.906  32.220  1.00  0.00     0.031 C 
ATOM     49  C   UNL A   1      41.627  30.335  36.238  1.00  0.00     0.029 A 
ATOM     50  C   UNL A   1      40.877  30.440  35.078  1.00  0.00     0.049 A 
ATOM     51  H   UNL A   1      41.163  29.479  33.220  1.00  0.00     0.167 HD
ATOM     52  C   UNL A   1      39.023  31.288  33.666  1.00  0.00     0.074 A 
ATOM     53  C   UNL A   1      37.829  32.077  33.445  1.00  0.00     0.031 C 
ATOM     54  C   UNL A   1      39.694  31.229  34.843  1.00  0.00     0.037 A 
BRANCH  41  55
ATOM     55  C   UNL A   1      44.600  27.472  34.768  1.00  0.00     0.064 A 
ATOM     56  C   UNL A   1      45.857  28.091  34.843  1.00  0.00     0.173 A 
ATOM     57  C   UNL A   1      44.424  26.269  35.471  1.00  0.00     0.173 A 
ATOM     58  F   UNL A   1      46.083  29.238  34.184  1.00  0.00    -0.203 F 
ATOM     59  C   UNL A   1      46.899  27.516  35.565  1.00  0.00     0.198 A 
ATOM     60  C   UNL A   1      45.458  25.712  36.218  1.00  0.00     0.198 A 
ATOM     61  F   UNL A   1      43.241  25.636  35.443  1.00  0.00    -0.203 F 
ATOM     62  F   UNL A   1      48.105  28.102  35.581  1.00  0.00    -0.200 F 
ATOM     63  C   UNL A   1      46.698  26.332  36.258  1.00  0.00     0.200 A 
ATOM     64  F   UNL A   1      45.256  24.577  36.900  1.00  0.00    -0.200 F 
ATOM     65  F   UNL A   1      47.700  25.784  36.960  1.00  0.00    -0.200 F 
ENDBRANCH  41  55
BRANCH  42  66
ATOM     66  C   UNL A   1      37.030  31.168  29.403  1.00  0.00     0.064 A 
ATOM     67  C   UNL A   1      36.991  32.507  28.994  1.00  0.00     0.173 A 
ATOM     68  C   UNL A   1      35.944  30.349  29.056  1.00  0.00     0.173 A 
ATOM     69  F   UNL A   1      37.993  33.337  29.324  1.00  0.00    -0.203 F 
ATOM     70  C   UNL A   1      35.904  33.013  28.283  1.00  0.00     0.198 A 
ATOM     71  C   UNL A   1      34.874  30.847  28.317  1.00  0.00     0.198 A 
ATOM     72  F   UNL A   1      35.928  29.060  29.426  1.00  0.00    -0.203 F 
ATOM     73  F   UNL A   1      35.869  34.310  27.950  1.00  0.00    -0.200 F 
ATOM     74  C   UNL A   1      34.850  32.180  27.938  1.00  0.00     0.200 A 
ATOM     75  F   UNL A   1      33.864  30.034  27.975  1.00  0.00    -0.200 F 
ATOM     76  F   UNL A   1      33.806  32.665  27.252  1.00  0.00    -0.200 F 
ENDBRANCH  42  66
BRANCH  54  77
ATOM     77  C   UNL A   1      39.181  32.077  35.971  1.00  0.00     0.064 A 
ATOM     78  C   UNL A   1      38.268  31.582  36.915  1.00  0.00     0.173 A 
ATOM     79  C   UNL A   1      39.640  33.395  36.131  1.00  0.00     0.173 A 
ATOM     80  F   UNL A   1      37.787  30.336  36.799  1.00  0.00    -0.203 F 
ATOM     81  C   UNL A   1      37.813  32.383  37.959  1.00  0.00     0.198 A 
ATOM     82  C   UNL A   1      39.207  34.181  37.196  1.00  0.00     0.198 A 
ATOM     83  F   UNL A   1      40.518  33.916  35.262  1.00  0.00    -0.203 F 
ATOM     84  F   UNL A   1      36.902  31.906  38.818  1.00  0.00    -0.200 F 
ATOM     85  C   UNL A   1      38.288  33.678  38.103  1.00  0.00     0.200 A 
ATOM     86  F   UNL A   1      39.680  35.427  37.341  1.00  0.00    -0.200 F 
ATOM     87  F   UNL A   1      37.854  34.445  39.114  1.00  0.00    -0.200 F 
ENDBRANCH  54  77
ENDBRANCH  28  29
ENDBRANCH  21  23
ENDBRANCH  20  21
ENDBRANCH  19  20
ENDBRANCH   1  19
TORSDOF 13
ENDMDL
MODEL 2
REMARK VINA RESULT:     -11.2      3.166      8.402
REMARK SMILES CC[N@@H+]1CCO[C@@H](c2ncc(C(=O)OCCOC(=O)c3ccc(-c4c5nc(c(-c6c(F)c(F)c(F)c(F)c6F)c6ccc([nH]6)c(-c6c(F)c(F)c(F)c(F)c6F)c6nc(c(-c7c(F)c(F)c(F)c(F)c7F)c7ccc4[nH]7)C=C6)C=C5)cc3)s2)C1
REMARK SMILES IDX 15 1 14 2 12 3 13 4 11 5 8 6 9 7 83 8 10 9 7 10 3 11 4 12
REMARK SMILES IDX 84 13 5 15 6 16 2 17 1 18 16 19 17 20 18 21 19 22 20 23
REMARK SMILES IDX 21 24 82 25 22 26 81 27 23 28 24 29 25 30 75 31 26 32 80 33
REMARK SMILES IDX 74 34 76 35 27 36 79 37 73 38 72 39 28 41 60 42 40 43 59 44
REMARK SMILES IDX 41 45 44 46 58 47 77 48 42 49 43 50 57 52 78 53 45 54 29 55
REMARK SMILES IDX 30 56 38 57 31 58 32 59 36 60 39 61 33 62 34 63 37 64 35 65
REMARK SMILES IDX 61 66 62 67 70 68 63 69 64 70 68 71 71 72 65 73 66 74 69 75
REMARK SMILES IDX 67 76 46 77 47 78 55 79 48 80 49 81 53 82 56 83 50 84 51 85
REMARK SMILES IDX 54 86 52 87
REMARK H PARENT 3 14 76 40 44 51
REMARK Flexibility Score: inf
ROOT
ATOM      1  C   UNL A   1      31.339  29.307  24.564  1.00  0.00     0.275 C 
ENDROOT
BRANCH   1   2
ATOM      2  O   UNL A   1      31.276  27.889  24.321  1.00  0.00    -0.458 OA
BRANCH   2   3
ATOM      3  C   UNL A   1      31.413  27.486  23.021  1.00  0.00     0.350 C 
ATOM      4  O   UNL A   1      30.763  27.939  22.091  1.00  0.00    -0.245 OA
BRANCH   3   5
ATOM      5  C   UNL A   1      32.498  26.538  22.915  1.00  0.00     0.132 A 
ATOM      6  C   UNL A   1      34.080  24.773  23.430  1.00  0.00     0.128 A 
ATOM      7  N   UNL A   1      33.870  24.818  22.128  1.00  0.00    -0.246 NA
ATOM      8  S   UNL A   1      33.406  26.093  24.307  1.00  0.00    -0.109 S 
ATOM      9  C   UNL A   1      32.957  25.815  21.836  1.00  0.00     0.139 A 
BRANCH   6  10
ATOM     10  C   UNL A   1      34.838  23.657  24.108  1.00  0.00     0.232 C 
ATOM     11  N   UNL A   1      35.972  22.970  26.259  1.00  0.00    -0.331 N 
ATOM     12  C   UNL A   1      35.253  21.693  26.128  1.00  0.00     0.291 C 
ATOM     13  C   UNL A   1      35.246  24.038  25.540  1.00  0.00     0.302 C 
ATOM     14  H   UNL A   1      35.965  23.193  27.254  1.00  0.00     0.348 HD
ATOM     15  C   UNL A   1      34.747  21.369  24.706  1.00  0.00     0.222 C 
ATOM     16  O   UNL A   1      34.028  22.461  24.113  1.00  0.00    -0.359 OA
BRANCH  11  17
ATOM     17  C   UNL A   1      37.414  22.938  26.003  1.00  0.00     0.258 C 
ATOM     18  C   UNL A   1      38.232  24.213  26.181  1.00  0.00     0.071 C 
ENDBRANCH  11  17
ENDBRANCH   6  10
ENDBRANCH   3   5
ENDBRANCH   2   3
ENDBRANCH   1   2
BRANCH   1  19
ATOM     19  C   UNL A   1      32.677  29.704  25.198  1.00  0.00     0.275 C 
BRANCH  19  20
ATOM     20  O   UNL A   1      32.556  29.941  26.615  1.00  0.00    -0.458 OA
BRANCH  20  21
ATOM     21  C   UNL A   1      33.096  31.106  27.045  1.00  0.00     0.338 C 
ATOM     22  O   UNL A   1      32.560  32.200  27.072  1.00  0.00    -0.246 OA
BRANCH  21  23
ATOM     23  C   UNL A   1      34.426  30.865  27.628  1.00  0.00     0.060 A 
ATOM     24  C   UNL A   1      34.719  29.567  28.039  1.00  0.00     0.016 A 
ATOM     25  C   UNL A   1      35.325  31.902  27.881  1.00  0.00     0.016 A 
ATOM     26  C   UNL A   1      35.897  29.289  28.723  1.00  0.00     0.010 A 
ATOM     27  C   UNL A   1      36.525  31.620  28.550  1.00  0.00     0.010 A 
ATOM     28  C   UNL A   1      36.814  30.313  28.990  1.00  0.00    -0.014 A 
BRANCH  28  29
ATOM     29  C   UNL A   1      38.048  30.009  29.763  1.00  0.00     0.031 A 
ATOM     30  C   UNL A   1      39.090  29.085  29.195  1.00  0.00     0.074 A 
ATOM     31  C   UNL A   1      38.251  30.589  30.962  1.00  0.00     0.049 A 
ATOM     32  N   UNL A   1      40.189  28.632  29.747  1.00  0.00    -0.248 NA
ATOM     33  C   UNL A   1      38.865  28.605  27.825  1.00  0.00     0.031 C 
ATOM     34  C   UNL A   1      37.344  31.542  31.601  1.00  0.00     0.029 A 
ATOM     35  N   UNL A   1      39.287  30.466  31.855  1.00  0.00    -0.354 N 
ATOM     36  C   UNL A   1      40.769  27.793  28.805  1.00  0.00     0.074 A 
ATOM     37  C   UNL A   1      39.892  27.784  27.653  1.00  0.00     0.031 C 
ATOM     38  C   UNL A   1      37.867  31.928  32.775  1.00  0.00     0.029 A 
ATOM     39  C   UNL A   1      39.113  31.202  33.002  1.00  0.00     0.049 A 
ATOM     40  H   UNL A   1      40.079  29.905  31.689  1.00  0.00     0.167 HD
ATOM     41  C   UNL A   1      41.930  27.099  28.892  1.00  0.00     0.037 A 
ATOM     42  C   UNL A   1      39.855  31.260  34.125  1.00  0.00     0.037 A 
ATOM     43  C   UNL A   1      42.811  27.131  30.033  1.00  0.00     0.049 A 
ATOM     44  C   UNL A   1      41.105  30.429  34.223  1.00  0.00     0.074 A 
ATOM     45  C   UNL A   1      44.017  26.476  30.211  1.00  0.00     0.029 A 
ATOM     46  N   UNL A   1      42.580  27.859  31.191  1.00  0.00    -0.354 N 
ATOM     47  N   UNL A   1      41.642  29.633  33.331  1.00  0.00    -0.248 NA
ATOM     48  C   UNL A   1      41.852  30.502  35.486  1.00  0.00     0.031 C 
ATOM     49  C   UNL A   1      44.488  26.763  31.496  1.00  0.00     0.029 A 
ATOM     50  C   UNL A   1      43.610  27.649  32.097  1.00  0.00     0.049 A 
ATOM     51  H   UNL A   1      41.800  28.440  31.347  1.00  0.00     0.167 HD
ATOM     52  C   UNL A   1      42.799  29.131  33.912  1.00  0.00     0.074 A 
ATOM     53  C   UNL A   1      42.895  29.726  35.229  1.00  0.00     0.031 C 
ATOM     54  C   UNL A   1      43.700  28.256  33.401  1.00  0.00     0.037 A 
BRANCH  41  55
ATOM     55  C   UNL A   1      42.302  26.213  27.738  1.00  0.00     0.064 A 
ATOM     56  C   UNL A   1      43.257  26.594  26.784  1.00  0.00     0.173 A 
ATOM     57  C   UNL A   1      41.720  24.941  27.607  1.00  0.00     0.173 A 
ATOM     58  F   UNL A   1      43.838  27.801  26.856  1.00  0.00    -0.203 F 
ATOM     59  C   UNL A   1      43.593  25.751  25.728  1.00  0.00     0.198 A 
ATOM     60  C   UNL A   1      42.081  24.088  26.568  1.00  0.00     0.198 A 
ATOM     61  F   UNL A   1      40.807  24.520  28.495  1.00  0.00    -0.203 F 
ATOM     62  F   UNL A   1      44.473  26.157  24.801  1.00  0.00    -0.200 F 
ATOM     63  C   UNL A   1      43.012  24.496  25.624  1.00  0.00     0.200 A 
ATOM     64  F   UNL A   1      41.530  22.869  26.480  1.00  0.00    -0.200 F 
ATOM     65  F   UNL A   1      43.343  23.682  24.612  1.00  0.00    -0.200 F 
ENDBRANCH  41  55
BRANCH  42  66
ATOM     66  C   UNL A   1      39.417  32.115  35.261  1.00  0.00     0.064 A 
ATOM     67  C   UNL A   1      38.587  31.611  36.270  1.00  0.00     0.173 A 
ATOM     68  C   UNL A   1      39.812  33.459  35.353  1.00  0.00     0.173 A 
ATOM     69  F   UNL A   1      38.159  30.340  36.213  1.00  0.00    -0.203 F 
ATOM     70  C   UNL A   1      38.153  32.420  37.319  1.00  0.00     0.198 A 
ATOM     71  C   UNL A   1      39.406  34.258  36.419  1.00  0.00     0.198 A 
ATOM     72  F   UNL A   1      40.603  33.994  34.412  1.00  0.00    -0.203 F 
ATOM     73  F   UNL A   1      37.318  31.926  38.242  1.00  0.00    -0.200 F 
ATOM     74  C   UNL A   1      38.570  33.740  37.397  1.00  0.00     0.200 A 
ATOM     75  F   UNL A   1      39.823  35.529  36.498  1.00  0.00    -0.200 F 
ATOM     76  F   UNL A   1      38.157  34.518  38.407  1.00  0.00    -0.200 F 
ENDBRANCH  42  66
BRANCH  54  77
ATOM     77  C   UNL A   1      44.895  27.924  34.247  1.00  0.00     0.064 A 
ATOM     78  C   UNL A   1      44.903  26.827  35.121  1.00  0.00     0.173 A 
ATOM     79  C   UNL A   1      46.064  28.697  34.155  1.00  0.00     0.173 A 
ATOM     80  F   UNL A   1      43.807  26.066  35.258  1.00  0.00    -0.203 F 
ATOM     81  C   UNL A   1      46.026  26.532  35.890  1.00  0.00     0.198 A 
ATOM     82  C   UNL A   1      47.196  28.378  34.901  1.00  0.00     0.198 A 
ATOM     83  F   UNL A   1      46.113  29.754  33.330  1.00  0.00    -0.203 F 
ATOM     84  F   UNL A   1      45.992  25.509  36.756  1.00  0.00    -0.200 F 
ATOM     85  C   UNL A   1      47.173  27.302  35.773  1.00  0.00     0.200 A 
ATOM     86  F   UNL A   1      48.308  29.116  34.775  1.00  0.00    -0.200 F 
ATOM     87  F   UNL A   1      48.255  27.011  36.509  1.00  0.00    -0.200 F 
ENDBRANCH  54  77
ENDBRANCH  28  29
ENDBRANCH  21  23
ENDBRANCH  20  21
ENDBRANCH  19  20
ENDBRANCH   1  19
TORSDOF 13
ENDMDL
MODEL 3
REMARK VINA RESULT:     -11.0      4.756      9.176
REMARK SMILES CC[N@@H+]1CCO[C@@H](c2ncc(C(=O)OCCOC(=O)c3ccc(-c4c5nc(c(-c6c(F)c(F)c(F)c(F)c6F)c6ccc([nH]6)c(-c6c(F)c(F)c(F)c(F)c6F)c6nc(c(-c7c(F)c(F)c(F)c(F)c7F)c7ccc4[nH]7)C=C6)C=C5)cc3)s2)C1
REMARK SMILES IDX 15 1 14 2 12 3 13 4 11 5 8 6 9 7 83 8 10 9 7 10 3 11 4 12
REMARK SMILES IDX 84 13 5 15 6 16 2 17 1 18 16 19 17 20 18 21 19 22 20 23
REMARK SMILES IDX 21 24 82 25 22 26 81 27 23 28 24 29 25 30 75 31 26 32 80 33
REMARK SMILES IDX 74 34 76 35 27 36 79 37 73 38 72 39 28 41 60 42 40 43 59 44
REMARK SMILES IDX 41 45 44 46 58 47 77 48 42 49 43 50 57 52 78 53 45 54 29 55
REMARK SMILES IDX 30 56 38 57 31 58 32 59 36 60 39 61 33 62 34 63 37 64 35 65
REMARK SMILES IDX 61 66 62 67 70 68 63 69 64 70 68 71 71 72 65 73 66 74 69 75
REMARK SMILES IDX 67 76 46 77 47 78 55 79 48 80 49 81 53 82 56 83 50 84 51 85
REMARK SMILES IDX 54 86 52 87
REMARK H PARENT 3 14 76 40 44 51
REMARK Flexibility Score: inf
ROOT
ATOM      1  C   UNL A   1      35.259  20.645  25.039  1.00  0.00     0.275 C 
ENDROOT
BRANCH   1   2
ATOM      2  O   UNL A   1      34.407  21.780  24.797  1.00  0.00    -0.458 OA
BRANCH   2   3
ATOM      3  C   UNL A   1      33.129  21.696  25.275  1.00  0.00     0.350 C 
ATOM      4  O   UNL A   1      32.458  20.676  25.263  1.00  0.00    -0.245 OA
BRANCH   3   5
ATOM      5  C   UNL A   1      32.749  22.953  25.877  1.00  0.00     0.132 A 
ATOM      6  C   UNL A   1      32.449  25.328  26.269  1.00  0.00     0.128 A 
ATOM      7  N   UNL A   1      31.464  24.654  26.835  1.00  0.00    -0.246 NA
ATOM      8  S   UNL A   1      33.736  24.348  25.680  1.00  0.00    -0.109 S 
ATOM      9  C   UNL A   1      31.628  23.301  26.599  1.00  0.00     0.139 A 
BRANCH   6  10
ATOM     10  C   UNL A   1      32.454  26.831  26.137  1.00  0.00     0.232 C 
ATOM     11  N   UNL A   1      33.932  28.844  25.750  1.00  0.00    -0.331 N 
ATOM     12  C   UNL A   1      32.925  29.287  24.774  1.00  0.00     0.291 C 
ATOM     13  C   UNL A   1      33.873  27.376  25.911  1.00  0.00     0.302 C 
ATOM     14  H   UNL A   1      34.837  29.085  25.346  1.00  0.00     0.348 HD
ATOM     15  C   UNL A   1      31.529  28.650  24.938  1.00  0.00     0.222 C 
ATOM     16  O   UNL A   1      31.584  27.220  25.052  1.00  0.00    -0.359 OA
BRANCH  11  17
ATOM     17  C   UNL A   1      33.995  29.590  27.009  1.00  0.00     0.258 C 
ATOM     18  C   UNL A   1      35.356  29.966  27.587  1.00  0.00     0.071 C 
ENDBRANCH  11  17
ENDBRANCH   6  10
ENDBRANCH   3   5
ENDBRANCH   2   3
ENDBRANCH   1   2
BRANCH   1  19
ATOM     19  C   UNL A   1      36.727  20.978  24.747  1.00  0.00     0.275 C 
BRANCH  19  20
ATOM     20  O   UNL A   1      37.323  21.766  25.797  1.00  0.00    -0.458 OA
BRANCH  20  21
ATOM     21  C   UNL A   1      38.625  21.492  26.046  1.00  0.00     0.338 C 
ATOM     22  O   UNL A   1      39.227  20.467  25.773  1.00  0.00    -0.246 OA
BRANCH  21  23
ATOM     23  C   UNL A   1      39.299  22.679  26.594  1.00  0.00     0.060 A 
ATOM     24  C   UNL A   1      38.879  23.925  26.131  1.00  0.00     0.016 A 
ATOM     25  C   UNL A   1      40.398  22.582  27.448  1.00  0.00     0.016 A 
ATOM     26  C   UNL A   1      39.559  25.081  26.495  1.00  0.00     0.010 A 
ATOM     27  C   UNL A   1      41.070  23.750  27.835  1.00  0.00     0.010 A 
ATOM     28  C   UNL A   1      40.665  25.009  27.350  1.00  0.00    -0.014 A 
BRANCH  28  29
ATOM     29  C   UNL A   1      41.409  26.251  27.692  1.00  0.00     0.031 A 
ATOM     30  C   UNL A   1      40.748  27.332  28.503  1.00  0.00     0.074 A 
ATOM     31  C   UNL A   1      42.692  26.394  27.307  1.00  0.00     0.049 A 
ATOM     32  N   UNL A   1      41.198  28.517  28.832  1.00  0.00    -0.248 NA
ATOM     33  C   UNL A   1      39.398  27.041  29.008  1.00  0.00     0.031 C 
ATOM     34  C   UNL A   1      43.464  25.401  26.562  1.00  0.00     0.029 A 
ATOM     35  N   UNL A   1      43.573  27.431  27.491  1.00  0.00    -0.354 N 
ATOM     36  C   UNL A   1      40.179  29.123  29.555  1.00  0.00     0.074 A 
ATOM     37  C   UNL A   1      39.079  28.183  29.601  1.00  0.00     0.031 C 
ATOM     38  C   UNL A   1      44.706  25.867  26.364  1.00  0.00     0.029 A 
ATOM     39  C   UNL A   1      44.800  27.218  26.910  1.00  0.00     0.049 A 
ATOM     40  H   UNL A   1      43.349  28.249  27.992  1.00  0.00     0.167 HD
ATOM     41  C   UNL A   1      40.166  30.350  30.132  1.00  0.00     0.037 A 
ATOM     42  C   UNL A   1      45.868  28.032  26.797  1.00  0.00     0.037 A 
ATOM     43  C   UNL A   1      41.274  31.272  30.103  1.00  0.00     0.049 A 
ATOM     44  C   UNL A   1      45.804  29.413  27.391  1.00  0.00     0.074 A 
ATOM     45  C   UNL A   1      41.364  32.531  30.671  1.00  0.00     0.029 A 
ATOM     46  N   UNL A   1      42.486  31.034  29.471  1.00  0.00    -0.354 N 
ATOM     47  N   UNL A   1      44.835  29.981  28.065  1.00  0.00    -0.248 NA
ATOM     48  C   UNL A   1      46.983  30.270  27.202  1.00  0.00     0.031 C 
ATOM     49  C   UNL A   1      42.607  33.076  30.337  1.00  0.00     0.029 A 
ATOM     50  C   UNL A   1      43.320  32.133  29.615  1.00  0.00     0.049 A 
ATOM     51  H   UNL A   1      42.719  30.207  28.991  1.00  0.00     0.167 HD
ATOM     52  C   UNL A   1      45.293  31.246  28.404  1.00  0.00     0.074 A 
ATOM     53  C   UNL A   1      46.637  31.358  27.874  1.00  0.00     0.031 C 
ATOM     54  C   UNL A   1      44.659  32.228  29.092  1.00  0.00     0.037 A 
BRANCH  41  55
ATOM     55  C   UNL A   1      38.901  30.787  30.815  1.00  0.00     0.064 A 
ATOM     56  C   UNL A   1      38.710  30.635  32.196  1.00  0.00     0.173 A 
ATOM     57  C   UNL A   1      37.878  31.405  30.078  1.00  0.00     0.173 A 
ATOM     58  F   UNL A   1      39.652  30.043  32.947  1.00  0.00    -0.203 F 
ATOM     59  C   UNL A   1      37.533  31.057  32.809  1.00  0.00     0.198 A 
ATOM     60  C   UNL A   1      36.715  31.855  30.698  1.00  0.00     0.198 A 
ATOM     61  F   UNL A   1      38.010  31.585  28.755  1.00  0.00    -0.203 F 
ATOM     62  F   UNL A   1      37.353  30.858  34.122  1.00  0.00    -0.200 F 
ATOM     63  C   UNL A   1      36.540  31.674  32.061  1.00  0.00     0.200 A 
ATOM     64  F   UNL A   1      35.765  32.465  29.977  1.00  0.00    -0.200 F 
ATOM     65  F   UNL A   1      35.411  32.087  32.654  1.00  0.00    -0.200 F 
ENDBRANCH  41  55
BRANCH  42  66
ATOM     66  C   UNL A   1      47.079  27.570  26.068  1.00  0.00     0.064 A 
ATOM     67  C   UNL A   1      47.164  27.661  24.673  1.00  0.00     0.173 A 
ATOM     68  C   UNL A   1      48.174  27.018  26.752  1.00  0.00     0.173 A 
ATOM     69  F   UNL A   1      46.133  28.157  23.970  1.00  0.00    -0.203 F 
ATOM     70  C   UNL A   1      48.287  27.203  23.987  1.00  0.00     0.198 A 
ATOM     71  C   UNL A   1      49.309  26.591  26.069  1.00  0.00     0.198 A 
ATOM     72  F   UNL A   1      48.143  26.904  28.088  1.00  0.00    -0.203 F 
ATOM     73  F   UNL A   1      48.320  27.254  22.649  1.00  0.00    -0.200 F 
ATOM     74  C   UNL A   1      49.363  26.676  24.686  1.00  0.00     0.200 A 
ATOM     75  F   UNL A   1      50.352  26.095  26.751  1.00  0.00    -0.200 F 
ATOM     76  F   UNL A   1      50.444  26.238  24.028  1.00  0.00    -0.200 F 
ENDBRANCH  42  66
BRANCH  54  77
ATOM     77  C   UNL A   1      45.426  33.492  29.354  1.00  0.00     0.064 A 
ATOM     78  C   UNL A   1      46.259  33.635  30.474  1.00  0.00     0.173 A 
ATOM     79  C   UNL A   1      45.353  34.564  28.450  1.00  0.00     0.173 A 
ATOM     80  F   UNL A   1      46.352  32.647  31.377  1.00  0.00    -0.203 F 
ATOM     81  C   UNL A   1      46.969  34.814  30.693  1.00  0.00     0.198 A 
ATOM     82  C   UNL A   1      46.090  35.727  28.655  1.00  0.00     0.198 A 
ATOM     83  F   UNL A   1      44.577  34.478  27.360  1.00  0.00    -0.203 F 
ATOM     84  F   UNL A   1      47.717  34.947  31.796  1.00  0.00    -0.200 F 
ATOM     85  C   UNL A   1      46.890  35.855  29.780  1.00  0.00     0.200 A 
ATOM     86  F   UNL A   1      46.024  36.725  27.763  1.00  0.00    -0.200 F 
ATOM     87  F   UNL A   1      47.580  36.985  29.988  1.00  0.00    -0.200 F 
ENDBRANCH  54  77
ENDBRANCH  28  29
ENDBRANCH  21  23
ENDBRANCH  20  21
ENDBRANCH  19  20
ENDBRANCH   1  19
TORSDOF 13
ENDMDL
