MODEL 1
REMARK VINA RESULT:     -12.5      0.000      0.000
REMARK SMILES O=C(COc1ccccc1Br)Nc1cccc(C(=O)Nc2ccc(C(=O)OCCOC(=O)c3ccc(-c4c5nc(c(-c6c(F)c(F)c(F)c(F)c6F)c6ccc([nH]6)c(-c6c(F)c(F)c(F)c(F)c6F)c6nc(c(-c7c(F)c(F)c(F)c(F)c7F)c7ccc4[nH]7)C=C6)C=C5)cc3)cc2)c1
REMARK SMILES IDX 25 1 26 2 24 3 21 4 22 5 97 6 23 7 96 8 20 9 18 10 19 11
REMARK SMILES IDX 17 13 13 14 14 15 98 16 15 17 16 18 12 19 1 20 2 21 3 23
REMARK SMILES IDX 4 24 5 25 6 26 10 27 7 28 9 29 11 30 8 31 27 32 28 33 29 34
REMARK SMILES IDX 30 35 31 36 32 37 33 38 34 39 95 40 35 41 94 42 36 43 37 44
REMARK SMILES IDX 38 45 88 46 39 47 93 48 87 49 89 50 40 51 92 52 86 53 85 54
REMARK SMILES IDX 41 56 73 57 53 58 72 59 54 60 57 61 71 62 90 63 55 64 56 65
REMARK SMILES IDX 70 67 91 68 58 69 42 70 43 71 51 72 44 73 45 74 49 75 52 76
REMARK SMILES IDX 46 77 47 78 50 79 48 80 74 81 75 82 83 83 76 84 77 85 81 86
REMARK SMILES IDX 84 87 78 88 79 89 82 90 80 91 59 92 60 93 68 94 61 95 62 96
REMARK SMILES IDX 66 97 69 98 63 99 64 100 67 101 65 102
REMARK H PARENT 20 12 12 22 89 55 57 66
REMARK Flexibility Score: inf
ROOT
ATOM      1  C   UNL A   1      32.339  28.402  23.966  1.00  0.00     0.338 C 
ATOM      2  O   UNL A   1      32.768  28.034  22.881  1.00  0.00    -0.246 OA
ENDROOT
BRANCH   1   3
ATOM      3  C   UNL A   1      31.475  27.539  24.813  1.00  0.00     0.060 A 
ATOM      4  C   UNL A   1      30.242  25.376  26.075  1.00  0.00     0.041 A 
ATOM      5  C   UNL A   1      31.401  25.914  26.624  1.00  0.00     0.027 A 
ATOM      6  C   UNL A   1      29.596  26.036  25.020  1.00  0.00     0.027 A 
ATOM      7  C   UNL A   1      32.041  26.953  25.956  1.00  0.00     0.018 A 
ATOM      8  C   UNL A   1      30.209  27.130  24.391  1.00  0.00     0.018 A 
BRANCH   4   9
ATOM      9  N   UNL A   1      29.902  24.083  26.499  1.00  0.00    -0.322 N 
ATOM     10  C   UNL A   1      30.332  22.860  26.010  1.00  0.00     0.255 C 
ATOM     11  O   UNL A   1      29.875  21.828  26.501  1.00  0.00    -0.269 OA
ATOM     12  H   UNL A   1      29.267  24.038  27.251  1.00  0.00     0.170 HD
BRANCH  10  13
ATOM     13  C   UNL A   1      31.380  22.744  24.954  1.00  0.00     0.042 A 
ATOM     14  C   UNL A   1      33.587  22.053  24.214  1.00  0.00     0.042 A 
ATOM     15  C   UNL A   1      33.416  22.796  23.043  1.00  0.00     0.026 A 
ATOM     16  C   UNL A   1      32.530  21.962  25.116  1.00  0.00     0.040 A 
ATOM     17  C   UNL A   1      32.204  23.438  22.788  1.00  0.00     0.003 A 
ATOM     18  C   UNL A   1      31.194  23.429  23.751  1.00  0.00     0.014 A 
BRANCH  14  19
ATOM     19  N   UNL A   1      34.840  21.453  24.429  1.00  0.00    -0.323 N 
ATOM     20  O   UNL A   1      35.657  22.644  26.262  1.00  0.00    -0.271 OA
ATOM     21  C   UNL A   1      35.772  21.776  25.405  1.00  0.00     0.262 C 
ATOM     22  H   UNL A   1      35.085  20.721  23.818  1.00  0.00     0.170 HD
BRANCH  21  23
ATOM     23  C   UNL A   1      37.018  20.903  25.313  1.00  0.00     0.329 C 
BRANCH  23  24
ATOM     24  O   UNL A   1      38.156  21.720  25.001  1.00  0.00    -0.483 OA
BRANCH  24  25
ATOM     25  C   UNL A   1      39.193  21.446  25.855  1.00  0.00     0.134 A 
ATOM     26  C   UNL A   1      39.732  20.157  25.815  1.00  0.00     0.047 A 
ATOM     27  C   UNL A   1      39.668  22.372  26.792  1.00  0.00     0.060 A 
ATOM     28  C   UNL A   1      40.778  19.812  26.672  1.00  0.00     0.004 A 
ATOM     29  C   UNL A   1      40.735  22.030  27.624  1.00  0.00     0.019 A 
ATOM     30  Br  UNL A   1      38.895  24.079  27.060  1.00  0.00    -0.047 Br
ATOM     31  C   UNL A   1      41.289  20.753  27.563  1.00  0.00     0.001 A 
ENDBRANCH  24  25
ENDBRANCH  23  24
ENDBRANCH  21  23
ENDBRANCH  14  19
ENDBRANCH  10  13
ENDBRANCH   4   9
ENDBRANCH   1   3
BRANCH   1  32
ATOM     32  O   UNL A   1      32.580  29.614  24.522  1.00  0.00    -0.458 OA
BRANCH  32  33
ATOM     33  C   UNL A   1      31.395  30.289  24.998  1.00  0.00     0.275 C 
BRANCH  33  34
ATOM     34  C   UNL A   1      31.560  30.793  26.433  1.00  0.00     0.275 C 
BRANCH  34  35
ATOM     35  O   UNL A   1      32.895  30.558  26.919  1.00  0.00    -0.458 OA
BRANCH  35  36
ATOM     36  C   UNL A   1      33.531  31.649  27.407  1.00  0.00     0.338 C 
ATOM     37  O   UNL A   1      33.089  32.782  27.506  1.00  0.00    -0.246 OA
BRANCH  36  38
ATOM     38  C   UNL A   1      34.885  31.302  27.869  1.00  0.00     0.060 A 
ATOM     39  C   UNL A   1      35.156  30.000  28.269  1.00  0.00     0.016 A 
ATOM     40  C   UNL A   1      35.823  32.306  28.102  1.00  0.00     0.016 A 
ATOM     41  C   UNL A   1      36.280  29.716  29.036  1.00  0.00     0.010 A 
ATOM     42  C   UNL A   1      37.023  31.990  28.751  1.00  0.00     0.010 A 
ATOM     43  C   UNL A   1      37.243  30.702  29.274  1.00  0.00    -0.014 A 
BRANCH  43  44
ATOM     44  C   UNL A   1      38.448  30.401  30.100  1.00  0.00     0.031 A 
ATOM     45  C   UNL A   1      39.584  29.604  29.513  1.00  0.00     0.074 A 
ATOM     46  C   UNL A   1      38.541  30.847  31.370  1.00  0.00     0.049 A 
ATOM     47  N   UNL A   1      40.604  29.044  30.113  1.00  0.00    -0.248 NA
ATOM     48  C   UNL A   1      39.559  29.395  28.057  1.00  0.00     0.031 C 
ATOM     49  C   UNL A   1      37.551  31.683  32.051  1.00  0.00     0.029 A 
ATOM     50  N   UNL A   1      39.518  30.658  32.316  1.00  0.00    -0.354 N 
ATOM     51  C   UNL A   1      41.299  28.360  29.121  1.00  0.00     0.074 A 
ATOM     52  C   UNL A   1      40.585  28.575  27.881  1.00  0.00     0.031 C 
ATOM     53  C   UNL A   1      37.988  31.968  33.286  1.00  0.00     0.029 A 
ATOM     54  C   UNL A   1      39.231  31.245  33.525  1.00  0.00     0.049 A 
ATOM     55  H   UNL A   1      40.346  30.153  32.145  1.00  0.00     0.167 HD
ATOM     56  C   UNL A   1      42.427  27.617  29.241  1.00  0.00     0.037 A 
ATOM     57  C   UNL A   1      39.858  31.165  34.713  1.00  0.00     0.037 A 
ATOM     58  C   UNL A   1      43.164  27.462  30.469  1.00  0.00     0.049 A 
ATOM     59  C   UNL A   1      41.086  30.308  34.832  1.00  0.00     0.074 A 
ATOM     60  C   UNL A   1      44.326  26.745  30.696  1.00  0.00     0.029 A 
ATOM     61  N   UNL A   1      42.818  28.051  31.677  1.00  0.00    -0.354 N 
ATOM     62  N   UNL A   1      41.694  29.603  33.910  1.00  0.00    -0.248 NA
ATOM     63  C   UNL A   1      41.700  30.216  36.162  1.00  0.00     0.031 C 
ATOM     64  C   UNL A   1      44.660  26.867  32.049  1.00  0.00     0.029 A 
ATOM     65  C   UNL A   1      43.735  27.701  32.655  1.00  0.00     0.049 A 
ATOM     66  H   UNL A   1      42.035  28.632  31.818  1.00  0.00     0.167 HD
ATOM     67  C   UNL A   1      42.768  28.995  34.541  1.00  0.00     0.074 A 
ATOM     68  C   UNL A   1      42.740  29.430  35.923  1.00  0.00     0.031 C 
ATOM     69  C   UNL A   1      43.691  28.147  34.025  1.00  0.00     0.037 A 
BRANCH  56  70
ATOM     70  C   UNL A   1      42.907  26.879  28.024  1.00  0.00     0.064 A 
ATOM     71  C   UNL A   1      42.556  25.545  27.769  1.00  0.00     0.173 A 
ATOM     72  C   UNL A   1      43.721  27.530  27.083  1.00  0.00     0.173 A 
ATOM     73  F   UNL A   1      41.792  24.870  28.641  1.00  0.00    -0.203 F 
ATOM     74  C   UNL A   1      43.028  24.882  26.637  1.00  0.00     0.198 A 
ATOM     75  C   UNL A   1      44.164  26.876  25.936  1.00  0.00     0.198 A 
ATOM     76  F   UNL A   1      44.082  28.809  27.272  1.00  0.00    -0.203 F 
ATOM     77  F   UNL A   1      42.723  23.592  26.443  1.00  0.00    -0.200 F 
ATOM     78  C   UNL A   1      43.825  25.549  25.719  1.00  0.00     0.200 A 
ATOM     79  F   UNL A   1      44.923  27.528  25.045  1.00  0.00    -0.200 F 
ATOM     80  F   UNL A   1      44.274  24.912  24.629  1.00  0.00    -0.200 F 
ENDBRANCH  56  70
BRANCH  57  81
ATOM     81  C   UNL A   1      39.299  31.880  35.891  1.00  0.00     0.064 A 
ATOM     82  C   UNL A   1      38.318  31.287  36.697  1.00  0.00     0.173 A 
ATOM     83  C   UNL A   1      39.753  33.159  36.250  1.00  0.00     0.173 A 
ATOM     84  F   UNL A   1      37.832  30.078  36.380  1.00  0.00    -0.203 F 
ATOM     85  C   UNL A   1      37.809  31.947  37.814  1.00  0.00     0.198 A 
ATOM     86  C   UNL A   1      39.269  33.804  37.385  1.00  0.00     0.198 A 
ATOM     87  F   UNL A   1      40.690  33.771  35.512  1.00  0.00    -0.203 F 
ATOM     88  F   UNL A   1      36.846  31.375  38.546  1.00  0.00    -0.200 F 
ATOM     89  C   UNL A   1      38.293  33.200  38.163  1.00  0.00     0.200 A 
ATOM     90  F   UNL A   1      39.752  35.006  37.727  1.00  0.00    -0.200 F 
ATOM     91  F   UNL A   1      37.815  33.827  39.247  1.00  0.00    -0.200 F 
ENDBRANCH  57  81
BRANCH  69  92
ATOM     92  C   UNL A   1      44.764  27.661  34.954  1.00  0.00     0.064 A 
ATOM     93  C   UNL A   1      45.953  28.382  35.146  1.00  0.00     0.173 A 
ATOM     94  C   UNL A   1      44.590  26.473  35.679  1.00  0.00     0.173 A 
ATOM     95  F   UNL A   1      46.173  29.515  34.460  1.00  0.00    -0.203 F 
ATOM     96  C   UNL A   1      46.937  27.917  36.012  1.00  0.00     0.198 A 
ATOM     97  C   UNL A   1      45.565  26.027  36.566  1.00  0.00     0.198 A 
ATOM     98  F   UNL A   1      43.470  25.750  35.533  1.00  0.00    -0.203 F 
ATOM     99  F   UNL A   1      48.086  28.597  36.144  1.00  0.00    -0.200 F 
ATOM    100  C   UNL A   1      46.740  26.744  36.725  1.00  0.00     0.200 A 
ATOM    101  F   UNL A   1      45.369  24.898  37.262  1.00  0.00    -0.200 F 
ATOM    102  F   UNL A   1      47.689  26.301  37.562  1.00  0.00    -0.200 F 
ENDBRANCH  69  92
ENDBRANCH  43  44
ENDBRANCH  36  38
ENDBRANCH  35  36
ENDBRANCH  34  35
ENDBRANCH  33  34
ENDBRANCH  32  33
ENDBRANCH   1  32
TORSDOF 17
ENDMDL
MODEL 2
REMARK VINA RESULT:     -12.2      0.699      7.091
REMARK SMILES O=C(COc1ccccc1Br)Nc1cccc(C(=O)Nc2ccc(C(=O)OCCOC(=O)c3ccc(-c4c5nc(c(-c6c(F)c(F)c(F)c(F)c6F)c6ccc([nH]6)c(-c6c(F)c(F)c(F)c(F)c6F)c6nc(c(-c7c(F)c(F)c(F)c(F)c7F)c7ccc4[nH]7)C=C6)C=C5)cc3)cc2)c1
REMARK SMILES IDX 25 1 26 2 24 3 21 4 22 5 97 6 23 7 96 8 20 9 18 10 19 11
REMARK SMILES IDX 17 13 13 14 14 15 98 16 15 17 16 18 12 19 1 20 2 21 3 23
REMARK SMILES IDX 4 24 5 25 6 26 10 27 7 28 9 29 11 30 8 31 27 32 28 33 29 34
REMARK SMILES IDX 30 35 31 36 32 37 33 38 34 39 95 40 35 41 94 42 36 43 37 44
REMARK SMILES IDX 38 45 88 46 39 47 93 48 87 49 89 50 40 51 92 52 86 53 85 54
REMARK SMILES IDX 41 56 73 57 53 58 72 59 54 60 57 61 71 62 90 63 55 64 56 65
REMARK SMILES IDX 70 67 91 68 58 69 42 70 43 71 51 72 44 73 45 74 49 75 52 76
REMARK SMILES IDX 46 77 47 78 50 79 48 80 74 81 75 82 83 83 76 84 77 85 81 86
REMARK SMILES IDX 84 87 78 88 79 89 82 90 80 91 59 92 60 93 68 94 61 95 62 96
REMARK SMILES IDX 66 97 69 98 63 99 64 100 67 101 65 102
REMARK H PARENT 20 12 12 22 89 55 57 66
REMARK Flexibility Score: inf
ROOT
ATOM      1  C   UNL A   1      32.131  28.534  23.895  1.00  0.00     0.338 C 
ATOM      2  O   UNL A   1      32.482  28.243  22.759  1.00  0.00    -0.246 OA
ENDROOT
BRANCH   1   3
ATOM      3  C   UNL A   1      31.305  27.624  24.729  1.00  0.00     0.060 A 
ATOM      4  C   UNL A   1      30.177  25.394  25.974  1.00  0.00     0.041 A 
ATOM      5  C   UNL A   1      31.296  25.996  26.539  1.00  0.00     0.027 A 
ATOM      6  C   UNL A   1      29.511  26.018  24.910  1.00  0.00     0.027 A 
ATOM      7  C   UNL A   1      31.886  27.069  25.880  1.00  0.00     0.018 A 
ATOM      8  C   UNL A   1      30.070  27.144  24.289  1.00  0.00     0.018 A 
BRANCH   4   9
ATOM      9  N   UNL A   1      29.903  24.084  26.393  1.00  0.00    -0.322 N 
ATOM     10  C   UNL A   1      30.405  22.887  25.908  1.00  0.00     0.255 C 
ATOM     11  O   UNL A   1      30.000  21.830  26.393  1.00  0.00    -0.269 OA
ATOM     12  H   UNL A   1      29.264  24.003  27.138  1.00  0.00     0.170 HD
BRANCH  10  13
ATOM     13  C   UNL A   1      31.470  22.830  24.863  1.00  0.00     0.042 A 
ATOM     14  C   UNL A   1      33.693  22.192  24.124  1.00  0.00     0.042 A 
ATOM     15  C   UNL A   1      33.533  22.989  22.988  1.00  0.00     0.026 A 
ATOM     16  C   UNL A   1      32.623  22.049  25.005  1.00  0.00     0.040 A 
ATOM     17  C   UNL A   1      32.320  23.634  22.746  1.00  0.00     0.003 A 
ATOM     18  C   UNL A   1      31.296  23.571  23.692  1.00  0.00     0.014 A 
BRANCH  14  19
ATOM     19  N   UNL A   1      34.947  21.591  24.329  1.00  0.00    -0.323 N 
ATOM     20  O   UNL A   1      35.553  22.402  26.432  1.00  0.00    -0.271 OA
ATOM     21  C   UNL A   1      35.777  21.731  25.431  1.00  0.00     0.262 C 
ATOM     22  H   UNL A   1      35.274  21.006  23.608  1.00  0.00     0.170 HD
BRANCH  21  23
ATOM     23  C   UNL A   1      37.064  20.925  25.281  1.00  0.00     0.329 C 
BRANCH  23  24
ATOM     24  O   UNL A   1      38.159  21.814  25.013  1.00  0.00    -0.483 OA
BRANCH  24  25
ATOM     25  C   UNL A   1      39.197  21.570  25.874  1.00  0.00     0.134 A 
ATOM     26  C   UNL A   1      39.741  20.283  25.873  1.00  0.00     0.047 A 
ATOM     27  C   UNL A   1      39.667  22.526  26.784  1.00  0.00     0.060 A 
ATOM     28  C   UNL A   1      40.789  19.968  26.740  1.00  0.00     0.004 A 
ATOM     29  C   UNL A   1      40.736  22.214  27.625  1.00  0.00     0.019 A 
ATOM     30  Br  UNL A   1      38.886  24.236  27.000  1.00  0.00    -0.047 Br
ATOM     31  C   UNL A   1      41.296  20.938  27.603  1.00  0.00     0.001 A 
ENDBRANCH  24  25
ENDBRANCH  23  24
ENDBRANCH  21  23
ENDBRANCH  14  19
ENDBRANCH  10  13
ENDBRANCH   4   9
ENDBRANCH   1   3
BRANCH   1  32
ATOM     32  O   UNL A   1      32.433  29.696  24.523  1.00  0.00    -0.458 OA
BRANCH  32  33
ATOM     33  C   UNL A   1      31.280  30.424  24.999  1.00  0.00     0.275 C 
BRANCH  33  34
ATOM     34  C   UNL A   1      31.540  31.088  26.352  1.00  0.00     0.275 C 
BRANCH  34  35
ATOM     35  O   UNL A   1      32.832  30.723  26.874  1.00  0.00    -0.458 OA
BRANCH  35  36
ATOM     36  C   UNL A   1      33.535  31.736  27.431  1.00  0.00     0.338 C 
ATOM     37  O   UNL A   1      33.159  32.881  27.623  1.00  0.00    -0.246 OA
BRANCH  36  38
ATOM     38  C   UNL A   1      34.873  31.281  27.841  1.00  0.00     0.060 A 
ATOM     39  C   UNL A   1      35.081  29.934  28.111  1.00  0.00     0.016 A 
ATOM     40  C   UNL A   1      35.862  32.210  28.157  1.00  0.00     0.016 A 
ATOM     41  C   UNL A   1      36.197  29.524  28.834  1.00  0.00     0.010 A 
ATOM     42  C   UNL A   1      37.050  31.776  28.758  1.00  0.00     0.010 A 
ATOM     43  C   UNL A   1      37.209  30.434  29.153  1.00  0.00    -0.014 A 
BRANCH  43  44
ATOM     44  C   UNL A   1      38.404  29.996  29.931  1.00  0.00     0.031 A 
ATOM     45  C   UNL A   1      38.564  30.418  31.368  1.00  0.00     0.074 A 
ATOM     46  C   UNL A   1      39.343  29.210  29.365  1.00  0.00     0.049 A 
ATOM     47  N   UNL A   1      39.615  30.343  32.146  1.00  0.00    -0.248 NA
ATOM     48  C   UNL A   1      37.387  31.023  32.012  1.00  0.00     0.031 C 
ATOM     49  C   UNL A   1      39.292  28.669  28.006  1.00  0.00     0.029 A 
ATOM     50  N   UNL A   1      40.527  28.727  29.866  1.00  0.00    -0.354 N 
ATOM     51  C   UNL A   1      39.249  30.952  33.340  1.00  0.00     0.074 A 
ATOM     52  C   UNL A   1      37.879  31.392  33.187  1.00  0.00     0.031 C 
ATOM     53  C   UNL A   1      40.369  27.900  27.794  1.00  0.00     0.029 A 
ATOM     54  C   UNL A   1      41.242  27.982  28.958  1.00  0.00     0.049 A 
ATOM     55  H   UNL A   1      40.834  28.896  30.786  1.00  0.00     0.167 HD
ATOM     56  C   UNL A   1      39.993  31.131  34.459  1.00  0.00     0.037 A 
ATOM     57  C   UNL A   1      42.486  27.472  29.025  1.00  0.00     0.037 A 
ATOM     58  C   UNL A   1      41.335  30.632  34.624  1.00  0.00     0.049 A 
ATOM     59  C   UNL A   1      43.306  27.711  30.260  1.00  0.00     0.074 A 
ATOM     60  C   UNL A   1      42.171  30.744  35.720  1.00  0.00     0.029 A 
ATOM     61  N   UNL A   1      42.030  29.908  33.665  1.00  0.00    -0.354 N 
ATOM     62  N   UNL A   1      42.982  28.354  31.355  1.00  0.00    -0.248 NA
ATOM     63  C   UNL A   1      44.673  27.177  30.258  1.00  0.00     0.031 C 
ATOM     64  C   UNL A   1      43.386  30.124  35.411  1.00  0.00     0.029 A 
ATOM     65  C   UNL A   1      43.291  29.581  34.140  1.00  0.00     0.049 A 
ATOM     66  H   UNL A   1      41.681  29.664  32.778  1.00  0.00     0.167 HD
ATOM     67  C   UNL A   1      44.097  28.290  32.179  1.00  0.00     0.074 A 
ATOM     68  C   UNL A   1      45.100  27.529  31.462  1.00  0.00     0.031 C 
ATOM     69  C   UNL A   1      44.275  28.821  33.413  1.00  0.00     0.037 A 
BRANCH  56  70
ATOM     70  C   UNL A   1      39.391  31.935  35.576  1.00  0.00     0.064 A 
ATOM     71  C   UNL A   1      38.539  31.367  36.534  1.00  0.00     0.173 A 
ATOM     72  C   UNL A   1      39.692  33.301  35.699  1.00  0.00     0.173 A 
ATOM     73  F   UNL A   1      38.207  30.069  36.458  1.00  0.00    -0.203 F 
ATOM     74  C   UNL A   1      37.985  32.141  37.552  1.00  0.00     0.198 A 
ATOM     75  C   UNL A   1      39.163  34.065  36.736  1.00  0.00     0.198 A 
ATOM     76  F   UNL A   1      40.507  33.896  34.815  1.00  0.00    -0.203 F 
ATOM     77  F   UNL A   1      37.131  31.588  38.424  1.00  0.00    -0.200 F 
ATOM     78  C   UNL A   1      38.303  33.487  37.656  1.00  0.00     0.200 A 
ATOM     79  F   UNL A   1      39.483  35.363  36.841  1.00  0.00    -0.200 F 
ATOM     80  F   UNL A   1      37.773  34.229  38.639  1.00  0.00    -0.200 F 
ENDBRANCH  56  70
BRANCH  57  81
ATOM     81  C   UNL A   1      43.041  26.730  27.862  1.00  0.00     0.064 A 
ATOM     82  C   UNL A   1      43.625  27.408  26.784  1.00  0.00     0.173 A 
ATOM     83  C   UNL A   1      43.022  25.327  27.817  1.00  0.00     0.173 A 
ATOM     84  F   UNL A   1      43.643  28.749  26.768  1.00  0.00    -0.203 F 
ATOM     85  C   UNL A   1      44.165  26.713  25.704  1.00  0.00     0.198 A 
ATOM     86  C   UNL A   1      43.591  24.632  26.753  1.00  0.00     0.198 A 
ATOM     87  F   UNL A   1      42.474  24.630  28.822  1.00  0.00    -0.203 F 
ATOM     88  F   UNL A   1      44.684  27.385  24.669  1.00  0.00    -0.200 F 
ATOM     89  C   UNL A   1      44.158  25.325  25.695  1.00  0.00     0.200 A 
ATOM     90  F   UNL A   1      43.597  23.292  26.758  1.00  0.00    -0.200 F 
ATOM     91  F   UNL A   1      44.692  24.657  24.664  1.00  0.00    -0.200 F 
ENDBRANCH  57  81
BRANCH  69  92
ATOM     92  C   UNL A   1      45.595  28.565  34.079  1.00  0.00     0.064 A 
ATOM     93  C   UNL A   1      45.799  27.449  34.904  1.00  0.00     0.173 A 
ATOM     94  C   UNL A   1      46.675  29.436  33.869  1.00  0.00     0.173 A 
ATOM     95  F   UNL A   1      44.791  26.598  35.150  1.00  0.00    -0.203 F 
ATOM     96  C   UNL A   1      47.030  27.228  35.513  1.00  0.00     0.198 A 
ATOM     97  C   UNL A   1      47.913  29.195  34.457  1.00  0.00     0.198 A 
ATOM     98  F   UNL A   1      46.531  30.515  33.086  1.00  0.00    -0.203 F 
ATOM     99  F   UNL A   1      47.190  26.181  36.336  1.00  0.00    -0.200 F 
ATOM    100  C   UNL A   1      48.087  28.097  35.284  1.00  0.00     0.200 A 
ATOM    101  F   UNL A   1      48.936  30.030  34.227  1.00  0.00    -0.200 F 
ATOM    102  F   UNL A   1      49.274  27.879  35.869  1.00  0.00    -0.200 F 
ENDBRANCH  69  92
ENDBRANCH  43  44
ENDBRANCH  36  38
ENDBRANCH  35  36
ENDBRANCH  34  35
ENDBRANCH  33  34
ENDBRANCH  32  33
ENDBRANCH   1  32
TORSDOF 17
ENDMDL
MODEL 3
REMARK VINA RESULT:     -11.9      4.800      9.575
REMARK SMILES O=C(COc1ccccc1Br)Nc1cccc(C(=O)Nc2ccc(C(=O)OCCOC(=O)c3ccc(-c4c5nc(c(-c6c(F)c(F)c(F)c(F)c6F)c6ccc([nH]6)c(-c6c(F)c(F)c(F)c(F)c6F)c6nc(c(-c7c(F)c(F)c(F)c(F)c7F)c7ccc4[nH]7)C=C6)C=C5)cc3)cc2)c1
REMARK SMILES IDX 25 1 26 2 24 3 21 4 22 5 97 6 23 7 96 8 20 9 18 10 19 11
REMARK SMILES IDX 17 13 13 14 14 15 98 16 15 17 16 18 12 19 1 20 2 21 3 23
REMARK SMILES IDX 4 24 5 25 6 26 10 27 7 28 9 29 11 30 8 31 27 32 28 33 29 34
REMARK SMILES IDX 30 35 31 36 32 37 33 38 34 39 95 40 35 41 94 42 36 43 37 44
REMARK SMILES IDX 38 45 88 46 39 47 93 48 87 49 89 50 40 51 92 52 86 53 85 54
REMARK SMILES IDX 41 56 73 57 53 58 72 59 54 60 57 61 71 62 90 63 55 64 56 65
REMARK SMILES IDX 70 67 91 68 58 69 42 70 43 71 51 72 44 73 45 74 49 75 52 76
REMARK SMILES IDX 46 77 47 78 50 79 48 80 74 81 75 82 83 83 76 84 77 85 81 86
REMARK SMILES IDX 84 87 78 88 79 89 82 90 80 91 59 92 60 93 68 94 61 95 62 96
REMARK SMILES IDX 66 97 69 98 63 99 64 100 67 101 65 102
REMARK H PARENT 20 12 12 22 89 55 57 66
REMARK Flexibility Score: inf
ROOT
ATOM      1  C   UNL A   1      40.042  21.629  26.124  1.00  0.00     0.338 C 
ATOM      2  O   UNL A   1      40.830  22.512  25.812  1.00  0.00    -0.246 OA
ENDROOT
BRANCH   1   3
ATOM      3  C   UNL A   1      38.617  21.651  25.704  1.00  0.00     0.060 A 
ATOM      4  C   UNL A   1      35.836  21.435  25.603  1.00  0.00     0.041 A 
ATOM      5  C   UNL A   1      36.410  22.600  26.101  1.00  0.00     0.027 A 
ATOM      6  C   UNL A   1      36.639  20.470  24.980  1.00  0.00     0.027 A 
ATOM      7  C   UNL A   1      37.796  22.675  26.201  1.00  0.00     0.018 A 
ATOM      8  C   UNL A   1      38.037  20.582  25.020  1.00  0.00     0.018 A 
BRANCH   4   9
ATOM      9  N   UNL A   1      34.492  21.218  25.940  1.00  0.00    -0.322 N 
ATOM     10  C   UNL A   1      33.359  21.877  25.488  1.00  0.00     0.255 C 
ATOM     11  O   UNL A   1      32.261  21.558  25.946  1.00  0.00    -0.269 OA
ATOM     12  H   UNL A   1      34.329  20.497  26.590  1.00  0.00     0.170 HD
BRANCH  10  13
ATOM     13  C   UNL A   1      33.410  22.915  24.417  1.00  0.00     0.042 A 
ATOM     14  C   UNL A   1      33.297  25.228  23.688  1.00  0.00     0.042 A 
ATOM     15  C   UNL A   1      33.228  24.795  22.361  1.00  0.00     0.026 A 
ATOM     16  C   UNL A   1      33.479  24.284  24.696  1.00  0.00     0.040 A 
ATOM     17  C   UNL A   1      33.336  23.439  22.057  1.00  0.00     0.003 A 
ATOM     18  C   UNL A   1      33.407  22.497  23.084  1.00  0.00     0.014 A 
BRANCH  14  19
ATOM     19  N   UNL A   1      33.153  26.604  23.935  1.00  0.00    -0.323 N 
ATOM     20  O   UNL A   1      30.837  26.843  24.097  1.00  0.00    -0.271 OA
ATOM     21  C   UNL A   1      31.971  27.308  24.114  1.00  0.00     0.262 C 
ATOM     22  H   UNL A   1      33.984  27.129  23.986  1.00  0.00     0.170 HD
BRANCH  21  23
ATOM     23  C   UNL A   1      32.223  28.793  24.353  1.00  0.00     0.329 C 
BRANCH  23  24
ATOM     24  O   UNL A   1      31.734  29.161  25.652  1.00  0.00    -0.483 OA
BRANCH  24  25
ATOM     25  C   UNL A   1      32.748  29.673  26.419  1.00  0.00     0.134 A 
ATOM     26  C   UNL A   1      33.762  28.795  26.810  1.00  0.00     0.047 A 
ATOM     27  C   UNL A   1      32.761  30.999  26.871  1.00  0.00     0.060 A 
ATOM     28  C   UNL A   1      34.814  29.254  27.605  1.00  0.00     0.004 A 
ATOM     29  C   UNL A   1      33.831  31.459  27.639  1.00  0.00     0.019 A 
ATOM     30  Br  UNL A   1      31.352  32.223  26.557  1.00  0.00    -0.047 Br
ATOM     31  C   UNL A   1      34.856  30.587  28.005  1.00  0.00     0.001 A 
ENDBRANCH  24  25
ENDBRANCH  23  24
ENDBRANCH  21  23
ENDBRANCH  14  19
ENDBRANCH  10  13
ENDBRANCH   4   9
ENDBRANCH   1   3
BRANCH   1  32
ATOM     32  O   UNL A   1      40.351  20.548  26.880  1.00  0.00    -0.458 OA
BRANCH  32  33
ATOM     33  C   UNL A   1      40.896  19.441  26.130  1.00  0.00     0.275 C 
BRANCH  33  34
ATOM     34  C   UNL A   1      42.426  19.450  26.124  1.00  0.00     0.275 C 
BRANCH  34  35
ATOM     35  O   UNL A   1      42.944  19.320  24.786  1.00  0.00    -0.458 OA
BRANCH  35  36
ATOM     36  C   UNL A   1      44.291  19.401  24.680  1.00  0.00     0.338 C 
ATOM     37  O   UNL A   1      45.075  18.488  24.482  1.00  0.00    -0.246 OA
BRANCH  36  38
ATOM     38  C   UNL A   1      44.742  20.798  24.801  1.00  0.00     0.060 A 
ATOM     39  C   UNL A   1      45.584  21.152  25.847  1.00  0.00     0.016 A 
ATOM     40  C   UNL A   1      44.169  21.790  24.008  1.00  0.00     0.016 A 
ATOM     41  C   UNL A   1      45.738  22.487  26.208  1.00  0.00     0.010 A 
ATOM     42  C   UNL A   1      44.439  23.135  24.285  1.00  0.00     0.010 A 
ATOM     43  C   UNL A   1      45.183  23.502  25.422  1.00  0.00    -0.014 A 
BRANCH  43  44
ATOM     44  C   UNL A   1      45.344  24.933  25.809  1.00  0.00     0.031 A 
ATOM     45  C   UNL A   1      46.671  25.620  25.623  1.00  0.00     0.074 A 
ATOM     46  C   UNL A   1      44.305  25.629  26.317  1.00  0.00     0.049 A 
ATOM     47  N   UNL A   1      47.087  26.769  26.094  1.00  0.00    -0.248 NA
ATOM     48  C   UNL A   1      47.671  24.912  24.809  1.00  0.00     0.031 C 
ATOM     49  C   UNL A   1      42.945  25.117  26.496  1.00  0.00     0.029 A 
ATOM     50  N   UNL A   1      44.232  26.921  26.777  1.00  0.00    -0.354 N 
ATOM     51  C   UNL A   1      48.414  26.885  25.695  1.00  0.00     0.074 A 
ATOM     52  C   UNL A   1      48.735  25.692  24.943  1.00  0.00     0.031 C 
ATOM     53  C   UNL A   1      42.166  26.091  26.986  1.00  0.00     0.029 A 
ATOM     54  C   UNL A   1      42.992  27.260  27.262  1.00  0.00     0.049 A 
ATOM     55  H   UNL A   1      44.993  27.545  26.758  1.00  0.00     0.167 HD
ATOM     56  C   UNL A   1      49.283  27.896  25.941  1.00  0.00     0.037 A 
ATOM     57  C   UNL A   1      42.573  28.362  27.913  1.00  0.00     0.037 A 
ATOM     58  C   UNL A   1      48.935  29.109  26.637  1.00  0.00     0.049 A 
ATOM     59  C   UNL A   1      43.561  29.454  28.207  1.00  0.00     0.074 A 
ATOM     60  C   UNL A   1      49.734  30.200  26.926  1.00  0.00     0.029 A 
ATOM     61  N   UNL A   1      47.672  29.395  27.138  1.00  0.00    -0.354 N 
ATOM     62  N   UNL A   1      44.832  29.524  27.894  1.00  0.00    -0.248 NA
ATOM     63  C   UNL A   1      43.063  30.608  28.964  1.00  0.00     0.031 C 
ATOM     64  C   UNL A   1      48.967  31.130  27.637  1.00  0.00     0.029 A 
ATOM     65  C   UNL A   1      47.676  30.641  27.748  1.00  0.00     0.049 A 
ATOM     66  H   UNL A   1      46.890  28.802  27.072  1.00  0.00     0.167 HD
ATOM     67  C   UNL A   1      45.283  30.733  28.404  1.00  0.00     0.074 A 
ATOM     68  C   UNL A   1      44.144  31.372  29.030  1.00  0.00     0.031 C 
ATOM     69  C   UNL A   1      46.531  31.262  28.363  1.00  0.00     0.037 A 
BRANCH  56  70
ATOM     70  C   UNL A   1      50.706  27.716  25.496  1.00  0.00     0.064 A 
ATOM     71  C   UNL A   1      51.725  27.327  26.378  1.00  0.00     0.173 A 
ATOM     72  C   UNL A   1      51.051  27.916  24.149  1.00  0.00     0.173 A 
ATOM     73  F   UNL A   1      51.455  27.135  27.678  1.00  0.00    -0.203 F 
ATOM     74  C   UNL A   1      53.039  27.180  25.938  1.00  0.00     0.198 A 
ATOM     75  C   UNL A   1      52.359  27.736  23.705  1.00  0.00     0.198 A 
ATOM     76  F   UNL A   1      50.116  28.281  23.259  1.00  0.00    -0.203 F 
ATOM     77  F   UNL A   1      54.005  26.861  26.810  1.00  0.00    -0.200 F 
ATOM     78  C   UNL A   1      53.353  27.377  24.602  1.00  0.00     0.200 A 
ATOM     79  F   UNL A   1      52.657  27.915  22.410  1.00  0.00    -0.200 F 
ATOM     80  F   UNL A   1      54.617  27.231  24.179  1.00  0.00    -0.200 F 
ENDBRANCH  56  70
BRANCH  57  81
ATOM     81  C   UNL A   1      41.162  28.453  28.373  1.00  0.00     0.064 A 
ATOM     82  C   UNL A   1      40.797  28.057  29.667  1.00  0.00     0.173 A 
ATOM     83  C   UNL A   1      40.156  28.964  27.538  1.00  0.00     0.173 A 
ATOM     84  F   UNL A   1      41.717  27.537  30.492  1.00  0.00    -0.203 F 
ATOM     85  C   UNL A   1      39.478  28.163  30.106  1.00  0.00     0.198 A 
ATOM     86  C   UNL A   1      38.846  29.101  27.990  1.00  0.00     0.198 A 
ATOM     87  F   UNL A   1      40.452  29.357  26.292  1.00  0.00    -0.203 F 
ATOM     88  F   UNL A   1      39.148  27.742  31.333  1.00  0.00    -0.200 F 
ATOM     89  C   UNL A   1      38.506  28.696  29.271  1.00  0.00     0.200 A 
ATOM     90  F   UNL A   1      37.915  29.632  27.185  1.00  0.00    -0.200 F 
ATOM     91  F   UNL A   1      37.243  28.813  29.700  1.00  0.00    -0.200 F 
ENDBRANCH  57  81
BRANCH  69  92
ATOM     92  C   UNL A   1      46.717  32.614  28.985  1.00  0.00     0.064 A 
ATOM     93  C   UNL A   1      46.525  33.794  28.251  1.00  0.00     0.173 A 
ATOM     94  C   UNL A   1      47.069  32.729  30.339  1.00  0.00     0.173 A 
ATOM     95  F   UNL A   1      46.207  33.734  26.949  1.00  0.00    -0.203 F 
ATOM     96  C   UNL A   1      46.702  35.040  28.845  1.00  0.00     0.198 A 
ATOM     97  C   UNL A   1      47.216  33.977  30.935  1.00  0.00     0.198 A 
ATOM     98  F   UNL A   1      47.260  31.630  31.083  1.00  0.00    -0.203 F 
ATOM     99  F   UNL A   1      46.561  36.155  28.113  1.00  0.00    -0.200 F 
ATOM    100  C   UNL A   1      47.041  35.131  30.187  1.00  0.00     0.200 A 
ATOM    101  F   UNL A   1      47.533  34.064  32.235  1.00  0.00    -0.200 F 
ATOM    102  F   UNL A   1      47.206  36.332  30.757  1.00  0.00    -0.200 F 
ENDBRANCH  69  92
ENDBRANCH  43  44
ENDBRANCH  36  38
ENDBRANCH  35  36
ENDBRANCH  34  35
ENDBRANCH  33  34
ENDBRANCH  32  33
ENDBRANCH   1  32
TORSDOF 17
ENDMDL
