MODEL 1
REMARK VINA RESULT:      -9.3      0.000      0.000
REMARK SMILES CCCCOCc1cc(C(=O)OCCOC(=O)c2ccc(-c3c4nc(c(-c5c(F)c(F)c(F)c(F)c5F)c5ccc([nH]5)c(-c5c(F)c(F)c(F)c(F)c5F)c5nc(c(-c6c(F)c(F)c(F)c(F)c6F)c6ccc3[nH]6)C=C5)C=C4)cc2)[nH]n1
REMARK SMILES IDX 12 1 10 2 11 3 9 4 7 5 8 6 82 7 81 8 6 10 5 11 4 12 3 13
REMARK SMILES IDX 2 14 1 15 13 16 14 17 15 18 16 19 17 20 18 21 19 22 80 23
REMARK SMILES IDX 20 24 79 25 21 26 22 27 23 28 73 29 24 30 78 31 72 32 74 33
REMARK SMILES IDX 25 34 77 35 71 36 70 37 26 39 58 40 38 41 57 42 39 43 42 44
REMARK SMILES IDX 56 45 75 46 40 47 41 48 55 50 76 51 43 52 27 53 28 54 36 55
REMARK SMILES IDX 29 56 30 57 34 58 37 59 31 60 32 61 35 62 33 63 59 64 60 65
REMARK SMILES IDX 68 66 61 67 62 68 66 69 69 70 63 71 64 72 67 73 65 74 44 75
REMARK SMILES IDX 45 76 53 77 46 78 47 79 51 80 54 81 48 82 49 83 52 84 50 85
REMARK H PARENT 81 9 74 38 42 49
REMARK Flexibility Score: inf
ROOT
ATOM      1  O   UNL A   1      43.761  19.154  24.478  1.00  0.00    -0.457 OA
ENDROOT
BRANCH   1   2
ATOM      2  C   UNL A   1      45.000  19.510  24.045  1.00  0.00     0.356 C 
ATOM      3  O   UNL A   1      45.709  18.841  23.303  1.00  0.00    -0.244 OA
BRANCH   2   4
ATOM      4  C   UNL A   1      45.344  20.825  24.505  1.00  0.00     0.143 A 
ATOM      5  C   UNL A   1      45.882  22.962  24.851  1.00  0.00     0.089 A 
ATOM      6  C   UNL A   1      45.301  22.070  23.911  1.00  0.00     0.063 A 
ATOM      7  N   UNL A   1      46.199  22.325  25.987  1.00  0.00    -0.177 NA
ATOM      8  N   UNL A   1      45.807  21.063  25.769  1.00  0.00    -0.271 N 
ATOM      9  H   UNL A   1      45.849  20.365  26.460  1.00  0.00     0.190 HD
BRANCH   5  10
ATOM     10  C   UNL A   1      46.158  24.429  24.717  1.00  0.00     0.218 C 
BRANCH  10  11
ATOM     11  O   UNL A   1      45.125  25.306  25.175  1.00  0.00    -0.375 OA
BRANCH  11  12
ATOM     12  C   UNL A   1      45.425  26.698  25.226  1.00  0.00     0.160 C 
BRANCH  12  13
ATOM     13  C   UNL A   1      44.313  27.600  25.763  1.00  0.00     0.028 C 
BRANCH  13  14
ATOM     14  C   UNL A   1      42.896  27.360  25.228  1.00  0.00    -0.001 C 
ATOM     15  C   UNL A   1      41.924  28.504  25.468  1.00  0.00     0.004 C 
ENDBRANCH  13  14
ENDBRANCH  12  13
ENDBRANCH  11  12
ENDBRANCH  10  11
ENDBRANCH   5  10
ENDBRANCH   2   4
ENDBRANCH   1   2
BRANCH   1  16
ATOM     16  C   UNL A   1      43.703  18.440  25.730  1.00  0.00     0.275 C 
BRANCH  16  17
ATOM     17  C   UNL A   1      42.371  18.618  26.468  1.00  0.00     0.275 C 
BRANCH  17  18
ATOM     18  O   UNL A   1      41.376  19.261  25.647  1.00  0.00    -0.458 OA
BRANCH  18  19
ATOM     19  C   UNL A   1      40.635  20.193  26.286  1.00  0.00     0.338 C 
ATOM     20  O   UNL A   1      39.464  20.104  26.615  1.00  0.00    -0.246 OA
BRANCH  19  21
ATOM     21  C   UNL A   1      41.469  21.326  26.719  1.00  0.00     0.060 A 
ATOM     22  C   UNL A   1      41.487  21.586  28.087  1.00  0.00     0.016 A 
ATOM     23  C   UNL A   1      42.045  22.229  25.828  1.00  0.00     0.016 A 
ATOM     24  C   UNL A   1      42.016  22.770  28.581  1.00  0.00     0.010 A 
ATOM     25  C   UNL A   1      42.615  23.412  26.327  1.00  0.00     0.010 A 
ATOM     26  C   UNL A   1      42.567  23.711  27.705  1.00  0.00    -0.014 A 
BRANCH  26  27
ATOM     27  C   UNL A   1      42.960  25.044  28.243  1.00  0.00     0.031 A 
ATOM     28  C   UNL A   1      41.904  26.081  28.519  1.00  0.00     0.074 A 
ATOM     29  C   UNL A   1      44.241  25.295  28.579  1.00  0.00     0.049 A 
ATOM     30  N   UNL A   1      42.037  27.321  28.921  1.00  0.00    -0.248 NA
ATOM     31  C   UNL A   1      40.507  25.671  28.310  1.00  0.00     0.031 C 
ATOM     32  C   UNL A   1      45.353  24.355  28.432  1.00  0.00     0.029 A 
ATOM     33  N   UNL A   1      44.821  26.410  29.134  1.00  0.00    -0.354 N 
ATOM     34  C   UNL A   1      40.752  27.849  28.963  1.00  0.00     0.074 A 
ATOM     35  C   UNL A   1      39.853  26.800  28.533  1.00  0.00     0.031 C 
ATOM     36  C   UNL A   1      46.472  24.919  28.914  1.00  0.00     0.029 A 
ATOM     37  C   UNL A   1      46.173  26.284  29.338  1.00  0.00     0.049 A 
ATOM     38  H   UNL A   1      44.315  27.223  29.363  1.00  0.00     0.167 HD
ATOM     39  C   UNL A   1      40.358  29.092  29.332  1.00  0.00     0.037 A 
ATOM     40  C   UNL A   1      47.077  27.175  29.788  1.00  0.00     0.037 A 
ATOM     41  C   UNL A   1      41.250  30.117  29.809  1.00  0.00     0.049 A 
ATOM     42  C   UNL A   1      46.617  28.558  30.165  1.00  0.00     0.074 A 
ATOM     43  C   UNL A   1      40.951  31.410  30.204  1.00  0.00     0.029 A 
ATOM     44  N   UNL A   1      42.619  29.957  29.975  1.00  0.00    -0.354 N 
ATOM     45  N   UNL A   1      45.408  29.063  30.149  1.00  0.00    -0.248 NA
ATOM     46  C   UNL A   1      47.653  29.497  30.618  1.00  0.00     0.031 C 
ATOM     47  C   UNL A   1      42.144  32.044  30.571  1.00  0.00     0.029 A 
ATOM     48  C   UNL A   1      43.178  31.130  30.459  1.00  0.00     0.049 A 
ATOM     49  H   UNL A   1      43.119  29.132  29.778  1.00  0.00     0.167 HD
ATOM     50  C   UNL A   1      45.531  30.364  30.618  1.00  0.00     0.074 A 
ATOM     51  C   UNL A   1      46.933  30.565  30.924  1.00  0.00     0.031 C 
ATOM     52  C   UNL A   1      44.572  31.308  30.778  1.00  0.00     0.037 A 
BRANCH  39  53
ATOM     53  C   UNL A   1      38.899  29.426  29.196  1.00  0.00     0.064 A 
ATOM     54  C   UNL A   1      38.292  29.627  27.948  1.00  0.00     0.173 A 
ATOM     55  C   UNL A   1      38.092  29.529  30.340  1.00  0.00     0.173 A 
ATOM     56  F   UNL A   1      39.020  29.557  26.823  1.00  0.00    -0.203 F 
ATOM     57  C   UNL A   1      36.940  29.952  27.852  1.00  0.00     0.198 A 
ATOM     58  C   UNL A   1      36.734  29.821  30.239  1.00  0.00     0.198 A 
ATOM     59  F   UNL A   1      38.619  29.341  31.560  1.00  0.00    -0.203 F 
ATOM     60  F   UNL A   1      36.394  30.195  26.652  1.00  0.00    -0.200 F 
ATOM     61  C   UNL A   1      36.161  30.041  28.996  1.00  0.00     0.200 A 
ATOM     62  F   UNL A   1      35.981  29.893  31.346  1.00  0.00    -0.200 F 
ATOM     63  F   UNL A   1      34.860  30.348  28.901  1.00  0.00    -0.200 F 
ENDBRANCH  39  53
BRANCH  40  64
ATOM     64  C   UNL A   1      48.513  26.797  29.885  1.00  0.00     0.064 A 
ATOM     65  C   UNL A   1      49.410  27.080  28.847  1.00  0.00     0.173 A 
ATOM     66  C   UNL A   1      49.012  26.130  31.014  1.00  0.00     0.173 A 
ATOM     67  F   UNL A   1      48.977  27.692  27.735  1.00  0.00    -0.203 F 
ATOM     68  C   UNL A   1      50.748  26.693  28.925  1.00  0.00     0.198 A 
ATOM     69  C   UNL A   1      50.357  25.775  31.106  1.00  0.00     0.198 A 
ATOM     70  F   UNL A   1      48.196  25.833  32.036  1.00  0.00    -0.203 F 
ATOM     71  F   UNL A   1      51.572  26.930  27.895  1.00  0.00    -0.200 F 
ATOM     72  C   UNL A   1      51.220  26.048  30.057  1.00  0.00     0.200 A 
ATOM     73  F   UNL A   1      50.811  25.164  32.208  1.00  0.00    -0.200 F 
ATOM     74  F   UNL A   1      52.506  25.681  30.133  1.00  0.00    -0.200 F 
ENDBRANCH  40  64
BRANCH  52  75
ATOM     75  C   UNL A   1      44.997  32.623  31.367  1.00  0.00     0.064 A 
ATOM     76  C   UNL A   1      45.417  33.695  30.567  1.00  0.00     0.173 A 
ATOM     77  C   UNL A   1      44.973  32.812  32.758  1.00  0.00     0.173 A 
ATOM     78  F   UNL A   1      45.471  33.561  29.232  1.00  0.00    -0.203 F 
ATOM     79  C   UNL A   1      45.835  34.894  31.138  1.00  0.00     0.198 A 
ATOM     80  C   UNL A   1      45.360  34.023  33.323  1.00  0.00     0.198 A 
ATOM     81  F   UNL A   1      44.572  31.821  33.569  1.00  0.00    -0.203 F 
ATOM     82  F   UNL A   1      46.292  35.883  30.357  1.00  0.00    -0.200 F 
ATOM     83  C   UNL A   1      45.802  35.059  32.515  1.00  0.00     0.200 A 
ATOM     84  F   UNL A   1      45.315  34.185  34.653  1.00  0.00    -0.200 F 
ATOM     85  F   UNL A   1      46.206  36.213  33.063  1.00  0.00    -0.200 F 
ENDBRANCH  52  75
ENDBRANCH  26  27
ENDBRANCH  19  21
ENDBRANCH  18  19
ENDBRANCH  17  18
ENDBRANCH  16  17
ENDBRANCH   1  16
TORSDOF 16
ENDMDL
MODEL 2
REMARK VINA RESULT:      -9.1      5.377     10.608
REMARK SMILES CCCCOCc1cc(C(=O)OCCOC(=O)c2ccc(-c3c4nc(c(-c5c(F)c(F)c(F)c(F)c5F)c5ccc([nH]5)c(-c5c(F)c(F)c(F)c(F)c5F)c5nc(c(-c6c(F)c(F)c(F)c(F)c6F)c6ccc3[nH]6)C=C5)C=C4)cc2)[nH]n1
REMARK SMILES IDX 12 1 10 2 11 3 9 4 7 5 8 6 82 7 81 8 6 10 5 11 4 12 3 13
REMARK SMILES IDX 2 14 1 15 13 16 14 17 15 18 16 19 17 20 18 21 19 22 80 23
REMARK SMILES IDX 20 24 79 25 21 26 22 27 23 28 73 29 24 30 78 31 72 32 74 33
REMARK SMILES IDX 25 34 77 35 71 36 70 37 26 39 58 40 38 41 57 42 39 43 42 44
REMARK SMILES IDX 56 45 75 46 40 47 41 48 55 50 76 51 43 52 27 53 28 54 36 55
REMARK SMILES IDX 29 56 30 57 34 58 37 59 31 60 32 61 35 62 33 63 59 64 60 65
REMARK SMILES IDX 68 66 61 67 62 68 66 69 69 70 63 71 64 72 67 73 65 74 44 75
REMARK SMILES IDX 45 76 53 77 46 78 47 79 51 80 54 81 48 82 49 83 52 84 50 85
REMARK H PARENT 81 9 74 38 42 49
REMARK Flexibility Score: inf
ROOT
ATOM      1  O   UNL A   1      32.679  34.563  29.642  1.00  0.00    -0.457 OA
ENDROOT
BRANCH   1   2
ATOM      2  C   UNL A   1      32.947  35.720  30.304  1.00  0.00     0.356 C 
ATOM      3  O   UNL A   1      32.527  36.827  29.989  1.00  0.00    -0.244 OA
BRANCH   2   4
ATOM      4  C   UNL A   1      33.723  35.468  31.483  1.00  0.00     0.143 A 
ATOM      5  C   UNL A   1      34.741  34.749  33.333  1.00  0.00     0.089 A 
ATOM      6  C   UNL A   1      34.003  34.322  32.198  1.00  0.00     0.063 A 
ATOM      7  N   UNL A   1      34.969  36.070  33.289  1.00  0.00    -0.177 NA
ATOM      8  N   UNL A   1      34.402  36.457  32.141  1.00  0.00    -0.271 N 
ATOM      9  H   UNL A   1      34.467  37.376  31.797  1.00  0.00     0.190 HD
BRANCH   5  10
ATOM     10  C   UNL A   1      35.251  33.943  34.489  1.00  0.00     0.218 C 
BRANCH  10  11
ATOM     11  O   UNL A   1      35.899  32.711  34.157  1.00  0.00    -0.375 OA
BRANCH  11  12
ATOM     12  C   UNL A   1      37.186  32.791  33.554  1.00  0.00     0.160 C 
BRANCH  12  13
ATOM     13  C   UNL A   1      38.146  33.813  34.164  1.00  0.00     0.028 C 
BRANCH  13  14
ATOM     14  C   UNL A   1      39.212  34.413  33.240  1.00  0.00    -0.001 C 
ATOM     15  C   UNL A   1      38.783  34.564  31.789  1.00  0.00     0.004 C 
ENDBRANCH  13  14
ENDBRANCH  12  13
ENDBRANCH  11  12
ENDBRANCH  10  11
ENDBRANCH   5  10
ENDBRANCH   2   4
ENDBRANCH   1   2
BRANCH   1  16
ATOM     16  C   UNL A   1      33.497  34.285  28.487  1.00  0.00     0.275 C 
BRANCH  16  17
ATOM     17  C   UNL A   1      34.621  33.280  28.767  1.00  0.00     0.275 C 
BRANCH  17  18
ATOM     18  O   UNL A   1      34.902  32.446  27.625  1.00  0.00    -0.458 OA
BRANCH  18  19
ATOM     19  C   UNL A   1      34.585  31.142  27.788  1.00  0.00     0.338 C 
ATOM     20  O   UNL A   1      33.492  30.624  27.628  1.00  0.00    -0.246 OA
BRANCH  19  21
ATOM     21  C   UNL A   1      35.790  30.332  28.030  1.00  0.00     0.060 A 
ATOM     22  C   UNL A   1      35.867  29.704  29.272  1.00  0.00     0.016 A 
ATOM     23  C   UNL A   1      36.894  30.340  27.181  1.00  0.00     0.016 A 
ATOM     24  C   UNL A   1      37.055  29.138  29.711  1.00  0.00     0.010 A 
ATOM     25  C   UNL A   1      38.089  29.735  27.608  1.00  0.00     0.010 A 
ATOM     26  C   UNL A   1      38.190  29.166  28.894  1.00  0.00    -0.014 A 
BRANCH  26  27
ATOM     27  C   UNL A   1      39.491  28.714  29.463  1.00  0.00     0.031 A 
ATOM     28  C   UNL A   1      40.065  29.413  30.668  1.00  0.00     0.074 A 
ATOM     29  C   UNL A   1      40.111  27.623  28.970  1.00  0.00     0.049 A 
ATOM     30  N   UNL A   1      41.210  29.224  31.275  1.00  0.00    -0.248 NA
ATOM     31  C   UNL A   1      39.240  30.471  31.270  1.00  0.00     0.031 C 
ATOM     32  C   UNL A   1      39.630  26.811  27.852  1.00  0.00     0.029 A 
ATOM     33  N   UNL A   1      41.270  26.997  29.360  1.00  0.00    -0.354 N 
ATOM     34  C   UNL A   1      41.263  30.169  32.292  1.00  0.00     0.074 A 
ATOM     35  C   UNL A   1      40.042  30.940  32.213  1.00  0.00     0.031 C 
ATOM     36  C   UNL A   1      40.467  25.777  27.668  1.00  0.00     0.029 A 
ATOM     37  C   UNL A   1      41.580  25.893  28.605  1.00  0.00     0.049 A 
ATOM     38  H   UNL A   1      41.826  27.311  30.110  1.00  0.00     0.167 HD
ATOM     39  C   UNL A   1      42.239  30.371  33.211  1.00  0.00     0.037 A 
ATOM     40  C   UNL A   1      42.654  25.081  28.643  1.00  0.00     0.037 A 
ATOM     41  C   UNL A   1      43.429  29.568  33.319  1.00  0.00     0.049 A 
ATOM     42  C   UNL A   1      43.736  25.344  29.655  1.00  0.00     0.074 A 
ATOM     43  C   UNL A   1      44.480  29.693  34.213  1.00  0.00     0.029 A 
ATOM     44  N   UNL A   1      43.719  28.473  32.517  1.00  0.00    -0.354 N 
ATOM     45  N   UNL A   1      43.802  26.273  30.577  1.00  0.00    -0.248 NA
ATOM     46  C   UNL A   1      44.898  24.445  29.628  1.00  0.00     0.031 C 
ATOM     47  C   UNL A   1      45.422  28.699  33.925  1.00  0.00     0.029 A 
ATOM     48  C   UNL A   1      44.934  27.920  32.889  1.00  0.00     0.049 A 
ATOM     49  H   UNL A   1      43.145  28.140  31.789  1.00  0.00     0.167 HD
ATOM     50  C   UNL A   1      44.992  26.054  31.258  1.00  0.00     0.074 A 
ATOM     51  C   UNL A   1      45.609  24.892  30.652  1.00  0.00     0.031 C 
ATOM     52  C   UNL A   1      45.527  26.752  32.289  1.00  0.00     0.037 A 
BRANCH  39  53
ATOM     53  C   UNL A   1      42.077  31.533  34.150  1.00  0.00     0.064 A 
ATOM     54  C   UNL A   1      42.666  32.782  33.902  1.00  0.00     0.173 A 
ATOM     55  C   UNL A   1      41.302  31.396  35.312  1.00  0.00     0.173 A 
ATOM     56  F   UNL A   1      43.431  32.963  32.813  1.00  0.00    -0.203 F 
ATOM     57  C   UNL A   1      42.513  33.838  34.797  1.00  0.00     0.198 A 
ATOM     58  C   UNL A   1      41.123  32.464  36.188  1.00  0.00     0.198 A 
ATOM     59  F   UNL A   1      40.710  30.226  35.597  1.00  0.00    -0.203 F 
ATOM     60  F   UNL A   1      43.132  35.005  34.567  1.00  0.00    -0.200 F 
ATOM     61  C   UNL A   1      41.736  33.680  35.935  1.00  0.00     0.200 A 
ATOM     62  F   UNL A   1      40.361  32.312  37.281  1.00  0.00    -0.200 F 
ATOM     63  F   UNL A   1      41.587  34.699  36.793  1.00  0.00    -0.200 F 
ENDBRANCH  39  53
BRANCH  40  64
ATOM     64  C   UNL A   1      42.772  23.955  27.678  1.00  0.00     0.064 A 
ATOM     65  C   UNL A   1      42.385  22.654  28.028  1.00  0.00     0.173 A 
ATOM     66  C   UNL A   1      43.291  24.155  26.390  1.00  0.00     0.173 A 
ATOM     67  F   UNL A   1      41.908  22.405  29.257  1.00  0.00    -0.203 F 
ATOM     68  C   UNL A   1      42.530  21.594  27.134  1.00  0.00     0.198 A 
ATOM     69  C   UNL A   1      43.403  23.101  25.485  1.00  0.00     0.198 A 
ATOM     70  F   UNL A   1      43.678  25.380  26.003  1.00  0.00    -0.203 F 
ATOM     71  F   UNL A   1      42.201  20.351  27.512  1.00  0.00    -0.200 F 
ATOM     72  C   UNL A   1      43.032  21.820  25.862  1.00  0.00     0.200 A 
ATOM     73  F   UNL A   1      43.875  23.329  24.252  1.00  0.00    -0.200 F 
ATOM     74  F   UNL A   1      43.167  20.802  25.001  1.00  0.00    -0.200 F 
ENDBRANCH  40  64
BRANCH  52  75
ATOM     75  C   UNL A   1      46.815  26.239  32.868  1.00  0.00     0.064 A 
ATOM     76  C   UNL A   1      48.063  26.696  32.422  1.00  0.00     0.173 A 
ATOM     77  C   UNL A   1      46.795  25.281  33.893  1.00  0.00     0.173 A 
ATOM     78  F   UNL A   1      48.137  27.602  31.434  1.00  0.00    -0.203 F 
ATOM     79  C   UNL A   1      49.244  26.184  32.952  1.00  0.00     0.198 A 
ATOM     80  C   UNL A   1      47.977  24.795  34.443  1.00  0.00     0.198 A 
ATOM     81  F   UNL A   1      45.626  24.816  34.361  1.00  0.00    -0.203 F 
ATOM     82  F   UNL A   1      50.426  26.589  32.467  1.00  0.00    -0.200 F 
ATOM     83  C   UNL A   1      49.200  25.237  33.965  1.00  0.00     0.200 A 
ATOM     84  F   UNL A   1      47.931  23.891  35.432  1.00  0.00    -0.200 F 
ATOM     85  F   UNL A   1      50.338  24.744  34.474  1.00  0.00    -0.200 F 
ENDBRANCH  52  75
ENDBRANCH  26  27
ENDBRANCH  19  21
ENDBRANCH  18  19
ENDBRANCH  17  18
ENDBRANCH  16  17
ENDBRANCH   1  16
TORSDOF 16
ENDMDL
MODEL 3
REMARK VINA RESULT:      -9.0      3.963      9.338
REMARK SMILES CCCCOCc1cc(C(=O)OCCOC(=O)c2ccc(-c3c4nc(c(-c5c(F)c(F)c(F)c(F)c5F)c5ccc([nH]5)c(-c5c(F)c(F)c(F)c(F)c5F)c5nc(c(-c6c(F)c(F)c(F)c(F)c6F)c6ccc3[nH]6)C=C5)C=C4)cc2)[nH]n1
REMARK SMILES IDX 12 1 10 2 11 3 9 4 7 5 8 6 82 7 81 8 6 10 5 11 4 12 3 13
REMARK SMILES IDX 2 14 1 15 13 16 14 17 15 18 16 19 17 20 18 21 19 22 80 23
REMARK SMILES IDX 20 24 79 25 21 26 22 27 23 28 73 29 24 30 78 31 72 32 74 33
REMARK SMILES IDX 25 34 77 35 71 36 70 37 26 39 58 40 38 41 57 42 39 43 42 44
REMARK SMILES IDX 56 45 75 46 40 47 41 48 55 50 76 51 43 52 27 53 28 54 36 55
REMARK SMILES IDX 29 56 30 57 34 58 37 59 31 60 32 61 35 62 33 63 59 64 60 65
REMARK SMILES IDX 68 66 61 67 62 68 66 69 69 70 63 71 64 72 67 73 65 74 44 75
REMARK SMILES IDX 45 76 53 77 46 78 47 79 51 80 54 81 48 82 49 83 52 84 50 85
REMARK H PARENT 81 9 74 38 42 49
REMARK Flexibility Score: inf
ROOT
ATOM      1  O   UNL A   1      34.705  21.240  24.801  1.00  0.00    -0.457 OA
ENDROOT
BRANCH   1   2
ATOM      2  C   UNL A   1      33.526  20.730  25.248  1.00  0.00     0.356 C 
ATOM      3  O   UNL A   1      33.239  19.540  25.282  1.00  0.00    -0.244 OA
BRANCH   2   4
ATOM      4  C   UNL A   1      32.681  21.769  25.761  1.00  0.00     0.143 A 
ATOM      5  C   UNL A   1      31.370  23.519  26.204  1.00  0.00     0.089 A 
ATOM      6  C   UNL A   1      31.847  22.687  25.157  1.00  0.00     0.063 A 
ATOM      7  N   UNL A   1      31.821  23.099  27.394  1.00  0.00    -0.177 NA
ATOM      8  N   UNL A   1      32.550  22.016  27.099  1.00  0.00    -0.271 N 
ATOM      9  H   UNL A   1      32.958  21.444  27.788  1.00  0.00     0.190 HD
BRANCH   5  10
ATOM     10  C   UNL A   1      30.485  24.726  26.126  1.00  0.00     0.218 C 
BRANCH  10  11
ATOM     11  O   UNL A   1      30.986  25.912  26.749  1.00  0.00    -0.375 OA
BRANCH  11  12
ATOM     12  C   UNL A   1      31.753  26.801  25.943  1.00  0.00     0.160 C 
BRANCH  12  13
ATOM     13  C   UNL A   1      33.270  26.725  26.126  1.00  0.00     0.028 C 
BRANCH  13  14
ATOM     14  C   UNL A   1      34.050  25.842  25.145  1.00  0.00    -0.001 C 
ATOM     15  C   UNL A   1      33.449  25.755  23.751  1.00  0.00     0.004 C 
ENDBRANCH  13  14
ENDBRANCH  12  13
ENDBRANCH  11  12
ENDBRANCH  10  11
ENDBRANCH   5  10
ENDBRANCH   2   4
ENDBRANCH   1   2
BRANCH   1  16
ATOM     16  C   UNL A   1      35.815  21.180  25.720  1.00  0.00     0.275 C 
BRANCH  16  17
ATOM     17  C   UNL A   1      37.124  20.728  25.061  1.00  0.00     0.275 C 
BRANCH  17  18
ATOM     18  O   UNL A   1      38.163  21.722  25.177  1.00  0.00    -0.458 OA
BRANCH  18  19
ATOM     19  C   UNL A   1      39.154  21.401  26.037  1.00  0.00     0.338 C 
ATOM     20  O   UNL A   1      39.731  20.330  26.131  1.00  0.00    -0.246 OA
BRANCH  19  21
ATOM     21  C   UNL A   1      39.614  22.586  26.781  1.00  0.00     0.060 A 
ATOM     22  C   UNL A   1      38.991  23.790  26.460  1.00  0.00     0.016 A 
ATOM     23  C   UNL A   1      40.738  22.577  27.603  1.00  0.00     0.016 A 
ATOM     24  C   UNL A   1      39.512  25.000  26.896  1.00  0.00     0.010 A 
ATOM     25  C   UNL A   1      41.247  23.798  28.077  1.00  0.00     0.010 A 
ATOM     26  C   UNL A   1      40.663  25.022  27.692  1.00  0.00    -0.014 A 
BRANCH  26  27
ATOM     27  C   UNL A   1      41.299  26.336  27.992  1.00  0.00     0.031 A 
ATOM     28  C   UNL A   1      42.680  26.635  27.471  1.00  0.00     0.074 A 
ATOM     29  C   UNL A   1      40.611  27.297  28.640  1.00  0.00     0.049 A 
ATOM     30  N   UNL A   1      43.439  27.684  27.674  1.00  0.00    -0.248 NA
ATOM     31  C   UNL A   1      43.294  25.614  26.608  1.00  0.00     0.031 C 
ATOM     32  C   UNL A   1      39.241  27.167  29.137  1.00  0.00     0.029 A 
ATOM     33  N   UNL A   1      40.964  28.582  28.975  1.00  0.00    -0.354 N 
ATOM     34  C   UNL A   1      44.632  27.425  27.009  1.00  0.00     0.074 A 
ATOM     35  C   UNL A   1      44.503  26.116  26.407  1.00  0.00     0.031 C 
ATOM     36  C   UNL A   1      38.858  28.332  29.682  1.00  0.00     0.029 A 
ATOM     37  C   UNL A   1      39.977  29.269  29.638  1.00  0.00     0.049 A 
ATOM     38  H   UNL A   1      41.841  28.973  28.759  1.00  0.00     0.167 HD
ATOM     39  C   UNL A   1      45.731  28.211  26.906  1.00  0.00     0.037 A 
ATOM     40  C   UNL A   1      39.981  30.503  30.177  1.00  0.00     0.037 A 
ATOM     41  C   UNL A   1      45.837  29.536  27.462  1.00  0.00     0.049 A 
ATOM     42  C   UNL A   1      41.224  31.344  30.072  1.00  0.00     0.074 A 
ATOM     43  C   UNL A   1      46.908  30.411  27.415  1.00  0.00     0.029 A 
ATOM     44  N   UNL A   1      44.823  30.185  28.151  1.00  0.00    -0.354 N 
ATOM     45  N   UNL A   1      42.365  31.069  29.489  1.00  0.00    -0.248 NA
ATOM     46  C   UNL A   1      41.181  32.669  30.708  1.00  0.00     0.031 C 
ATOM     47  C   UNL A   1      46.556  31.574  28.111  1.00  0.00     0.029 A 
ATOM     48  C   UNL A   1      45.246  31.446  28.542  1.00  0.00     0.049 A 
ATOM     49  H   UNL A   1      43.933  29.805  28.336  1.00  0.00     0.167 HD
ATOM     50  C   UNL A   1      43.162  32.193  29.658  1.00  0.00     0.074 A 
ATOM     51  C   UNL A   1      42.368  33.161  30.386  1.00  0.00     0.031 C 
ATOM     52  C   UNL A   1      44.437  32.405  29.250  1.00  0.00     0.037 A 
BRANCH  39  53
ATOM     53  C   UNL A   1      46.927  27.641  26.195  1.00  0.00     0.064 A 
ATOM     54  C   UNL A   1      47.055  27.682  24.798  1.00  0.00     0.173 A 
ATOM     55  C   UNL A   1      47.971  27.059  26.930  1.00  0.00     0.173 A 
ATOM     56  F   UNL A   1      46.079  28.213  24.046  1.00  0.00    -0.203 F 
ATOM     57  C   UNL A   1      48.167  27.133  24.164  1.00  0.00     0.198 A 
ATOM     58  C   UNL A   1      49.097  26.541  26.295  1.00  0.00     0.198 A 
ATOM     59  F   UNL A   1      47.904  26.998  28.269  1.00  0.00    -0.203 F 
ATOM     60  F   UNL A   1      48.242  27.133  22.826  1.00  0.00    -0.200 F 
ATOM     61  C   UNL A   1      49.190  26.570  24.913  1.00  0.00     0.200 A 
ATOM     62  F   UNL A   1      50.090  26.009  27.023  1.00  0.00    -0.200 F 
ATOM     63  F   UNL A   1      50.261  26.045  24.301  1.00  0.00    -0.200 F 
ENDBRANCH  39  53
BRANCH  40  64
ATOM     64  C   UNL A   1      38.776  31.011  30.887  1.00  0.00     0.064 A 
ATOM     65  C   UNL A   1      38.657  30.911  32.280  1.00  0.00     0.173 A 
ATOM     66  C   UNL A   1      37.710  31.592  30.182  1.00  0.00     0.173 A 
ATOM     67  F   UNL A   1      39.636  30.339  32.996  1.00  0.00    -0.203 F 
ATOM     68  C   UNL A   1      37.512  31.355  32.939  1.00  0.00     0.198 A 
ATOM     69  C   UNL A   1      36.581  32.067  30.846  1.00  0.00     0.198 A 
ATOM     70  F   UNL A   1      37.771  31.710  28.848  1.00  0.00    -0.203 F 
ATOM     71  F   UNL A   1      37.402  31.200  34.265  1.00  0.00    -0.200 F 
ATOM     72  C   UNL A   1      36.479  31.939  32.222  1.00  0.00     0.200 A 
ATOM     73  F   UNL A   1      35.592  32.643  30.150  1.00  0.00    -0.200 F 
ATOM     74  F   UNL A   1      35.380  32.370  32.857  1.00  0.00    -0.200 F 
ENDBRANCH  40  64
BRANCH  52  75
ATOM     75  C   UNL A   1      45.029  33.757  29.528  1.00  0.00     0.064 A 
ATOM     76  C   UNL A   1      45.754  34.025  30.698  1.00  0.00     0.173 A 
ATOM     77  C   UNL A   1      44.874  34.798  28.599  1.00  0.00     0.173 A 
ATOM     78  F   UNL A   1      45.919  33.067  31.624  1.00  0.00    -0.203 F 
ATOM     79  C   UNL A   1      46.267  35.295  30.948  1.00  0.00     0.198 A 
ATOM     80  C   UNL A   1      45.417  36.058  28.837  1.00  0.00     0.198 A 
ATOM     81  F   UNL A   1      44.196  34.594  27.460  1.00  0.00    -0.203 F 
ATOM     82  F   UNL A   1      46.902  35.544  32.101  1.00  0.00    -0.200 F 
ATOM     83  C   UNL A   1      46.102  36.309  30.015  1.00  0.00     0.200 A 
ATOM     84  F   UNL A   1      45.268  37.032  27.928  1.00  0.00    -0.200 F 
ATOM     85  F   UNL A   1      46.596  37.531  30.257  1.00  0.00    -0.200 F 
ENDBRANCH  52  75
ENDBRANCH  26  27
ENDBRANCH  19  21
ENDBRANCH  18  19
ENDBRANCH  17  18
ENDBRANCH  16  17
ENDBRANCH   1  16
TORSDOF 16
ENDMDL
