MODEL 1
REMARK VINA RESULT:     -12.3      0.000      0.000
REMARK SMILES O=C(OCCOC(=O)C1CCN(C(=O)COc2ccc(Cl)cc2Cl)CC1)c1ccc(-c2c3nc(c(-c4c(F)c(F)c(F)c(F)c4F)c4ccc([nH]4)c(-c4c(F)c(F)c(F)c(F)c4F)c4nc(c(-c5c(F)c(F)c(F)c(F)c5F)c5ccc2[nH]5)C=C4)C=C3)cc1
REMARK SMILES IDX 5 1 4 2 3 3 2 4 1 5 27 6 28 7 89 8 29 9 88 10 30 11 31 12
REMARK SMILES IDX 32 13 82 14 33 15 87 16 81 17 83 18 34 19 86 20 80 21 79 22
REMARK SMILES IDX 35 24 67 25 47 26 66 27 48 28 51 29 65 30 84 31 49 32 50 33
REMARK SMILES IDX 64 35 85 36 52 37 36 38 37 39 45 40 38 41 39 42 43 43 46 44
REMARK SMILES IDX 40 45 41 46 44 47 42 48 68 49 69 50 77 51 70 52 71 53 75 54
REMARK SMILES IDX 78 55 72 56 73 57 76 58 74 59 53 60 54 61 62 62 55 63 56 64
REMARK SMILES IDX 60 65 63 66 57 67 58 68 61 69 59 70 6 71 7 72 8 73 9 74
REMARK SMILES IDX 10 75 26 76 11 77 25 78 12 79 13 80 14 81 15 82 16 83 17 84
REMARK SMILES IDX 18 85 23 86 19 87 22 88 24 89 20 90 21 91
REMARK H PARENT 83 23 51 34
REMARK Flexibility Score: inf
ROOT
ATOM      1  C   UNL A   1      31.765  30.805  26.117  1.00  0.00     0.274 C 
ENDROOT
BRANCH   1   2
ATOM      2  C   UNL A   1      31.401  32.078  26.893  1.00  0.00     0.275 C 
BRANCH   2   3
ATOM      3  O   UNL A   1      32.405  33.092  26.875  1.00  0.00    -0.458 OA
BRANCH   3   4
ATOM      4  C   UNL A   1      33.203  33.521  27.873  1.00  0.00     0.338 C 
ATOM      5  O   UNL A   1      32.854  34.530  28.488  1.00  0.00    -0.246 OA
BRANCH   4   6
ATOM      6  C   UNL A   1      34.524  32.906  28.249  1.00  0.00     0.060 A 
ATOM      7  C   UNL A   1      35.796  33.495  28.287  1.00  0.00     0.016 A 
ATOM      8  C   UNL A   1      34.437  31.574  28.666  1.00  0.00     0.016 A 
ATOM      9  C   UNL A   1      36.918  32.817  28.807  1.00  0.00     0.010 A 
ATOM     10  C   UNL A   1      35.530  30.927  29.237  1.00  0.00     0.010 A 
ATOM     11  C   UNL A   1      36.789  31.539  29.344  1.00  0.00    -0.014 A 
BRANCH  11  12
ATOM     12  C   UNL A   1      37.895  30.806  30.039  1.00  0.00     0.031 A 
ATOM     13  C   UNL A   1      38.229  31.198  31.457  1.00  0.00     0.074 A 
ATOM     14  C   UNL A   1      38.722  29.955  29.390  1.00  0.00     0.049 A 
ATOM     15  N   UNL A   1      39.288  30.931  32.179  1.00  0.00    -0.248 NA
ATOM     16  C   UNL A   1      37.277  32.110  32.116  1.00  0.00     0.031 C 
ATOM     17  C   UNL A   1      38.630  29.549  27.985  1.00  0.00     0.029 A 
ATOM     18  N   UNL A   1      39.859  29.315  29.832  1.00  0.00    -0.354 N 
ATOM     19  C   UNL A   1      39.149  31.708  33.319  1.00  0.00     0.074 A 
ATOM     20  C   UNL A   1      38.015  32.576  33.106  1.00  0.00     0.031 C 
ATOM     21  C   UNL A   1      39.676  28.763  27.675  1.00  0.00     0.029 A 
ATOM     22  C   UNL A   1      40.512  28.594  28.858  1.00  0.00     0.049 A 
ATOM     23  H   UNL A   1      40.177  29.368  30.762  1.00  0.00     0.167 HD
ATOM     24  C   UNL A   1      39.818  31.633  34.494  1.00  0.00     0.037 A 
ATOM     25  C   UNL A   1      41.648  27.870  28.921  1.00  0.00     0.037 A 
ATOM     26  C   UNL A   1      40.854  30.678  34.750  1.00  0.00     0.049 A 
ATOM     27  C   UNL A   1      42.351  27.721  30.246  1.00  0.00     0.074 A 
ATOM     28  C   UNL A   1      41.482  30.376  35.943  1.00  0.00     0.029 A 
ATOM     29  N   UNL A   1      41.392  29.844  33.782  1.00  0.00    -0.354 N 
ATOM     30  N   UNL A   1      42.104  28.319  31.385  1.00  0.00    -0.248 NA
ATOM     31  C   UNL A   1      43.458  26.753  30.308  1.00  0.00     0.031 C 
ATOM     32  C   UNL A   1      42.408  29.355  35.695  1.00  0.00     0.029 A 
ATOM     33  C   UNL A   1      42.336  29.010  34.353  1.00  0.00     0.049 A 
ATOM     34  H   UNL A   1      41.141  29.845  32.830  1.00  0.00     0.167 HD
ATOM     35  C   UNL A   1      42.968  27.749  32.313  1.00  0.00     0.074 A 
ATOM     36  C   UNL A   1      43.764  26.774  31.599  1.00  0.00     0.031 C 
ATOM     37  C   UNL A   1      43.074  28.000  33.640  1.00  0.00     0.037 A 
BRANCH  24  38
ATOM     38  C   UNL A   1      39.346  32.541  35.593  1.00  0.00     0.064 A 
ATOM     39  C   UNL A   1      39.849  33.850  35.716  1.00  0.00     0.173 A 
ATOM     40  C   UNL A   1      38.456  32.089  36.576  1.00  0.00     0.173 A 
ATOM     41  F   UNL A   1      40.708  34.332  34.805  1.00  0.00    -0.203 F 
ATOM     42  C   UNL A   1      39.561  34.629  36.831  1.00  0.00     0.198 A 
ATOM     43  C   UNL A   1      38.128  32.895  37.665  1.00  0.00     0.198 A 
ATOM     44  F   UNL A   1      37.927  30.859  36.498  1.00  0.00    -0.203 F 
ATOM     45  F   UNL A   1      40.159  35.819  36.984  1.00  0.00    -0.200 F 
ATOM     46  C   UNL A   1      38.702  34.150  37.805  1.00  0.00     0.200 A 
ATOM     47  F   UNL A   1      37.281  32.442  38.599  1.00  0.00    -0.200 F 
ATOM     48  F   UNL A   1      38.441  34.892  38.890  1.00  0.00    -0.200 F 
ENDBRANCH  24  38
BRANCH  25  49
ATOM     49  C   UNL A   1      42.137  27.125  27.728  1.00  0.00     0.064 A 
ATOM     50  C   UNL A   1      41.656  25.837  27.451  1.00  0.00     0.173 A 
ATOM     51  C   UNL A   1      43.108  27.656  26.869  1.00  0.00     0.173 A 
ATOM     52  F   UNL A   1      40.737  25.280  28.254  1.00  0.00    -0.203 F 
ATOM     53  C   UNL A   1      42.152  25.093  26.381  1.00  0.00     0.198 A 
ATOM     54  C   UNL A   1      43.592  26.918  25.787  1.00  0.00     0.198 A 
ATOM     55  F   UNL A   1      43.596  28.886  27.083  1.00  0.00    -0.203 F 
ATOM     56  F   UNL A   1      41.709  23.846  26.172  1.00  0.00    -0.200 F 
ATOM     57  C   UNL A   1      43.120  25.634  25.551  1.00  0.00     0.200 A 
ATOM     58  F   UNL A   1      44.522  27.445  24.979  1.00  0.00    -0.200 F 
ATOM     59  F   UNL A   1      43.605  24.915  24.528  1.00  0.00    -0.200 F 
ENDBRANCH  25  49
BRANCH  37  60
ATOM     60  C   UNL A   1      44.005  27.145  34.444  1.00  0.00     0.064 A 
ATOM     61  C   UNL A   1      45.318  27.541  34.729  1.00  0.00     0.173 A 
ATOM     62  C   UNL A   1      43.534  25.952  35.016  1.00  0.00     0.173 A 
ATOM     63  F   UNL A   1      45.815  28.664  34.190  1.00  0.00    -0.203 F 
ATOM     64  C   UNL A   1      46.129  26.772  35.558  1.00  0.00     0.198 A 
ATOM     65  C   UNL A   1      44.339  25.200  35.866  1.00  0.00     0.198 A 
ATOM     66  F   UNL A   1      42.283  25.532  34.774  1.00  0.00    -0.203 F 
ATOM     67  F   UNL A   1      47.390  27.154  35.799  1.00  0.00    -0.200 F 
ATOM     68  C   UNL A   1      45.635  25.610  36.135  1.00  0.00     0.200 A 
ATOM     69  F   UNL A   1      43.854  24.088  36.435  1.00  0.00    -0.200 F 
ATOM     70  F   UNL A   1      46.411  24.886  36.954  1.00  0.00    -0.200 F 
ENDBRANCH  37  60
ENDBRANCH  11  12
ENDBRANCH   4   6
ENDBRANCH   3   4
ENDBRANCH   2   3
ENDBRANCH   1   2
BRANCH   1  71
ATOM     71  O   UNL A   1      32.218  29.680  26.906  1.00  0.00    -0.462 OA
BRANCH  71  72
ATOM     72  C   UNL A   1      31.718  28.475  26.511  1.00  0.00     0.309 C 
ATOM     73  O   UNL A   1      31.507  27.548  27.284  1.00  0.00    -0.252 OA
BRANCH  72  74
ATOM     74  C   UNL A   1      31.572  28.298  24.998  1.00  0.00     0.103 C 
ATOM     75  C   UNL A   1      30.281  27.713  24.434  1.00  0.00     0.037 C 
ATOM     76  C   UNL A   1      32.809  27.646  24.373  1.00  0.00     0.037 C 
ATOM     77  C   UNL A   1      30.287  26.221  24.155  1.00  0.00     0.120 C 
ATOM     78  C   UNL A   1      32.768  26.128  24.387  1.00  0.00     0.120 C 
ATOM     79  N   UNL A   1      31.550  25.597  23.792  1.00  0.00    -0.340 N 
ATOM     80  C   UNL A   1      31.462  24.313  23.252  1.00  0.00     0.260 C 
ATOM     81  O   UNL A   1      30.373  23.743  23.114  1.00  0.00    -0.271 OA
BRANCH  80  82
ATOM     82  C   UNL A   1      32.732  23.572  22.803  1.00  0.00     0.329 C 
BRANCH  82  83
ATOM     83  O   UNL A   1      33.335  22.599  23.631  1.00  0.00    -0.482 OA
BRANCH  83  84
ATOM     84  C   UNL A   1      34.561  22.826  24.190  1.00  0.00     0.138 A 
ATOM     85  C   UNL A   1      35.773  22.892  23.496  1.00  0.00     0.049 A 
ATOM     86  C   UNL A   1      34.574  23.059  25.576  1.00  0.00     0.084 A 
ATOM     87  C   UNL A   1      36.945  23.292  24.145  1.00  0.00     0.024 A 
ATOM     88  C   UNL A   1      35.750  23.423  26.235  1.00  0.00     0.045 A 
ATOM     89  Cl  UNL A   1      33.133  22.904  26.523  1.00  0.00    -0.080 Cl
ATOM     90  C   UNL A   1      36.925  23.566  25.508  1.00  0.00     0.042 A 
ATOM     91  Cl  UNL A   1      38.365  24.082  26.292  1.00  0.00    -0.084 Cl
ENDBRANCH  83  84
ENDBRANCH  82  83
ENDBRANCH  80  82
ENDBRANCH  72  74
ENDBRANCH  71  72
ENDBRANCH   1  71
TORSDOF 14
ENDMDL
MODEL 2
REMARK VINA RESULT:     -12.3      1.432      2.100
REMARK SMILES O=C(OCCOC(=O)C1CCN(C(=O)COc2ccc(Cl)cc2Cl)CC1)c1ccc(-c2c3nc(c(-c4c(F)c(F)c(F)c(F)c4F)c4ccc([nH]4)c(-c4c(F)c(F)c(F)c(F)c4F)c4nc(c(-c5c(F)c(F)c(F)c(F)c5F)c5ccc2[nH]5)C=C4)C=C3)cc1
REMARK SMILES IDX 5 1 4 2 3 3 2 4 1 5 27 6 28 7 89 8 29 9 88 10 30 11 31 12
REMARK SMILES IDX 32 13 82 14 33 15 87 16 81 17 83 18 34 19 86 20 80 21 79 22
REMARK SMILES IDX 35 24 67 25 47 26 66 27 48 28 51 29 65 30 84 31 49 32 50 33
REMARK SMILES IDX 64 35 85 36 52 37 36 38 37 39 45 40 38 41 39 42 43 43 46 44
REMARK SMILES IDX 40 45 41 46 44 47 42 48 68 49 69 50 77 51 70 52 71 53 75 54
REMARK SMILES IDX 78 55 72 56 73 57 76 58 74 59 53 60 54 61 62 62 55 63 56 64
REMARK SMILES IDX 60 65 63 66 57 67 58 68 61 69 59 70 6 71 7 72 8 73 9 74
REMARK SMILES IDX 10 75 26 76 11 77 25 78 12 79 13 80 14 81 15 82 16 83 17 84
REMARK SMILES IDX 18 85 23 86 19 87 22 88 24 89 20 90 21 91
REMARK H PARENT 83 23 51 34
REMARK Flexibility Score: inf
ROOT
ATOM      1  C   UNL A   1      31.670  30.879  26.343  1.00  0.00     0.274 C 
ENDROOT
BRANCH   1   2
ATOM      2  C   UNL A   1      31.395  32.297  26.858  1.00  0.00     0.275 C 
BRANCH   2   3
ATOM      3  O   UNL A   1      32.535  33.157  26.871  1.00  0.00    -0.458 OA
BRANCH   3   4
ATOM      4  C   UNL A   1      33.284  33.564  27.913  1.00  0.00     0.338 C 
ATOM      5  O   UNL A   1      32.886  34.538  28.555  1.00  0.00    -0.246 OA
BRANCH   4   6
ATOM      6  C   UNL A   1      34.608  32.968  28.313  1.00  0.00     0.060 A 
ATOM      7  C   UNL A   1      35.842  33.605  28.508  1.00  0.00     0.016 A 
ATOM      8  C   UNL A   1      34.562  31.595  28.572  1.00  0.00     0.016 A 
ATOM      9  C   UNL A   1      36.960  32.921  29.029  1.00  0.00     0.010 A 
ATOM     10  C   UNL A   1      35.645  30.935  29.144  1.00  0.00     0.010 A 
ATOM     11  C   UNL A   1      36.862  31.585  29.410  1.00  0.00    -0.014 A 
BRANCH  11  12
ATOM     12  C   UNL A   1      37.955  30.826  30.097  1.00  0.00     0.031 A 
ATOM     13  C   UNL A   1      38.275  31.177  31.529  1.00  0.00     0.074 A 
ATOM     14  C   UNL A   1      38.784  29.988  29.434  1.00  0.00     0.049 A 
ATOM     15  N   UNL A   1      39.324  30.883  32.254  1.00  0.00    -0.248 NA
ATOM     16  C   UNL A   1      37.321  32.077  32.201  1.00  0.00     0.031 C 
ATOM     17  C   UNL A   1      38.705  29.621  28.018  1.00  0.00     0.029 A 
ATOM     18  N   UNL A   1      39.912  29.328  29.871  1.00  0.00    -0.354 N 
ATOM     19  C   UNL A   1      39.177  31.629  33.414  1.00  0.00     0.074 A 
ATOM     20  C   UNL A   1      38.051  32.510  33.212  1.00  0.00     0.031 C 
ATOM     21  C   UNL A   1      39.750  28.837  27.698  1.00  0.00     0.029 A 
ATOM     22  C   UNL A   1      40.571  28.630  28.885  1.00  0.00     0.049 A 
ATOM     23  H   UNL A   1      40.219  29.353  30.806  1.00  0.00     0.167 HD
ATOM     24  C   UNL A   1      39.832  31.518  34.594  1.00  0.00     0.037 A 
ATOM     25  C   UNL A   1      41.702  27.897  28.941  1.00  0.00     0.037 A 
ATOM     26  C   UNL A   1      40.859  30.549  34.836  1.00  0.00     0.049 A 
ATOM     27  C   UNL A   1      42.389  27.707  30.269  1.00  0.00     0.074 A 
ATOM     28  C   UNL A   1      41.472  30.211  36.026  1.00  0.00     0.029 A 
ATOM     29  N   UNL A   1      41.403  29.738  33.851  1.00  0.00    -0.354 N 
ATOM     30  N   UNL A   1      42.133  28.275  31.422  1.00  0.00    -0.248 NA
ATOM     31  C   UNL A   1      43.489  26.730  30.317  1.00  0.00     0.031 C 
ATOM     32  C   UNL A   1      42.394  29.191  35.761  1.00  0.00     0.029 A 
ATOM     33  C   UNL A   1      42.334  28.883  34.409  1.00  0.00     0.049 A 
ATOM     34  H   UNL A   1      41.163  29.768  32.897  1.00  0.00     0.167 HD
ATOM     35  C   UNL A   1      42.982  27.675  32.343  1.00  0.00     0.074 A 
ATOM     36  C   UNL A   1      43.780  26.714  31.611  1.00  0.00     0.031 C 
ATOM     37  C   UNL A   1      43.075  27.889  33.677  1.00  0.00     0.037 A 
BRANCH  24  38
ATOM     38  C   UNL A   1      39.353  32.398  35.713  1.00  0.00     0.064 A 
ATOM     39  C   UNL A   1      39.903  33.679  35.911  1.00  0.00     0.173 A 
ATOM     40  C   UNL A   1      38.407  31.944  36.640  1.00  0.00     0.173 A 
ATOM     41  F   UNL A   1      40.817  34.162  35.054  1.00  0.00    -0.203 F 
ATOM     42  C   UNL A   1      39.603  34.422  37.047  1.00  0.00     0.198 A 
ATOM     43  C   UNL A   1      38.069  32.717  37.749  1.00  0.00     0.198 A 
ATOM     44  F   UNL A   1      37.832  30.742  36.489  1.00  0.00    -0.203 F 
ATOM     45  F   UNL A   1      40.241  35.579  37.273  1.00  0.00    -0.200 F 
ATOM     46  C   UNL A   1      38.687  33.940  37.965  1.00  0.00     0.200 A 
ATOM     47  F   UNL A   1      37.167  32.262  38.630  1.00  0.00    -0.200 F 
ATOM     48  F   UNL A   1      38.413  34.647  39.070  1.00  0.00    -0.200 F 
ENDBRANCH  24  38
BRANCH  25  49
ATOM     49  C   UNL A   1      42.199  27.182  27.733  1.00  0.00     0.064 A 
ATOM     50  C   UNL A   1      41.755  25.882  27.446  1.00  0.00     0.173 A 
ATOM     51  C   UNL A   1      43.144  27.752  26.870  1.00  0.00     0.173 A 
ATOM     52  F   UNL A   1      40.863  25.289  28.252  1.00  0.00    -0.203 F 
ATOM     53  C   UNL A   1      42.261  25.167  26.361  1.00  0.00     0.198 A 
ATOM     54  C   UNL A   1      43.638  27.042  25.775  1.00  0.00     0.198 A 
ATOM     55  F   UNL A   1      43.597  28.994  27.094  1.00  0.00    -0.203 F 
ATOM     56  F   UNL A   1      41.854  23.910  26.142  1.00  0.00    -0.200 F 
ATOM     57  C   UNL A   1      43.203  25.748  25.527  1.00  0.00     0.200 A 
ATOM     58  F   UNL A   1      44.542  27.607  24.962  1.00  0.00    -0.200 F 
ATOM     59  F   UNL A   1      43.698  25.056  24.490  1.00  0.00    -0.200 F 
ENDBRANCH  25  49
BRANCH  37  60
ATOM     60  C   UNL A   1      43.991  27.005  34.468  1.00  0.00     0.064 A 
ATOM     61  C   UNL A   1      43.574  25.770  34.977  1.00  0.00     0.173 A 
ATOM     62  C   UNL A   1      45.338  27.369  34.632  1.00  0.00     0.173 A 
ATOM     63  F   UNL A   1      42.293  25.389  34.860  1.00  0.00    -0.203 F 
ATOM     64  C   UNL A   1      44.472  24.927  35.626  1.00  0.00     0.198 A 
ATOM     65  C   UNL A   1      46.239  26.512  35.255  1.00  0.00     0.198 A 
ATOM     66  F   UNL A   1      45.785  28.542  34.158  1.00  0.00    -0.203 F 
ATOM     67  F   UNL A   1      44.050  23.760  36.128  1.00  0.00    -0.200 F 
ATOM     68  C   UNL A   1      45.806  25.293  35.753  1.00  0.00     0.200 A 
ATOM     69  F   UNL A   1      47.529  26.860  35.362  1.00  0.00    -0.200 F 
ATOM     70  F   UNL A   1      46.674  24.468  36.354  1.00  0.00    -0.200 F 
ENDBRANCH  37  60
ENDBRANCH  11  12
ENDBRANCH   4   6
ENDBRANCH   3   4
ENDBRANCH   2   3
ENDBRANCH   1   2
BRANCH   1  71
ATOM     71  O   UNL A   1      32.126  29.917  27.323  1.00  0.00    -0.462 OA
BRANCH  71  72
ATOM     72  C   UNL A   1      31.754  28.630  27.067  1.00  0.00     0.309 C 
ATOM     73  O   UNL A   1      31.161  27.928  27.877  1.00  0.00    -0.252 OA
BRANCH  72  74
ATOM     74  C   UNL A   1      32.261  28.061  25.740  1.00  0.00     0.103 C 
ATOM     75  C   UNL A   1      31.255  27.606  24.688  1.00  0.00     0.037 C 
ATOM     76  C   UNL A   1      33.372  27.026  25.945  1.00  0.00     0.037 C 
ATOM     77  C   UNL A   1      30.917  26.126  24.678  1.00  0.00     0.120 C 
ATOM     78  C   UNL A   1      32.855  25.614  26.162  1.00  0.00     0.120 C 
ATOM     79  N   UNL A   1      31.940  25.188  25.113  1.00  0.00    -0.340 N 
ATOM     80  C   UNL A   1      31.708  23.846  24.803  1.00  0.00     0.260 C 
ATOM     81  O   UNL A   1      30.682  23.488  24.212  1.00  0.00    -0.271 OA
BRANCH  80  82
ATOM     82  C   UNL A   1      32.738  22.772  25.187  1.00  0.00     0.329 C 
BRANCH  82  83
ATOM     83  O   UNL A   1      33.444  22.056  24.196  1.00  0.00    -0.482 OA
BRANCH  83  84
ATOM     84  C   UNL A   1      33.396  20.691  24.157  1.00  0.00     0.138 A 
ATOM     85  C   UNL A   1      32.378  19.929  23.576  1.00  0.00     0.049 A 
ATOM     86  C   UNL A   1      34.498  20.019  24.712  1.00  0.00     0.084 A 
ATOM     87  C   UNL A   1      32.510  18.543  23.449  1.00  0.00     0.024 A 
ATOM     88  C   UNL A   1      34.616  18.630  24.620  1.00  0.00     0.045 A 
ATOM     89  Cl  UNL A   1      35.753  20.883  25.532  1.00  0.00    -0.080 Cl
ATOM     90  C   UNL A   1      33.633  17.902  23.962  1.00  0.00     0.042 A 
ATOM     91  Cl  UNL A   1      33.799  16.201  23.779  1.00  0.00    -0.084 Cl
ENDBRANCH  83  84
ENDBRANCH  82  83
ENDBRANCH  80  82
ENDBRANCH  72  74
ENDBRANCH  71  72
ENDBRANCH   1  71
TORSDOF 14
ENDMDL
MODEL 3
REMARK VINA RESULT:     -12.0      4.333     10.101
REMARK SMILES O=C(OCCOC(=O)C1CCN(C(=O)COc2ccc(Cl)cc2Cl)CC1)c1ccc(-c2c3nc(c(-c4c(F)c(F)c(F)c(F)c4F)c4ccc([nH]4)c(-c4c(F)c(F)c(F)c(F)c4F)c4nc(c(-c5c(F)c(F)c(F)c(F)c5F)c5ccc2[nH]5)C=C4)C=C3)cc1
REMARK SMILES IDX 5 1 4 2 3 3 2 4 1 5 27 6 28 7 89 8 29 9 88 10 30 11 31 12
REMARK SMILES IDX 32 13 82 14 33 15 87 16 81 17 83 18 34 19 86 20 80 21 79 22
REMARK SMILES IDX 35 24 67 25 47 26 66 27 48 28 51 29 65 30 84 31 49 32 50 33
REMARK SMILES IDX 64 35 85 36 52 37 36 38 37 39 45 40 38 41 39 42 43 43 46 44
REMARK SMILES IDX 40 45 41 46 44 47 42 48 68 49 69 50 77 51 70 52 71 53 75 54
REMARK SMILES IDX 78 55 72 56 73 57 76 58 74 59 53 60 54 61 62 62 55 63 56 64
REMARK SMILES IDX 60 65 63 66 57 67 58 68 61 69 59 70 6 71 7 72 8 73 9 74
REMARK SMILES IDX 10 75 26 76 11 77 25 78 12 79 13 80 14 81 15 82 16 83 17 84
REMARK SMILES IDX 18 85 23 86 19 87 22 88 24 89 20 90 21 91
REMARK H PARENT 83 23 51 34
REMARK Flexibility Score: inf
ROOT
ATOM      1  C   UNL A   1      35.722  21.729  24.605  1.00  0.00     0.274 C 
ENDROOT
BRANCH   1   2
ATOM      2  C   UNL A   1      36.669  21.179  25.680  1.00  0.00     0.275 C 
BRANCH   2   3
ATOM      3  O   UNL A   1      38.038  21.099  25.283  1.00  0.00    -0.458 OA
BRANCH   3   4
ATOM      4  C   UNL A   1      39.151  21.195  26.035  1.00  0.00     0.338 C 
ATOM      5  O   UNL A   1      39.762  20.155  26.285  1.00  0.00    -0.246 OA
BRANCH   4   6
ATOM      6  C   UNL A   1      39.669  22.465  26.656  1.00  0.00     0.060 A 
ATOM      7  C   UNL A   1      40.685  22.635  27.607  1.00  0.00     0.016 A 
ATOM      8  C   UNL A   1      39.074  23.629  26.159  1.00  0.00     0.016 A 
ATOM      9  C   UNL A   1      41.153  23.912  27.979  1.00  0.00     0.010 A 
ATOM     10  C   UNL A   1      39.578  24.886  26.478  1.00  0.00     0.010 A 
ATOM     11  C   UNL A   1      40.644  25.059  27.375  1.00  0.00    -0.014 A 
BRANCH  11  12
ATOM     12  C   UNL A   1      41.180  26.438  27.609  1.00  0.00     0.031 A 
ATOM     13  C   UNL A   1      42.598  26.733  27.188  1.00  0.00     0.074 A 
ATOM     14  C   UNL A   1      40.519  27.358  28.349  1.00  0.00     0.049 A 
ATOM     15  N   UNL A   1      43.385  27.727  27.513  1.00  0.00    -0.248 NA
ATOM     16  C   UNL A   1      43.255  25.701  26.366  1.00  0.00     0.031 C 
ATOM     17  C   UNL A   1      39.188  27.208  28.943  1.00  0.00     0.029 A 
ATOM     18  N   UNL A   1      40.919  28.605  28.777  1.00  0.00    -0.354 N 
ATOM     19  C   UNL A   1      44.627  27.382  27.004  1.00  0.00     0.074 A 
ATOM     20  C   UNL A   1      44.526  26.025  26.519  1.00  0.00     0.031 C 
ATOM     21  C   UNL A   1      38.900  28.295  29.680  1.00  0.00     0.029 A 
ATOM     22  C   UNL A   1      40.016  29.231  29.605  1.00  0.00     0.049 A 
ATOM     23  H   UNL A   1      41.776  29.012  28.514  1.00  0.00     0.167 HD
ATOM     24  C   UNL A   1      45.729  28.151  26.834  1.00  0.00     0.037 A 
ATOM     25  C   UNL A   1      40.080  30.429  30.220  1.00  0.00     0.037 A 
ATOM     26  C   UNL A   1      45.784  29.537  27.192  1.00  0.00     0.049 A 
ATOM     27  C   UNL A   1      41.269  31.321  29.969  1.00  0.00     0.074 A 
ATOM     28  C   UNL A   1      46.763  30.469  26.911  1.00  0.00     0.029 A 
ATOM     29  N   UNL A   1      44.784  30.193  27.894  1.00  0.00    -0.354 N 
ATOM     30  N   UNL A   1      42.378  31.059  29.322  1.00  0.00    -0.248 NA
ATOM     31  C   UNL A   1      41.192  32.696  30.487  1.00  0.00     0.031 C 
ATOM     32  C   UNL A   1      46.356  31.696  27.449  1.00  0.00     0.029 A 
ATOM     33  C   UNL A   1      45.112  31.527  28.042  1.00  0.00     0.049 A 
ATOM     34  H   UNL A   1      43.963  29.772  28.237  1.00  0.00     0.167 HD
ATOM     35  C   UNL A   1      43.094  32.249  29.289  1.00  0.00     0.074 A 
ATOM     36  C   UNL A   1      42.305  33.231  30.003  1.00  0.00     0.031 C 
ATOM     37  C   UNL A   1      44.287  32.506  28.701  1.00  0.00     0.037 A 
BRANCH  24  38
ATOM     38  C   UNL A   1      46.892  27.512  26.131  1.00  0.00     0.064 A 
ATOM     39  C   UNL A   1      47.942  26.923  26.860  1.00  0.00     0.173 A 
ATOM     40  C   UNL A   1      47.010  27.554  24.736  1.00  0.00     0.173 A 
ATOM     41  F   UNL A   1      47.882  26.858  28.199  1.00  0.00    -0.203 F 
ATOM     42  C   UNL A   1      49.105  26.497  26.229  1.00  0.00     0.198 A 
ATOM     43  C   UNL A   1      48.156  27.077  24.103  1.00  0.00     0.198 A 
ATOM     44  F   UNL A   1      46.030  28.082  23.988  1.00  0.00    -0.203 F 
ATOM     45  F   UNL A   1      50.139  26.061  26.962  1.00  0.00    -0.200 F 
ATOM     46  C   UNL A   1      49.212  26.575  24.851  1.00  0.00     0.200 A 
ATOM     47  F   UNL A   1      48.254  27.132  22.768  1.00  0.00    -0.200 F 
ATOM     48  F   UNL A   1      50.341  26.184  24.245  1.00  0.00    -0.200 F 
ENDBRANCH  24  38
BRANCH  25  49
ATOM     49  C   UNL A   1      38.937  30.921  31.038  1.00  0.00     0.064 A 
ATOM     50  C   UNL A   1      38.900  30.680  32.420  1.00  0.00     0.173 A 
ATOM     51  C   UNL A   1      37.852  31.598  30.465  1.00  0.00     0.173 A 
ATOM     52  F   UNL A   1      39.907  30.021  33.010  1.00  0.00    -0.203 F 
ATOM     53  C   UNL A   1      37.806  31.068  33.193  1.00  0.00     0.198 A 
ATOM     54  C   UNL A   1      36.765  32.001  31.244  1.00  0.00     0.198 A 
ATOM     55  F   UNL A   1      37.840  31.861  29.151  1.00  0.00    -0.203 F 
ATOM     56  F   UNL A   1      37.778  30.780  34.501  1.00  0.00    -0.200 F 
ATOM     57  C   UNL A   1      36.740  31.727  32.604  1.00  0.00     0.200 A 
ATOM     58  F   UNL A   1      35.738  32.648  30.675  1.00  0.00    -0.200 F 
ATOM     59  F   UNL A   1      35.683  32.091  33.345  1.00  0.00    -0.200 F 
ENDBRANCH  25  49
BRANCH  37  60
ATOM     60  C   UNL A   1      44.780  33.921  28.701  1.00  0.00     0.064 A 
ATOM     61  C   UNL A   1      45.650  34.403  29.687  1.00  0.00     0.173 A 
ATOM     62  C   UNL A   1      44.444  34.775  27.638  1.00  0.00     0.173 A 
ATOM     63  F   UNL A   1      45.983  33.630  30.730  1.00  0.00    -0.203 F 
ATOM     64  C   UNL A   1      46.167  35.693  29.609  1.00  0.00     0.198 A 
ATOM     65  C   UNL A   1      44.985  36.053  27.549  1.00  0.00     0.198 A 
ATOM     66  F   UNL A   1      43.616  34.356  26.669  1.00  0.00    -0.203 F 
ATOM     67  F   UNL A   1      46.979  36.146  30.574  1.00  0.00    -0.200 F 
ATOM     68  C   UNL A   1      45.845  36.512  28.535  1.00  0.00     0.200 A 
ATOM     69  F   UNL A   1      44.685  36.835  26.503  1.00  0.00    -0.200 F 
ATOM     70  F   UNL A   1      46.366  37.743  28.450  1.00  0.00    -0.200 F 
ENDBRANCH  37  60
ENDBRANCH  11  12
ENDBRANCH   4   6
ENDBRANCH   3   4
ENDBRANCH   2   3
ENDBRANCH   1   2
BRANCH   1  71
ATOM     71  O   UNL A   1      34.579  20.906  24.276  1.00  0.00    -0.462 OA
BRANCH  71  72
ATOM     72  C   UNL A   1      33.507  21.070  25.104  1.00  0.00     0.309 C 
ATOM     73  O   UNL A   1      33.359  20.441  26.144  1.00  0.00    -0.252 OA
BRANCH  72  74
ATOM     74  C   UNL A   1      32.413  21.997  24.570  1.00  0.00     0.103 C 
ATOM     75  C   UNL A   1      32.221  22.138  23.063  1.00  0.00     0.037 C 
ATOM     76  C   UNL A   1      32.423  23.360  25.269  1.00  0.00     0.037 C 
ATOM     77  C   UNL A   1      32.915  23.317  22.406  1.00  0.00     0.120 C 
ATOM     78  C   UNL A   1      33.360  24.367  24.623  1.00  0.00     0.120 C 
ATOM     79  N   UNL A   1      33.116  24.521  23.197  1.00  0.00    -0.340 N 
ATOM     80  C   UNL A   1      33.470  25.667  22.482  1.00  0.00     0.260 C 
ATOM     81  O   UNL A   1      33.620  25.643  21.254  1.00  0.00    -0.271 OA
BRANCH  80  82
ATOM     82  C   UNL A   1      33.677  27.004  23.213  1.00  0.00     0.329 C 
BRANCH  82  83
ATOM     83  O   UNL A   1      32.637  27.582  23.975  1.00  0.00    -0.482 OA
BRANCH  83  84
ATOM     84  C   UNL A   1      32.924  28.396  25.035  1.00  0.00     0.138 A 
ATOM     85  C   UNL A   1      34.014  28.256  25.898  1.00  0.00     0.049 A 
ATOM     86  C   UNL A   1      32.061  29.491  25.222  1.00  0.00     0.084 A 
ATOM     87  C   UNL A   1      34.302  29.240  26.848  1.00  0.00     0.024 A 
ATOM     88  C   UNL A   1      32.325  30.457  26.195  1.00  0.00     0.045 A 
ATOM     89  Cl  UNL A   1      30.638  29.684  24.257  1.00  0.00    -0.080 Cl
ATOM     90  C   UNL A   1      33.462  30.340  26.985  1.00  0.00     0.042 A 
ATOM     91  Cl  UNL A   1      33.838  31.559  28.138  1.00  0.00    -0.084 Cl
ENDBRANCH  83  84
ENDBRANCH  82  83
ENDBRANCH  80  82
ENDBRANCH  72  74
ENDBRANCH  71  72
ENDBRANCH   1  71
TORSDOF 14
ENDMDL
