MODEL 1
REMARK VINA RESULT:     -12.2      0.000      0.000
REMARK SMILES CC1(C)CC[C@@]2(C(=O)OCCOC(=O)c3ccc(-c4c5nc(c(-c6c(F)c(F)c(F)c(F)c6F)c6ccc([nH]6)c(-c6c(F)c(F)c(F)c(F)c6F)c6nc(c(-c7c(F)c(F)c(F)c(F)c7F)c7ccc4[nH]7)C=C6)C=C5)cc3)CC[C@@]3(C)C(=CC[C@H]4[C@@]5(C)CC[C@H](O)C(C)(C)[C@@H]5CC[C@]43C)[C@@H]2C1
REMARK SMILES IDX 11 1 10 2 9 3 7 4 8 5 6 6 1 7 2 8 3 9 4 10 101 11 5 12
REMARK SMILES IDX 100 13 82 14 78 15 80 16 83 17 79 18 81 19 98 20 84 21 85 22
REMARK SMILES IDX 97 23 99 24 86 25 96 26 87 27 88 28 95 29 89 30 92 31 90 32
REMARK SMILES IDX 93 33 94 34 91 35 12 37 13 38 14 39 15 40 16 41 77 42 17 43
REMARK SMILES IDX 76 44 18 45 19 46 20 47 70 48 21 49 75 50 69 51 71 52 22 53
REMARK SMILES IDX 74 54 68 55 67 56 23 58 55 59 35 60 54 61 36 62 39 63 53 64
REMARK SMILES IDX 72 65 37 66 38 67 52 69 73 70 40 71 24 72 25 73 33 74 26 75
REMARK SMILES IDX 27 76 31 77 34 78 28 79 29 80 32 81 30 82 56 83 57 84 65 85
REMARK SMILES IDX 58 86 59 87 63 88 66 89 60 90 61 91 64 92 62 93 41 94 42 95
REMARK SMILES IDX 50 96 43 97 44 98 48 99 51 100 45 101 46 102 49 103 47 104
REMARK H PARENT 91 36 71 57 39 68
REMARK Flexibility Score: inf
ROOT
ATOM      1  C   UNL A   1      48.703  24.828  33.518  1.00  0.00     0.275 C 
ENDROOT
BRANCH   1   2
ATOM      2  C   UNL A   1      47.271  24.430  34.003  1.00  0.00     0.274 C 
BRANCH   2   3
ATOM      3  O   UNL A   1      47.013  24.817  35.368  1.00  0.00    -0.462 OA
BRANCH   3   4
ATOM      4  C   UNL A   1      46.309  24.206  36.387  1.00  0.00     0.312 C 
ATOM      5  O   UNL A   1      46.451  23.869  37.671  1.00  0.00    -0.252 OA
BRANCH   4   6
ATOM      6  C   UNL A   1      45.187  24.853  36.773  1.00  0.00     0.075 C 
ATOM      7  C   UNL A   1      42.151  23.976  35.125  1.00  0.00     0.011 C 
ATOM      8  C   UNL A   1      43.535  23.749  34.526  1.00  0.00    -0.035 C 
ATOM      9  C   UNL A   1      43.420  23.190  33.081  1.00  0.00     0.011 C 
ATOM     10  C   UNL A   1      44.207  25.117  34.385  1.00  0.00     0.007 C 
ATOM     11  C   UNL A   1      44.360  22.685  35.304  1.00  0.00     0.015 C 
ATOM     12  C   UNL A   1      44.619  25.766  35.686  1.00  0.00     0.020 C 
ATOM     13  C   UNL A   1      44.984  22.948  36.710  1.00  0.00     0.033 C 
ATOM     14  C   UNL A   1      46.553  21.891  37.097  1.00  0.00    -0.063 C 
ATOM     15  C   UNL A   1      46.694  25.759  37.469  1.00  0.00     0.020 C 
ATOM     16  C   UNL A   1      48.053  22.697  36.957  1.00  0.00    -0.006 C 
ATOM     17  C   UNL A   1      46.934  20.593  37.409  1.00  0.00    -0.027 C 
ATOM     18  C   UNL A   1      48.224  24.603  37.355  1.00  0.00     0.013 C 
ATOM     19  C   UNL A   1      48.650  22.448  38.535  1.00  0.00     0.017 C 
ATOM     20  C   UNL A   1      48.592  21.729  35.387  1.00  0.00    -0.020 C 
ATOM     21  C   UNL A   1      48.595  20.014  37.143  1.00  0.00     0.032 C 
ATOM     22  C   UNL A   1      49.585  21.054  36.340  1.00  0.00     0.006 C 
ATOM     23  C   UNL A   1      49.247  20.454  34.272  1.00  0.00     0.008 C 
ATOM     24  C   UNL A   1      47.165  20.969  34.799  1.00  0.00     0.012 C 
ATOM     25  C   UNL A   1      51.150  21.344  35.731  1.00  0.00    -0.025 C 
ATOM     26  C   UNL A   1      50.684  19.928  33.898  1.00  0.00     0.005 C 
ATOM     27  C   UNL A   1      51.082  22.539  34.713  1.00  0.00     0.012 C 
ATOM     28  C   UNL A   1      52.113  21.771  36.861  1.00  0.00     0.010 C 
ATOM     29  C   UNL A   1      51.764  20.216  34.919  1.00  0.00     0.003 C 
ATOM     30  C   UNL A   1      53.506  22.157  36.376  1.00  0.00     0.033 C 
ATOM     31  C   UNL A   1      53.254  20.522  34.343  1.00  0.00    -0.006 C 
ATOM     32  C   UNL A   1      54.150  21.089  35.500  1.00  0.00     0.120 C 
ATOM     33  C   UNL A   1      53.385  21.435  33.079  1.00  0.00     0.014 C 
ATOM     34  C   UNL A   1      53.903  19.192  33.879  1.00  0.00     0.014 C 
BRANCH  32  35
ATOM     35  O   UNL A   1      55.385  21.618  35.007  1.00  0.00    -0.393 OA
ATOM     36  H   UNL A   1      55.926  20.896  34.651  1.00  0.00     0.210 HD
ENDBRANCH  32  35
ENDBRANCH   4   6
ENDBRANCH   3   4
ENDBRANCH   2   3
ENDBRANCH   1   2
BRANCH   1  37
ATOM     37  O   UNL A   1      48.768  26.136  32.887  1.00  0.00    -0.458 OA
BRANCH  37  38
ATOM     38  C   UNL A   1      48.976  27.294  33.581  1.00  0.00     0.338 C 
ATOM     39  O   UNL A   1      49.978  27.567  34.188  1.00  0.00    -0.246 OA
BRANCH  38  40
ATOM     40  C   UNL A   1      47.785  28.233  33.446  1.00  0.00     0.060 A 
ATOM     41  C   UNL A   1      46.839  28.321  34.440  1.00  0.00     0.016 A 
ATOM     42  C   UNL A   1      47.504  28.999  32.333  1.00  0.00     0.016 A 
ATOM     43  C   UNL A   1      45.500  28.570  34.226  1.00  0.00     0.010 A 
ATOM     44  C   UNL A   1      46.226  29.594  32.208  1.00  0.00     0.010 A 
ATOM     45  C   UNL A   1      45.167  29.256  33.088  1.00  0.00    -0.014 A 
BRANCH  45  46
ATOM     46  C   UNL A   1      43.739  29.495  32.752  1.00  0.00     0.031 A 
ATOM     47  C   UNL A   1      43.208  28.739  31.571  1.00  0.00     0.074 A 
ATOM     48  C   UNL A   1      42.911  30.277  33.481  1.00  0.00     0.049 A 
ATOM     49  N   UNL A   1      42.194  29.002  30.798  1.00  0.00    -0.248 NA
ATOM     50  C   UNL A   1      43.976  27.544  31.172  1.00  0.00     0.031 C 
ATOM     51  C   UNL A   1      43.229  30.931  34.755  1.00  0.00     0.029 A 
ATOM     52  N   UNL A   1      41.613  30.666  33.240  1.00  0.00    -0.354 N 
ATOM     53  C   UNL A   1      42.280  28.085  29.758  1.00  0.00     0.074 A 
ATOM     54  C   UNL A   1      43.444  27.265  29.995  1.00  0.00     0.031 C 
ATOM     55  C   UNL A   1      42.161  31.623  35.184  1.00  0.00     0.029 A 
ATOM     56  C   UNL A   1      41.134  31.577  34.157  1.00  0.00     0.049 A 
ATOM     57  H   UNL A   1      41.078  30.325  32.487  1.00  0.00     0.167 HD
ATOM     58  C   UNL A   1      41.455  27.966  28.695  1.00  0.00     0.037 A 
ATOM     59  C   UNL A   1      40.035  32.355  34.118  1.00  0.00     0.037 A 
ATOM     60  C   UNL A   1      40.261  28.752  28.556  1.00  0.00     0.049 A 
ATOM     61  C   UNL A   1      39.157  32.258  32.897  1.00  0.00     0.074 A 
ATOM     62  C   UNL A   1      39.326  28.736  27.542  1.00  0.00     0.029 A 
ATOM     63  N   UNL A   1      39.832  29.687  29.493  1.00  0.00    -0.354 N 
ATOM     64  N   UNL A   1      39.284  31.477  31.848  1.00  0.00    -0.248 NA
ATOM     65  C   UNL A   1      38.007  33.166  32.832  1.00  0.00     0.031 C 
ATOM     66  C   UNL A   1      38.359  29.702  27.837  1.00  0.00     0.029 A 
ATOM     67  C   UNL A   1      38.655  30.274  29.067  1.00  0.00     0.049 A 
ATOM     68  H   UNL A   1      40.296  29.899  30.333  1.00  0.00     0.167 HD
ATOM     69  C   UNL A   1      38.224  31.784  31.009  1.00  0.00     0.074 A 
ATOM     70  C   UNL A   1      37.448  32.807  31.685  1.00  0.00     0.031 C 
ATOM     71  C   UNL A   1      37.916  31.281  29.788  1.00  0.00     0.037 A 
BRANCH  58  72
ATOM     72  C   UNL A   1      41.860  27.023  27.602  1.00  0.00     0.064 A 
ATOM     73  C   UNL A   1      41.420  25.692  27.547  1.00  0.00     0.173 A 
ATOM     74  C   UNL A   1      42.739  27.460  26.598  1.00  0.00     0.173 A 
ATOM     75  F   UNL A   1      40.604  25.210  28.496  1.00  0.00    -0.203 F 
ATOM     76  C   UNL A   1      41.870  24.827  26.552  1.00  0.00     0.198 A 
ATOM     77  C   UNL A   1      43.157  26.604  25.582  1.00  0.00     0.198 A 
ATOM     78  F   UNL A   1      43.204  28.719  26.606  1.00  0.00    -0.203 F 
ATOM     79  F   UNL A   1      41.493  23.541  26.563  1.00  0.00    -0.200 F 
ATOM     80  C   UNL A   1      42.731  25.286  25.566  1.00  0.00     0.200 A 
ATOM     81  F   UNL A   1      43.982  27.054  24.626  1.00  0.00    -0.200 F 
ATOM     82  F   UNL A   1      43.160  24.453  24.607  1.00  0.00    -0.200 F 
ENDBRANCH  58  72
BRANCH  59  83
ATOM     83  C   UNL A   1      39.755  33.346  35.200  1.00  0.00     0.064 A 
ATOM     84  C   UNL A   1      38.978  33.003  36.317  1.00  0.00     0.173 A 
ATOM     85  C   UNL A   1      40.236  34.664  35.136  1.00  0.00     0.173 A 
ATOM     86  F   UNL A   1      38.466  31.768  36.421  1.00  0.00    -0.203 F 
ATOM     87  C   UNL A   1      38.682  33.939  37.310  1.00  0.00     0.198 A 
ATOM     88  C   UNL A   1      39.973  35.587  36.148  1.00  0.00     0.198 A 
ATOM     89  F   UNL A   1      40.978  35.061  34.090  1.00  0.00    -0.203 F 
ATOM     90  F   UNL A   1      37.891  33.594  38.336  1.00  0.00    -0.200 F 
ATOM     91  C   UNL A   1      39.186  35.227  37.229  1.00  0.00     0.200 A 
ATOM     92  F   UNL A   1      40.475  36.828  36.070  1.00  0.00    -0.200 F 
ATOM     93  F   UNL A   1      38.905  36.122  38.186  1.00  0.00    -0.200 F 
ENDBRANCH  59  83
BRANCH  71  94
ATOM     94  C   UNL A   1      36.675  31.806  29.134  1.00  0.00     0.064 A 
ATOM     95  C   UNL A   1      35.545  30.999  28.946  1.00  0.00     0.173 A 
ATOM     96  C   UNL A   1      36.600  33.153  28.747  1.00  0.00     0.173 A 
ATOM     97  F   UNL A   1      35.577  29.702  29.286  1.00  0.00    -0.203 F 
ATOM     98  C   UNL A   1      34.390  31.516  28.371  1.00  0.00     0.198 A 
ATOM     99  C   UNL A   1      35.430  33.675  28.209  1.00  0.00     0.198 A 
ATOM    100  F   UNL A   1      37.653  33.966  28.917  1.00  0.00    -0.203 F 
ATOM    101  F   UNL A   1      33.337  30.715  28.151  1.00  0.00    -0.200 F 
ATOM    102  C   UNL A   1      34.329  32.855  28.014  1.00  0.00     0.200 A 
ATOM    103  F   UNL A   1      35.366  34.974  27.886  1.00  0.00    -0.200 F 
ATOM    104  F   UNL A   1      33.209  33.356  27.475  1.00  0.00    -0.200 F 
ENDBRANCH  71  94
ENDBRANCH  45  46
ENDBRANCH  38  40
ENDBRANCH  37  38
ENDBRANCH   1  37
TORSDOF 12
ENDMDL
MODEL 2
REMARK VINA RESULT:     -12.1      4.984     10.218
REMARK SMILES CC1(C)CC[C@@]2(C(=O)OCCOC(=O)c3ccc(-c4c5nc(c(-c6c(F)c(F)c(F)c(F)c6F)c6ccc([nH]6)c(-c6c(F)c(F)c(F)c(F)c6F)c6nc(c(-c7c(F)c(F)c(F)c(F)c7F)c7ccc4[nH]7)C=C6)C=C5)cc3)CC[C@@]3(C)C(=CC[C@H]4[C@@]5(C)CC[C@H](O)C(C)(C)[C@@H]5CC[C@]43C)[C@@H]2C1
REMARK SMILES IDX 11 1 10 2 9 3 7 4 8 5 6 6 1 7 2 8 3 9 4 10 101 11 5 12
REMARK SMILES IDX 100 13 82 14 78 15 80 16 83 17 79 18 81 19 98 20 84 21 85 22
REMARK SMILES IDX 97 23 99 24 86 25 96 26 87 27 88 28 95 29 89 30 92 31 90 32
REMARK SMILES IDX 93 33 94 34 91 35 12 37 13 38 14 39 15 40 16 41 77 42 17 43
REMARK SMILES IDX 76 44 18 45 19 46 20 47 70 48 21 49 75 50 69 51 71 52 22 53
REMARK SMILES IDX 74 54 68 55 67 56 23 58 55 59 35 60 54 61 36 62 39 63 53 64
REMARK SMILES IDX 72 65 37 66 38 67 52 69 73 70 40 71 24 72 25 73 33 74 26 75
REMARK SMILES IDX 27 76 31 77 34 78 28 79 29 80 32 81 30 82 56 83 57 84 65 85
REMARK SMILES IDX 58 86 59 87 63 88 66 89 60 90 61 91 64 92 62 93 41 94 42 95
REMARK SMILES IDX 50 96 43 97 44 98 48 99 51 100 45 101 46 102 49 103 47 104
REMARK H PARENT 91 36 71 57 39 68
REMARK Flexibility Score: inf
ROOT
ATOM      1  C   UNL A   1      42.741  27.677  25.186  1.00  0.00     0.275 C 
ENDROOT
BRANCH   1   2
ATOM      2  C   UNL A   1      43.477  28.236  26.447  1.00  0.00     0.274 C 
BRANCH   2   3
ATOM      3  O   UNL A   1      44.907  28.311  26.274  1.00  0.00    -0.462 OA
BRANCH   3   4
ATOM      4  C   UNL A   1      45.948  28.376  27.179  1.00  0.00     0.312 C 
ATOM      5  O   UNL A   1      47.129  27.805  27.425  1.00  0.00    -0.252 OA
BRANCH   4   6
ATOM      6  C   UNL A   1      46.613  29.552  27.201  1.00  0.00     0.075 C 
ATOM      7  C   UNL A   1      45.295  32.134  29.276  1.00  0.00     0.011 C 
ATOM      8  C   UNL A   1      44.465  30.971  28.741  1.00  0.00    -0.035 C 
ATOM      9  C   UNL A   1      42.973  31.135  29.140  1.00  0.00     0.011 C 
ATOM     10  C   UNL A   1      44.493  31.048  27.212  1.00  0.00     0.007 C 
ATOM     11  C   UNL A   1      44.893  29.602  29.341  1.00  0.00     0.015 C 
ATOM     12  C   UNL A   1      45.819  30.701  26.577  1.00  0.00     0.020 C 
ATOM     13  C   UNL A   1      46.215  28.871  28.948  1.00  0.00     0.033 C 
ATOM     14  C   UNL A   1      46.154  26.951  29.142  1.00  0.00    -0.063 C 
ATOM     15  C   UNL A   1      47.240  28.513  25.750  1.00  0.00     0.020 C 
ATOM     16  C   UNL A   1      45.951  26.058  27.698  1.00  0.00    -0.006 C 
ATOM     17  C   UNL A   1      46.150  25.960  30.114  1.00  0.00    -0.027 C 
ATOM     18  C   UNL A   1      46.680  26.693  26.000  1.00  0.00     0.013 C 
ATOM     19  C   UNL A   1      47.346  25.080  27.780  1.00  0.00     0.017 C 
ATOM     20  C   UNL A   1      44.162  25.501  28.122  1.00  0.00    -0.020 C 
ATOM     21  C   UNL A   1      45.534  24.325  29.784  1.00  0.00     0.032 C 
ATOM     22  C   UNL A   1      44.809  24.125  28.320  1.00  0.00     0.006 C 
ATOM     23  C   UNL A   1      42.737  24.602  28.802  1.00  0.00     0.008 C 
ATOM     24  C   UNL A   1      43.656  26.514  29.418  1.00  0.00     0.012 C 
ATOM     25  C   UNL A   1      44.043  23.045  27.248  1.00  0.00    -0.025 C 
ATOM     26  C   UNL A   1      42.060  23.207  28.523  1.00  0.00     0.005 C 
ATOM     27  C   UNL A   1      43.295  23.876  26.143  1.00  0.00     0.012 C 
ATOM     28  C   UNL A   1      45.078  22.160  26.520  1.00  0.00     0.010 C 
ATOM     29  C   UNL A   1      42.947  22.181  27.850  1.00  0.00     0.003 C 
ATOM     30  C   UNL A   1      44.476  21.244  25.461  1.00  0.00     0.033 C 
ATOM     31  C   UNL A   1      42.226  21.166  26.803  1.00  0.00    -0.006 C 
ATOM     32  C   UNL A   1      43.326  20.396  25.989  1.00  0.00     0.120 C 
ATOM     33  C   UNL A   1      41.156  21.751  25.822  1.00  0.00     0.014 C 
ATOM     34  C   UNL A   1      41.424  20.103  27.596  1.00  0.00     0.014 C 
BRANCH  32  35
ATOM     35  O   UNL A   1      42.766  19.683  24.881  1.00  0.00    -0.393 OA
ATOM     36  H   UNL A   1      43.481  19.301  24.348  1.00  0.00     0.210 HD
ENDBRANCH  32  35
ENDBRANCH   4   6
ENDBRANCH   3   4
ENDBRANCH   2   3
ENDBRANCH   1   2
BRANCH   1  37
ATOM     37  O   UNL A   1      41.306  27.522  25.363  1.00  0.00    -0.458 OA
BRANCH  37  38
ATOM     38  C   UNL A   1      40.746  26.538  26.128  1.00  0.00     0.338 C 
ATOM     39  O   UNL A   1      40.810  25.360  25.894  1.00  0.00    -0.246 OA
BRANCH  38  40
ATOM     40  C   UNL A   1      40.067  27.123  27.358  1.00  0.00     0.060 A 
ATOM     41  C   UNL A   1      39.920  28.483  27.505  1.00  0.00     0.016 A 
ATOM     42  C   UNL A   1      39.618  26.390  28.437  1.00  0.00     0.016 A 
ATOM     43  C   UNL A   1      39.945  29.146  28.713  1.00  0.00     0.010 A 
ATOM     44  C   UNL A   1      39.281  27.060  29.637  1.00  0.00     0.010 A 
ATOM     45  C   UNL A   1      39.588  28.431  29.825  1.00  0.00    -0.014 A 
BRANCH  45  46
ATOM     46  C   UNL A   1      39.664  29.058  31.171  1.00  0.00     0.031 A 
ATOM     47  C   UNL A   1      38.584  30.045  31.497  1.00  0.00     0.074 A 
ATOM     48  C   UNL A   1      40.588  28.735  32.104  1.00  0.00     0.049 A 
ATOM     49  N   UNL A   1      38.576  31.021  32.358  1.00  0.00    -0.248 NA
ATOM     50  C   UNL A   1      37.356  29.948  30.684  1.00  0.00     0.031 C 
ATOM     51  C   UNL A   1      41.589  27.667  32.006  1.00  0.00     0.029 A 
ATOM     52  N   UNL A   1      40.841  29.294  33.336  1.00  0.00    -0.354 N 
ATOM     53  C   UNL A   1      37.406  31.724  32.103  1.00  0.00     0.074 A 
ATOM     54  C   UNL A   1      36.733  31.069  31.006  1.00  0.00     0.031 C 
ATOM     55  C   UNL A   1      42.331  27.642  33.124  1.00  0.00     0.029 A 
ATOM     56  C   UNL A   1      41.955  28.772  33.958  1.00  0.00     0.049 A 
ATOM     57  H   UNL A   1      40.279  29.997  33.737  1.00  0.00     0.167 HD
ATOM     58  C   UNL A   1      36.958  32.833  32.731  1.00  0.00     0.037 A 
ATOM     59  C   UNL A   1      42.646  29.218  35.025  1.00  0.00     0.037 A 
ATOM     60  C   UNL A   1      37.624  33.391  33.875  1.00  0.00     0.049 A 
ATOM     61  C   UNL A   1      42.171  30.491  35.678  1.00  0.00     0.074 A 
ATOM     62  C   UNL A   1      37.283  34.502  34.618  1.00  0.00     0.029 A 
ATOM     63  N   UNL A   1      38.768  32.849  34.450  1.00  0.00    -0.354 N 
ATOM     64  N   UNL A   1      41.130  31.234  35.380  1.00  0.00    -0.248 NA
ATOM     65  C   UNL A   1      42.977  31.007  36.790  1.00  0.00     0.031 C 
ATOM     66  C   UNL A   1      38.254  34.665  35.612  1.00  0.00     0.029 A 
ATOM     67  C   UNL A   1      39.162  33.618  35.528  1.00  0.00     0.049 A 
ATOM     68  H   UNL A   1      39.228  32.039  34.137  1.00  0.00     0.167 HD
ATOM     69  C   UNL A   1      41.144  32.293  36.274  1.00  0.00     0.074 A 
ATOM     70  C   UNL A   1      42.285  32.081  37.144  1.00  0.00     0.031 C 
ATOM     71  C   UNL A   1      40.303  33.353  36.370  1.00  0.00     0.037 A 
BRANCH  58  72
ATOM     72  C   UNL A   1      35.759  33.525  32.152  1.00  0.00     0.064 A 
ATOM     73  C   UNL A   1      35.759  34.097  30.871  1.00  0.00     0.173 A 
ATOM     74  C   UNL A   1      34.588  33.641  32.918  1.00  0.00     0.173 A 
ATOM     75  F   UNL A   1      36.861  34.044  30.107  1.00  0.00    -0.203 F 
ATOM     76  C   UNL A   1      34.648  34.790  30.395  1.00  0.00     0.198 A 
ATOM     77  C   UNL A   1      33.465  34.300  32.423  1.00  0.00     0.198 A 
ATOM     78  F   UNL A   1      34.534  33.124  34.155  1.00  0.00    -0.203 F 
ATOM     79  F   UNL A   1      34.699  35.392  29.198  1.00  0.00    -0.200 F 
ATOM     80  C   UNL A   1      33.500  34.882  31.167  1.00  0.00     0.200 A 
ATOM     81  F   UNL A   1      32.355  34.380  33.169  1.00  0.00    -0.200 F 
ATOM     82  F   UNL A   1      32.431  35.546  30.704  1.00  0.00    -0.200 F 
ENDBRANCH  58  72
BRANCH  59  83
ATOM     83  C   UNL A   1      43.891  28.529  35.478  1.00  0.00     0.064 A 
ATOM     84  C   UNL A   1      43.849  27.507  36.439  1.00  0.00     0.173 A 
ATOM     85  C   UNL A   1      45.155  28.888  34.981  1.00  0.00     0.173 A 
ATOM     86  F   UNL A   1      42.675  27.140  36.973  1.00  0.00    -0.203 F 
ATOM     87  C   UNL A   1      45.015  26.889  36.893  1.00  0.00     0.198 A 
ATOM     88  C   UNL A   1      46.317  28.243  35.406  1.00  0.00     0.198 A 
ATOM     89  F   UNL A   1      45.268  29.864  34.067  1.00  0.00    -0.203 F 
ATOM     90  F   UNL A   1      44.945  25.955  37.853  1.00  0.00    -0.200 F 
ATOM     91  C   UNL A   1      46.247  27.251  36.370  1.00  0.00     0.200 A 
ATOM     92  F   UNL A   1      47.503  28.588  34.887  1.00  0.00    -0.200 F 
ATOM     93  F   UNL A   1      47.365  26.653  36.804  1.00  0.00    -0.200 F 
ENDBRANCH  59  83
BRANCH  71  94
ATOM     94  C   UNL A   1      40.571  34.330  37.473  1.00  0.00     0.064 A 
ATOM     95  C   UNL A   1      40.064  34.139  38.765  1.00  0.00     0.173 A 
ATOM     96  C   UNL A   1      41.398  35.441  37.243  1.00  0.00     0.173 A 
ATOM     97  F   UNL A   1      39.256  33.099  39.027  1.00  0.00    -0.203 F 
ATOM     98  C   UNL A   1      40.355  35.038  39.784  1.00  0.00     0.198 A 
ATOM     99  C   UNL A   1      41.718  36.315  38.274  1.00  0.00     0.198 A 
ATOM    100  F   UNL A   1      41.914  35.660  36.025  1.00  0.00    -0.203 F 
ATOM    101  F   UNL A   1      39.818  34.866  41.000  1.00  0.00    -0.200 F 
ATOM    102  C   UNL A   1      41.191  36.118  39.541  1.00  0.00     0.200 A 
ATOM    103  F   UNL A   1      42.544  37.345  38.042  1.00  0.00    -0.200 F 
ATOM    104  F   UNL A   1      41.484  36.975  40.529  1.00  0.00    -0.200 F 
ENDBRANCH  71  94
ENDBRANCH  45  46
ENDBRANCH  38  40
ENDBRANCH  37  38
ENDBRANCH   1  37
TORSDOF 12
ENDMDL
MODEL 3
REMARK VINA RESULT:     -12.0      1.962      8.061
REMARK SMILES CC1(C)CC[C@@]2(C(=O)OCCOC(=O)c3ccc(-c4c5nc(c(-c6c(F)c(F)c(F)c(F)c6F)c6ccc([nH]6)c(-c6c(F)c(F)c(F)c(F)c6F)c6nc(c(-c7c(F)c(F)c(F)c(F)c7F)c7ccc4[nH]7)C=C6)C=C5)cc3)CC[C@@]3(C)C(=CC[C@H]4[C@@]5(C)CC[C@H](O)C(C)(C)[C@@H]5CC[C@]43C)[C@@H]2C1
REMARK SMILES IDX 11 1 10 2 9 3 7 4 8 5 6 6 1 7 2 8 3 9 4 10 101 11 5 12
REMARK SMILES IDX 100 13 82 14 78 15 80 16 83 17 79 18 81 19 98 20 84 21 85 22
REMARK SMILES IDX 97 23 99 24 86 25 96 26 87 27 88 28 95 29 89 30 92 31 90 32
REMARK SMILES IDX 93 33 94 34 91 35 12 37 13 38 14 39 15 40 16 41 77 42 17 43
REMARK SMILES IDX 76 44 18 45 19 46 20 47 70 48 21 49 75 50 69 51 71 52 22 53
REMARK SMILES IDX 74 54 68 55 67 56 23 58 55 59 35 60 54 61 36 62 39 63 53 64
REMARK SMILES IDX 72 65 37 66 38 67 52 69 73 70 40 71 24 72 25 73 33 74 26 75
REMARK SMILES IDX 27 76 31 77 34 78 28 79 29 80 32 81 30 82 56 83 57 84 65 85
REMARK SMILES IDX 58 86 59 87 63 88 66 89 60 90 61 91 64 92 62 93 41 94 42 95
REMARK SMILES IDX 50 96 43 97 44 98 48 99 51 100 45 101 46 102 49 103 47 104
REMARK H PARENT 91 36 71 57 39 68
REMARK Flexibility Score: inf
ROOT
ATOM      1  C   UNL A   1      46.536  24.419  39.044  1.00  0.00     0.275 C 
ENDROOT
BRANCH   1   2
ATOM      2  C   UNL A   1      47.568  24.949  37.996  1.00  0.00     0.274 C 
BRANCH   2   3
ATOM      3  O   UNL A   1      47.180  24.671  36.636  1.00  0.00    -0.462 OA
BRANCH   3   4
ATOM      4  C   UNL A   1      47.915  24.400  35.498  1.00  0.00     0.312 C 
ATOM      5  O   UNL A   1      47.882  23.614  34.420  1.00  0.00    -0.252 OA
BRANCH   4   6
ATOM      6  C   UNL A   1      48.028  25.432  34.632  1.00  0.00     0.075 C 
ATOM      7  C   UNL A   1      50.772  27.659  35.097  1.00  0.00     0.011 C 
ATOM      8  C   UNL A   1      50.200  26.778  36.203  1.00  0.00    -0.035 C 
ATOM      9  C   UNL A   1      50.908  27.069  37.554  1.00  0.00     0.011 C 
ATOM     10  C   UNL A   1      48.739  27.184  36.408  1.00  0.00     0.007 C 
ATOM     11  C   UNL A   1      50.434  25.262  35.945  1.00  0.00     0.015 C 
ATOM     12  C   UNL A   1      47.801  26.794  35.290  1.00  0.00     0.020 C 
ATOM     13  C   UNL A   1      49.658  24.449  34.862  1.00  0.00     0.033 C 
ATOM     14  C   UNL A   1      49.493  22.564  35.245  1.00  0.00    -0.063 C 
ATOM     15  C   UNL A   1      46.312  24.656  34.451  1.00  0.00     0.020 C 
ATOM     16  C   UNL A   1      47.975  22.051  35.840  1.00  0.00    -0.006 C 
ATOM     17  C   UNL A   1      50.241  21.395  35.275  1.00  0.00    -0.027 C 
ATOM     18  C   UNL A   1      46.318  22.929  35.291  1.00  0.00     0.013 C 
ATOM     19  C   UNL A   1      47.594  20.883  34.656  1.00  0.00     0.017 C 
ATOM     20  C   UNL A   1      48.629  21.684  37.609  1.00  0.00    -0.020 C 
ATOM     21  C   UNL A   1      49.735  19.982  36.228  1.00  0.00     0.032 C 
ATOM     22  C   UNL A   1      48.431  20.218  37.205  1.00  0.00     0.006 C 
ATOM     23  C   UNL A   1      49.392  20.877  39.047  1.00  0.00     0.008 C 
ATOM     24  C   UNL A   1      50.167  22.450  37.702  1.00  0.00     0.012 C 
ATOM     25  C   UNL A   1      47.346  19.526  38.321  1.00  0.00    -0.025 C 
ATOM     26  C   UNL A   1      48.993  19.694  40.006  1.00  0.00     0.005 C 
ATOM     27  C   UNL A   1      46.587  20.680  39.070  1.00  0.00     0.012 C 
ATOM     28  C   UNL A   1      46.275  18.679  37.599  1.00  0.00     0.010 C 
ATOM     29  C   UNL A   1      47.977  18.722  39.446  1.00  0.00     0.003 C 
ATOM     30  C   UNL A   1      45.200  18.118  38.523  1.00  0.00     0.033 C 
ATOM     31  C   UNL A   1      46.919  18.080  40.501  1.00  0.00    -0.006 C 
ATOM     32  C   UNL A   1      45.774  17.354  39.710  1.00  0.00     0.120 C 
ATOM     33  C   UNL A   1      46.296  19.017  41.589  1.00  0.00     0.014 C 
ATOM     34  C   UNL A   1      47.639  16.998  41.348  1.00  0.00     0.014 C 
BRANCH  32  35
ATOM     35  O   UNL A   1      44.683  16.993  40.563  1.00  0.00    -0.393 OA
ATOM     36  H   UNL A   1      44.523  16.038  40.496  1.00  0.00     0.210 HD
ENDBRANCH  32  35
ENDBRANCH   4   6
ENDBRANCH   3   4
ENDBRANCH   2   3
ENDBRANCH   1   2
BRANCH   1  37
ATOM     37  O   UNL A   1      45.150  24.566  38.631  1.00  0.00    -0.458 OA
BRANCH  37  38
ATOM     38  C   UNL A   1      44.508  25.770  38.572  1.00  0.00     0.338 C 
ATOM     39  O   UNL A   1      44.312  26.496  39.512  1.00  0.00    -0.246 OA
BRANCH  38  40
ATOM     40  C   UNL A   1      44.112  26.109  37.142  1.00  0.00     0.060 A 
ATOM     41  C   UNL A   1      44.740  27.123  36.456  1.00  0.00     0.016 A 
ATOM     42  C   UNL A   1      43.080  25.514  36.445  1.00  0.00     0.016 A 
ATOM     43  C   UNL A   1      44.131  27.926  35.517  1.00  0.00     0.010 A 
ATOM     44  C   UNL A   1      42.619  26.112  35.248  1.00  0.00     0.010 A 
ATOM     45  C   UNL A   1      43.047  27.406  34.860  1.00  0.00    -0.014 A 
BRANCH  45  46
ATOM     46  C   UNL A   1      42.292  28.242  33.889  1.00  0.00     0.031 A 
ATOM     47  C   UNL A   1      41.500  29.373  34.474  1.00  0.00     0.074 A 
ATOM     48  C   UNL A   1      42.345  28.077  32.548  1.00  0.00     0.049 A 
ATOM     49  N   UNL A   1      40.466  30.003  33.996  1.00  0.00    -0.248 NA
ATOM     50  C   UNL A   1      41.903  29.810  35.825  1.00  0.00     0.031 C 
ATOM     51  C   UNL A   1      43.210  27.144  31.819  1.00  0.00     0.029 A 
ATOM     52  N   UNL A   1      41.636  28.700  31.546  1.00  0.00    -0.354 N 
ATOM     53  C   UNL A   1      40.023  30.815  35.032  1.00  0.00     0.074 A 
ATOM     54  C   UNL A   1      40.894  30.595  36.163  1.00  0.00     0.031 C 
ATOM     55  C   UNL A   1      42.989  27.262  30.500  1.00  0.00     0.029 A 
ATOM     56  C   UNL A   1      41.877  28.175  30.295  1.00  0.00     0.049 A 
ATOM     57  H   UNL A   1      41.016  29.448  31.708  1.00  0.00     0.167 HD
ATOM     58  C   UNL A   1      38.965  31.654  35.026  1.00  0.00     0.037 A 
ATOM     59  C   UNL A   1      41.211  28.345  29.136  1.00  0.00     0.037 A 
ATOM     60  C   UNL A   1      38.185  31.900  33.845  1.00  0.00     0.049 A 
ATOM     61  C   UNL A   1      39.994  29.234  29.158  1.00  0.00     0.074 A 
ATOM     62  C   UNL A   1      37.094  32.728  33.684  1.00  0.00     0.029 A 
ATOM     63  N   UNL A   1      38.446  31.322  32.607  1.00  0.00    -0.354 N 
ATOM     64  N   UNL A   1      39.492  29.923  30.157  1.00  0.00    -0.248 NA
ATOM     65  C   UNL A   1      39.233  29.348  27.909  1.00  0.00     0.031 C 
ATOM     66  C   UNL A   1      36.658  32.609  32.360  1.00  0.00     0.029 A 
ATOM     67  C   UNL A   1      37.518  31.757  31.680  1.00  0.00     0.049 A 
ATOM     68  H   UNL A   1      39.181  30.697  32.418  1.00  0.00     0.167 HD
ATOM     69  C   UNL A   1      38.370  30.565  29.657  1.00  0.00     0.074 A 
ATOM     70  C   UNL A   1      38.280  30.203  28.255  1.00  0.00     0.031 C 
ATOM     71  C   UNL A   1      37.483  31.372  30.290  1.00  0.00     0.037 A 
BRANCH  58  72
ATOM     72  C   UNL A   1      38.569  32.286  36.327  1.00  0.00     0.064 A 
ATOM     73  C   UNL A   1      38.881  33.615  36.651  1.00  0.00     0.173 A 
ATOM     74  C   UNL A   1      37.882  31.525  37.288  1.00  0.00     0.173 A 
ATOM     75  F   UNL A   1      39.563  34.380  35.785  1.00  0.00    -0.203 F 
ATOM     76  C   UNL A   1      38.554  34.146  37.897  1.00  0.00     0.198 A 
ATOM     77  C   UNL A   1      37.522  32.071  38.517  1.00  0.00     0.198 A 
ATOM     78  F   UNL A   1      37.568  30.245  37.039  1.00  0.00    -0.203 F 
ATOM     79  F   UNL A   1      38.929  35.394  38.211  1.00  0.00    -0.200 F 
ATOM     80  C   UNL A   1      37.867  33.377  38.825  1.00  0.00     0.200 A 
ATOM     81  F   UNL A   1      36.851  31.328  39.408  1.00  0.00    -0.200 F 
ATOM     82  F   UNL A   1      37.550  33.891  40.022  1.00  0.00    -0.200 F 
ENDBRANCH  58  72
BRANCH  59  83
ATOM     83  C   UNL A   1      41.607  27.598  27.905  1.00  0.00     0.064 A 
ATOM     84  C   UNL A   1      41.057  26.343  27.607  1.00  0.00     0.173 A 
ATOM     85  C   UNL A   1      42.561  28.108  27.008  1.00  0.00     0.173 A 
ATOM     86  F   UNL A   1      40.163  25.790  28.440  1.00  0.00    -0.203 F 
ATOM     87  C   UNL A   1      41.456  25.625  26.477  1.00  0.00     0.198 A 
ATOM     88  C   UNL A   1      42.930  27.408  25.860  1.00  0.00     0.198 A 
ATOM     89  F   UNL A   1      43.134  29.299  27.239  1.00  0.00    -0.203 F 
ATOM     90  F   UNL A   1      40.951  24.403  26.251  1.00  0.00    -0.200 F 
ATOM     91  C   UNL A   1      42.385  26.162  25.601  1.00  0.00     0.200 A 
ATOM     92  F   UNL A   1      43.819  27.939  25.008  1.00  0.00    -0.200 F 
ATOM     93  F   UNL A   1      42.763  25.473  24.514  1.00  0.00    -0.200 F 
ENDBRANCH  59  83
BRANCH  71  94
ATOM     94  C   UNL A   1      36.373  31.940  29.460  1.00  0.00     0.064 A 
ATOM     95  C   UNL A   1      35.301  31.149  29.025  1.00  0.00     0.173 A 
ATOM     96  C   UNL A   1      36.357  33.308  29.148  1.00  0.00     0.173 A 
ATOM     97  F   UNL A   1      35.283  29.833  29.286  1.00  0.00    -0.203 F 
ATOM     98  C   UNL A   1      34.262  31.703  28.287  1.00  0.00     0.198 A 
ATOM     99  C   UNL A   1      35.296  33.865  28.444  1.00  0.00     0.198 A 
ATOM    100  F   UNL A   1      37.356  34.107  29.551  1.00  0.00    -0.203 F 
ATOM    101  F   UNL A   1      33.271  30.920  27.836  1.00  0.00    -0.200 F 
ATOM    102  C   UNL A   1      34.254  33.062  28.007  1.00  0.00     0.200 A 
ATOM    103  F   UNL A   1      35.280  35.182  28.195  1.00  0.00    -0.200 F 
ATOM    104  F   UNL A   1      33.242  33.597  27.310  1.00  0.00    -0.200 F 
ENDBRANCH  71  94
ENDBRANCH  45  46
ENDBRANCH  38  40
ENDBRANCH  37  38
ENDBRANCH   1  37
TORSDOF 12
ENDMDL
