MODEL 1
REMARK VINA RESULT:     -11.1      0.000      0.000
REMARK SMILES CCCCCNC(=O)Oc1cccc(-c2ccc([C@@H](C)C(=O)OCCOC(=O)c3ccc(-c4c5nc(c(-c6c(F)c(F)c(F)c(F)c6F)c6ccc([nH]6)c(-c6c(F)c(F)c(F)c(F)c6F)c6nc(c(-c7c(F)c(F)c(F)c(F)c7F)c7ccc4[nH]7)C=C6)C=C5)cc3)cc2F)c1
REMARK SMILES IDX 19 1 20 2 18 3 15 4 16 5 93 6 17 7 92 8 94 9 14 10 10 11
REMARK SMILES IDX 11 12 95 13 12 14 13 15 9 16 7 17 6 18 8 20 5 21 4 22 3 23
REMARK SMILES IDX 2 24 1 25 21 26 22 27 23 28 24 29 25 30 26 31 27 32 28 33
REMARK SMILES IDX 29 34 30 35 91 36 31 37 90 38 32 39 33 40 34 41 84 42 35 43
REMARK SMILES IDX 89 44 83 45 85 46 36 47 88 48 82 49 81 50 37 52 69 53 49 54
REMARK SMILES IDX 68 55 50 56 53 57 67 58 86 59 51 60 52 61 66 63 87 64 54 65
REMARK SMILES IDX 38 66 39 67 47 68 40 69 41 70 45 71 48 72 42 73 43 74 46 75
REMARK SMILES IDX 44 76 70 77 71 78 79 79 72 80 73 81 77 82 80 83 74 84 75 85
REMARK SMILES IDX 78 86 76 87 55 88 56 89 64 90 57 91 58 92 62 93 65 94 59 95
REMARK SMILES IDX 60 96 63 97 61 98
REMARK H PARENT 6 19 85 51 53 62
REMARK Flexibility Score: inf
ROOT
ATOM      1  C   UNL A   1      41.108  21.968  27.023  1.00  0.00     0.126 C 
ATOM      2  C   UNL A   1      41.531  22.727  28.279  1.00  0.00     0.025 C 
ENDROOT
BRANCH   1   3
ATOM      3  C   UNL A   1      39.744  22.394  26.504  1.00  0.00    -0.031 A 
ATOM      4  C   UNL A   1      37.161  23.127  25.548  1.00  0.00     0.018 A 
ATOM      5  C   UNL A   1      37.975  24.048  26.228  1.00  0.00     0.012 A 
ATOM      6  C   UNL A   1      37.672  21.838  25.357  1.00  0.00     0.131 A 
ATOM      7  C   UNL A   1      39.245  23.690  26.696  1.00  0.00     0.005 A 
ATOM      8  C   UNL A   1      38.939  21.474  25.817  1.00  0.00     0.044 A 
ATOM      9  F   UNL A   1      36.952  20.913  24.702  1.00  0.00    -0.206 F 
BRANCH   4  10
ATOM     10  C   UNL A   1      35.832  23.516  25.055  1.00  0.00    -0.012 A 
ATOM     11  C   UNL A   1      33.625  24.459  25.420  1.00  0.00     0.133 A 
ATOM     12  C   UNL A   1      33.286  24.253  24.086  1.00  0.00     0.047 A 
ATOM     13  C   UNL A   1      34.875  24.082  25.914  1.00  0.00     0.056 A 
ATOM     14  C   UNL A   1      34.222  23.692  23.223  1.00  0.00     0.004 A 
ATOM     15  C   UNL A   1      35.483  23.330  23.704  1.00  0.00     0.009 A 
BRANCH  11  16
ATOM     16  O   UNL A   1      32.620  24.956  26.264  1.00  0.00    -0.410 OA
BRANCH  16  17
ATOM     17  C   UNL A   1      31.569  24.106  26.578  1.00  0.00     0.412 C 
ATOM     18  N   UNL A   1      30.342  24.637  26.285  1.00  0.00    -0.321 N 
ATOM     19  H   UNL A   1      29.562  24.063  26.461  1.00  0.00     0.167 HD
ATOM     20  O   UNL A   1      31.662  22.993  27.081  1.00  0.00    -0.224 OA
BRANCH  18  21
ATOM     21  C   UNL A   1      30.068  25.952  25.745  1.00  0.00     0.119 C 
BRANCH  21  22
ATOM     22  C   UNL A   1      29.885  25.929  24.229  1.00  0.00     0.021 C 
BRANCH  22  23
ATOM     23  C   UNL A   1      30.800  26.881  23.448  1.00  0.00     0.002 C 
BRANCH  23  24
ATOM     24  C   UNL A   1      30.153  28.184  22.970  1.00  0.00    -0.003 C 
ATOM     25  C   UNL A   1      28.641  28.207  23.127  1.00  0.00     0.004 C 
ENDBRANCH  23  24
ENDBRANCH  22  23
ENDBRANCH  21  22
ENDBRANCH  18  21
ENDBRANCH  16  17
ENDBRANCH  11  16
ENDBRANCH   4  10
ENDBRANCH   1   3
BRANCH   1  26
ATOM     26  C   UNL A   1      41.296  20.468  27.231  1.00  0.00     0.313 C 
ATOM     27  O   UNL A   1      40.783  19.873  28.174  1.00  0.00    -0.252 OA
BRANCH  26  28
ATOM     28  O   UNL A   1      42.037  19.873  26.260  1.00  0.00    -0.462 OA
BRANCH  28  29
ATOM     29  C   UNL A   1      42.683  18.631  26.600  1.00  0.00     0.274 C 
BRANCH  29  30
ATOM     30  C   UNL A   1      43.513  18.094  25.431  1.00  0.00     0.275 C 
BRANCH  30  31
ATOM     31  O   UNL A   1      44.726  18.850  25.261  1.00  0.00    -0.458 OA
BRANCH  31  32
ATOM     32  C   UNL A   1      44.777  19.600  24.136  1.00  0.00     0.338 C 
ATOM     33  O   UNL A   1      44.525  19.252  22.997  1.00  0.00    -0.246 OA
BRANCH  32  34
ATOM     34  C   UNL A   1      45.067  20.995  24.492  1.00  0.00     0.060 A 
ATOM     35  C   UNL A   1      45.477  21.265  25.799  1.00  0.00     0.016 A 
ATOM     36  C   UNL A   1      44.855  22.032  23.583  1.00  0.00     0.016 A 
ATOM     37  C   UNL A   1      45.662  22.578  26.216  1.00  0.00     0.010 A 
ATOM     38  C   UNL A   1      45.051  23.352  23.999  1.00  0.00     0.010 A 
ATOM     39  C   UNL A   1      45.441  23.633  25.321  1.00  0.00    -0.014 A 
BRANCH  39  40
ATOM     40  C   UNL A   1      45.577  25.030  25.791  1.00  0.00     0.031 A 
ATOM     41  C   UNL A   1      46.905  25.722  25.701  1.00  0.00     0.074 A 
ATOM     42  C   UNL A   1      44.504  25.681  26.272  1.00  0.00     0.049 A 
ATOM     43  N   UNL A   1      47.248  26.915  26.117  1.00  0.00    -0.248 NA
ATOM     44  C   UNL A   1      47.993  24.971  25.058  1.00  0.00     0.031 C 
ATOM     45  C   UNL A   1      43.154  25.127  26.362  1.00  0.00     0.029 A 
ATOM     46  N   UNL A   1      44.381  26.951  26.775  1.00  0.00    -0.354 N 
ATOM     47  C   UNL A   1      48.595  27.049  25.808  1.00  0.00     0.074 A 
ATOM     48  C   UNL A   1      49.011  25.812  25.180  1.00  0.00     0.031 C 
ATOM     49  C   UNL A   1      42.335  26.054  26.885  1.00  0.00     0.029 A 
ATOM     50  C   UNL A   1      43.113  27.248  27.206  1.00  0.00     0.049 A 
ATOM     51  H   UNL A   1      45.130  27.588  26.822  1.00  0.00     0.167 HD
ATOM     52  C   UNL A   1      49.406  28.111  26.027  1.00  0.00     0.037 A 
ATOM     53  C   UNL A   1      42.639  28.352  27.812  1.00  0.00     0.037 A 
ATOM     54  C   UNL A   1      48.982  29.346  26.634  1.00  0.00     0.049 A 
ATOM     55  C   UNL A   1      43.573  29.496  28.094  1.00  0.00     0.074 A 
ATOM     56  C   UNL A   1      49.723  30.489  26.876  1.00  0.00     0.029 A 
ATOM     57  N   UNL A   1      47.697  29.596  27.095  1.00  0.00    -0.354 N 
ATOM     58  N   UNL A   1      44.846  29.616  27.802  1.00  0.00    -0.248 NA
ATOM     59  C   UNL A   1      43.007  30.655  28.798  1.00  0.00     0.031 C 
ATOM     60  C   UNL A   1      48.897  31.417  27.520  1.00  0.00     0.029 A 
ATOM     61  C   UNL A   1      47.630  30.868  27.642  1.00  0.00     0.049 A 
ATOM     62  H   UNL A   1      46.945  28.964  27.040  1.00  0.00     0.167 HD
ATOM     63  C   UNL A   1      45.230  30.864  28.269  1.00  0.00     0.074 A 
ATOM     64  C   UNL A   1      44.051  31.472  28.853  1.00  0.00     0.031 C 
ATOM     65  C   UNL A   1      46.449  31.454  28.219  1.00  0.00     0.037 A 
BRANCH  52  66
ATOM     66  C   UNL A   1      50.846  27.967  25.638  1.00  0.00     0.064 A 
ATOM     67  C   UNL A   1      51.278  28.155  24.317  1.00  0.00     0.173 A 
ATOM     68  C   UNL A   1      51.812  27.654  26.607  1.00  0.00     0.173 A 
ATOM     69  F   UNL A   1      50.392  28.442  23.352  1.00  0.00    -0.203 F 
ATOM     70  C   UNL A   1      52.621  28.010  23.976  1.00  0.00     0.198 A 
ATOM     71  C   UNL A   1      53.156  27.533  26.266  1.00  0.00     0.198 A 
ATOM     72  F   UNL A   1      51.450  27.468  27.886  1.00  0.00    -0.203 F 
ATOM     73  F   UNL A   1      53.005  28.150  22.699  1.00  0.00    -0.200 F 
ATOM     74  C   UNL A   1      53.558  27.704  24.951  1.00  0.00     0.200 A 
ATOM     75  F   UNL A   1      54.062  27.246  27.212  1.00  0.00    -0.200 F 
ATOM     76  F   UNL A   1      54.850  27.564  24.621  1.00  0.00    -0.200 F 
ENDBRANCH  52  66
BRANCH  53  77
ATOM     77  C   UNL A   1      41.209  28.420  28.203  1.00  0.00     0.064 A 
ATOM     78  C   UNL A   1      40.783  27.963  29.457  1.00  0.00     0.173 A 
ATOM     79  C   UNL A   1      40.243  28.953  27.338  1.00  0.00     0.173 A 
ATOM     80  F   UNL A   1      41.666  27.421  30.307  1.00  0.00    -0.203 F 
ATOM     81  C   UNL A   1      39.442  28.031  29.829  1.00  0.00     0.198 A 
ATOM     82  C   UNL A   1      38.907  29.043  27.720  1.00  0.00     0.198 A 
ATOM     83  F   UNL A   1      40.601  29.400  26.125  1.00  0.00    -0.203 F 
ATOM     84  F   UNL A   1      39.054  27.558  31.020  1.00  0.00    -0.200 F 
ATOM     85  C   UNL A   1      38.506  28.578  28.963  1.00  0.00     0.200 A 
ATOM     86  F   UNL A   1      38.007  29.581  26.884  1.00  0.00    -0.200 F 
ATOM     87  F   UNL A   1      37.218  28.652  29.325  1.00  0.00    -0.200 F 
ENDBRANCH  53  77
BRANCH  65  88
ATOM     88  C   UNL A   1      46.562  32.836  28.791  1.00  0.00     0.064 A 
ATOM     89  C   UNL A   1      46.329  33.975  28.007  1.00  0.00     0.173 A 
ATOM     90  C   UNL A   1      46.873  33.021  30.147  1.00  0.00     0.173 A 
ATOM     91  F   UNL A   1      46.046  33.849  26.702  1.00  0.00    -0.203 F 
ATOM     92  C   UNL A   1      46.422  35.251  28.556  1.00  0.00     0.198 A 
ATOM     93  C   UNL A   1      46.941  34.298  30.697  1.00  0.00     0.198 A 
ATOM     94  F   UNL A   1      47.100  31.963  30.939  1.00  0.00    -0.203 F 
ATOM     95  F   UNL A   1      46.234  36.328  27.779  1.00  0.00    -0.200 F 
ATOM     96  C   UNL A   1      46.721  35.411  29.900  1.00  0.00     0.200 A 
ATOM     97  F   UNL A   1      47.222  34.452  31.998  1.00  0.00    -0.200 F 
ATOM     98  F   UNL A   1      46.806  36.640  30.427  1.00  0.00    -0.200 F 
ENDBRANCH  65  88
ENDBRANCH  39  40
ENDBRANCH  32  34
ENDBRANCH  31  32
ENDBRANCH  30  31
ENDBRANCH  29  30
ENDBRANCH  28  29
ENDBRANCH  26  28
ENDBRANCH   1  26
TORSDOF 19
ENDMDL
MODEL 2
REMARK VINA RESULT:     -11.1      3.663     10.067
REMARK SMILES CCCCCNC(=O)Oc1cccc(-c2ccc([C@@H](C)C(=O)OCCOC(=O)c3ccc(-c4c5nc(c(-c6c(F)c(F)c(F)c(F)c6F)c6ccc([nH]6)c(-c6c(F)c(F)c(F)c(F)c6F)c6nc(c(-c7c(F)c(F)c(F)c(F)c7F)c7ccc4[nH]7)C=C6)C=C5)cc3)cc2F)c1
REMARK SMILES IDX 19 1 20 2 18 3 15 4 16 5 93 6 17 7 92 8 94 9 14 10 10 11
REMARK SMILES IDX 11 12 95 13 12 14 13 15 9 16 7 17 6 18 8 20 5 21 4 22 3 23
REMARK SMILES IDX 2 24 1 25 21 26 22 27 23 28 24 29 25 30 26 31 27 32 28 33
REMARK SMILES IDX 29 34 30 35 91 36 31 37 90 38 32 39 33 40 34 41 84 42 35 43
REMARK SMILES IDX 89 44 83 45 85 46 36 47 88 48 82 49 81 50 37 52 69 53 49 54
REMARK SMILES IDX 68 55 50 56 53 57 67 58 86 59 51 60 52 61 66 63 87 64 54 65
REMARK SMILES IDX 38 66 39 67 47 68 40 69 41 70 45 71 48 72 42 73 43 74 46 75
REMARK SMILES IDX 44 76 70 77 71 78 79 79 72 80 73 81 77 82 80 83 74 84 75 85
REMARK SMILES IDX 78 86 76 87 55 88 56 89 64 90 57 91 58 92 62 93 65 94 59 95
REMARK SMILES IDX 60 96 63 97 61 98
REMARK H PARENT 6 19 85 51 53 62
REMARK Flexibility Score: inf
ROOT
ATOM      1  C   UNL A   1      35.247  32.634  28.837  1.00  0.00     0.126 C 
ATOM      2  C   UNL A   1      36.391  33.242  28.029  1.00  0.00     0.025 C 
ENDROOT
BRANCH   1   3
ATOM      3  C   UNL A   1      34.480  31.568  28.070  1.00  0.00    -0.031 A 
ATOM      4  C   UNL A   1      33.072  29.520  26.674  1.00  0.00     0.018 A 
ATOM      5  C   UNL A   1      32.477  30.766  26.935  1.00  0.00     0.012 A 
ATOM      6  C   UNL A   1      34.383  29.328  27.124  1.00  0.00     0.131 A 
ATOM      7  C   UNL A   1      33.169  31.773  27.619  1.00  0.00     0.005 A 
ATOM      8  C   UNL A   1      35.081  30.329  27.803  1.00  0.00     0.044 A 
ATOM      9  F   UNL A   1      35.017  28.167  26.895  1.00  0.00    -0.206 F 
BRANCH   4  10
ATOM     10  C   UNL A   1      32.338  28.472  25.950  1.00  0.00    -0.012 A 
ATOM     11  C   UNL A   1      31.841  27.249  23.913  1.00  0.00     0.133 A 
ATOM     12  C   UNL A   1      30.916  26.453  24.583  1.00  0.00     0.047 A 
ATOM     13  C   UNL A   1      32.537  28.262  24.576  1.00  0.00     0.056 A 
ATOM     14  C   UNL A   1      30.707  26.650  25.945  1.00  0.00     0.004 A 
ATOM     15  C   UNL A   1      31.414  27.648  26.621  1.00  0.00     0.009 A 
BRANCH  11  16
ATOM     16  O   UNL A   1      31.958  27.061  22.527  1.00  0.00    -0.410 OA
BRANCH  16  17
ATOM     17  C   UNL A   1      33.234  26.885  22.011  1.00  0.00     0.412 C 
ATOM     18  N   UNL A   1      33.574  25.569  21.856  1.00  0.00    -0.321 N 
ATOM     19  H   UNL A   1      34.459  25.387  21.465  1.00  0.00     0.167 HD
ATOM     20  O   UNL A   1      34.027  27.772  21.720  1.00  0.00    -0.224 OA
BRANCH  18  21
ATOM     21  C   UNL A   1      32.772  24.415  22.206  1.00  0.00     0.119 C 
BRANCH  21  22
ATOM     22  C   UNL A   1      33.303  23.694  23.444  1.00  0.00     0.021 C 
BRANCH  22  23
ATOM     23  C   UNL A   1      34.734  24.067  23.849  1.00  0.00     0.002 C 
BRANCH  23  24
ATOM     24  C   UNL A   1      34.903  24.618  25.268  1.00  0.00    -0.003 C 
ATOM     25  C   UNL A   1      33.656  24.480  26.127  1.00  0.00     0.004 C 
ENDBRANCH  23  24
ENDBRANCH  22  23
ENDBRANCH  21  22
ENDBRANCH  18  21
ENDBRANCH  16  17
ENDBRANCH  11  16
ENDBRANCH   4  10
ENDBRANCH   1   3
BRANCH   1  26
ATOM     26  C   UNL A   1      34.398  33.740  29.456  1.00  0.00     0.313 C 
ATOM     27  O   UNL A   1      34.077  34.743  28.826  1.00  0.00    -0.252 OA
BRANCH  26  28
ATOM     28  O   UNL A   1      34.013  33.479  30.732  1.00  0.00    -0.462 OA
BRANCH  28  29
ATOM     29  C   UNL A   1      34.831  34.023  31.787  1.00  0.00     0.274 C 
BRANCH  29  30
ATOM     30  C   UNL A   1      34.903  33.075  32.986  1.00  0.00     0.275 C 
BRANCH  30  31
ATOM     31  O   UNL A   1      35.616  31.869  32.656  1.00  0.00    -0.458 OA
BRANCH  31  32
ATOM     32  C   UNL A   1      36.796  31.710  33.299  1.00  0.00     0.338 C 
ATOM     33  O   UNL A   1      37.023  31.852  34.486  1.00  0.00    -0.246 OA
BRANCH  32  34
ATOM     34  C   UNL A   1      37.799  31.195  32.357  1.00  0.00     0.060 A 
ATOM     35  C   UNL A   1      38.948  30.601  32.883  1.00  0.00     0.016 A 
ATOM     36  C   UNL A   1      37.655  31.372  30.980  1.00  0.00     0.016 A 
ATOM     37  C   UNL A   1      39.973  30.194  32.038  1.00  0.00     0.010 A 
ATOM     38  C   UNL A   1      38.681  30.953  30.129  1.00  0.00     0.010 A 
ATOM     39  C   UNL A   1      39.852  30.375  30.655  1.00  0.00    -0.014 A 
BRANCH  39  40
ATOM     40  C   UNL A   1      40.975  29.998  29.767  1.00  0.00     0.031 A 
ATOM     41  C   UNL A   1      41.007  28.636  29.140  1.00  0.00     0.074 A 
ATOM     42  C   UNL A   1      41.948  30.888  29.506  1.00  0.00     0.049 A 
ATOM     43  N   UNL A   1      41.930  28.089  28.390  1.00  0.00    -0.248 NA
ATOM     44  C   UNL A   1      39.845  27.771  29.393  1.00  0.00     0.031 C 
ATOM     45  C   UNL A   1      41.997  32.257  30.019  1.00  0.00     0.029 A 
ATOM     46  N   UNL A   1      43.082  30.773  28.743  1.00  0.00    -0.354 N 
ATOM     47  C   UNL A   1      41.473  26.811  28.100  1.00  0.00     0.074 A 
ATOM     48  C   UNL A   1      40.195  26.658  28.764  1.00  0.00     0.031 C 
ATOM     49  C   UNL A   1      43.103  32.858  29.553  1.00  0.00     0.029 A 
ATOM     50  C   UNL A   1      43.860  31.903  28.746  1.00  0.00     0.049 A 
ATOM     51  H   UNL A   1      43.316  29.959  28.242  1.00  0.00     0.167 HD
ATOM     52  C   UNL A   1      42.067  25.858  27.345  1.00  0.00     0.037 A 
ATOM     53  C   UNL A   1      45.059  32.133  28.180  1.00  0.00     0.037 A 
ATOM     54  C   UNL A   1      43.328  26.022  26.671  1.00  0.00     0.049 A 
ATOM     55  C   UNL A   1      45.723  31.038  27.393  1.00  0.00     0.074 A 
ATOM     56  C   UNL A   1      44.000  25.123  25.862  1.00  0.00     0.029 A 
ATOM     57  N   UNL A   1      44.108  27.169  26.730  1.00  0.00    -0.354 N 
ATOM     58  N   UNL A   1      45.287  29.830  27.124  1.00  0.00    -0.248 NA
ATOM     59  C   UNL A   1      47.051  31.334  26.836  1.00  0.00     0.031 C 
ATOM     60  C   UNL A   1      45.207  25.710  25.464  1.00  0.00     0.029 A 
ATOM     61  C   UNL A   1      45.267  26.991  25.990  1.00  0.00     0.049 A 
ATOM     62  H   UNL A   1      43.872  27.987  27.223  1.00  0.00     0.167 HD
ATOM     63  C   UNL A   1      46.274  29.229  26.356  1.00  0.00     0.074 A 
ATOM     64  C   UNL A   1      47.328  30.210  26.189  1.00  0.00     0.031 C 
ATOM     65  C   UNL A   1      46.304  27.978  25.837  1.00  0.00     0.037 A 
BRANCH  52  66
ATOM     66  C   UNL A   1      41.371  24.534  27.238  1.00  0.00     0.064 A 
ATOM     67  C   UNL A   1      41.856  23.389  27.886  1.00  0.00     0.173 A 
ATOM     68  C   UNL A   1      40.189  24.415  26.491  1.00  0.00     0.173 A 
ATOM     69  F   UNL A   1      42.990  23.448  28.601  1.00  0.00    -0.203 F 
ATOM     70  C   UNL A   1      41.198  22.167  27.768  1.00  0.00     0.198 A 
ATOM     71  C   UNL A   1      39.521  23.198  26.395  1.00  0.00     0.198 A 
ATOM     72  F   UNL A   1      39.681  25.482  25.856  1.00  0.00    -0.203 F 
ATOM     73  F   UNL A   1      41.704  21.075  28.359  1.00  0.00    -0.200 F 
ATOM     74  C   UNL A   1      40.030  22.074  27.027  1.00  0.00     0.200 A 
ATOM     75  F   UNL A   1      38.387  23.112  25.687  1.00  0.00    -0.200 F 
ATOM     76  F   UNL A   1      39.397  20.897  26.915  1.00  0.00    -0.200 F 
ENDBRANCH  52  66
BRANCH  53  77
ATOM     77  C   UNL A   1      45.711  33.455  28.350  1.00  0.00     0.064 A 
ATOM     78  C   UNL A   1      46.570  33.700  29.430  1.00  0.00     0.173 A 
ATOM     79  C   UNL A   1      45.500  34.494  27.432  1.00  0.00     0.173 A 
ATOM     80  F   UNL A   1      46.782  32.746  30.347  1.00  0.00    -0.203 F 
ATOM     81  C   UNL A   1      47.189  34.938  29.588  1.00  0.00     0.198 A 
ATOM     82  C   UNL A   1      46.139  35.723  27.578  1.00  0.00     0.198 A 
ATOM     83  F   UNL A   1      44.684  34.309  26.384  1.00  0.00    -0.203 F 
ATOM     84  F   UNL A   1      47.980  35.159  30.646  1.00  0.00    -0.200 F 
ATOM     85  C   UNL A   1      46.978  35.946  28.658  1.00  0.00     0.200 A 
ATOM     86  F   UNL A   1      45.940  36.691  26.673  1.00  0.00    -0.200 F 
ATOM     87  F   UNL A   1      47.581  37.134  28.807  1.00  0.00    -0.200 F 
ENDBRANCH  53  77
BRANCH  65  88
ATOM     88  C   UNL A   1      47.506  27.607  25.021  1.00  0.00     0.064 A 
ATOM     89  C   UNL A   1      47.544  27.820  23.635  1.00  0.00     0.173 A 
ATOM     90  C   UNL A   1      48.645  27.066  25.636  1.00  0.00     0.173 A 
ATOM     91  F   UNL A   1      46.473  28.317  22.999  1.00  0.00    -0.203 F 
ATOM     92  C   UNL A   1      48.673  27.485  22.892  1.00  0.00     0.198 A 
ATOM     93  C   UNL A   1      49.780  26.756  24.893  1.00  0.00     0.198 A 
ATOM     94  F   UNL A   1      48.659  26.848  26.960  1.00  0.00    -0.203 F 
ATOM     95  F   UNL A   1      48.674  27.659  21.562  1.00  0.00    -0.200 F 
ATOM     96  C   UNL A   1      49.791  26.960  23.522  1.00  0.00     0.200 A 
ATOM     97  F   UNL A   1      50.864  26.257  25.504  1.00  0.00    -0.200 F 
ATOM     98  F   UNL A   1      50.878  26.643  22.805  1.00  0.00    -0.200 F 
ENDBRANCH  65  88
ENDBRANCH  39  40
ENDBRANCH  32  34
ENDBRANCH  31  32
ENDBRANCH  30  31
ENDBRANCH  29  30
ENDBRANCH  28  29
ENDBRANCH  26  28
ENDBRANCH   1  26
TORSDOF 19
ENDMDL
MODEL 3
REMARK VINA RESULT:     -11.0      3.634     10.062
REMARK SMILES CCCCCNC(=O)Oc1cccc(-c2ccc([C@@H](C)C(=O)OCCOC(=O)c3ccc(-c4c5nc(c(-c6c(F)c(F)c(F)c(F)c6F)c6ccc([nH]6)c(-c6c(F)c(F)c(F)c(F)c6F)c6nc(c(-c7c(F)c(F)c(F)c(F)c7F)c7ccc4[nH]7)C=C6)C=C5)cc3)cc2F)c1
REMARK SMILES IDX 19 1 20 2 18 3 15 4 16 5 93 6 17 7 92 8 94 9 14 10 10 11
REMARK SMILES IDX 11 12 95 13 12 14 13 15 9 16 7 17 6 18 8 20 5 21 4 22 3 23
REMARK SMILES IDX 2 24 1 25 21 26 22 27 23 28 24 29 25 30 26 31 27 32 28 33
REMARK SMILES IDX 29 34 30 35 91 36 31 37 90 38 32 39 33 40 34 41 84 42 35 43
REMARK SMILES IDX 89 44 83 45 85 46 36 47 88 48 82 49 81 50 37 52 69 53 49 54
REMARK SMILES IDX 68 55 50 56 53 57 67 58 86 59 51 60 52 61 66 63 87 64 54 65
REMARK SMILES IDX 38 66 39 67 47 68 40 69 41 70 45 71 48 72 42 73 43 74 46 75
REMARK SMILES IDX 44 76 70 77 71 78 79 79 72 80 73 81 77 82 80 83 74 84 75 85
REMARK SMILES IDX 78 86 76 87 55 88 56 89 64 90 57 91 58 92 62 93 65 94 59 95
REMARK SMILES IDX 60 96 63 97 61 98
REMARK H PARENT 6 19 85 51 53 62
REMARK Flexibility Score: inf
ROOT
ATOM      1  C   UNL A   1      35.529  32.631  29.478  1.00  0.00     0.126 C 
ATOM      2  C   UNL A   1      36.342  33.702  28.755  1.00  0.00     0.025 C 
ENDROOT
BRANCH   1   3
ATOM      3  C   UNL A   1      35.113  31.487  28.567  1.00  0.00    -0.031 A 
ATOM      4  C   UNL A   1      34.298  29.389  26.818  1.00  0.00     0.018 A 
ATOM      5  C   UNL A   1      35.577  29.398  27.399  1.00  0.00     0.012 A 
ATOM      6  C   UNL A   1      33.442  30.450  27.135  1.00  0.00     0.131 A 
ATOM      7  C   UNL A   1      35.978  30.427  28.260  1.00  0.00     0.005 A 
ATOM      8  C   UNL A   1      33.832  31.477  27.997  1.00  0.00     0.044 A 
ATOM      9  F   UNL A   1      32.200  30.495  26.627  1.00  0.00    -0.206 F 
BRANCH   4  10
ATOM     10  C   UNL A   1      33.886  28.301  25.920  1.00  0.00    -0.012 A 
ATOM     11  C   UNL A   1      33.375  25.963  25.512  1.00  0.00     0.133 A 
ATOM     12  C   UNL A   1      33.094  26.229  24.175  1.00  0.00     0.047 A 
ATOM     13  C   UNL A   1      33.785  26.978  26.380  1.00  0.00     0.056 A 
ATOM     14  C   UNL A   1      33.193  27.534  23.704  1.00  0.00     0.004 A 
ATOM     15  C   UNL A   1      33.582  28.560  24.570  1.00  0.00     0.009 A 
BRANCH  11  16
ATOM     16  O   UNL A   1      33.335  24.620  25.918  1.00  0.00    -0.410 OA
BRANCH  16  17
ATOM     17  C   UNL A   1      32.100  24.093  26.267  1.00  0.00     0.412 C 
ATOM     18  N   UNL A   1      31.679  23.103  25.420  1.00  0.00    -0.321 N 
ATOM     19  H   UNL A   1      30.821  22.674  25.639  1.00  0.00     0.167 HD
ATOM     20  O   UNL A   1      31.402  24.445  27.210  1.00  0.00    -0.224 OA
BRANCH  18  21
ATOM     21  C   UNL A   1      32.361  22.620  24.237  1.00  0.00     0.119 C 
BRANCH  21  22
ATOM     22  C   UNL A   1      32.380  21.094  24.163  1.00  0.00     0.021 C 
BRANCH  22  23
ATOM     23  C   UNL A   1      33.155  20.398  25.288  1.00  0.00     0.002 C 
BRANCH  23  24
ATOM     24  C   UNL A   1      34.629  20.102  24.999  1.00  0.00    -0.003 C 
ATOM     25  C   UNL A   1      35.544  21.298  25.213  1.00  0.00     0.004 C 
ENDBRANCH  23  24
ENDBRANCH  22  23
ENDBRANCH  21  22
ENDBRANCH  18  21
ENDBRANCH  16  17
ENDBRANCH  11  16
ENDBRANCH   4  10
ENDBRANCH   1   3
BRANCH   1  26
ATOM     26  C   UNL A   1      34.403  33.280  30.277  1.00  0.00     0.313 C 
ATOM     27  O   UNL A   1      33.751  34.221  29.836  1.00  0.00    -0.252 OA
BRANCH  26  28
ATOM     28  O   UNL A   1      34.181  32.690  31.481  1.00  0.00    -0.462 OA
BRANCH  28  29
ATOM     29  C   UNL A   1      34.257  33.534  32.647  1.00  0.00     0.274 C 
BRANCH  29  30
ATOM     30  C   UNL A   1      35.410  33.119  33.565  1.00  0.00     0.275 C 
BRANCH  30  31
ATOM     31  O   UNL A   1      36.012  31.889  33.124  1.00  0.00    -0.458 OA
BRANCH  31  32
ATOM     32  C   UNL A   1      37.181  31.577  33.730  1.00  0.00     0.338 C 
ATOM     33  O   UNL A   1      37.427  31.583  34.922  1.00  0.00    -0.246 OA
BRANCH  32  34
ATOM     34  C   UNL A   1      38.133  31.081  32.728  1.00  0.00     0.060 A 
ATOM     35  C   UNL A   1      39.254  30.381  33.178  1.00  0.00     0.016 A 
ATOM     36  C   UNL A   1      37.975  31.378  31.373  1.00  0.00     0.016 A 
ATOM     37  C   UNL A   1      40.237  29.984  32.280  1.00  0.00     0.010 A 
ATOM     38  C   UNL A   1      38.959  30.969  30.468  1.00  0.00     0.010 A 
ATOM     39  C   UNL A   1      40.102  30.284  30.919  1.00  0.00    -0.014 A 
BRANCH  39  40
ATOM     40  C   UNL A   1      41.184  29.915  29.978  1.00  0.00     0.031 A 
ATOM     41  C   UNL A   1      41.162  28.576  29.302  1.00  0.00     0.074 A 
ATOM     42  C   UNL A   1      42.168  30.792  29.715  1.00  0.00     0.049 A 
ATOM     43  N   UNL A   1      42.045  28.037  28.500  1.00  0.00    -0.248 NA
ATOM     44  C   UNL A   1      39.989  27.729  29.565  1.00  0.00     0.031 C 
ATOM     45  C   UNL A   1      42.267  32.139  30.274  1.00  0.00     0.029 A 
ATOM     46  N   UNL A   1      43.272  30.680  28.908  1.00  0.00    -0.354 N 
ATOM     47  C   UNL A   1      41.548  26.781  28.181  1.00  0.00     0.074 A 
ATOM     48  C   UNL A   1      40.291  26.632  28.884  1.00  0.00     0.031 C 
ATOM     49  C   UNL A   1      43.371  32.733  29.791  1.00  0.00     0.029 A 
ATOM     50  C   UNL A   1      44.076  31.792  28.923  1.00  0.00     0.049 A 
ATOM     51  H   UNL A   1      43.468  29.879  28.369  1.00  0.00     0.167 HD
ATOM     52  C   UNL A   1      42.092  25.843  27.371  1.00  0.00     0.037 A 
ATOM     53  C   UNL A   1      45.259  32.015  28.324  1.00  0.00     0.037 A 
ATOM     54  C   UNL A   1      43.333  26.004  26.658  1.00  0.00     0.049 A 
ATOM     55  C   UNL A   1      45.869  30.935  27.474  1.00  0.00     0.074 A 
ATOM     56  C   UNL A   1      43.955  25.121  25.794  1.00  0.00     0.029 A 
ATOM     57  N   UNL A   1      44.141  27.130  26.730  1.00  0.00    -0.354 N 
ATOM     58  N   UNL A   1      45.396  29.748  27.178  1.00  0.00    -0.248 NA
ATOM     59  C   UNL A   1      47.183  31.222  26.881  1.00  0.00     0.031 C 
ATOM     60  C   UNL A   1      45.160  25.695  25.374  1.00  0.00     0.029 A 
ATOM     61  C   UNL A   1      45.269  26.954  25.944  1.00  0.00     0.049 A 
ATOM     62  H   UNL A   1      43.942  27.935  27.261  1.00  0.00     0.167 HD
ATOM     63  C   UNL A   1      46.340  29.154  26.354  1.00  0.00     0.074 A 
ATOM     64  C   UNL A   1      47.411  30.116  26.185  1.00  0.00     0.031 C 
ATOM     65  C   UNL A   1      46.323  27.922  25.789  1.00  0.00     0.037 A 
BRANCH  52  66
ATOM     66  C   UNL A   1      41.362  24.540  27.242  1.00  0.00     0.064 A 
ATOM     67  C   UNL A   1      40.176  24.426  26.502  1.00  0.00     0.173 A 
ATOM     68  C   UNL A   1      41.869  23.383  27.852  1.00  0.00     0.173 A 
ATOM     69  F   UNL A   1      39.644  25.506  25.912  1.00  0.00    -0.203 F 
ATOM     70  C   UNL A   1      39.510  23.207  26.402  1.00  0.00     0.198 A 
ATOM     71  C   UNL A   1      41.214  22.161  27.729  1.00  0.00     0.198 A 
ATOM     72  F   UNL A   1      43.004  23.437  28.567  1.00  0.00    -0.203 F 
ATOM     73  F   UNL A   1      38.354  23.131  25.727  1.00  0.00    -0.200 F 
ATOM     74  C   UNL A   1      40.032  22.076  27.010  1.00  0.00     0.200 A 
ATOM     75  F   UNL A   1      41.724  21.067  28.310  1.00  0.00    -0.200 F 
ATOM     76  F   UNL A   1      39.390  20.903  26.912  1.00  0.00    -0.200 F 
ENDBRANCH  52  66
BRANCH  53  77
ATOM     77  C   UNL A   1      45.948  33.315  28.518  1.00  0.00     0.064 A 
ATOM     78  C   UNL A   1      45.739  34.380  27.633  1.00  0.00     0.173 A 
ATOM     79  C   UNL A   1      46.818  33.523  29.598  1.00  0.00     0.173 A 
ATOM     80  F   UNL A   1      44.936  34.220  26.571  1.00  0.00    -0.203 F 
ATOM     81  C   UNL A   1      46.379  35.604  27.817  1.00  0.00     0.198 A 
ATOM     82  C   UNL A   1      47.439  34.754  29.795  1.00  0.00     0.198 A 
ATOM     83  F   UNL A   1      47.054  32.532  30.471  1.00  0.00    -0.203 F 
ATOM     84  F   UNL A   1      46.188  36.597  26.939  1.00  0.00    -0.200 F 
ATOM     85  C   UNL A   1      47.223  35.792  28.902  1.00  0.00     0.200 A 
ATOM     86  F   UNL A   1      48.247  34.934  30.849  1.00  0.00    -0.200 F 
ATOM     87  F   UNL A   1      47.832  36.971  29.083  1.00  0.00    -0.200 F 
ENDBRANCH  53  77
BRANCH  65  88
ATOM     88  C   UNL A   1      47.487  27.555  24.917  1.00  0.00     0.064 A 
ATOM     89  C   UNL A   1      47.488  27.833  23.542  1.00  0.00     0.173 A 
ATOM     90  C   UNL A   1      48.627  26.952  25.469  1.00  0.00     0.173 A 
ATOM     91  F   UNL A   1      46.413  28.392  22.966  1.00  0.00    -0.203 F 
ATOM     92  C   UNL A   1      48.582  27.501  22.748  1.00  0.00     0.198 A 
ATOM     93  C   UNL A   1      49.728  26.644  24.675  1.00  0.00     0.198 A 
ATOM     94  F   UNL A   1      48.675  26.671  26.780  1.00  0.00    -0.203 F 
ATOM     95  F   UNL A   1      48.546  27.738  21.429  1.00  0.00    -0.200 F 
ATOM     96  C   UNL A   1      49.702  26.913  23.315  1.00  0.00     0.200 A 
ATOM     97  F   UNL A   1      50.814  26.084  25.226  1.00  0.00    -0.200 F 
ATOM     98  F   UNL A   1      50.756  26.598  22.549  1.00  0.00    -0.200 F 
ENDBRANCH  65  88
ENDBRANCH  39  40
ENDBRANCH  32  34
ENDBRANCH  31  32
ENDBRANCH  30  31
ENDBRANCH  29  30
ENDBRANCH  28  29
ENDBRANCH  26  28
ENDBRANCH   1  26
TORSDOF 19
ENDMDL
