MODEL 1
REMARK VINA RESULT:     -12.1      0.000      0.000
REMARK SMILES COc1ccc(-n2c(C)nnc2SCC(=O)OCCOC(=O)c2ccc(-c3c4nc(c(-c5c(F)c(F)c(F)c(F)c5F)c5ccc([nH]5)c(-c5c(F)c(F)c(F)c(F)c5F)c5nc(c(-c6c(F)c(F)c(F)c(F)c6F)c6ccc3[nH]6)C=C5)C=C4)cc2)cc1F
REMARK SMILES IDX 18 1 17 2 15 3 16 4 14 5 13 6 12 7 7 8 8 9 9 10 10 11 11 12
REMARK SMILES IDX 6 13 3 14 4 15 87 16 5 17 86 18 88 19 2 20 1 21 19 22 20 23
REMARK SMILES IDX 21 24 22 25 23 26 24 27 85 28 25 29 84 30 26 31 27 32 28 33
REMARK SMILES IDX 78 34 29 35 83 36 77 37 79 38 30 39 82 40 76 41 75 42 31 44
REMARK SMILES IDX 63 45 43 46 62 47 44 48 47 49 61 50 80 51 45 52 46 53 60 55
REMARK SMILES IDX 81 56 48 57 32 58 33 59 41 60 34 61 35 62 39 63 42 64 36 65
REMARK SMILES IDX 37 66 40 67 38 68 64 69 65 70 73 71 66 72 67 73 71 74 74 75
REMARK SMILES IDX 68 76 69 77 72 78 70 79 49 80 50 81 58 82 51 83 52 84 56 85
REMARK SMILES IDX 59 86 53 87 54 88 57 89 55 90
REMARK H PARENT 79 43 47 54
REMARK Flexibility Score: inf
ROOT
ATOM      1  C   UNL A   1      44.990  20.752  25.465  1.00  0.00     0.274 C 
ENDROOT
BRANCH   1   2
ATOM      2  O   UNL A   1      43.667  20.368  25.022  1.00  0.00    -0.461 OA
BRANCH   2   3
ATOM      3  C   UNL A   1      43.127  19.232  25.548  1.00  0.00     0.316 C 
ATOM      4  O   UNL A   1      43.403  18.105  25.151  1.00  0.00    -0.251 OA
BRANCH   3   5
ATOM      5  C   UNL A   1      42.178  19.466  26.730  1.00  0.00     0.200 C 
BRANCH   5   6
ATOM      6  S   UNL A   1      40.530  19.890  26.202  1.00  0.00    -0.074 SA
BRANCH   6   7
ATOM      7  C   UNL A   1      40.255  21.603  26.043  1.00  0.00     0.196 A 
ATOM      8  N   UNL A   1      39.098  22.391  26.165  1.00  0.00    -0.274 N 
ATOM      9  C   UNL A   1      39.564  23.471  26.937  1.00  0.00     0.135 A 
ATOM     10  C   UNL A   1      38.789  24.464  27.700  1.00  0.00     0.090 C 
ATOM     11  N   UNL A   1      40.876  23.485  26.945  1.00  0.00    -0.134 NA
ATOM     12  N   UNL A   1      41.303  22.341  26.367  1.00  0.00    -0.123 NA
BRANCH   8  13
ATOM     13  C   UNL A   1      37.783  22.279  25.574  1.00  0.00     0.053 A 
ATOM     14  C   UNL A   1      34.273  22.123  24.237  1.00  0.00     0.154 A 
ATOM     15  C   UNL A   1      35.028  20.610  24.800  1.00  0.00     0.052 A 
ATOM     16  C   UNL A   1      35.225  23.561  24.296  1.00  0.00     0.167 A 
ATOM     17  C   UNL A   1      36.960  20.671  25.435  1.00  0.00     0.031 A 
ATOM     18  C   UNL A   1      36.868  23.638  24.934  1.00  0.00     0.070 A 
ATOM     19  F   UNL A   1      34.753  24.695  23.756  1.00  0.00    -0.203 F 
BRANCH  14  20
ATOM     20  O   UNL A   1      32.965  22.085  23.854  1.00  0.00    -0.494 OA
ATOM     21  C   UNL A   1      32.073  22.681  24.795  1.00  0.00     0.278 C 
ENDBRANCH  14  20
ENDBRANCH   8  13
ENDBRANCH   6   7
ENDBRANCH   5   6
ENDBRANCH   3   5
ENDBRANCH   2   3
ENDBRANCH   1   2
BRANCH   1  22
ATOM     22  C   UNL A   1      45.232  22.233  25.220  1.00  0.00     0.275 C 
BRANCH  22  23
ATOM     23  O   UNL A   1      46.032  22.706  26.316  1.00  0.00    -0.458 OA
BRANCH  23  24
ATOM     24  C   UNL A   1      45.717  23.988  26.567  1.00  0.00     0.338 C 
ATOM     25  O   UNL A   1      46.466  24.767  27.153  1.00  0.00    -0.246 OA
BRANCH  24  26
ATOM     26  C   UNL A   1      44.172  24.263  26.400  1.00  0.00     0.060 A 
ATOM     27  C   UNL A   1      43.012  25.437  25.198  1.00  0.00     0.016 A 
ATOM     28  C   UNL A   1      44.122  24.546  28.162  1.00  0.00     0.016 A 
ATOM     29  C   UNL A   1      42.166  26.834  26.017  1.00  0.00     0.010 A 
ATOM     30  C   UNL A   1      43.310  25.854  28.768  1.00  0.00     0.010 A 
ATOM     31  C   UNL A   1      42.461  27.007  27.783  1.00  0.00    -0.014 A 
BRANCH  31  32
ATOM     32  C   UNL A   1      42.158  28.151  28.647  1.00  0.00     0.031 A 
ATOM     33  C   UNL A   1      43.289  29.034  28.342  1.00  0.00     0.074 A 
ATOM     34  C   UNL A   1      40.959  28.370  29.299  1.00  0.00     0.049 A 
ATOM     35  N   UNL A   1      44.349  29.193  29.061  1.00  0.00    -0.248 NA
ATOM     36  C   UNL A   1      43.503  29.400  26.913  1.00  0.00     0.031 C 
ATOM     37  C   UNL A   1      39.745  27.517  29.379  1.00  0.00     0.029 A 
ATOM     38  N   UNL A   1      40.500  29.471  30.011  1.00  0.00    -0.354 N 
ATOM     39  C   UNL A   1      45.113  30.066  28.303  1.00  0.00     0.074 A 
ATOM     40  C   UNL A   1      44.776  29.804  26.937  1.00  0.00     0.031 C 
ATOM     41  C   UNL A   1      38.666  28.192  29.849  1.00  0.00     0.029 A 
ATOM     42  C   UNL A   1      39.080  29.512  30.239  1.00  0.00     0.049 A 
ATOM     43  H   UNL A   1      41.106  30.175  30.338  1.00  0.00     0.167 HD
ATOM     44  C   UNL A   1      45.464  31.251  28.869  1.00  0.00     0.037 A 
ATOM     45  C   UNL A   1      38.347  30.552  30.760  1.00  0.00     0.037 A 
ATOM     46  C   UNL A   1      45.312  31.163  30.305  1.00  0.00     0.049 A 
ATOM     47  C   UNL A   1      39.347  31.441  31.390  1.00  0.00     0.074 A 
ATOM     48  C   UNL A   1      45.927  30.397  31.275  1.00  0.00     0.029 A 
ATOM     49  N   UNL A   1      44.040  31.437  30.756  1.00  0.00    -0.354 N 
ATOM     50  N   UNL A   1      40.068  31.076  32.413  1.00  0.00    -0.248 NA
ATOM     51  C   UNL A   1      39.914  32.446  30.510  1.00  0.00     0.031 C 
ATOM     52  C   UNL A   1      44.910  30.040  32.205  1.00  0.00     0.029 A 
ATOM     53  C   UNL A   1      43.746  30.739  31.899  1.00  0.00     0.049 A 
ATOM     54  H   UNL A   1      43.419  32.058  30.311  1.00  0.00     0.167 HD
ATOM     55  C   UNL A   1      41.353  31.435  32.039  1.00  0.00     0.074 A 
ATOM     56  C   UNL A   1      41.189  32.331  30.889  1.00  0.00     0.031 C 
ATOM     57  C   UNL A   1      42.417  30.695  32.467  1.00  0.00     0.037 A 
BRANCH  44  58
ATOM     58  C   UNL A   1      45.471  32.558  28.121  1.00  0.00     0.064 A 
ATOM     59  C   UNL A   1      44.328  33.338  27.815  1.00  0.00     0.173 A 
ATOM     60  C   UNL A   1      46.704  33.167  27.858  1.00  0.00     0.173 A 
ATOM     61  F   UNL A   1      43.090  32.976  28.167  1.00  0.00    -0.203 F 
ATOM     62  C   UNL A   1      44.413  34.592  27.219  1.00  0.00     0.198 A 
ATOM     63  C   UNL A   1      46.788  34.450  27.312  1.00  0.00     0.198 A 
ATOM     64  F   UNL A   1      47.847  32.541  28.173  1.00  0.00    -0.203 F 
ATOM     65  F   UNL A   1      43.288  35.267  26.937  1.00  0.00    -0.200 F 
ATOM     66  C   UNL A   1      45.644  35.155  26.977  1.00  0.00     0.200 A 
ATOM     67  F   UNL A   1      47.988  35.019  27.140  1.00  0.00    -0.200 F 
ATOM     68  F   UNL A   1      45.725  36.388  26.463  1.00  0.00    -0.200 F 
ENDBRANCH  44  58
BRANCH  45  69
ATOM     69  C   UNL A   1      36.964  31.086  30.492  1.00  0.00     0.064 A 
ATOM     70  C   UNL A   1      36.639  31.576  29.216  1.00  0.00     0.173 A 
ATOM     71  C   UNL A   1      36.083  31.482  31.531  1.00  0.00     0.173 A 
ATOM     72  F   UNL A   1      37.432  31.305  28.172  1.00  0.00    -0.203 F 
ATOM     73  C   UNL A   1      35.561  32.449  28.998  1.00  0.00     0.198 A 
ATOM     74  C   UNL A   1      34.993  32.347  31.309  1.00  0.00     0.198 A 
ATOM     75  F   UNL A   1      36.315  31.102  32.797  1.00  0.00    -0.203 F 
ATOM     76  F   UNL A   1      35.363  32.962  27.776  1.00  0.00    -0.200 F 
ATOM     77  C   UNL A   1      34.749  32.850  30.044  1.00  0.00     0.200 A 
ATOM     78  F   UNL A   1      34.224  32.751  32.333  1.00  0.00    -0.200 F 
ATOM     79  F   UNL A   1      33.772  33.747  29.840  1.00  0.00    -0.200 F 
ENDBRANCH  45  69
BRANCH  57  80
ATOM     80  C   UNL A   1      42.200  29.710  33.593  1.00  0.00     0.064 A 
ATOM     81  C   UNL A   1      42.399  30.203  34.887  1.00  0.00     0.173 A 
ATOM     82  C   UNL A   1      42.011  28.320  33.456  1.00  0.00     0.173 A 
ATOM     83  F   UNL A   1      42.621  31.514  35.069  1.00  0.00    -0.203 F 
ATOM     84  C   UNL A   1      42.462  29.356  35.988  1.00  0.00     0.198 A 
ATOM     85  C   UNL A   1      42.037  27.474  34.572  1.00  0.00     0.198 A 
ATOM     86  F   UNL A   1      41.866  27.757  32.249  1.00  0.00    -0.203 F 
ATOM     87  F   UNL A   1      42.749  29.864  37.194  1.00  0.00    -0.200 F 
ATOM     88  C   UNL A   1      42.280  27.992  35.833  1.00  0.00     0.200 A 
ATOM     89  F   UNL A   1      41.877  26.150  34.420  1.00  0.00    -0.200 F 
ATOM     90  F   UNL A   1      42.369  27.181  36.896  1.00  0.00    -0.200 F 
ENDBRANCH  57  80
ENDBRANCH  31  32
ENDBRANCH  24  26
ENDBRANCH  23  24
ENDBRANCH  22  23
ENDBRANCH   1  22
TORSDOF 15
ENDMDL
MODEL 2
REMARK VINA RESULT:     -11.4      2.450      4.020
REMARK SMILES COc1ccc(-n2c(C)nnc2SCC(=O)OCCOC(=O)c2ccc(-c3c4nc(c(-c5c(F)c(F)c(F)c(F)c5F)c5ccc([nH]5)c(-c5c(F)c(F)c(F)c(F)c5F)c5nc(c(-c6c(F)c(F)c(F)c(F)c6F)c6ccc3[nH]6)C=C5)C=C4)cc2)cc1F
REMARK SMILES IDX 18 1 17 2 15 3 16 4 14 5 13 6 12 7 7 8 8 9 9 10 10 11 11 12
REMARK SMILES IDX 6 13 3 14 4 15 87 16 5 17 86 18 88 19 2 20 1 21 19 22 20 23
REMARK SMILES IDX 21 24 22 25 23 26 24 27 85 28 25 29 84 30 26 31 27 32 28 33
REMARK SMILES IDX 78 34 29 35 83 36 77 37 79 38 30 39 82 40 76 41 75 42 31 44
REMARK SMILES IDX 63 45 43 46 62 47 44 48 47 49 61 50 80 51 45 52 46 53 60 55
REMARK SMILES IDX 81 56 48 57 32 58 33 59 41 60 34 61 35 62 39 63 42 64 36 65
REMARK SMILES IDX 37 66 40 67 38 68 64 69 65 70 73 71 66 72 67 73 71 74 74 75
REMARK SMILES IDX 68 76 69 77 72 78 70 79 49 80 50 81 58 82 51 83 52 84 56 85
REMARK SMILES IDX 59 86 53 87 54 88 57 89 55 90
REMARK H PARENT 79 43 47 54
REMARK Flexibility Score: inf
ROOT
ATOM      1  C   UNL A   1      38.118  22.214  25.706  1.00  0.00     0.274 C 
ENDROOT
BRANCH   1   2
ATOM      2  O   UNL A   1      37.418  21.883  24.483  1.00  0.00    -0.461 OA
BRANCH   2   3
ATOM      3  C   UNL A   1      36.587  22.826  23.954  1.00  0.00     0.316 C 
ATOM      4  O   UNL A   1      36.579  23.131  22.766  1.00  0.00    -0.251 OA
BRANCH   3   5
ATOM      5  C   UNL A   1      35.608  23.447  24.958  1.00  0.00     0.200 C 
BRANCH   5   6
ATOM      6  S   UNL A   1      34.585  24.703  24.219  1.00  0.00    -0.074 SA
BRANCH   6   7
ATOM      7  C   UNL A   1      32.875  24.397  24.356  1.00  0.00     0.196 A 
ATOM      8  N   UNL A   1      32.146  23.270  24.770  1.00  0.00    -0.274 N 
ATOM      9  C   UNL A   1      31.174  23.848  25.608  1.00  0.00     0.135 A 
ATOM     10  C   UNL A   1      30.322  23.199  26.620  1.00  0.00     0.090 C 
ATOM     11  N   UNL A   1      31.124  25.144  25.413  1.00  0.00    -0.134 NA
ATOM     12  N   UNL A   1      32.162  25.480  24.616  1.00  0.00    -0.123 NA
BRANCH   8  13
ATOM     13  C   UNL A   1      32.209  21.879  24.382  1.00  0.00     0.053 A 
ATOM     14  C   UNL A   1      32.626  18.266  23.430  1.00  0.00     0.154 A 
ATOM     15  C   UNL A   1      32.249  19.439  22.141  1.00  0.00     0.052 A 
ATOM     16  C   UNL A   1      32.726  18.861  25.046  1.00  0.00     0.167 A 
ATOM     17  C   UNL A   1      31.928  21.379  22.664  1.00  0.00     0.031 A 
ATOM     18  C   UNL A   1      32.543  20.557  25.494  1.00  0.00     0.070 A 
ATOM     19  F   UNL A   1      32.868  17.999  26.065  1.00  0.00    -0.203 F 
BRANCH  14  20
ATOM     20  O   UNL A   1      32.883  16.977  23.070  1.00  0.00    -0.494 OA
ATOM     21  C   UNL A   1      34.250  16.598  23.224  1.00  0.00     0.278 C 
ENDBRANCH  14  20
ENDBRANCH   8  13
ENDBRANCH   6   7
ENDBRANCH   5   6
ENDBRANCH   3   5
ENDBRANCH   2   3
ENDBRANCH   1   2
BRANCH   1  22
ATOM     22  C   UNL A   1      39.193  21.181  26.007  1.00  0.00     0.275 C 
BRANCH  22  23
ATOM     23  O   UNL A   1      40.456  21.807  25.722  1.00  0.00    -0.458 OA
BRANCH  23  24
ATOM     24  C   UNL A   1      40.999  22.241  26.871  1.00  0.00     0.338 C 
ATOM     25  O   UNL A   1      40.434  22.158  27.961  1.00  0.00    -0.246 OA
BRANCH  24  26
ATOM     26  C   UNL A   1      42.222  23.207  26.622  1.00  0.00     0.060 A 
ATOM     27  C   UNL A   1      43.986  23.615  27.565  1.00  0.00     0.016 A 
ATOM     28  C   UNL A   1      41.030  24.526  26.450  1.00  0.00     0.016 A 
ATOM     29  C   UNL A   1      44.116  25.260  28.347  1.00  0.00     0.010 A 
ATOM     30  C   UNL A   1      41.280  25.972  27.213  1.00  0.00     0.010 A 
ATOM     31  C   UNL A   1      42.671  26.321  28.194  1.00  0.00    -0.014 A 
BRANCH  31  32
ATOM     32  C   UNL A   1      42.367  27.555  28.925  1.00  0.00     0.031 A 
ATOM     33  C   UNL A   1      43.509  28.391  28.540  1.00  0.00     0.074 A 
ATOM     34  C   UNL A   1      41.162  27.851  29.534  1.00  0.00     0.049 A 
ATOM     35  N   UNL A   1      44.561  28.620  29.250  1.00  0.00    -0.248 NA
ATOM     36  C   UNL A   1      43.743  28.598  27.083  1.00  0.00     0.031 C 
ATOM     37  C   UNL A   1      39.940  27.020  29.691  1.00  0.00     0.029 A 
ATOM     38  N   UNL A   1      40.704  29.026  30.117  1.00  0.00    -0.354 N 
ATOM     39  C   UNL A   1      45.341  29.400  28.412  1.00  0.00     0.074 A 
ATOM     40  C   UNL A   1      45.018  28.994  27.078  1.00  0.00     0.031 C 
ATOM     41  C   UNL A   1      38.861  27.749  30.071  1.00  0.00     0.029 A 
ATOM     42  C   UNL A   1      39.281  29.101  30.320  1.00  0.00     0.049 A 
ATOM     43  H   UNL A   1      41.311  29.758  30.373  1.00  0.00     0.167 HD
ATOM     44  C   UNL A   1      45.696  30.638  28.849  1.00  0.00     0.037 A 
ATOM     45  C   UNL A   1      38.551  30.197  30.716  1.00  0.00     0.037 A 
ATOM     46  C   UNL A   1      45.526  30.708  30.285  1.00  0.00     0.049 A 
ATOM     47  C   UNL A   1      39.550  31.142  31.258  1.00  0.00     0.074 A 
ATOM     48  C   UNL A   1      46.123  30.047  31.340  1.00  0.00     0.029 A 
ATOM     49  N   UNL A   1      44.251  31.038  30.687  1.00  0.00    -0.354 N 
ATOM     50  N   UNL A   1      40.257  30.886  32.324  1.00  0.00    -0.248 NA
ATOM     51  C   UNL A   1      40.136  32.042  30.281  1.00  0.00     0.031 C 
ATOM     52  C   UNL A   1      45.092  29.801  32.290  1.00  0.00     0.029 A 
ATOM     53  C   UNL A   1      43.937  30.470  31.895  1.00  0.00     0.049 A 
ATOM     54  H   UNL A   1      43.640  31.610  30.170  1.00  0.00     0.167 HD
ATOM     55  C   UNL A   1      41.549  31.193  31.929  1.00  0.00     0.074 A 
ATOM     56  C   UNL A   1      41.405  31.960  30.686  1.00  0.00     0.031 C 
ATOM     57  C   UNL A   1      42.602  30.497  32.448  1.00  0.00     0.037 A 
BRANCH  44  58
ATOM     58  C   UNL A   1      45.722  31.855  27.964  1.00  0.00     0.064 A 
ATOM     59  C   UNL A   1      46.882  32.435  27.396  1.00  0.00     0.173 A 
ATOM     60  C   UNL A   1      44.503  32.363  27.497  1.00  0.00     0.173 A 
ATOM     61  F   UNL A   1      48.110  31.947  27.601  1.00  0.00    -0.203 F 
ATOM     62  C   UNL A   1      46.829  33.495  26.495  1.00  0.00     0.198 A 
ATOM     63  C   UNL A   1      44.450  33.389  26.550  1.00  0.00     0.198 A 
ATOM     64  F   UNL A   1      43.345  31.837  27.921  1.00  0.00    -0.203 F 
ATOM     65  F   UNL A   1      47.969  34.010  26.012  1.00  0.00    -0.200 F 
ATOM     66  C   UNL A   1      45.611  33.965  26.061  1.00  0.00     0.200 A 
ATOM     67  F   UNL A   1      43.264  33.797  26.082  1.00  0.00    -0.200 F 
ATOM     68  F   UNL A   1      45.559  34.940  25.147  1.00  0.00    -0.200 F 
ENDBRANCH  44  58
BRANCH  45  69
ATOM     69  C   UNL A   1      37.176  30.709  30.374  1.00  0.00     0.064 A 
ATOM     70  C   UNL A   1      36.877  31.082  29.053  1.00  0.00     0.173 A 
ATOM     71  C   UNL A   1      36.276  31.199  31.356  1.00  0.00     0.173 A 
ATOM     72  F   UNL A   1      37.689  30.716  28.053  1.00  0.00    -0.203 F 
ATOM     73  C   UNL A   1      35.807  31.934  28.737  1.00  0.00     0.198 A 
ATOM     74  C   UNL A   1      35.195  32.043  31.036  1.00  0.00     0.198 A 
ATOM     75  F   UNL A   1      36.483  30.934  32.655  1.00  0.00    -0.203 F 
ATOM     76  F   UNL A   1      35.635  32.336  27.469  1.00  0.00    -0.200 F 
ATOM     77  C   UNL A   1      34.977  32.430  29.726  1.00  0.00     0.200 A 
ATOM     78  F   UNL A   1      34.408  32.539  32.004  1.00  0.00    -0.200 F 
ATOM     79  F   UNL A   1      34.008  33.307  29.423  1.00  0.00    -0.200 F 
ENDBRANCH  45  69
BRANCH  57  80
ATOM     80  C   UNL A   1      42.364  29.642  33.672  1.00  0.00     0.064 A 
ATOM     81  C   UNL A   1      42.623  30.249  34.905  1.00  0.00     0.173 A 
ATOM     82  C   UNL A   1      42.099  28.258  33.679  1.00  0.00     0.173 A 
ATOM     83  F   UNL A   1      42.918  31.558  34.950  1.00  0.00    -0.203 F 
ATOM     84  C   UNL A   1      42.670  29.514  36.084  1.00  0.00     0.198 A 
ATOM     85  C   UNL A   1      42.110  27.527  34.874  1.00  0.00     0.198 A 
ATOM     86  F   UNL A   1      41.892  27.587  32.539  1.00  0.00    -0.203 F 
ATOM     87  F   UNL A   1      43.016  30.122  37.227  1.00  0.00    -0.200 F 
ATOM     88  C   UNL A   1      42.414  28.154  36.071  1.00  0.00     0.200 A 
ATOM     89  F   UNL A   1      41.876  26.205  34.859  1.00  0.00    -0.200 F 
ATOM     90  F   UNL A   1      42.488  27.448  37.208  1.00  0.00    -0.200 F 
ENDBRANCH  57  80
ENDBRANCH  31  32
ENDBRANCH  24  26
ENDBRANCH  23  24
ENDBRANCH  22  23
ENDBRANCH   1  22
TORSDOF 15
ENDMDL
MODEL 3
REMARK VINA RESULT:     -11.3      5.029     11.496
REMARK SMILES COc1ccc(-n2c(C)nnc2SCC(=O)OCCOC(=O)c2ccc(-c3c4nc(c(-c5c(F)c(F)c(F)c(F)c5F)c5ccc([nH]5)c(-c5c(F)c(F)c(F)c(F)c5F)c5nc(c(-c6c(F)c(F)c(F)c(F)c6F)c6ccc3[nH]6)C=C5)C=C4)cc2)cc1F
REMARK SMILES IDX 18 1 17 2 15 3 16 4 14 5 13 6 12 7 7 8 8 9 9 10 10 11 11 12
REMARK SMILES IDX 6 13 3 14 4 15 87 16 5 17 86 18 88 19 2 20 1 21 19 22 20 23
REMARK SMILES IDX 21 24 22 25 23 26 24 27 85 28 25 29 84 30 26 31 27 32 28 33
REMARK SMILES IDX 78 34 29 35 83 36 77 37 79 38 30 39 82 40 76 41 75 42 31 44
REMARK SMILES IDX 63 45 43 46 62 47 44 48 47 49 61 50 80 51 45 52 46 53 60 55
REMARK SMILES IDX 81 56 48 57 32 58 33 59 41 60 34 61 35 62 39 63 42 64 36 65
REMARK SMILES IDX 37 66 40 67 38 68 64 69 65 70 73 71 66 72 67 73 71 74 74 75
REMARK SMILES IDX 68 76 69 77 72 78 70 79 49 80 50 81 58 82 51 83 52 84 56 85
REMARK SMILES IDX 59 86 53 87 54 88 57 89 55 90
REMARK H PARENT 79 43 47 54
REMARK Flexibility Score: inf
ROOT
ATOM      1  C   UNL A   1      33.797  30.824  27.413  1.00  0.00     0.274 C 
ENDROOT
BRANCH   1   2
ATOM      2  O   UNL A   1      34.339  32.149  27.627  1.00  0.00    -0.461 OA
BRANCH   2   3
ATOM      3  C   UNL A   1      33.466  33.149  27.937  1.00  0.00     0.316 C 
ATOM      4  O   UNL A   1      32.345  33.244  27.448  1.00  0.00    -0.251 OA
BRANCH   3   5
ATOM      5  C   UNL A   1      33.973  34.130  29.000  1.00  0.00     0.200 C 
BRANCH   5   6
ATOM      6  S   UNL A   1      35.482  33.577  29.768  1.00  0.00    -0.074 SA
BRANCH   6   7
ATOM      7  C   UNL A   1      35.288  33.057  31.420  1.00  0.00     0.196 A 
ATOM      8  N   UNL A   1      36.103  33.190  32.557  1.00  0.00    -0.274 N 
ATOM      9  C   UNL A   1      35.171  33.577  33.537  1.00  0.00     0.135 A 
ATOM     10  C   UNL A   1      35.415  34.203  34.848  1.00  0.00     0.090 C 
ATOM     11  N   UNL A   1      33.951  33.345  33.115  1.00  0.00    -0.134 NA
ATOM     12  N   UNL A   1      34.026  32.997  31.812  1.00  0.00    -0.123 NA
BRANCH   8  13
ATOM     13  C   UNL A   1      37.499  32.891  32.787  1.00  0.00     0.053 A 
ATOM     14  C   UNL A   1      41.073  32.097  33.639  1.00  0.00     0.154 A 
ATOM     15  C   UNL A   1      40.694  33.731  33.036  1.00  0.00     0.052 A 
ATOM     16  C   UNL A   1      39.776  30.964  33.745  1.00  0.00     0.167 A 
ATOM     17  C   UNL A   1      38.779  34.137  32.483  1.00  0.00     0.031 A 
ATOM     18  C   UNL A   1      38.096  31.339  33.358  1.00  0.00     0.070 A 
ATOM     19  F   UNL A   1      40.034  29.685  34.059  1.00  0.00    -0.203 F 
BRANCH  14  20
ATOM     20  O   UNL A   1      42.349  31.843  34.049  1.00  0.00    -0.494 OA
ATOM     21  C   UNL A   1      43.282  31.707  32.979  1.00  0.00     0.278 C 
ENDBRANCH  14  20
ENDBRANCH   8  13
ENDBRANCH   6   7
ENDBRANCH   5   6
ENDBRANCH   3   5
ENDBRANCH   2   3
ENDBRANCH   1   2
BRANCH   1  22
ATOM     22  C   UNL A   1      34.865  29.764  27.629  1.00  0.00     0.275 C 
BRANCH  22  23
ATOM     23  O   UNL A   1      35.675  30.214  28.728  1.00  0.00    -0.458 OA
BRANCH  23  24
ATOM     24  C   UNL A   1      36.968  30.169  28.367  1.00  0.00     0.338 C 
ATOM     25  O   UNL A   1      37.354  29.735  27.282  1.00  0.00    -0.246 OA
BRANCH  24  26
ATOM     26  C   UNL A   1      37.936  30.345  29.601  1.00  0.00     0.060 A 
ATOM     27  C   UNL A   1      39.622  31.424  30.001  1.00  0.00     0.016 A 
ATOM     28  C   UNL A   1      38.037  28.563  29.662  1.00  0.00     0.016 A 
ATOM     29  C   UNL A   1      41.164  30.462  30.189  1.00  0.00     0.010 A 
ATOM     30  C   UNL A   1      39.506  27.823  29.841  1.00  0.00     0.010 A 
ATOM     31  C   UNL A   1      41.010  28.681  29.993  1.00  0.00    -0.014 A 
BRANCH  31  32
ATOM     32  C   UNL A   1      42.075  27.690  29.816  1.00  0.00     0.031 A 
ATOM     33  C   UNL A   1      42.710  27.729  31.138  1.00  0.00     0.074 A 
ATOM     34  C   UNL A   1      42.177  26.801  28.763  1.00  0.00     0.049 A 
ATOM     35  N   UNL A   1      43.795  28.355  31.445  1.00  0.00    -0.248 NA
ATOM     36  C   UNL A   1      41.840  27.472  32.321  1.00  0.00     0.031 C 
ATOM     37  C   UNL A   1      41.344  26.667  27.539  1.00  0.00     0.029 A 
ATOM     38  N   UNL A   1      43.038  25.729  28.559  1.00  0.00    -0.354 N 
ATOM     39  C   UNL A   1      43.914  28.127  32.806  1.00  0.00     0.074 A 
ATOM     40  C   UNL A   1      42.579  27.993  33.304  1.00  0.00     0.031 C 
ATOM     41  C   UNL A   1      41.559  25.496  26.890  1.00  0.00     0.029 A 
ATOM     42  C   UNL A   1      42.633  24.797  27.541  1.00  0.00     0.049 A 
ATOM     43  H   UNL A   1      43.868  25.616  29.077  1.00  0.00     0.167 HD
ATOM     44  C   UNL A   1      45.040  27.504  33.246  1.00  0.00     0.037 A 
ATOM     45  C   UNL A   1      43.200  23.577  27.252  1.00  0.00     0.037 A 
ATOM     46  C   UNL A   1      46.066  27.590  32.229  1.00  0.00     0.049 A 
ATOM     47  C   UNL A   1      44.518  23.605  27.922  1.00  0.00     0.074 A 
ATOM     48  C   UNL A   1      46.746  28.650  31.662  1.00  0.00     0.029 A 
ATOM     49  N   UNL A   1      46.005  26.596  31.279  1.00  0.00    -0.354 N 
ATOM     50  N   UNL A   1      45.465  24.433  27.580  1.00  0.00    -0.248 NA
ATOM     51  C   UNL A   1      44.517  23.138  29.297  1.00  0.00     0.031 C 
ATOM     52  C   UNL A   1      46.887  28.337  30.280  1.00  0.00     0.029 A 
ATOM     53  C   UNL A   1      46.467  27.029  30.062  1.00  0.00     0.049 A 
ATOM     54  H   UNL A   1      45.671  25.687  31.452  1.00  0.00     0.167 HD
ATOM     55  C   UNL A   1      45.876  24.963  28.792  1.00  0.00     0.074 A 
ATOM     56  C   UNL A   1      45.303  24.083  29.817  1.00  0.00     0.031 C 
ATOM     57  C   UNL A   1      46.332  26.248  28.853  1.00  0.00     0.037 A 
BRANCH  44  58
ATOM     58  C   UNL A   1      45.040  26.457  34.328  1.00  0.00     0.064 A 
ATOM     59  C   UNL A   1      45.414  26.668  35.678  1.00  0.00     0.173 A 
ATOM     60  C   UNL A   1      44.454  25.216  34.052  1.00  0.00     0.173 A 
ATOM     61  F   UNL A   1      45.822  27.855  36.139  1.00  0.00    -0.203 F 
ATOM     62  C   UNL A   1      45.286  25.686  36.655  1.00  0.00     0.198 A 
ATOM     63  C   UNL A   1      44.274  24.251  35.046  1.00  0.00     0.198 A 
ATOM     64  F   UNL A   1      44.004  24.941  32.819  1.00  0.00    -0.203 F 
ATOM     65  F   UNL A   1      45.680  25.947  37.911  1.00  0.00    -0.200 F 
ATOM     66  C   UNL A   1      44.704  24.479  36.343  1.00  0.00     0.200 A 
ATOM     67  F   UNL A   1      43.647  23.105  34.751  1.00  0.00    -0.200 F 
ATOM     68  F   UNL A   1      44.522  23.558  37.296  1.00  0.00    -0.200 F 
ENDBRANCH  44  58
BRANCH  45  69
ATOM     69  C   UNL A   1      42.643  22.254  26.794  1.00  0.00     0.064 A 
ATOM     70  C   UNL A   1      41.767  21.539  27.627  1.00  0.00     0.173 A 
ATOM     71  C   UNL A   1      43.233  21.497  25.749  1.00  0.00     0.173 A 
ATOM     72  F   UNL A   1      41.195  22.144  28.676  1.00  0.00    -0.203 F 
ATOM     73  C   UNL A   1      41.545  20.161  27.477  1.00  0.00     0.198 A 
ATOM     74  C   UNL A   1      42.999  20.117  25.591  1.00  0.00     0.198 A 
ATOM     75  F   UNL A   1      44.113  22.069  24.913  1.00  0.00    -0.203 F 
ATOM     76  F   UNL A   1      40.777  19.515  28.366  1.00  0.00    -0.200 F 
ATOM     77  C   UNL A   1      42.173  19.445  26.473  1.00  0.00     0.200 A 
ATOM     78  F   UNL A   1      43.630  19.425  24.629  1.00  0.00    -0.200 F 
ATOM     79  F   UNL A   1      42.017  18.115  26.389  1.00  0.00    -0.200 F 
ENDBRANCH  45  69
BRANCH  57  80
ATOM     80  C   UNL A   1      46.684  26.947  27.559  1.00  0.00     0.064 A 
ATOM     81  C   UNL A   1      45.753  27.879  27.091  1.00  0.00     0.173 A 
ATOM     82  C   UNL A   1      47.748  26.612  26.698  1.00  0.00     0.173 A 
ATOM     83  F   UNL A   1      44.700  28.205  27.857  1.00  0.00    -0.203 F 
ATOM     84  C   UNL A   1      45.839  28.416  25.812  1.00  0.00     0.198 A 
ATOM     85  C   UNL A   1      47.853  27.183  25.423  1.00  0.00     0.198 A 
ATOM     86  F   UNL A   1      48.656  25.690  27.045  1.00  0.00    -0.203 F 
ATOM     87  F   UNL A   1      44.871  29.232  25.373  1.00  0.00    -0.200 F 
ATOM     88  C   UNL A   1      46.887  28.070  24.977  1.00  0.00     0.200 A 
ATOM     89  F   UNL A   1      48.861  26.836  24.608  1.00  0.00    -0.200 F 
ATOM     90  F   UNL A   1      46.947  28.572  23.735  1.00  0.00    -0.200 F 
ENDBRANCH  57  80
ENDBRANCH  31  32
ENDBRANCH  24  26
ENDBRANCH  23  24
ENDBRANCH  22  23
ENDBRANCH   1  22
TORSDOF 15
ENDMDL
