MODEL 1
REMARK VINA RESULT:     -12.2      0.000      0.000
REMARK SMILES COc1cc([C@@H]2[NH2+][C@H](C(=O)OCCOC(=O)c3ccc(-c4c5nc(c(-c6c(F)c(F)c(F)c(F)c6F)c6ccc([nH]6)c(-c6c(F)c(F)c(F)c(F)c6F)c6nc(c(-c7c(F)c(F)c(F)c(F)c7F)c7ccc4[nH]7)C=C6)C=C5)cc3)CS2)ccc1OCc1ccc(Cl)cc1
REMARK SMILES IDX 12 1 11 2 9 3 10 4 8 5 6 6 7 7 81 8 80 11 5 12 3 13 4 14
REMARK SMILES IDX 84 15 83 16 82 17 2 18 1 19 85 20 86 21 87 22 88 23 93 24
REMARK SMILES IDX 89 25 92 26 90 27 91 28 13 29 14 30 15 31 16 32 17 33 18 34
REMARK SMILES IDX 79 35 19 36 78 37 20 38 21 39 22 40 72 41 23 42 77 43 71 44
REMARK SMILES IDX 73 45 24 46 76 47 70 48 69 49 25 51 57 52 37 53 56 54 38 55
REMARK SMILES IDX 41 56 55 57 74 58 39 59 40 60 54 62 75 63 42 64 26 65 27 66
REMARK SMILES IDX 35 67 28 68 29 69 33 70 36 71 30 72 31 73 34 74 32 75 58 76
REMARK SMILES IDX 59 77 67 78 60 79 61 80 65 81 68 82 62 83 63 84 66 85 64 86
REMARK SMILES IDX 43 87 44 88 52 89 45 90 46 91 50 92 53 93 47 94 48 95 51 96
REMARK SMILES IDX 49 97
REMARK H PARENT 7 9 7 10 73 50 41 61
REMARK Flexibility Score: inf
ROOT
ATOM      1  C   UNL A   1      31.726  28.642  27.193  1.00  0.00     0.274 C 
ENDROOT
BRANCH   1   2
ATOM      2  O   UNL A   1      32.586  27.845  26.356  1.00  0.00    -0.458 OA
BRANCH   2   3
ATOM      3  C   UNL A   1      32.020  27.077  25.396  1.00  0.00     0.365 C 
ATOM      4  O   UNL A   1      31.372  26.057  25.614  1.00  0.00    -0.245 OA
BRANCH   3   5
ATOM      5  C   UNL A   1      32.237  27.606  23.968  1.00  0.00     0.304 C 
ATOM      6  C   UNL A   1      33.457  26.172  22.461  1.00  0.00     0.274 C 
ATOM      7  N   UNL A   1      33.571  27.299  23.387  1.00  0.00    -0.319 N 
ATOM      8  S   UNL A   1      31.858  26.334  21.643  1.00  0.00    -0.087 SA
ATOM      9  H   UNL A   1      33.919  28.117  22.886  1.00  0.00     0.348 HD
ATOM     10  H   UNL A   1      34.219  27.057  24.137  1.00  0.00     0.348 HD
ATOM     11  C   UNL A   1      31.094  27.167  23.053  1.00  0.00     0.153 C 
BRANCH   6  12
ATOM     12  C   UNL A   1      33.717  24.842  23.143  1.00  0.00     0.024 A 
ATOM     13  C   UNL A   1      34.788  23.616  24.981  1.00  0.00     0.161 A 
ATOM     14  C   UNL A   1      34.590  24.799  24.249  1.00  0.00     0.061 A 
ATOM     15  C   UNL A   1      34.047  22.476  24.664  1.00  0.00     0.161 A 
ATOM     16  C   UNL A   1      33.180  22.513  23.570  1.00  0.00     0.051 A 
ATOM     17  C   UNL A   1      33.046  23.662  22.796  1.00  0.00     0.015 A 
BRANCH  13  18
ATOM     18  O   UNL A   1      35.642  23.614  26.053  1.00  0.00    -0.493 OA
ATOM     19  C   UNL A   1      37.015  23.580  25.652  1.00  0.00     0.278 C 
ENDBRANCH  13  18
BRANCH  15  20
ATOM     20  O   UNL A   1      34.056  21.257  25.286  1.00  0.00    -0.485 OA
BRANCH  20  21
ATOM     21  C   UNL A   1      34.862  20.209  24.743  1.00  0.00     0.265 C 
BRANCH  21  22
ATOM     22  C   UNL A   1      34.279  18.810  24.835  1.00  0.00    -0.011 A 
ATOM     23  C   UNL A   1      34.986  17.671  24.419  1.00  0.00     0.009 A 
ATOM     24  C   UNL A   1      32.984  18.645  25.346  1.00  0.00     0.009 A 
ATOM     25  C   UNL A   1      34.457  16.393  24.604  1.00  0.00     0.021 A 
ATOM     26  C   UNL A   1      32.442  17.367  25.510  1.00  0.00     0.021 A 
ATOM     27  C   UNL A   1      33.190  16.247  25.157  1.00  0.00     0.041 A 
ATOM     28  Cl  UNL A   1      32.547  14.673  25.410  1.00  0.00    -0.084 Cl
ENDBRANCH  21  22
ENDBRANCH  20  21
ENDBRANCH  15  20
ENDBRANCH   6  12
ENDBRANCH   3   5
ENDBRANCH   2   3
ENDBRANCH   1   2
BRANCH   1  29
ATOM     29  C   UNL A   1      31.766  30.093  26.722  1.00  0.00     0.275 C 
BRANCH  29  30
ATOM     30  O   UNL A   1      33.134  30.489  26.516  1.00  0.00    -0.458 OA
BRANCH  30  31
ATOM     31  C   UNL A   1      33.522  31.588  27.203  1.00  0.00     0.338 C 
ATOM     32  O   UNL A   1      32.918  32.629  27.379  1.00  0.00    -0.246 OA
BRANCH  31  33
ATOM     33  C   UNL A   1      34.793  31.277  27.866  1.00  0.00     0.060 A 
ATOM     34  C   UNL A   1      34.951  30.006  28.422  1.00  0.00     0.016 A 
ATOM     35  C   UNL A   1      35.798  32.237  27.970  1.00  0.00     0.016 A 
ATOM     36  C   UNL A   1      36.126  29.680  29.092  1.00  0.00     0.010 A 
ATOM     37  C   UNL A   1      36.976  31.912  28.643  1.00  0.00     0.010 A 
ATOM     38  C   UNL A   1      37.142  30.635  29.211  1.00  0.00    -0.014 A 
BRANCH  38  39
ATOM     39  C   UNL A   1      38.368  30.322  29.977  1.00  0.00     0.031 A 
ATOM     40  C   UNL A   1      39.381  29.385  29.394  1.00  0.00     0.074 A 
ATOM     41  C   UNL A   1      38.553  30.864  31.194  1.00  0.00     0.049 A 
ATOM     42  N   UNL A   1      40.440  28.857  29.951  1.00  0.00    -0.248 NA
ATOM     43  C   UNL A   1      39.170  28.980  27.994  1.00  0.00     0.031 C 
ATOM     44  C   UNL A   1      37.652  31.822  31.835  1.00  0.00     0.029 A 
ATOM     45  N   UNL A   1      39.550  30.670  32.114  1.00  0.00    -0.354 N 
ATOM     46  C   UNL A   1      41.003  28.036  28.985  1.00  0.00     0.074 A 
ATOM     47  C   UNL A   1      40.169  28.131  27.805  1.00  0.00     0.031 C 
ATOM     48  C   UNL A   1      38.128  32.119  33.054  1.00  0.00     0.029 A 
ATOM     49  C   UNL A   1      39.335  31.333  33.297  1.00  0.00     0.049 A 
ATOM     50  H   UNL A   1      40.342  30.111  31.944  1.00  0.00     0.167 HD
ATOM     51  C   UNL A   1      42.116  27.271  29.082  1.00  0.00     0.037 A 
ATOM     52  C   UNL A   1      40.015  31.275  34.458  1.00  0.00     0.037 A 
ATOM     53  C   UNL A   1      42.946  27.203  30.255  1.00  0.00     0.049 A 
ATOM     54  C   UNL A   1      41.220  30.381  34.554  1.00  0.00     0.074 A 
ATOM     55  C   UNL A   1      44.112  26.483  30.448  1.00  0.00     0.029 A 
ATOM     56  N   UNL A   1      42.694  27.882  31.439  1.00  0.00    -0.354 N 
ATOM     57  N   UNL A   1      41.750  29.605  33.638  1.00  0.00    -0.248 NA
ATOM     58  C   UNL A   1      41.918  30.345  35.847  1.00  0.00     0.031 C 
ATOM     59  C   UNL A   1      44.542  26.692  31.762  1.00  0.00     0.029 A 
ATOM     60  C   UNL A   1      43.669  27.578  32.375  1.00  0.00     0.049 A 
ATOM     61  H   UNL A   1      41.933  28.488  31.591  1.00  0.00     0.167 HD
ATOM     62  C   UNL A   1      42.848  29.004  34.236  1.00  0.00     0.074 A 
ATOM     63  C   UNL A   1      42.920  29.518  35.589  1.00  0.00     0.031 C 
ATOM     64  C   UNL A   1      43.717  28.103  33.715  1.00  0.00     0.037 A 
BRANCH  51  65
ATOM     65  C   UNL A   1      42.479  26.419  27.902  1.00  0.00     0.064 A 
ATOM     66  C   UNL A   1      41.929  25.144  27.713  1.00  0.00     0.173 A 
ATOM     67  C   UNL A   1      43.364  26.905  26.929  1.00  0.00     0.173 A 
ATOM     68  F   UNL A   1      41.090  24.627  28.624  1.00  0.00    -0.203 F 
ATOM     69  C   UNL A   1      42.268  24.377  26.601  1.00  0.00     0.198 A 
ATOM     70  C   UNL A   1      43.682  26.147  25.806  1.00  0.00     0.198 A 
ATOM     71  F   UNL A   1      43.917  28.120  27.062  1.00  0.00    -0.203 F 
ATOM     72  F   UNL A   1      41.762  23.144  26.458  1.00  0.00    -0.200 F 
ATOM     73  C   UNL A   1      43.137  24.881  25.645  1.00  0.00     0.200 A 
ATOM     74  F   UNL A   1      44.515  26.640  24.879  1.00  0.00    -0.200 F 
ATOM     75  F   UNL A   1      43.457  24.145  24.571  1.00  0.00    -0.200 F 
ENDBRANCH  51  65
BRANCH  52  76
ATOM     76  C   UNL A   1      39.543  32.056  35.631  1.00  0.00     0.064 A 
ATOM     77  C   UNL A   1      38.595  31.528  36.518  1.00  0.00     0.173 A 
ATOM     78  C   UNL A   1      40.028  33.347  35.885  1.00  0.00     0.173 A 
ATOM     79  F   UNL A   1      38.083  30.308  36.302  1.00  0.00    -0.203 F 
ATOM     80  C   UNL A   1      38.142  32.268  37.608  1.00  0.00     0.198 A 
ATOM     81  C   UNL A   1      39.595  34.076  36.991  1.00  0.00     0.198 A 
ATOM     82  F   UNL A   1      40.934  33.899  35.064  1.00  0.00    -0.203 F 
ATOM     83  F   UNL A   1      37.204  31.757  38.418  1.00  0.00    -0.200 F 
ATOM     84  C   UNL A   1      38.646  33.538  37.847  1.00  0.00     0.200 A 
ATOM     85  F   UNL A   1      40.094  35.296  37.225  1.00  0.00    -0.200 F 
ATOM     86  F   UNL A   1      38.213  34.246  38.899  1.00  0.00    -0.200 F 
ENDBRANCH  52  76
BRANCH  64  87
ATOM     87  C   UNL A   1      44.830  27.636  34.605  1.00  0.00     0.064 A 
ATOM     88  C   UNL A   1      46.044  28.333  34.687  1.00  0.00     0.173 A 
ATOM     89  C   UNL A   1      44.665  26.502  35.414  1.00  0.00     0.173 A 
ATOM     90  F   UNL A   1      46.254  29.414  33.920  1.00  0.00    -0.203 F 
ATOM     91  C   UNL A   1      47.061  27.899  35.531  1.00  0.00     0.198 A 
ATOM     92  C   UNL A   1      45.673  26.086  36.278  1.00  0.00     0.198 A 
ATOM     93  F   UNL A   1      43.519  25.805  35.376  1.00  0.00    -0.203 F 
ATOM     94  F   UNL A   1      48.230  28.555  35.562  1.00  0.00    -0.200 F 
ATOM     95  C   UNL A   1      46.873  26.780  36.331  1.00  0.00     0.200 A 
ATOM     96  F   UNL A   1      45.487  25.012  37.057  1.00  0.00    -0.200 F 
ATOM     97  F   UNL A   1      47.852  26.368  37.148  1.00  0.00    -0.200 F 
ENDBRANCH  64  87
ENDBRANCH  38  39
ENDBRANCH  31  33
ENDBRANCH  30  31
ENDBRANCH  29  30
ENDBRANCH   1  29
TORSDOF 16
ENDMDL
MODEL 2
REMARK VINA RESULT:     -12.1      5.499      9.711
REMARK SMILES COc1cc([C@@H]2[NH2+][C@H](C(=O)OCCOC(=O)c3ccc(-c4c5nc(c(-c6c(F)c(F)c(F)c(F)c6F)c6ccc([nH]6)c(-c6c(F)c(F)c(F)c(F)c6F)c6nc(c(-c7c(F)c(F)c(F)c(F)c7F)c7ccc4[nH]7)C=C6)C=C5)cc3)CS2)ccc1OCc1ccc(Cl)cc1
REMARK SMILES IDX 12 1 11 2 9 3 10 4 8 5 6 6 7 7 81 8 80 11 5 12 3 13 4 14
REMARK SMILES IDX 84 15 83 16 82 17 2 18 1 19 85 20 86 21 87 22 88 23 93 24
REMARK SMILES IDX 89 25 92 26 90 27 91 28 13 29 14 30 15 31 16 32 17 33 18 34
REMARK SMILES IDX 79 35 19 36 78 37 20 38 21 39 22 40 72 41 23 42 77 43 71 44
REMARK SMILES IDX 73 45 24 46 76 47 70 48 69 49 25 51 57 52 37 53 56 54 38 55
REMARK SMILES IDX 41 56 55 57 74 58 39 59 40 60 54 62 75 63 42 64 26 65 27 66
REMARK SMILES IDX 35 67 28 68 29 69 33 70 36 71 30 72 31 73 34 74 32 75 58 76
REMARK SMILES IDX 59 77 67 78 60 79 61 80 65 81 68 82 62 83 63 84 66 85 64 86
REMARK SMILES IDX 43 87 44 88 52 89 45 90 46 91 50 92 53 93 47 94 48 95 51 96
REMARK SMILES IDX 49 97
REMARK H PARENT 7 9 7 10 73 50 41 61
REMARK Flexibility Score: inf
ROOT
ATOM      1  C   UNL A   1      40.613  20.189  26.170  1.00  0.00     0.274 C 
ENDROOT
BRANCH   1   2
ATOM      2  O   UNL A   1      41.949  20.121  25.636  1.00  0.00    -0.458 OA
BRANCH   2   3
ATOM      3  C   UNL A   1      42.776  19.149  26.090  1.00  0.00     0.365 C 
ATOM      4  O   UNL A   1      42.665  18.599  27.182  1.00  0.00    -0.245 OA
BRANCH   3   5
ATOM      5  C   UNL A   1      43.883  18.760  25.096  1.00  0.00     0.304 C 
ATOM      6  C   UNL A   1      45.199  20.565  24.187  1.00  0.00     0.274 C 
ATOM      7  N   UNL A   1      44.048  19.694  23.950  1.00  0.00    -0.319 N 
ATOM      8  S   UNL A   1      46.434  19.569  25.043  1.00  0.00    -0.087 SA
ATOM      9  H   UNL A   1      44.197  19.157  23.096  1.00  0.00     0.348 HD
ATOM     10  H   UNL A   1      43.206  20.263  23.854  1.00  0.00     0.348 HD
ATOM     11  C   UNL A   1      45.200  18.511  25.832  1.00  0.00     0.153 C 
BRANCH   6  12
ATOM     12  C   UNL A   1      44.805  21.860  24.873  1.00  0.00     0.024 A 
ATOM     13  C   UNL A   1      45.051  23.353  26.806  1.00  0.00     0.161 A 
ATOM     14  C   UNL A   1      45.299  22.128  26.166  1.00  0.00     0.061 A 
ATOM     15  C   UNL A   1      44.370  24.363  26.123  1.00  0.00     0.161 A 
ATOM     16  C   UNL A   1      43.879  24.104  24.841  1.00  0.00     0.051 A 
ATOM     17  C   UNL A   1      44.056  22.861  24.240  1.00  0.00     0.015 A 
BRANCH  13  18
ATOM     18  O   UNL A   1      45.550  23.580  28.062  1.00  0.00    -0.493 OA
ATOM     19  C   UNL A   1      44.590  23.302  29.085  1.00  0.00     0.278 C 
ENDBRANCH  13  18
BRANCH  15  20
ATOM     20  O   UNL A   1      44.081  25.631  26.549  1.00  0.00    -0.485 OA
BRANCH  20  21
ATOM     21  C   UNL A   1      44.325  26.730  25.668  1.00  0.00     0.265 C 
BRANCH  21  22
ATOM     22  C   UNL A   1      44.253  28.111  26.296  1.00  0.00    -0.011 A 
ATOM     23  C   UNL A   1      43.098  28.907  26.232  1.00  0.00     0.009 A 
ATOM     24  C   UNL A   1      45.380  28.617  26.960  1.00  0.00     0.009 A 
ATOM     25  C   UNL A   1      43.035  30.130  26.900  1.00  0.00     0.021 A 
ATOM     26  C   UNL A   1      45.327  29.853  27.608  1.00  0.00     0.021 A 
ATOM     27  C   UNL A   1      44.148  30.595  27.592  1.00  0.00     0.041 A 
ATOM     28  Cl  UNL A   1      44.065  32.089  28.437  1.00  0.00    -0.084 Cl
ENDBRANCH  21  22
ENDBRANCH  20  21
ENDBRANCH  15  20
ENDBRANCH   6  12
ENDBRANCH   3   5
ENDBRANCH   2   3
ENDBRANCH   1   2
BRANCH   1  29
ATOM     29  C   UNL A   1      40.496  21.405  27.086  1.00  0.00     0.275 C 
BRANCH  29  30
ATOM     30  O   UNL A   1      40.468  22.602  26.287  1.00  0.00    -0.458 OA
BRANCH  30  31
ATOM     31  C   UNL A   1      39.316  23.309  26.354  1.00  0.00     0.338 C 
ATOM     32  O   UNL A   1      38.199  22.976  26.011  1.00  0.00    -0.246 OA
BRANCH  31  33
ATOM     33  C   UNL A   1      39.596  24.557  27.072  1.00  0.00     0.060 A 
ATOM     34  C   UNL A   1      40.358  25.532  26.425  1.00  0.00     0.016 A 
ATOM     35  C   UNL A   1      39.147  24.745  28.377  1.00  0.00     0.016 A 
ATOM     36  C   UNL A   1      40.677  26.716  27.082  1.00  0.00     0.010 A 
ATOM     37  C   UNL A   1      39.469  25.931  29.038  1.00  0.00     0.010 A 
ATOM     38  C   UNL A   1      40.240  26.918  28.396  1.00  0.00    -0.014 A 
BRANCH  38  39
ATOM     39  C   UNL A   1      40.628  28.142  29.127  1.00  0.00     0.031 A 
ATOM     40  C   UNL A   1      41.988  28.228  29.749  1.00  0.00     0.074 A 
ATOM     41  C   UNL A   1      39.754  29.158  29.244  1.00  0.00     0.049 A 
ATOM     42  N   UNL A   1      42.475  29.134  30.558  1.00  0.00    -0.248 NA
ATOM     43  C   UNL A   1      42.927  27.143  29.424  1.00  0.00     0.031 C 
ATOM     44  C   UNL A   1      38.422  29.195  28.639  1.00  0.00     0.029 A 
ATOM     45  N   UNL A   1      39.848  30.343  29.927  1.00  0.00    -0.354 N 
ATOM     46  C   UNL A   1      43.762  28.714  30.862  1.00  0.00     0.074 A 
ATOM     47  C   UNL A   1      43.983  27.470  30.155  1.00  0.00     0.031 C 
ATOM     48  C   UNL A   1      37.815  30.339  28.994  1.00  0.00     0.029 A 
ATOM     49  C   UNL A   1      38.694  31.085  29.890  1.00  0.00     0.049 A 
ATOM     50  H   UNL A   1      40.663  30.632  30.397  1.00  0.00     0.167 HD
ATOM     51  C   UNL A   1      44.671  29.316  31.664  1.00  0.00     0.037 A 
ATOM     52  C   UNL A   1      38.371  32.216  30.544  1.00  0.00     0.037 A 
ATOM     53  C   UNL A   1      44.443  30.563  32.345  1.00  0.00     0.049 A 
ATOM     54  C   UNL A   1      39.383  32.840  31.467  1.00  0.00     0.074 A 
ATOM     55  C   UNL A   1      45.308  31.276  33.157  1.00  0.00     0.029 A 
ATOM     56  N   UNL A   1      43.258  31.284  32.292  1.00  0.00    -0.354 N 
ATOM     57  N   UNL A   1      40.599  32.440  31.752  1.00  0.00    -0.248 NA
ATOM     58  C   UNL A   1      38.976  34.067  32.165  1.00  0.00     0.031 C 
ATOM     59  C   UNL A   1      44.633  32.405  33.630  1.00  0.00     0.029 A 
ATOM     60  C   UNL A   1      43.362  32.421  33.077  1.00  0.00     0.049 A 
ATOM     61  H   UNL A   1      42.462  31.026  31.774  1.00  0.00     0.167 HD
ATOM     62  C   UNL A   1      41.107  33.370  32.648  1.00  0.00     0.074 A 
ATOM     63  C   UNL A   1      40.073  34.366  32.845  1.00  0.00     0.031 C 
ATOM     64  C   UNL A   1      42.318  33.396  33.257  1.00  0.00     0.037 A 
BRANCH  51  65
ATOM     65  C   UNL A   1      45.979  28.617  31.879  1.00  0.00     0.064 A 
ATOM     66  C   UNL A   1      47.120  28.932  31.127  1.00  0.00     0.173 A 
ATOM     67  C   UNL A   1      46.100  27.639  32.878  1.00  0.00     0.173 A 
ATOM     68  F   UNL A   1      47.052  29.848  30.148  1.00  0.00    -0.203 F 
ATOM     69  C   UNL A   1      48.330  28.281  31.355  1.00  0.00     0.198 A 
ATOM     70  C   UNL A   1      47.316  27.007  33.119  1.00  0.00     0.198 A 
ATOM     71  F   UNL A   1      45.039  27.301  33.625  1.00  0.00    -0.203 F 
ATOM     72  F   UNL A   1      49.398  28.569  30.599  1.00  0.00    -0.200 F 
ATOM     73  C   UNL A   1      48.429  27.325  32.355  1.00  0.00     0.200 A 
ATOM     74  F   UNL A   1      47.412  26.090  34.093  1.00  0.00    -0.200 F 
ATOM     75  F   UNL A   1      49.595  26.703  32.578  1.00  0.00    -0.200 F 
ENDBRANCH  51  65
BRANCH  52  76
ATOM     76  C   UNL A   1      37.017  32.805  30.380  1.00  0.00     0.064 A 
ATOM     77  C   UNL A   1      36.686  33.553  29.243  1.00  0.00     0.173 A 
ATOM     78  C   UNL A   1      36.028  32.634  31.360  1.00  0.00     0.173 A 
ATOM     79  F   UNL A   1      37.606  33.767  28.291  1.00  0.00    -0.203 F 
ATOM     80  C   UNL A   1      35.420  34.119  29.098  1.00  0.00     0.198 A 
ATOM     81  C   UNL A   1      34.754  33.175  31.202  1.00  0.00     0.198 A 
ATOM     82  F   UNL A   1      36.295  31.928  32.469  1.00  0.00    -0.203 F 
ATOM     83  F   UNL A   1      35.142  34.865  28.020  1.00  0.00    -0.200 F 
ATOM     84  C   UNL A   1      34.454  33.924  30.073  1.00  0.00     0.200 A 
ATOM     85  F   UNL A   1      33.820  32.974  32.140  1.00  0.00    -0.200 F 
ATOM     86  F   UNL A   1      33.236  34.463  29.930  1.00  0.00    -0.200 F 
ENDBRANCH  52  76
BRANCH  64  87
ATOM     87  C   UNL A   1      42.595  34.551  34.174  1.00  0.00     0.064 A 
ATOM     88  C   UNL A   1      42.339  34.469  35.551  1.00  0.00     0.173 A 
ATOM     89  C   UNL A   1      43.157  35.735  33.676  1.00  0.00     0.173 A 
ATOM     90  F   UNL A   1      41.786  33.363  36.070  1.00  0.00    -0.203 F 
ATOM     91  C   UNL A   1      42.618  35.541  36.392  1.00  0.00     0.198 A 
ATOM     92  C   UNL A   1      43.460  36.795  34.525  1.00  0.00     0.198 A 
ATOM     93  F   UNL A   1      43.425  35.858  32.367  1.00  0.00    -0.203 F 
ATOM     94  F   UNL A   1      42.327  35.458  37.698  1.00  0.00    -0.200 F 
ATOM     95  C   UNL A   1      43.184  36.700  35.880  1.00  0.00     0.200 A 
ATOM     96  F   UNL A   1      44.017  37.909  34.031  1.00  0.00    -0.200 F 
ATOM     97  F   UNL A   1      43.458  37.729  36.695  1.00  0.00    -0.200 F 
ENDBRANCH  64  87
ENDBRANCH  38  39
ENDBRANCH  31  33
ENDBRANCH  30  31
ENDBRANCH  29  30
ENDBRANCH   1  29
TORSDOF 16
ENDMDL
MODEL 3
REMARK VINA RESULT:     -11.8      4.594     10.067
REMARK SMILES COc1cc([C@@H]2[NH2+][C@H](C(=O)OCCOC(=O)c3ccc(-c4c5nc(c(-c6c(F)c(F)c(F)c(F)c6F)c6ccc([nH]6)c(-c6c(F)c(F)c(F)c(F)c6F)c6nc(c(-c7c(F)c(F)c(F)c(F)c7F)c7ccc4[nH]7)C=C6)C=C5)cc3)CS2)ccc1OCc1ccc(Cl)cc1
REMARK SMILES IDX 12 1 11 2 9 3 10 4 8 5 6 6 7 7 81 8 80 11 5 12 3 13 4 14
REMARK SMILES IDX 84 15 83 16 82 17 2 18 1 19 85 20 86 21 87 22 88 23 93 24
REMARK SMILES IDX 89 25 92 26 90 27 91 28 13 29 14 30 15 31 16 32 17 33 18 34
REMARK SMILES IDX 79 35 19 36 78 37 20 38 21 39 22 40 72 41 23 42 77 43 71 44
REMARK SMILES IDX 73 45 24 46 76 47 70 48 69 49 25 51 57 52 37 53 56 54 38 55
REMARK SMILES IDX 41 56 55 57 74 58 39 59 40 60 54 62 75 63 42 64 26 65 27 66
REMARK SMILES IDX 35 67 28 68 29 69 33 70 36 71 30 72 31 73 34 74 32 75 58 76
REMARK SMILES IDX 59 77 67 78 60 79 61 80 65 81 68 82 62 83 63 84 66 85 64 86
REMARK SMILES IDX 43 87 44 88 52 89 45 90 46 91 50 92 53 93 47 94 48 95 51 96
REMARK SMILES IDX 49 97
REMARK H PARENT 7 9 7 10 73 50 41 61
REMARK Flexibility Score: inf
ROOT
ATOM      1  C   UNL A   1      37.063  22.140  24.336  1.00  0.00     0.274 C 
ENDROOT
BRANCH   1   2
ATOM      2  O   UNL A   1      35.651  21.868  24.426  1.00  0.00    -0.458 OA
BRANCH   2   3
ATOM      3  C   UNL A   1      35.059  21.933  25.642  1.00  0.00     0.365 C 
ATOM      4  O   UNL A   1      35.276  22.809  26.474  1.00  0.00    -0.245 OA
BRANCH   3   5
ATOM      5  C   UNL A   1      34.046  20.805  25.901  1.00  0.00     0.304 C 
ATOM      6  C   UNL A   1      31.867  21.060  24.900  1.00  0.00     0.274 C 
ATOM      7  N   UNL A   1      32.648  21.262  26.121  1.00  0.00    -0.319 N 
ATOM      8  S   UNL A   1      32.472  19.541  24.142  1.00  0.00    -0.087 SA
ATOM      9  H   UNL A   1      32.233  20.725  26.883  1.00  0.00     0.348 HD
ATOM     10  H   UNL A   1      32.650  22.253  26.363  1.00  0.00     0.348 HD
ATOM     11  C   UNL A   1      34.140  19.738  24.809  1.00  0.00     0.153 C 
BRANCH   6  12
ATOM     12  C   UNL A   1      31.872  22.289  24.009  1.00  0.00     0.024 A 
ATOM     13  C   UNL A   1      31.080  24.579  23.613  1.00  0.00     0.161 A 
ATOM     14  C   UNL A   1      31.042  23.379  24.342  1.00  0.00     0.061 A 
ATOM     15  C   UNL A   1      32.015  24.733  22.587  1.00  0.00     0.161 A 
ATOM     16  C   UNL A   1      32.841  23.657  22.254  1.00  0.00     0.051 A 
ATOM     17  C   UNL A   1      32.744  22.441  22.924  1.00  0.00     0.015 A 
BRANCH  13  18
ATOM     18  O   UNL A   1      30.260  25.618  23.967  1.00  0.00    -0.493 OA
ATOM     19  C   UNL A   1      30.318  25.900  25.368  1.00  0.00     0.278 C 
ENDBRANCH  13  18
BRANCH  15  20
ATOM     20  O   UNL A   1      32.244  25.832  21.805  1.00  0.00    -0.485 OA
BRANCH  20  21
ATOM     21  C   UNL A   1      33.281  26.743  22.178  1.00  0.00     0.265 C 
BRANCH  21  22
ATOM     22  C   UNL A   1      32.973  27.650  23.357  1.00  0.00    -0.011 A 
ATOM     23  C   UNL A   1      31.936  28.596  23.327  1.00  0.00     0.009 A 
ATOM     24  C   UNL A   1      33.754  27.548  24.517  1.00  0.00     0.009 A 
ATOM     25  C   UNL A   1      31.621  29.347  24.459  1.00  0.00     0.021 A 
ATOM     26  C   UNL A   1      33.455  28.318  25.644  1.00  0.00     0.021 A 
ATOM     27  C   UNL A   1      32.377  29.199  25.616  1.00  0.00     0.041 A 
ATOM     28  Cl  UNL A   1      31.975  30.105  27.020  1.00  0.00    -0.084 Cl
ENDBRANCH  21  22
ENDBRANCH  20  21
ENDBRANCH  15  20
ENDBRANCH   6  12
ENDBRANCH   3   5
ENDBRANCH   2   3
ENDBRANCH   1   2
BRANCH   1  29
ATOM     29  C   UNL A   1      37.841  20.984  24.959  1.00  0.00     0.275 C 
BRANCH  29  30
ATOM     30  O   UNL A   1      38.319  21.377  26.258  1.00  0.00    -0.458 OA
BRANCH  30  31
ATOM     31  C   UNL A   1      39.634  21.145  26.479  1.00  0.00     0.338 C 
ATOM     32  O   UNL A   1      40.272  20.129  26.281  1.00  0.00    -0.246 OA
BRANCH  31  33
ATOM     33  C   UNL A   1      40.252  22.413  26.883  1.00  0.00     0.060 A 
ATOM     34  C   UNL A   1      39.909  23.567  26.175  1.00  0.00     0.016 A 
ATOM     35  C   UNL A   1      41.183  22.456  27.918  1.00  0.00     0.016 A 
ATOM     36  C   UNL A   1      40.497  24.785  26.501  1.00  0.00     0.010 A 
ATOM     37  C   UNL A   1      41.776  23.676  28.245  1.00  0.00     0.010 A 
ATOM     38  C   UNL A   1      41.440  24.843  27.534  1.00  0.00    -0.014 A 
BRANCH  38  39
ATOM     39  C   UNL A   1      42.120  26.118  27.846  1.00  0.00     0.031 A 
ATOM     40  C   UNL A   1      41.388  27.175  28.615  1.00  0.00     0.074 A 
ATOM     41  C   UNL A   1      43.380  26.325  27.422  1.00  0.00     0.049 A 
ATOM     42  N   UNL A   1      41.735  28.412  28.861  1.00  0.00    -0.248 NA
ATOM     43  C   UNL A   1      40.084  26.790  29.177  1.00  0.00     0.031 C 
ATOM     44  C   UNL A   1      44.199  25.347  26.706  1.00  0.00     0.029 A 
ATOM     45  N   UNL A   1      44.182  27.433  27.515  1.00  0.00    -0.354 N 
ATOM     46  C   UNL A   1      40.682  28.961  29.578  1.00  0.00     0.074 A 
ATOM     47  C   UNL A   1      39.680  27.927  29.726  1.00  0.00     0.031 C 
ATOM     48  C   UNL A   1      45.383  25.905  26.407  1.00  0.00     0.029 A 
ATOM     49  C   UNL A   1      45.383  27.292  26.864  1.00  0.00     0.049 A 
ATOM     50  H   UNL A   1      43.923  28.249  28.001  1.00  0.00     0.167 HD
ATOM     51  C   UNL A   1      40.566  30.220  30.063  1.00  0.00     0.037 A 
ATOM     52  C   UNL A   1      46.351  28.197  26.628  1.00  0.00     0.037 A 
ATOM     53  C   UNL A   1      41.580  31.232  29.924  1.00  0.00     0.049 A 
ATOM     54  C   UNL A   1      46.177  29.602  27.137  1.00  0.00     0.074 A 
ATOM     55  C   UNL A   1      41.576  32.531  30.404  1.00  0.00     0.029 A 
ATOM     56  N   UNL A   1      42.781  31.057  29.251  1.00  0.00    -0.354 N 
ATOM     57  N   UNL A   1      45.179  30.118  27.814  1.00  0.00    -0.248 NA
ATOM     58  C   UNL A   1      47.257  30.553  26.842  1.00  0.00     0.031 C 
ATOM     59  C   UNL A   1      42.756  33.154  29.986  1.00  0.00     0.029 A 
ATOM     60  C   UNL A   1      43.515  32.231  29.283  1.00  0.00     0.049 A 
ATOM     61  H   UNL A   1      43.068  30.222  28.816  1.00  0.00     0.167 HD
ATOM     62  C   UNL A   1      45.517  31.446  28.039  1.00  0.00     0.074 A 
ATOM     63  C   UNL A   1      46.821  31.651  27.442  1.00  0.00     0.031 C 
ATOM     64  C   UNL A   1      44.810  32.409  28.679  1.00  0.00     0.037 A 
BRANCH  51  65
ATOM     65  C   UNL A   1      39.287  30.584  30.755  1.00  0.00     0.064 A 
ATOM     66  C   UNL A   1      38.158  31.015  30.045  1.00  0.00     0.173 A 
ATOM     67  C   UNL A   1      39.181  30.463  32.148  1.00  0.00     0.173 A 
ATOM     68  F   UNL A   1      38.213  31.163  28.712  1.00  0.00    -0.203 F 
ATOM     69  C   UNL A   1      36.974  31.332  30.707  1.00  0.00     0.198 A 
ATOM     70  C   UNL A   1      37.990  30.756  32.805  1.00  0.00     0.198 A 
ATOM     71  F   UNL A   1      40.232  30.053  32.874  1.00  0.00    -0.203 F 
ATOM     72  F   UNL A   1      35.918  31.780  30.014  1.00  0.00    -0.200 F 
ATOM     73  C   UNL A   1      36.888  31.195  32.085  1.00  0.00     0.200 A 
ATOM     74  F   UNL A   1      37.906  30.614  34.136  1.00  0.00    -0.200 F 
ATOM     75  F   UNL A   1      35.747  31.493  32.721  1.00  0.00    -0.200 F 
ENDBRANCH  51  65
BRANCH  52  76
ATOM     76  C   UNL A   1      47.548  27.810  25.838  1.00  0.00     0.064 A 
ATOM     77  C   UNL A   1      47.513  27.781  24.437  1.00  0.00     0.173 A 
ATOM     78  C   UNL A   1      48.751  27.457  26.468  1.00  0.00     0.173 A 
ATOM     79  F   UNL A   1      46.378  28.085  23.790  1.00  0.00    -0.203 F 
ATOM     80  C   UNL A   1      48.632  27.402  23.698  1.00  0.00     0.198 A 
ATOM     81  C   UNL A   1      49.877  27.106  25.729  1.00  0.00     0.198 A 
ATOM     82  F   UNL A   1      48.835  27.466  27.807  1.00  0.00    -0.203 F 
ATOM     83  F   UNL A   1      48.560  27.342  22.362  1.00  0.00    -0.200 F 
ATOM     84  C   UNL A   1      49.814  27.072  24.344  1.00  0.00     0.200 A 
ATOM     85  F   UNL A   1      51.021  26.799  26.355  1.00  0.00    -0.200 F 
ATOM     86  F   UNL A   1      50.891  26.712  23.632  1.00  0.00    -0.200 F 
ENDBRANCH  52  76
BRANCH  64  87
ATOM     87  C   UNL A   1      45.446  33.765  28.782  1.00  0.00     0.064 A 
ATOM     88  C   UNL A   1      45.213  34.758  27.820  1.00  0.00     0.173 A 
ATOM     89  C   UNL A   1      46.263  34.084  29.876  1.00  0.00     0.173 A 
ATOM     90  F   UNL A   1      44.450  34.492  26.748  1.00  0.00    -0.203 F 
ATOM     91  C   UNL A   1      45.794  36.016  27.939  1.00  0.00     0.198 A 
ATOM     92  C   UNL A   1      46.821  35.352  30.005  1.00  0.00     0.198 A 
ATOM     93  F   UNL A   1      46.512  33.169  30.825  1.00  0.00    -0.203 F 
ATOM     94  F   UNL A   1      45.592  36.937  26.986  1.00  0.00    -0.200 F 
ATOM     95  C   UNL A   1      46.592  36.314  29.034  1.00  0.00     0.200 A 
ATOM     96  F   UNL A   1      47.583  35.643  31.069  1.00  0.00    -0.200 F 
ATOM     97  F   UNL A   1      47.145  37.530  29.149  1.00  0.00    -0.200 F 
ENDBRANCH  64  87
ENDBRANCH  38  39
ENDBRANCH  31  33
ENDBRANCH  30  31
ENDBRANCH  29  30
ENDBRANCH   1  29
TORSDOF 16
ENDMDL
