MODEL 1
REMARK VINA RESULT:     -11.7      0.000      0.000
REMARK SMILES Cn1cc(C(=O)NCCc2ccccc2)c(C(=O)OCCOC(=O)c2ccc(-c3c4nc(c(-c5c(F)c(F)c(F)c(F)c5F)c5ccc([nH]5)c(-c5c(F)c(F)c(F)c(F)c5F)c5nc(c(-c6c(F)c(F)c(F)c(F)c6F)c6ccc3[nH]6)C=C5)C=C4)cc2)n1
REMARK SMILES IDX 20 1 19 2 17 3 18 4 16 5 1 6 2 7 3 8 88 9 4 10 5 11 6 12
REMARK SMILES IDX 7 13 8 15 9 16 10 17 11 18 15 19 12 20 14 21 13 22 21 23
REMARK SMILES IDX 22 24 23 25 24 26 25 27 26 28 87 29 27 30 86 31 28 32 29 33
REMARK SMILES IDX 30 34 80 35 31 36 85 37 79 38 81 39 32 40 84 41 78 42 77 43
REMARK SMILES IDX 33 45 65 46 45 47 64 48 46 49 49 50 63 51 82 52 47 53 48 54
REMARK SMILES IDX 62 56 83 57 50 58 34 59 35 60 43 61 36 62 37 63 41 64 44 65
REMARK SMILES IDX 38 66 39 67 42 68 40 69 66 70 67 71 75 72 68 73 69 74 73 75
REMARK SMILES IDX 76 76 70 77 71 78 74 79 72 80 51 81 52 82 60 83 53 84 54 85
REMARK SMILES IDX 58 86 61 87 55 88 56 89 59 90 57 91
REMARK H PARENT 7 14 81 44 49 55
REMARK Flexibility Score: inf
ROOT
ATOM      1  C   UNL A   1      31.707  28.488  26.528  1.00  0.00     0.275 C 
ENDROOT
BRANCH   1   2
ATOM      2  O   UNL A   1      32.062  27.613  25.445  1.00  0.00    -0.457 OA
BRANCH   2   3
ATOM      3  C   UNL A   1      33.167  26.825  25.607  1.00  0.00     0.359 C 
ATOM      4  O   UNL A   1      34.118  27.110  26.325  1.00  0.00    -0.244 OA
BRANCH   3   5
ATOM      5  C   UNL A   1      33.007  25.519  24.945  1.00  0.00     0.183 A 
ATOM      6  C   UNL A   1      34.467  22.995  23.017  1.00  0.00     0.173 C 
ATOM      7  N   UNL A   1      33.607  23.811  23.841  1.00  0.00    -0.274 N 
ATOM      8  C   UNL A   1      32.475  23.419  24.488  1.00  0.00     0.123 A 
ATOM      9  N   UNL A   1      33.923  25.090  24.051  1.00  0.00    -0.165 NA
ATOM     10  C   UNL A   1      31.970  24.542  25.121  1.00  0.00     0.092 A 
BRANCH  10  11
ATOM     11  C   UNL A   1      30.718  24.752  25.828  1.00  0.00     0.255 C 
ATOM     12  O   UNL A   1      30.576  24.420  27.005  1.00  0.00    -0.269 OA
ATOM     13  N   UNL A   1      29.664  25.409  25.255  1.00  0.00    -0.352 N 
ATOM     14  H   UNL A   1      28.901  25.526  25.865  1.00  0.00     0.163 HD
BRANCH  13  15
ATOM     15  C   UNL A   1      29.432  25.972  23.935  1.00  0.00     0.121 C 
BRANCH  15  16
ATOM     16  C   UNL A   1      28.233  26.930  23.934  1.00  0.00     0.057 C 
BRANCH  16  17
ATOM     17  C   UNL A   1      28.579  28.215  23.215  1.00  0.00    -0.046 A 
ATOM     18  C   UNL A   1      27.564  29.103  22.831  1.00  0.00     0.004 A 
ATOM     19  C   UNL A   1      29.901  28.489  22.835  1.00  0.00     0.004 A 
ATOM     20  C   UNL A   1      27.862  30.225  22.060  1.00  0.00     0.000 A 
ATOM     21  C   UNL A   1      30.195  29.606  22.052  1.00  0.00     0.000 A 
ATOM     22  C   UNL A   1      29.175  30.469  21.659  1.00  0.00     0.000 A 
ENDBRANCH  16  17
ENDBRANCH  15  16
ENDBRANCH  13  15
ENDBRANCH  10  11
ENDBRANCH   3   5
ENDBRANCH   2   3
ENDBRANCH   1   2
BRANCH   1  23
ATOM     23  C   UNL A   1      31.723  29.941  26.048  1.00  0.00     0.275 C 
BRANCH  23  24
ATOM     24  O   UNL A   1      33.068  30.459  26.043  1.00  0.00    -0.458 OA
BRANCH  24  25
ATOM     25  C   UNL A   1      33.310  31.445  26.938  1.00  0.00     0.338 C 
ATOM     26  O   UNL A   1      32.575  32.364  27.258  1.00  0.00    -0.246 OA
BRANCH  25  27
ATOM     27  C   UNL A   1      34.589  31.178  27.613  1.00  0.00     0.060 A 
ATOM     28  C   UNL A   1      34.844  29.864  28.001  1.00  0.00     0.016 A 
ATOM     29  C   UNL A   1      35.493  32.193  27.926  1.00  0.00     0.016 A 
ATOM     30  C   UNL A   1      35.999  29.544  28.704  1.00  0.00     0.010 A 
ATOM     31  C   UNL A   1      36.656  31.875  28.639  1.00  0.00     0.010 A 
ATOM     32  C   UNL A   1      36.911  30.550  29.040  1.00  0.00    -0.014 A 
BRANCH  32  33
ATOM     33  C   UNL A   1      38.092  30.210  29.868  1.00  0.00     0.031 A 
ATOM     34  C   UNL A   1      39.161  29.319  29.308  1.00  0.00     0.074 A 
ATOM     35  C   UNL A   1      38.229  30.741  31.097  1.00  0.00     0.049 A 
ATOM     36  N   UNL A   1      40.236  28.848  29.887  1.00  0.00    -0.248 NA
ATOM     37  C   UNL A   1      39.004  28.906  27.905  1.00  0.00     0.031 C 
ATOM     38  C   UNL A   1      37.290  31.669  31.724  1.00  0.00     0.029 A 
ATOM     39  N   UNL A   1      39.217  30.576  32.035  1.00  0.00    -0.354 N 
ATOM     40  C   UNL A   1      40.867  28.064  28.932  1.00  0.00     0.074 A 
ATOM     41  C   UNL A   1      40.056  28.118  27.734  1.00  0.00     0.031 C 
ATOM     42  C   UNL A   1      37.748  31.994  32.945  1.00  0.00     0.029 A 
ATOM     43  C   UNL A   1      38.987  31.265  33.200  1.00  0.00     0.049 A 
ATOM     44  H   UNL A   1      40.014  30.017  31.888  1.00  0.00     0.167 HD
ATOM     45  C   UNL A   1      42.021  27.362  29.047  1.00  0.00     0.037 A 
ATOM     46  C   UNL A   1      39.685  31.283  34.351  1.00  0.00     0.037 A 
ATOM     47  C   UNL A   1      42.838  27.329  30.231  1.00  0.00     0.049 A 
ATOM     48  C   UNL A   1      40.936  30.457  34.468  1.00  0.00     0.074 A 
ATOM     49  C   UNL A   1      44.024  26.647  30.443  1.00  0.00     0.029 A 
ATOM     50  N   UNL A   1      42.554  28.013  31.404  1.00  0.00    -0.354 N 
ATOM     51  N   UNL A   1      41.513  29.698  33.569  1.00  0.00    -0.248 NA
ATOM     52  C   UNL A   1      41.630  30.483  35.764  1.00  0.00     0.031 C 
ATOM     53  C   UNL A   1      44.444  26.896  31.755  1.00  0.00     0.029 A 
ATOM     54  C   UNL A   1      43.537  27.759  32.348  1.00  0.00     0.049 A 
ATOM     55  H   UNL A   1      41.771  28.592  31.545  1.00  0.00     0.167 HD
ATOM     56  C   UNL A   1      42.640  29.168  34.182  1.00  0.00     0.074 A 
ATOM     57  C   UNL A   1      42.677  29.706  35.526  1.00  0.00     0.031 C 
ATOM     58  C   UNL A   1      43.559  28.310  33.678  1.00  0.00     0.037 A 
BRANCH  45  59
ATOM     59  C   UNL A   1      42.453  26.546  27.869  1.00  0.00     0.064 A 
ATOM     60  C   UNL A   1      41.981  25.243  27.662  1.00  0.00     0.173 A 
ATOM     61  C   UNL A   1      43.319  27.094  26.910  1.00  0.00     0.173 A 
ATOM     62  F   UNL A   1      41.162  24.672  28.558  1.00  0.00    -0.203 F 
ATOM     63  C   UNL A   1      42.373  24.511  26.544  1.00  0.00     0.198 A 
ATOM     64  C   UNL A   1      43.692  26.367  25.784  1.00  0.00     0.198 A 
ATOM     65  F   UNL A   1      43.796  28.338  27.063  1.00  0.00    -0.203 F 
ATOM     66  F   UNL A   1      41.935  23.255  26.381  1.00  0.00    -0.200 F 
ATOM     67  C   UNL A   1      43.222  25.074  25.603  1.00  0.00     0.200 A 
ATOM     68  F   UNL A   1      44.507  26.916  24.873  1.00  0.00    -0.200 F 
ATOM     69  F   UNL A   1      43.593  24.371  24.526  1.00  0.00    -0.200 F 
ENDBRANCH  45  59
BRANCH  46  70
ATOM     70  C   UNL A   1      39.199  32.091  35.499  1.00  0.00     0.064 A 
ATOM     71  C   UNL A   1      39.575  33.433  35.648  1.00  0.00     0.173 A 
ATOM     72  C   UNL A   1      38.360  31.534  36.475  1.00  0.00     0.173 A 
ATOM     73  F   UNL A   1      40.400  34.000  34.756  1.00  0.00    -0.203 F 
ATOM     74  C   UNL A   1      39.139  34.183  36.738  1.00  0.00     0.198 A 
ATOM     75  C   UNL A   1      37.905  32.292  37.551  1.00  0.00     0.198 A 
ATOM     76  F   UNL A   1      37.979  30.252  36.380  1.00  0.00    -0.203 F 
ATOM     77  F   UNL A   1      39.547  35.451  36.882  1.00  0.00    -0.200 F 
ATOM     78  C   UNL A   1      38.299  33.614  37.685  1.00  0.00     0.200 A 
ATOM     79  F   UNL A   1      37.090  31.740  38.459  1.00  0.00    -0.200 F 
ATOM     80  F   UNL A   1      37.881  34.337  38.733  1.00  0.00    -0.200 F 
ENDBRANCH  46  70
BRANCH  58  81
ATOM     81  C   UNL A   1      44.694  27.918  34.575  1.00  0.00     0.064 A 
ATOM     82  C   UNL A   1      44.626  26.774  35.381  1.00  0.00     0.173 A 
ATOM     83  C   UNL A   1      45.875  28.675  34.598  1.00  0.00     0.173 A 
ATOM     84  F   UNL A   1      43.510  26.029  35.403  1.00  0.00    -0.203 F 
ATOM     85  C   UNL A   1      45.695  26.409  36.194  1.00  0.00     0.198 A 
ATOM     86  C   UNL A   1      46.951  28.295  35.395  1.00  0.00     0.198 A 
ATOM     87  F   UNL A   1      45.989  29.775  33.840  1.00  0.00    -0.203 F 
ATOM     88  F   UNL A   1      45.597  25.331  36.985  1.00  0.00    -0.200 F 
ATOM     89  C   UNL A   1      46.858  27.166  36.196  1.00  0.00     0.200 A 
ATOM     90  F   UNL A   1      48.076  29.022  35.391  1.00  0.00    -0.200 F 
ATOM     91  F   UNL A   1      47.888  26.811  36.977  1.00  0.00    -0.200 F 
ENDBRANCH  58  81
ENDBRANCH  32  33
ENDBRANCH  25  27
ENDBRANCH  24  25
ENDBRANCH  23  24
ENDBRANCH   1  23
TORSDOF 15
ENDMDL
MODEL 2
REMARK VINA RESULT:     -11.7      4.472      9.858
REMARK SMILES Cn1cc(C(=O)NCCc2ccccc2)c(C(=O)OCCOC(=O)c2ccc(-c3c4nc(c(-c5c(F)c(F)c(F)c(F)c5F)c5ccc([nH]5)c(-c5c(F)c(F)c(F)c(F)c5F)c5nc(c(-c6c(F)c(F)c(F)c(F)c6F)c6ccc3[nH]6)C=C5)C=C4)cc2)n1
REMARK SMILES IDX 20 1 19 2 17 3 18 4 16 5 1 6 2 7 3 8 88 9 4 10 5 11 6 12
REMARK SMILES IDX 7 13 8 15 9 16 10 17 11 18 15 19 12 20 14 21 13 22 21 23
REMARK SMILES IDX 22 24 23 25 24 26 25 27 26 28 87 29 27 30 86 31 28 32 29 33
REMARK SMILES IDX 30 34 80 35 31 36 85 37 79 38 81 39 32 40 84 41 78 42 77 43
REMARK SMILES IDX 33 45 65 46 45 47 64 48 46 49 49 50 63 51 82 52 47 53 48 54
REMARK SMILES IDX 62 56 83 57 50 58 34 59 35 60 43 61 36 62 37 63 41 64 44 65
REMARK SMILES IDX 38 66 39 67 42 68 40 69 66 70 67 71 75 72 68 73 69 74 73 75
REMARK SMILES IDX 76 76 70 77 71 78 74 79 72 80 51 81 52 82 60 83 53 84 54 85
REMARK SMILES IDX 58 86 61 87 55 88 56 89 59 90 57 91
REMARK H PARENT 7 14 81 44 49 55
REMARK Flexibility Score: inf
ROOT
ATOM      1  C   UNL A   1      36.053  22.375  24.157  1.00  0.00     0.275 C 
ENDROOT
BRANCH   1   2
ATOM      2  O   UNL A   1      35.965  23.470  25.083  1.00  0.00    -0.457 OA
BRANCH   2   3
ATOM      3  C   UNL A   1      34.841  23.553  25.856  1.00  0.00     0.359 C 
ATOM      4  O   UNL A   1      34.763  23.142  27.007  1.00  0.00    -0.244 OA
BRANCH   3   5
ATOM      5  C   UNL A   1      33.785  24.342  25.198  1.00  0.00     0.183 A 
ATOM      6  C   UNL A   1      32.952  26.653  22.711  1.00  0.00     0.173 C 
ATOM      7  N   UNL A   1      32.955  25.676  23.773  1.00  0.00    -0.274 N 
ATOM      8  C   UNL A   1      31.887  24.984  24.257  1.00  0.00     0.123 A 
ATOM      9  N   UNL A   1      34.108  25.350  24.360  1.00  0.00    -0.165 NA
ATOM     10  C   UNL A   1      32.360  24.191  25.288  1.00  0.00     0.092 A 
BRANCH  10  11
ATOM     11  C   UNL A   1      31.655  23.363  26.252  1.00  0.00     0.255 C 
ATOM     12  O   UNL A   1      31.122  23.845  27.251  1.00  0.00    -0.269 OA
ATOM     13  N   UNL A   1      31.470  22.021  26.057  1.00  0.00    -0.352 N 
ATOM     14  H   UNL A   1      30.931  21.597  26.762  1.00  0.00     0.163 HD
BRANCH  13  15
ATOM     15  C   UNL A   1      31.900  21.090  25.027  1.00  0.00     0.121 C 
BRANCH  15  16
ATOM     16  C   UNL A   1      33.196  20.369  25.425  1.00  0.00     0.057 C 
BRANCH  16  17
ATOM     17  C   UNL A   1      33.463  19.205  24.498  1.00  0.00    -0.046 A 
ATOM     18  C   UNL A   1      32.520  18.849  23.524  1.00  0.00     0.004 A 
ATOM     19  C   UNL A   1      34.605  18.408  24.661  1.00  0.00     0.004 A 
ATOM     20  C   UNL A   1      32.702  17.703  22.750  1.00  0.00     0.000 A 
ATOM     21  C   UNL A   1      34.778  17.254  23.895  1.00  0.00     0.000 A 
ATOM     22  C   UNL A   1      33.823  16.899  22.945  1.00  0.00     0.000 A 
ENDBRANCH  16  17
ENDBRANCH  15  16
ENDBRANCH  13  15
ENDBRANCH  10  11
ENDBRANCH   3   5
ENDBRANCH   2   3
ENDBRANCH   1   2
BRANCH   1  23
ATOM     23  C   UNL A   1      36.998  21.304  24.707  1.00  0.00     0.275 C 
BRANCH  23  24
ATOM     24  O   UNL A   1      37.562  21.724  25.966  1.00  0.00    -0.458 OA
BRANCH  24  25
ATOM     25  C   UNL A   1      38.878  21.454  26.126  1.00  0.00     0.338 C 
ATOM     26  O   UNL A   1      39.477  20.436  25.823  1.00  0.00    -0.246 OA
BRANCH  25  27
ATOM     27  C   UNL A   1      39.559  22.661  26.618  1.00  0.00     0.060 A 
ATOM     28  C   UNL A   1      39.121  23.888  26.122  1.00  0.00     0.016 A 
ATOM     29  C   UNL A   1      40.647  22.601  27.489  1.00  0.00     0.016 A 
ATOM     30  C   UNL A   1      39.759  25.067  26.486  1.00  0.00     0.010 A 
ATOM     31  C   UNL A   1      41.296  23.788  27.853  1.00  0.00     0.010 A 
ATOM     32  C   UNL A   1      40.861  25.027  27.347  1.00  0.00    -0.014 A 
BRANCH  32  33
ATOM     33  C   UNL A   1      41.587  26.282  27.654  1.00  0.00     0.031 A 
ATOM     34  C   UNL A   1      40.915  27.351  28.464  1.00  0.00     0.074 A 
ATOM     35  C   UNL A   1      42.861  26.439  27.251  1.00  0.00     0.049 A 
ATOM     36  N   UNL A   1      41.347  28.544  28.785  1.00  0.00    -0.248 NA
ATOM     37  C   UNL A   1      39.578  27.034  28.989  1.00  0.00     0.031 C 
ATOM     38  C   UNL A   1      43.641  25.447  26.514  1.00  0.00     0.029 A 
ATOM     39  N   UNL A   1      43.724  27.494  27.412  1.00  0.00    -0.354 N 
ATOM     40  C   UNL A   1      40.329  29.129  29.524  1.00  0.00     0.074 A 
ATOM     41  C   UNL A   1      39.253  28.163  29.604  1.00  0.00     0.031 C 
ATOM     42  C   UNL A   1      44.870  25.939  26.287  1.00  0.00     0.029 A 
ATOM     43  C   UNL A   1      44.949  27.295  26.824  1.00  0.00     0.049 A 
ATOM     44  H   UNL A   1      43.488  28.315  27.901  1.00  0.00     0.167 HD
ATOM     45  C   UNL A   1      40.297  30.362  30.085  1.00  0.00     0.037 A 
ATOM     46  C   UNL A   1      46.003  28.125  26.709  1.00  0.00     0.037 A 
ATOM     47  C   UNL A   1      41.376  31.312  30.024  1.00  0.00     0.049 A 
ATOM     48  C   UNL A   1      45.923  29.505  27.300  1.00  0.00     0.074 A 
ATOM     49  C   UNL A   1      41.437  32.585  30.562  1.00  0.00     0.029 A 
ATOM     50  N   UNL A   1      42.589  31.086  29.390  1.00  0.00    -0.354 N 
ATOM     51  N   UNL A   1      44.946  30.060  27.975  1.00  0.00    -0.248 NA
ATOM     52  C   UNL A   1      47.088  30.380  27.103  1.00  0.00     0.031 C 
ATOM     53  C   UNL A   1      42.677  33.143  30.228  1.00  0.00     0.029 A 
ATOM     54  C   UNL A   1      43.400  32.203  29.512  1.00  0.00     0.049 A 
ATOM     55  H   UNL A   1      42.836  30.256  28.922  1.00  0.00     0.167 HD
ATOM     56  C   UNL A   1      45.381  31.338  28.296  1.00  0.00     0.074 A 
ATOM     57  C   UNL A   1      46.719  31.472  27.757  1.00  0.00     0.031 C 
ATOM     58  C   UNL A   1      44.730  32.314  28.973  1.00  0.00     0.037 A 
BRANCH  45  59
ATOM     59  C   UNL A   1      39.039  30.767  30.788  1.00  0.00     0.064 A 
ATOM     60  C   UNL A   1      38.877  30.589  32.169  1.00  0.00     0.173 A 
ATOM     61  C   UNL A   1      37.997  31.381  30.076  1.00  0.00     0.173 A 
ATOM     62  F   UNL A   1      39.839  29.994  32.890  1.00  0.00    -0.203 F 
ATOM     63  C   UNL A   1      37.710  30.999  32.809  1.00  0.00     0.198 A 
ATOM     64  C   UNL A   1      36.842  31.808  30.722  1.00  0.00     0.198 A 
ATOM     65  F   UNL A   1      38.107  31.575  28.753  1.00  0.00    -0.203 F 
ATOM     66  F   UNL A   1      37.562  30.791  34.125  1.00  0.00    -0.200 F 
ATOM     67  C   UNL A   1      36.697  31.613  32.088  1.00  0.00     0.200 A 
ATOM     68  F   UNL A   1      35.867  32.408  30.025  1.00  0.00    -0.200 F 
ATOM     69  F   UNL A   1      35.578  32.012  32.707  1.00  0.00    -0.200 F 
ENDBRANCH  45  59
BRANCH  46  70
ATOM     70  C   UNL A   1      47.218  27.680  25.980  1.00  0.00     0.064 A 
ATOM     71  C   UNL A   1      48.339  27.198  26.669  1.00  0.00     0.173 A 
ATOM     72  C   UNL A   1      47.287  27.742  24.580  1.00  0.00     0.173 A 
ATOM     73  F   UNL A   1      48.330  27.149  28.009  1.00  0.00    -0.203 F 
ATOM     74  C   UNL A   1      49.488  26.805  25.985  1.00  0.00     0.198 A 
ATOM     75  C   UNL A   1      48.427  27.326  23.897  1.00  0.00     0.198 A 
ATOM     76  F   UNL A   1      46.243  28.204  23.877  1.00  0.00    -0.203 F 
ATOM     77  F   UNL A   1      50.561  26.388  26.670  1.00  0.00    -0.200 F 
ATOM     78  C   UNL A   1      49.529  26.863  24.600  1.00  0.00     0.200 A 
ATOM     79  F   UNL A   1      48.460  27.379  22.559  1.00  0.00    -0.200 F 
ATOM     80  F   UNL A   1      50.634  26.486  23.944  1.00  0.00    -0.200 F 
ENDBRANCH  46  70
BRANCH  58  81
ATOM     81  C   UNL A   1      45.464  33.603  29.189  1.00  0.00     0.064 A 
ATOM     82  C   UNL A   1      46.294  33.794  30.302  1.00  0.00     0.173 A 
ATOM     83  C   UNL A   1      45.365  34.643  28.252  1.00  0.00     0.173 A 
ATOM     84  F   UNL A   1      46.407  32.833  31.232  1.00  0.00    -0.203 F 
ATOM     85  C   UNL A   1      46.987  34.988  30.480  1.00  0.00     0.198 A 
ATOM     86  C   UNL A   1      46.076  35.827  28.421  1.00  0.00     0.198 A 
ATOM     87  F   UNL A   1      44.587  34.505  27.169  1.00  0.00    -0.203 F 
ATOM     88  F   UNL A   1      47.747  35.164  31.570  1.00  0.00    -0.200 F 
ATOM     89  C   UNL A   1      46.882  36.001  29.538  1.00  0.00     0.200 A 
ATOM     90  F   UNL A   1      45.981  36.802  27.507  1.00  0.00    -0.200 F 
ATOM     91  F   UNL A   1      47.552  37.148  29.709  1.00  0.00    -0.200 F 
ENDBRANCH  58  81
ENDBRANCH  32  33
ENDBRANCH  25  27
ENDBRANCH  24  25
ENDBRANCH  23  24
ENDBRANCH   1  23
TORSDOF 15
ENDMDL
MODEL 3
REMARK VINA RESULT:     -11.7      1.004      2.381
REMARK SMILES Cn1cc(C(=O)NCCc2ccccc2)c(C(=O)OCCOC(=O)c2ccc(-c3c4nc(c(-c5c(F)c(F)c(F)c(F)c5F)c5ccc([nH]5)c(-c5c(F)c(F)c(F)c(F)c5F)c5nc(c(-c6c(F)c(F)c(F)c(F)c6F)c6ccc3[nH]6)C=C5)C=C4)cc2)n1
REMARK SMILES IDX 20 1 19 2 17 3 18 4 16 5 1 6 2 7 3 8 88 9 4 10 5 11 6 12
REMARK SMILES IDX 7 13 8 15 9 16 10 17 11 18 15 19 12 20 14 21 13 22 21 23
REMARK SMILES IDX 22 24 23 25 24 26 25 27 26 28 87 29 27 30 86 31 28 32 29 33
REMARK SMILES IDX 30 34 80 35 31 36 85 37 79 38 81 39 32 40 84 41 78 42 77 43
REMARK SMILES IDX 33 45 65 46 45 47 64 48 46 49 49 50 63 51 82 52 47 53 48 54
REMARK SMILES IDX 62 56 83 57 50 58 34 59 35 60 43 61 36 62 37 63 41 64 44 65
REMARK SMILES IDX 38 66 39 67 42 68 40 69 66 70 67 71 75 72 68 73 69 74 73 75
REMARK SMILES IDX 76 76 70 77 71 78 74 79 72 80 51 81 52 82 60 83 53 84 54 85
REMARK SMILES IDX 58 86 61 87 55 88 56 89 59 90 57 91
REMARK H PARENT 7 14 81 44 49 55
REMARK Flexibility Score: inf
ROOT
ATOM      1  C   UNL A   1      31.762  28.354  26.351  1.00  0.00     0.275 C 
ENDROOT
BRANCH   1   2
ATOM      2  O   UNL A   1      33.010  27.697  26.077  1.00  0.00    -0.457 OA
BRANCH   2   3
ATOM      3  C   UNL A   1      33.201  27.206  24.816  1.00  0.00     0.359 C 
ATOM      4  O   UNL A   1      34.002  27.664  24.011  1.00  0.00    -0.244 OA
BRANCH   3   5
ATOM      5  C   UNL A   1      32.445  25.960  24.596  1.00  0.00     0.183 A 
ATOM      6  C   UNL A   1      31.437  22.864  25.868  1.00  0.00     0.173 C 
ATOM      7  N   UNL A   1      31.632  24.065  25.092  1.00  0.00    -0.274 N 
ATOM      8  C   UNL A   1      30.887  24.491  24.035  1.00  0.00     0.123 A 
ATOM      9  N   UNL A   1      32.617  24.904  25.420  1.00  0.00    -0.165 NA
ATOM     10  C   UNL A   1      31.464  25.668  23.589  1.00  0.00     0.092 A 
BRANCH  10  11
ATOM     11  C   UNL A   1      31.187  26.478  22.415  1.00  0.00     0.255 C 
ATOM     12  O   UNL A   1      31.697  26.230  21.323  1.00  0.00    -0.269 OA
ATOM     13  N   UNL A   1      30.281  27.503  22.439  1.00  0.00    -0.352 N 
ATOM     14  H   UNL A   1      30.155  27.930  21.562  1.00  0.00     0.163 HD
BRANCH  13  15
ATOM     15  C   UNL A   1      29.462  28.091  23.486  1.00  0.00     0.121 C 
BRANCH  15  16
ATOM     16  C   UNL A   1      28.143  28.641  22.927  1.00  0.00     0.057 C 
BRANCH  16  17
ATOM     17  C   UNL A   1      28.296  30.092  22.531  1.00  0.00    -0.046 A 
ATOM     18  C   UNL A   1      28.533  31.068  23.509  1.00  0.00     0.004 A 
ATOM     19  C   UNL A   1      28.108  30.496  21.201  1.00  0.00     0.004 A 
ATOM     20  C   UNL A   1      28.551  32.420  23.169  1.00  0.00     0.000 A 
ATOM     21  C   UNL A   1      28.112  31.850  20.865  1.00  0.00     0.000 A 
ATOM     22  C   UNL A   1      28.328  32.811  21.850  1.00  0.00     0.000 A 
ENDBRANCH  16  17
ENDBRANCH  15  16
ENDBRANCH  13  15
ENDBRANCH  10  11
ENDBRANCH   3   5
ENDBRANCH   2   3
ENDBRANCH   1   2
BRANCH   1  23
ATOM     23  C   UNL A   1      31.826  29.807  25.875  1.00  0.00     0.275 C 
BRANCH  23  24
ATOM     24  O   UNL A   1      33.172  30.314  25.969  1.00  0.00    -0.458 OA
BRANCH  24  25
ATOM     25  C   UNL A   1      33.366  31.263  26.913  1.00  0.00     0.338 C 
ATOM     26  O   UNL A   1      32.589  32.132  27.274  1.00  0.00    -0.246 OA
BRANCH  25  27
ATOM     27  C   UNL A   1      34.653  31.021  27.581  1.00  0.00     0.060 A 
ATOM     28  C   UNL A   1      34.946  29.707  27.944  1.00  0.00     0.016 A 
ATOM     29  C   UNL A   1      35.528  32.055  27.913  1.00  0.00     0.016 A 
ATOM     30  C   UNL A   1      36.111  29.407  28.640  1.00  0.00     0.010 A 
ATOM     31  C   UNL A   1      36.701  31.757  28.619  1.00  0.00     0.010 A 
ATOM     32  C   UNL A   1      36.995  30.432  28.995  1.00  0.00    -0.014 A 
BRANCH  32  33
ATOM     33  C   UNL A   1      38.186  30.110  29.815  1.00  0.00     0.031 A 
ATOM     34  C   UNL A   1      39.260  29.228  29.251  1.00  0.00     0.074 A 
ATOM     35  C   UNL A   1      38.327  30.650  31.039  1.00  0.00     0.049 A 
ATOM     36  N   UNL A   1      40.345  28.772  29.825  1.00  0.00    -0.248 NA
ATOM     37  C   UNL A   1      39.097  28.804  27.852  1.00  0.00     0.031 C 
ATOM     38  C   UNL A   1      37.383  31.571  31.669  1.00  0.00     0.029 A 
ATOM     39  N   UNL A   1      39.324  30.502  31.970  1.00  0.00    -0.354 N 
ATOM     40  C   UNL A   1      40.977  27.989  28.869  1.00  0.00     0.074 A 
ATOM     41  C   UNL A   1      40.156  28.027  27.678  1.00  0.00     0.031 C 
ATOM     42  C   UNL A   1      37.847  31.909  32.883  1.00  0.00     0.029 A 
ATOM     43  C   UNL A   1      39.096  31.195  33.133  1.00  0.00     0.049 A 
ATOM     44  H   UNL A   1      40.126  29.951  31.820  1.00  0.00     0.167 HD
ATOM     45  C   UNL A   1      42.139  27.302  28.979  1.00  0.00     0.037 A 
ATOM     46  C   UNL A   1      39.803  31.228  34.278  1.00  0.00     0.037 A 
ATOM     47  C   UNL A   1      42.967  27.284  30.157  1.00  0.00     0.049 A 
ATOM     48  C   UNL A   1      41.064  30.417  34.390  1.00  0.00     0.074 A 
ATOM     49  C   UNL A   1      44.161  26.618  30.363  1.00  0.00     0.029 A 
ATOM     50  N   UNL A   1      42.684  27.973  31.327  1.00  0.00    -0.354 N 
ATOM     51  N   UNL A   1      41.642  29.659  33.490  1.00  0.00    -0.248 NA
ATOM     52  C   UNL A   1      41.768  30.458  35.680  1.00  0.00     0.031 C 
ATOM     53  C   UNL A   1      44.589  26.879  31.670  1.00  0.00     0.029 A 
ATOM     54  C   UNL A   1      43.677  27.735  32.264  1.00  0.00     0.049 A 
ATOM     55  H   UNL A   1      41.896  28.544  31.471  1.00  0.00     0.167 HD
ATOM     56  C   UNL A   1      42.780  29.145  34.097  1.00  0.00     0.074 A 
ATOM     57  C   UNL A   1      42.822  29.692  35.438  1.00  0.00     0.031 C 
ATOM     58  C   UNL A   1      43.704  28.294  33.591  1.00  0.00     0.037 A 
BRANCH  45  59
ATOM     59  C   UNL A   1      42.571  26.483  27.802  1.00  0.00     0.064 A 
ATOM     60  C   UNL A   1      43.455  26.987  26.839  1.00  0.00     0.173 A 
ATOM     61  C   UNL A   1      42.124  25.160  27.659  1.00  0.00     0.173 A 
ATOM     62  F   UNL A   1      43.898  28.251  26.925  1.00  0.00    -0.203 F 
ATOM     63  C   UNL A   1      43.866  26.200  25.766  1.00  0.00     0.198 A 
ATOM     64  C   UNL A   1      42.553  24.370  26.597  1.00  0.00     0.198 A 
ATOM     65  F   UNL A   1      41.278  24.633  28.557  1.00  0.00    -0.203 F 
ATOM     66  F   UNL A   1      44.688  26.711  24.839  1.00  0.00    -0.200 F 
ATOM     67  C   UNL A   1      43.421  24.892  25.649  1.00  0.00     0.200 A 
ATOM     68  F   UNL A   1      42.128  23.104  26.490  1.00  0.00    -0.200 F 
ATOM     69  F   UNL A   1      43.823  24.135  24.620  1.00  0.00    -0.200 F 
ENDBRANCH  45  59
BRANCH  46  70
ATOM     70  C   UNL A   1      39.317  32.038  35.425  1.00  0.00     0.064 A 
ATOM     71  C   UNL A   1      38.493  31.476  36.409  1.00  0.00     0.173 A 
ATOM     72  C   UNL A   1      39.658  33.392  35.552  1.00  0.00     0.173 A 
ATOM     73  F   UNL A   1      38.116  30.192  36.314  1.00  0.00    -0.203 F 
ATOM     74  C   UNL A   1      38.018  32.243  37.471  1.00  0.00     0.198 A 
ATOM     75  C   UNL A   1      39.202  34.151  36.627  1.00  0.00     0.198 A 
ATOM     76  F   UNL A   1      40.438  33.977  34.631  1.00  0.00    -0.203 F 
ATOM     77  F   UNL A   1      37.196  31.694  38.376  1.00  0.00    -0.200 F 
ATOM     78  C   UNL A   1      38.378  33.578  37.582  1.00  0.00     0.200 A 
ATOM     79  F   UNL A   1      39.558  35.438  36.733  1.00  0.00    -0.200 F 
ATOM     80  F   UNL A   1      37.920  34.314  38.603  1.00  0.00    -0.200 F 
ENDBRANCH  46  70
BRANCH  58  81
ATOM     81  C   UNL A   1      44.850  27.921  34.481  1.00  0.00     0.064 A 
ATOM     82  C   UNL A   1      46.025  28.684  34.518  1.00  0.00     0.173 A 
ATOM     83  C   UNL A   1      44.756  26.812  35.334  1.00  0.00     0.173 A 
ATOM     84  F   UNL A   1      46.166  29.745  33.708  1.00  0.00    -0.203 F 
ATOM     85  C   UNL A   1      47.075  28.339  35.364  1.00  0.00     0.198 A 
ATOM     86  C   UNL A   1      45.799  26.482  36.196  1.00  0.00     0.198 A 
ATOM     87  F   UNL A   1      43.650  26.054  35.339  1.00  0.00    -0.203 F 
ATOM     88  F   UNL A   1      48.205  29.061  35.357  1.00  0.00    -0.200 F 
ATOM     89  C   UNL A   1      46.959  27.244  36.207  1.00  0.00     0.200 A 
ATOM     90  F   UNL A   1      45.682  25.428  37.015  1.00  0.00    -0.200 F 
ATOM     91  F   UNL A   1      47.969  26.915  37.023  1.00  0.00    -0.200 F 
ENDBRANCH  58  81
ENDBRANCH  32  33
ENDBRANCH  25  27
ENDBRANCH  24  25
ENDBRANCH  23  24
ENDBRANCH   1  23
TORSDOF 15
ENDMDL
