MODEL 1
REMARK VINA RESULT:     -14.5      0.000      0.000
REMARK SMILES Cc1ccc(-c2c(C)sc(NC(=O)[C@H]3CC=CC[C@H]3C(=O)OCCOC(=O)c3ccc(-c4c5nc(c(-c6c(F)c(F)c(F)c(F)c6F)c6ccc([nH]6)c(-c6c(F)c(F)c(F)c(F)c6F)c6nc(c(-c7c(F)c(F)c(F)c(F)c7F)c7ccc4[nH]7)C=C6)C=C5)cc3)c2C(N)=O)cc1
REMARK SMILES IDX 23 1 22 2 20 3 21 4 19 5 14 6 15 7 16 8 18 9 17 10 12 11
REMARK SMILES IDX 11 12 13 14 10 15 6 16 7 17 91 18 8 19 9 20 5 21 1 22 2 23
REMARK SMILES IDX 3 24 96 25 4 26 95 27 92 28 93 29 94 30 24 33 25 34 26 35
REMARK SMILES IDX 27 36 28 37 29 38 90 39 30 40 89 41 31 42 32 43 33 44 83 45
REMARK SMILES IDX 34 46 88 47 82 48 84 49 35 50 87 51 81 52 80 53 36 55 68 56
REMARK SMILES IDX 48 57 67 58 49 59 52 60 66 61 85 62 50 63 51 64 65 66 86 67
REMARK SMILES IDX 53 68 37 69 38 70 46 71 39 72 40 73 44 74 47 75 41 76 42 77
REMARK SMILES IDX 45 78 43 79 69 80 70 81 78 82 71 83 72 84 76 85 79 86 73 87
REMARK SMILES IDX 74 88 77 89 75 90 54 91 55 92 63 93 56 94 57 95 61 96 64 97
REMARK SMILES IDX 58 98 59 99 62 100 60 101
REMARK H PARENT 11 13 93 31 93 32 84 54 52 65
REMARK Flexibility Score: inf
ROOT
ATOM      1  C   UNL A   1      32.666  30.495  27.134  1.00  0.00     0.274 C 
ENDROOT
BRANCH   1   2
ATOM      2  O   UNL A   1      32.284  30.496  25.775  1.00  0.00    -0.462 OA
BRANCH   2   3
ATOM      3  C   UNL A   1      32.775  29.418  25.097  1.00  0.00     0.310 C 
ATOM      4  O   UNL A   1      33.747  28.800  25.500  1.00  0.00    -0.252 OA
BRANCH   3   5
ATOM      5  C   UNL A   1      31.599  29.059  24.007  1.00  0.00     0.116 C 
ATOM      6  C   UNL A   1      30.881  27.349  24.712  1.00  0.00     0.097 C 
ATOM      7  C   UNL A   1      29.249  26.822  24.114  1.00  0.00     0.041 C 
ATOM      8  C   UNL A   1      28.058  27.948  23.452  1.00  0.00    -0.030 C 
ATOM      9  C   UNL A   1      30.042  30.129  22.824  1.00  0.00     0.043 C 
ATOM     10  C   UNL A   1      28.303  29.243  22.879  1.00  0.00    -0.030 C 
BRANCH   6  11
ATOM     11  C   UNL A   1      31.263  26.838  26.117  1.00  0.00     0.229 C 
ATOM     12  N   UNL A   1      31.846  25.669  26.486  1.00  0.00    -0.317 N 
ATOM     13  H   UNL A   1      31.854  25.544  27.463  1.00  0.00     0.170 HD
ATOM     14  O   UNL A   1      30.997  27.565  27.091  1.00  0.00    -0.274 OA
BRANCH  12  15
ATOM     15  C   UNL A   1      32.427  24.619  25.815  1.00  0.00     0.109 A 
ATOM     16  C   UNL A   1      33.131  22.585  24.930  1.00  0.00     0.010 A 
ATOM     17  C   UNL A   1      33.802  23.510  24.146  1.00  0.00     0.012 A 
ATOM     18  C   UNL A   1      32.324  23.236  25.977  1.00  0.00     0.082 A 
ATOM     19  C   UNL A   1      34.557  23.417  22.862  1.00  0.00     0.057 C 
ATOM     20  S   UNL A   1      33.960  24.868  25.130  1.00  0.00    -0.122 S 
BRANCH  16  21
ATOM     21  C   UNL A   1      33.414  21.177  24.734  1.00  0.00    -0.016 A 
ATOM     22  C   UNL A   1      34.211  17.061  23.852  1.00  0.00     0.044 C 
ATOM     23  C   UNL A   1      33.905  18.480  24.211  1.00  0.00    -0.051 A 
ATOM     24  C   UNL A   1      34.883  19.278  24.824  1.00  0.00     0.004 A 
ATOM     25  C   UNL A   1      32.665  19.033  23.888  1.00  0.00     0.004 A 
ATOM     26  C   UNL A   1      34.634  20.621  25.100  1.00  0.00     0.009 A 
ATOM     27  C   UNL A   1      32.428  20.378  24.133  1.00  0.00     0.009 A 
ENDBRANCH  16  21
BRANCH  18  28
ATOM     28  C   UNL A   1      31.572  22.532  27.018  1.00  0.00     0.252 C 
ATOM     29  N   UNL A   1      30.257  22.236  26.793  1.00  0.00    -0.365 N 
ATOM     30  O   UNL A   1      32.050  22.200  28.098  1.00  0.00    -0.269 OA
ATOM     31  H   UNL A   1      29.836  22.486  25.938  1.00  0.00     0.159 HD
ATOM     32  H   UNL A   1      29.731  21.773  27.484  1.00  0.00     0.159 HD
ENDBRANCH  18  28
ENDBRANCH  12  15
ENDBRANCH   6  11
ENDBRANCH   3   5
ENDBRANCH   2   3
ENDBRANCH   1   2
BRANCH   1  33
ATOM     33  C   UNL A   1      33.872  31.414  27.532  1.00  0.00     0.275 C 
BRANCH  33  34
ATOM     34  O   UNL A   1      33.801  32.850  27.994  1.00  0.00    -0.458 OA
BRANCH  34  35
ATOM     35  C   UNL A   1      34.012  33.670  29.082  1.00  0.00     0.338 C 
ATOM     36  O   UNL A   1      33.204  34.518  29.433  1.00  0.00    -0.246 OA
BRANCH  35  37
ATOM     37  C   UNL A   1      35.170  33.422  29.979  1.00  0.00     0.060 A 
ATOM     38  C   UNL A   1      34.936  32.399  31.403  1.00  0.00     0.016 A 
ATOM     39  C   UNL A   1      36.487  33.270  29.132  1.00  0.00     0.016 A 
ATOM     40  C   UNL A   1      36.256  30.996  31.871  1.00  0.00     0.010 A 
ATOM     41  C   UNL A   1      37.572  32.148  29.458  1.00  0.00     0.010 A 
ATOM     42  C   UNL A   1      37.676  30.995  30.775  1.00  0.00    -0.014 A 
BRANCH  42  43
ATOM     43  C   UNL A   1      39.032  30.390  30.689  1.00  0.00     0.031 A 
ATOM     44  C   UNL A   1      39.244  29.133  29.964  1.00  0.00     0.074 A 
ATOM     45  C   UNL A   1      40.093  31.060  31.268  1.00  0.00     0.049 A 
ATOM     46  N   UNL A   1      40.017  28.189  30.384  1.00  0.00    -0.248 NA
ATOM     47  C   UNL A   1      38.534  28.784  28.734  1.00  0.00     0.031 C 
ATOM     48  C   UNL A   1      41.527  30.998  31.002  1.00  0.00     0.029 A 
ATOM     49  N   UNL A   1      40.062  32.065  32.281  1.00  0.00    -0.354 N 
ATOM     50  C   UNL A   1      40.227  27.373  29.292  1.00  0.00     0.074 A 
ATOM     51  C   UNL A   1      39.099  27.609  28.423  1.00  0.00     0.031 C 
ATOM     52  C   UNL A   1      42.207  31.649  31.976  1.00  0.00     0.029 A 
ATOM     53  C   UNL A   1      41.256  32.111  32.971  1.00  0.00     0.049 A 
ATOM     54  H   UNL A   1      39.290  32.649  32.464  1.00  0.00     0.167 HD
ATOM     55  C   UNL A   1      41.481  26.887  29.053  1.00  0.00     0.037 A 
ATOM     56  C   UNL A   1      41.250  32.067  34.326  1.00  0.00     0.037 A 
ATOM     57  C   UNL A   1      42.430  27.476  30.004  1.00  0.00     0.049 A 
ATOM     58  C   UNL A   1      41.957  30.811  34.680  1.00  0.00     0.074 A 
ATOM     59  C   UNL A   1      43.374  28.480  29.860  1.00  0.00     0.029 A 
ATOM     60  N   UNL A   1      42.267  27.300  31.374  1.00  0.00    -0.354 N 
ATOM     61  N   UNL A   1      42.003  29.794  33.866  1.00  0.00    -0.248 NA
ATOM     62  C   UNL A   1      42.774  30.647  35.867  1.00  0.00     0.031 C 
ATOM     63  C   UNL A   1      43.855  28.827  31.149  1.00  0.00     0.029 A 
ATOM     64  C   UNL A   1      43.174  28.061  32.083  1.00  0.00     0.049 A 
ATOM     65  H   UNL A   1      41.594  26.709  31.784  1.00  0.00     0.167 HD
ATOM     66  C   UNL A   1      42.965  28.933  34.296  1.00  0.00     0.074 A 
ATOM     67  C   UNL A   1      43.386  29.486  35.573  1.00  0.00     0.031 C 
ATOM     68  C   UNL A   1      43.351  27.880  33.520  1.00  0.00     0.037 A 
BRANCH  55  69
ATOM     69  C   UNL A   1      41.942  26.207  27.769  1.00  0.00     0.064 A 
ATOM     70  C   UNL A   1      42.119  24.804  27.709  1.00  0.00     0.173 A 
ATOM     71  C   UNL A   1      42.193  26.872  26.553  1.00  0.00     0.173 A 
ATOM     72  F   UNL A   1      41.812  24.007  28.740  1.00  0.00    -0.203 F 
ATOM     73  C   UNL A   1      42.601  24.142  26.576  1.00  0.00     0.198 A 
ATOM     74  C   UNL A   1      42.707  26.214  25.424  1.00  0.00     0.198 A 
ATOM     75  F   UNL A   1      41.891  28.165  26.393  1.00  0.00    -0.203 F 
ATOM     76  F   UNL A   1      42.751  22.810  26.599  1.00  0.00    -0.200 F 
ATOM     77  C   UNL A   1      42.918  24.850  25.439  1.00  0.00     0.200 A 
ATOM     78  F   UNL A   1      42.985  26.912  24.313  1.00  0.00    -0.200 F 
ATOM     79  F   UNL A   1      43.388  24.217  24.356  1.00  0.00    -0.200 F 
ENDBRANCH  55  69
BRANCH  56  80
ATOM     80  C   UNL A   1      40.020  32.657  34.943  1.00  0.00     0.064 A 
ATOM     81  C   UNL A   1      39.089  31.766  35.526  1.00  0.00     0.173 A 
ATOM     82  C   UNL A   1      39.935  34.000  35.335  1.00  0.00     0.173 A 
ATOM     83  F   UNL A   1      39.116  30.464  35.200  1.00  0.00    -0.203 F 
ATOM     84  C   UNL A   1      38.212  32.170  36.536  1.00  0.00     0.198 A 
ATOM     85  C   UNL A   1      39.030  34.408  36.328  1.00  0.00     0.198 A 
ATOM     86  F   UNL A   1      40.801  34.901  34.855  1.00  0.00    -0.203 F 
ATOM     87  F   UNL A   1      37.454  31.262  37.170  1.00  0.00    -0.200 F 
ATOM     88  C   UNL A   1      38.203  33.485  36.955  1.00  0.00     0.200 A 
ATOM     89  F   UNL A   1      39.039  35.678  36.759  1.00  0.00    -0.200 F 
ATOM     90  F   UNL A   1      37.460  33.848  38.012  1.00  0.00    -0.200 F 
ENDBRANCH  56  80
BRANCH  68  91
ATOM     91  C   UNL A   1      44.026  26.619  33.996  1.00  0.00     0.064 A 
ATOM     92  C   UNL A   1      43.364  25.548  34.609  1.00  0.00     0.173 A 
ATOM     93  C   UNL A   1      45.393  26.379  33.691  1.00  0.00     0.173 A 
ATOM     94  F   UNL A   1      42.049  25.558  34.843  1.00  0.00    -0.203 F 
ATOM     95  C   UNL A   1      44.022  24.369  34.951  1.00  0.00     0.198 A 
ATOM     96  C   UNL A   1      46.021  25.170  33.953  1.00  0.00     0.198 A 
ATOM     97  F   UNL A   1      46.173  27.287  33.090  1.00  0.00    -0.203 F 
ATOM     98  F   UNL A   1      43.346  23.405  35.590  1.00  0.00    -0.200 F 
ATOM     99  C   UNL A   1      45.342  24.170  34.606  1.00  0.00     0.200 A 
ATOM    100  F   UNL A   1      47.283  24.980  33.542  1.00  0.00    -0.200 F 
ATOM    101  F   UNL A   1      45.949  23.011  34.880  1.00  0.00    -0.200 F 
ENDBRANCH  68  91
ENDBRANCH  42  43
ENDBRANCH  35  37
ENDBRANCH  34  35
ENDBRANCH  33  34
ENDBRANCH   1  33
TORSDOF 15
ENDMDL
MODEL 2
REMARK VINA RESULT:     -14.2      3.740      9.749
REMARK SMILES Cc1ccc(-c2c(C)sc(NC(=O)[C@H]3CC=CC[C@H]3C(=O)OCCOC(=O)c3ccc(-c4c5nc(c(-c6c(F)c(F)c(F)c(F)c6F)c6ccc([nH]6)c(-c6c(F)c(F)c(F)c(F)c6F)c6nc(c(-c7c(F)c(F)c(F)c(F)c7F)c7ccc4[nH]7)C=C6)C=C5)cc3)c2C(N)=O)cc1
REMARK SMILES IDX 23 1 22 2 20 3 21 4 19 5 14 6 15 7 16 8 18 9 17 10 12 11
REMARK SMILES IDX 11 12 13 14 10 15 6 16 7 17 91 18 8 19 9 20 5 21 1 22 2 23
REMARK SMILES IDX 3 24 96 25 4 26 95 27 92 28 93 29 94 30 24 33 25 34 26 35
REMARK SMILES IDX 27 36 28 37 29 38 90 39 30 40 89 41 31 42 32 43 33 44 83 45
REMARK SMILES IDX 34 46 88 47 82 48 84 49 35 50 87 51 81 52 80 53 36 55 68 56
REMARK SMILES IDX 48 57 67 58 49 59 52 60 66 61 85 62 50 63 51 64 65 66 86 67
REMARK SMILES IDX 53 68 37 69 38 70 46 71 39 72 40 73 44 74 47 75 41 76 42 77
REMARK SMILES IDX 45 78 43 79 69 80 70 81 78 82 71 83 72 84 76 85 79 86 73 87
REMARK SMILES IDX 74 88 77 89 75 90 54 91 55 92 63 93 56 94 57 95 61 96 64 97
REMARK SMILES IDX 58 98 59 99 62 100 60 101
REMARK H PARENT 11 13 93 31 93 32 84 54 52 65
REMARK Flexibility Score: inf
ROOT
ATOM      1  C   UNL A   1      35.190  23.534  25.783  1.00  0.00     0.274 C 
ENDROOT
BRANCH   1   2
ATOM      2  O   UNL A   1      34.699  24.005  24.546  1.00  0.00    -0.462 OA
BRANCH   2   3
ATOM      3  C   UNL A   1      34.755  23.052  23.569  1.00  0.00     0.310 C 
ATOM      4  O   UNL A   1      35.081  23.329  22.426  1.00  0.00    -0.252 OA
BRANCH   3   5
ATOM      5  C   UNL A   1      34.660  21.631  24.389  1.00  0.00     0.116 C 
ATOM      6  C   UNL A   1      32.867  20.963  23.863  1.00  0.00     0.097 C 
ATOM      7  C   UNL A   1      32.523  19.200  24.135  1.00  0.00     0.041 C 
ATOM      8  C   UNL A   1      33.797  17.981  24.265  1.00  0.00    -0.030 C 
ATOM      9  C   UNL A   1      35.995  19.932  24.936  1.00  0.00     0.043 C 
ATOM     10  C   UNL A   1      35.172  18.189  24.627  1.00  0.00    -0.030 C 
BRANCH   6  11
ATOM     11  C   UNL A   1      32.073  21.618  22.715  1.00  0.00     0.229 C 
ATOM     12  N   UNL A   1      31.361  22.774  22.701  1.00  0.00    -0.317 N 
ATOM     13  H   UNL A   1      30.842  22.887  21.871  1.00  0.00     0.170 HD
ATOM     14  O   UNL A   1      32.032  21.023  21.623  1.00  0.00    -0.274 OA
BRANCH  12  15
ATOM     15  C   UNL A   1      31.196  23.824  23.574  1.00  0.00     0.109 A 
ATOM     16  C   UNL A   1      31.108  25.847  24.720  1.00  0.00     0.010 A 
ATOM     17  C   UNL A   1      30.417  24.989  25.560  1.00  0.00     0.012 A 
ATOM     18  C   UNL A   1      31.628  25.151  23.529  1.00  0.00     0.082 A 
ATOM     19  C   UNL A   1      29.535  25.196  26.746  1.00  0.00     0.057 C 
ATOM     20  S   UNL A   1      31.051  23.465  25.227  1.00  0.00    -0.122 S 
BRANCH  16  21
ATOM     21  C   UNL A   1      31.356  27.203  25.168  1.00  0.00    -0.016 A 
ATOM     22  C   UNL A   1      31.777  31.254  26.501  1.00  0.00     0.044 C 
ATOM     23  C   UNL A   1      31.680  29.847  26.001  1.00  0.00    -0.051 A 
ATOM     24  C   UNL A   1      32.172  28.788  26.779  1.00  0.00     0.004 A 
ATOM     25  C   UNL A   1      31.049  29.577  24.785  1.00  0.00     0.004 A 
ATOM     26  C   UNL A   1      32.024  27.468  26.358  1.00  0.00     0.009 A 
ATOM     27  C   UNL A   1      30.874  28.262  24.381  1.00  0.00     0.009 A 
ENDBRANCH  16  21
BRANCH  18  28
ATOM     28  C   UNL A   1      32.474  25.761  22.501  1.00  0.00     0.252 C 
ATOM     29  N   UNL A   1      33.682  26.282  22.870  1.00  0.00    -0.365 N 
ATOM     30  O   UNL A   1      32.156  25.847  21.320  1.00  0.00    -0.269 OA
ATOM     31  H   UNL A   1      33.974  26.233  23.809  1.00  0.00     0.159 HD
ATOM     32  H   UNL A   1      34.261  26.706  22.196  1.00  0.00     0.159 HD
ENDBRANCH  18  28
ENDBRANCH  12  15
ENDBRANCH   6  11
ENDBRANCH   3   5
ENDBRANCH   2   3
ENDBRANCH   1   2
BRANCH   1  33
ATOM     33  C   UNL A   1      36.571  24.102  26.260  1.00  0.00     0.275 C 
BRANCH  33  34
ATOM     34  O   UNL A   1      37.936  23.530  25.961  1.00  0.00    -0.458 OA
BRANCH  34  35
ATOM     35  C   UNL A   1      39.120  23.138  26.548  1.00  0.00     0.338 C 
ATOM     36  O   UNL A   1      39.480  21.970  26.588  1.00  0.00    -0.246 OA
BRANCH  35  37
ATOM     37  C   UNL A   1      40.092  24.165  27.005  1.00  0.00     0.060 A 
ATOM     38  C   UNL A   1      40.840  25.219  25.796  1.00  0.00     0.016 A 
ATOM     39  C   UNL A   1      39.627  24.778  28.377  1.00  0.00     0.016 A 
ATOM     40  C   UNL A   1      40.993  27.171  26.110  1.00  0.00     0.010 A 
ATOM     41  C   UNL A   1      39.715  26.343  28.672  1.00  0.00     0.010 A 
ATOM     42  C   UNL A   1      40.402  27.654  27.733  1.00  0.00    -0.014 A 
BRANCH  42  43
ATOM     43  C   UNL A   1      40.418  28.840  28.630  1.00  0.00     0.031 A 
ATOM     44  C   UNL A   1      39.277  29.760  28.673  1.00  0.00     0.074 A 
ATOM     45  C   UNL A   1      41.513  29.032  29.454  1.00  0.00     0.049 A 
ATOM     46  N   UNL A   1      39.397  31.043  28.739  1.00  0.00    -0.248 NA
ATOM     47  C   UNL A   1      37.887  29.323  28.558  1.00  0.00     0.031 C 
ATOM     48  C   UNL A   1      41.656  29.777  30.701  1.00  0.00     0.029 A 
ATOM     49  N   UNL A   1      42.826  28.489  29.325  1.00  0.00    -0.354 N 
ATOM     50  C   UNL A   1      38.156  31.509  29.118  1.00  0.00     0.074 A 
ATOM     51  C   UNL A   1      37.228  30.479  28.717  1.00  0.00     0.031 C 
ATOM     52  C   UNL A   1      42.966  29.887  31.027  1.00  0.00     0.029 A 
ATOM     53  C   UNL A   1      43.755  29.280  29.969  1.00  0.00     0.049 A 
ATOM     54  H   UNL A   1      43.041  27.659  28.840  1.00  0.00     0.167 HD
ATOM     55  C   UNL A   1      38.072  32.504  30.051  1.00  0.00     0.037 A 
ATOM     56  C   UNL A   1      44.867  29.683  29.308  1.00  0.00     0.037 A 
ATOM     57  C   UNL A   1      39.408  32.802  30.578  1.00  0.00     0.049 A 
ATOM     58  C   UNL A   1      44.767  31.162  29.235  1.00  0.00     0.074 A 
ATOM     59  C   UNL A   1      40.021  32.465  31.776  1.00  0.00     0.029 A 
ATOM     60  N   UNL A   1      40.428  33.230  29.735  1.00  0.00    -0.354 N 
ATOM     61  N   UNL A   1      43.619  31.776  29.278  1.00  0.00    -0.248 NA
ATOM     62  C   UNL A   1      45.909  32.055  29.265  1.00  0.00     0.031 C 
ATOM     63  C   UNL A   1      41.396  32.798  31.680  1.00  0.00     0.029 A 
ATOM     64  C   UNL A   1      41.630  33.301  30.409  1.00  0.00     0.049 A 
ATOM     65  H   UNL A   1      40.307  33.453  28.784  1.00  0.00     0.167 HD
ATOM     66  C   UNL A   1      43.838  33.097  29.521  1.00  0.00     0.074 A 
ATOM     67  C   UNL A   1      45.284  33.230  29.459  1.00  0.00     0.031 C 
ATOM     68  C   UNL A   1      42.798  33.933  29.802  1.00  0.00     0.037 A 
BRANCH  55  69
ATOM     69  C   UNL A   1      36.803  32.942  30.773  1.00  0.00     0.064 A 
ATOM     70  C   UNL A   1      35.850  33.772  30.133  1.00  0.00     0.173 A 
ATOM     71  C   UNL A   1      36.446  32.556  32.079  1.00  0.00     0.173 A 
ATOM     72  F   UNL A   1      35.975  34.136  28.851  1.00  0.00    -0.203 F 
ATOM     73  C   UNL A   1      34.704  34.254  30.773  1.00  0.00     0.198 A 
ATOM     74  C   UNL A   1      35.313  33.064  32.734  1.00  0.00     0.198 A 
ATOM     75  F   UNL A   1      37.143  31.627  32.743  1.00  0.00    -0.203 F 
ATOM     76  F   UNL A   1      33.853  35.043  30.104  1.00  0.00    -0.200 F 
ATOM     77  C   UNL A   1      34.446  33.918  32.083  1.00  0.00     0.200 A 
ATOM     78  F   UNL A   1      35.058  32.707  34.001  1.00  0.00    -0.200 F 
ATOM     79  F   UNL A   1      33.352  34.386  32.699  1.00  0.00    -0.200 F 
ENDBRANCH  55  69
BRANCH  56  80
ATOM     80  C   UNL A   1      45.324  28.721  28.254  1.00  0.00     0.064 A 
ATOM     81  C   UNL A   1      46.067  27.594  28.675  1.00  0.00     0.173 A 
ATOM     82  C   UNL A   1      44.734  28.646  26.985  1.00  0.00     0.173 A 
ATOM     83  F   UNL A   1      46.655  27.595  29.883  1.00  0.00    -0.203 F 
ATOM     84  C   UNL A   1      46.108  26.414  27.929  1.00  0.00     0.198 A 
ATOM     85  C   UNL A   1      44.804  27.469  26.223  1.00  0.00     0.198 A 
ATOM     86  F   UNL A   1      43.986  29.658  26.526  1.00  0.00    -0.203 F 
ATOM     87  F   UNL A   1      46.694  25.318  28.435  1.00  0.00    -0.200 F 
ATOM     88  C   UNL A   1      45.454  26.344  26.715  1.00  0.00     0.200 A 
ATOM     89  F   UNL A   1      44.146  27.387  25.058  1.00  0.00    -0.200 F 
ATOM     90  F   UNL A   1      45.379  25.177  26.058  1.00  0.00    -0.200 F 
ENDBRANCH  56  80
BRANCH  68  91
ATOM     91  C   UNL A   1      42.788  35.432  29.645  1.00  0.00     0.064 A 
ATOM     92  C   UNL A   1      43.446  36.324  30.502  1.00  0.00     0.173 A 
ATOM     93  C   UNL A   1      42.220  36.027  28.487  1.00  0.00     0.173 A 
ATOM     94  F   UNL A   1      44.144  35.913  31.563  1.00  0.00    -0.203 F 
ATOM     95  C   UNL A   1      43.476  37.696  30.261  1.00  0.00     0.198 A 
ATOM     96  C   UNL A   1      42.329  37.381  28.206  1.00  0.00     0.198 A 
ATOM     97  F   UNL A   1      41.568  35.322  27.553  1.00  0.00    -0.203 F 
ATOM     98  F   UNL A   1      44.070  38.502  31.150  1.00  0.00    -0.200 F 
ATOM     99  C   UNL A   1      42.938  38.223  29.106  1.00  0.00     0.200 A 
ATOM    100  F   UNL A   1      41.859  37.855  27.043  1.00  0.00    -0.200 F 
ATOM    101  F   UNL A   1      43.027  39.532  28.851  1.00  0.00    -0.200 F 
ENDBRANCH  68  91
ENDBRANCH  42  43
ENDBRANCH  35  37
ENDBRANCH  34  35
ENDBRANCH  33  34
ENDBRANCH   1  33
TORSDOF 15
ENDMDL
MODEL 3
REMARK VINA RESULT:     -13.5      2.495      3.678
REMARK SMILES Cc1ccc(-c2c(C)sc(NC(=O)[C@H]3CC=CC[C@H]3C(=O)OCCOC(=O)c3ccc(-c4c5nc(c(-c6c(F)c(F)c(F)c(F)c6F)c6ccc([nH]6)c(-c6c(F)c(F)c(F)c(F)c6F)c6nc(c(-c7c(F)c(F)c(F)c(F)c7F)c7ccc4[nH]7)C=C6)C=C5)cc3)c2C(N)=O)cc1
REMARK SMILES IDX 23 1 22 2 20 3 21 4 19 5 14 6 15 7 16 8 18 9 17 10 12 11
REMARK SMILES IDX 11 12 13 14 10 15 6 16 7 17 91 18 8 19 9 20 5 21 1 22 2 23
REMARK SMILES IDX 3 24 96 25 4 26 95 27 92 28 93 29 94 30 24 33 25 34 26 35
REMARK SMILES IDX 27 36 28 37 29 38 90 39 30 40 89 41 31 42 32 43 33 44 83 45
REMARK SMILES IDX 34 46 88 47 82 48 84 49 35 50 87 51 81 52 80 53 36 55 68 56
REMARK SMILES IDX 48 57 67 58 49 59 52 60 66 61 85 62 50 63 51 64 65 66 86 67
REMARK SMILES IDX 53 68 37 69 38 70 46 71 39 72 40 73 44 74 47 75 41 76 42 77
REMARK SMILES IDX 45 78 43 79 69 80 70 81 78 82 71 83 72 84 76 85 79 86 73 87
REMARK SMILES IDX 74 88 77 89 75 90 54 91 55 92 63 93 56 94 57 95 61 96 64 97
REMARK SMILES IDX 58 98 59 99 62 100 60 101
REMARK H PARENT 11 13 93 31 93 32 84 54 52 65
REMARK Flexibility Score: inf
ROOT
ATOM      1  C   UNL A   1      31.797  31.491  26.325  1.00  0.00     0.274 C 
ENDROOT
BRANCH   1   2
ATOM      2  O   UNL A   1      31.535  30.139  26.017  1.00  0.00    -0.462 OA
BRANCH   2   3
ATOM      3  C   UNL A   1      32.211  29.719  24.908  1.00  0.00     0.310 C 
ATOM      4  O   UNL A   1      33.430  29.658  24.890  1.00  0.00    -0.252 OA
BRANCH   3   5
ATOM      5  C   UNL A   1      31.048  29.060  23.954  1.00  0.00     0.116 C 
ATOM      6  C   UNL A   1      30.850  27.243  24.726  1.00  0.00     0.097 C 
ATOM      7  C   UNL A   1      29.342  26.320  24.309  1.00  0.00     0.041 C 
ATOM      8  C   UNL A   1      27.847  27.107  23.788  1.00  0.00    -0.030 C 
ATOM      9  C   UNL A   1      29.157  29.692  22.955  1.00  0.00     0.043 C 
ATOM     10  C   UNL A   1      27.705  28.410  23.199  1.00  0.00    -0.030 C 
BRANCH   6  11
ATOM     11  C   UNL A   1      31.496  26.872  26.077  1.00  0.00     0.229 C 
ATOM     12  N   UNL A   1      32.190  25.760  26.431  1.00  0.00    -0.317 N 
ATOM     13  H   UNL A   1      32.374  25.724  27.398  1.00  0.00     0.170 HD
ATOM     14  O   UNL A   1      31.369  27.673  27.020  1.00  0.00    -0.274 OA
BRANCH  12  15
ATOM     15  C   UNL A   1      32.696  24.675  25.755  1.00  0.00     0.109 A 
ATOM     16  C   UNL A   1      33.213  22.610  24.814  1.00  0.00     0.010 A 
ATOM     17  C   UNL A   1      34.088  23.470  24.169  1.00  0.00     0.012 A 
ATOM     18  C   UNL A   1      32.388  23.314  25.812  1.00  0.00     0.082 A 
ATOM     19  C   UNL A   1      34.964  23.338  22.968  1.00  0.00     0.057 C 
ATOM     20  S   UNL A   1      34.316  24.738  25.253  1.00  0.00    -0.122 S 
BRANCH  16  21
ATOM     21  C   UNL A   1      33.323  21.188  24.555  1.00  0.00    -0.016 A 
ATOM     22  C   UNL A   1      33.659  17.053  23.486  1.00  0.00     0.044 C 
ATOM     23  C   UNL A   1      33.504  18.481  23.905  1.00  0.00    -0.051 A 
ATOM     24  C   UNL A   1      34.482  19.090  24.705  1.00  0.00     0.004 A 
ATOM     25  C   UNL A   1      32.414  19.229  23.455  1.00  0.00     0.004 A 
ATOM     26  C   UNL A   1      34.386  20.438  25.043  1.00  0.00     0.009 A 
ATOM     27  C   UNL A   1      32.334  20.578  23.765  1.00  0.00     0.009 A 
ENDBRANCH  16  21
BRANCH  18  28
ATOM     28  C   UNL A   1      31.435  22.671  26.719  1.00  0.00     0.252 C 
ATOM     29  N   UNL A   1      30.229  22.264  26.223  1.00  0.00    -0.365 N 
ATOM     30  O   UNL A   1      31.648  22.486  27.913  1.00  0.00    -0.269 OA
ATOM     31  H   UNL A   1      30.019  22.393  25.269  1.00  0.00     0.159 HD
ATOM     32  H   UNL A   1      29.570  21.839  26.818  1.00  0.00     0.159 HD
ENDBRANCH  18  28
ENDBRANCH  12  15
ENDBRANCH   6  11
ENDBRANCH   3   5
ENDBRANCH   2   3
ENDBRANCH   1   2
BRANCH   1  33
ATOM     33  C   UNL A   1      33.020  31.781  27.262  1.00  0.00     0.275 C 
BRANCH  33  34
ATOM     34  O   UNL A   1      33.780  30.777  28.093  1.00  0.00    -0.458 OA
BRANCH  34  35
ATOM     35  C   UNL A   1      34.717  29.767  28.021  1.00  0.00     0.338 C 
ATOM     36  O   UNL A   1      34.525  28.736  27.394  1.00  0.00    -0.246 OA
BRANCH  35  37
ATOM     37  C   UNL A   1      36.080  29.986  28.570  1.00  0.00     0.060 A 
ATOM     38  C   UNL A   1      36.440  29.401  30.201  1.00  0.00     0.016 A 
ATOM     39  C   UNL A   1      37.156  29.808  27.436  1.00  0.00     0.016 A 
ATOM     40  C   UNL A   1      38.127  28.432  30.581  1.00  0.00     0.010 A 
ATOM     41  C   UNL A   1      38.522  29.024  27.686  1.00  0.00     0.010 A 
ATOM     42  C   UNL A   1      39.205  28.341  29.149  1.00  0.00    -0.014 A 
BRANCH  42  43
ATOM     43  C   UNL A   1      40.605  27.967  28.816  1.00  0.00     0.031 A 
ATOM     44  C   UNL A   1      40.953  26.577  28.504  1.00  0.00     0.074 A 
ATOM     45  C   UNL A   1      41.562  28.964  28.763  1.00  0.00     0.049 A 
ATOM     46  N   UNL A   1      42.029  26.000  28.922  1.00  0.00    -0.248 NA
ATOM     47  C   UNL A   1      40.074  25.676  27.761  1.00  0.00     0.031 C 
ATOM     48  C   UNL A   1      42.845  29.027  28.070  1.00  0.00     0.029 A 
ATOM     49  N   UNL A   1      41.522  30.264  29.351  1.00  0.00    -0.354 N 
ATOM     50  C   UNL A   1      42.164  24.869  28.144  1.00  0.00     0.074 A 
ATOM     51  C   UNL A   1      40.832  24.574  27.673  1.00  0.00     0.031 C 
ATOM     52  C   UNL A   1      43.551  30.099  28.500  1.00  0.00     0.029 A 
ATOM     53  C   UNL A   1      42.795  30.756  29.551  1.00  0.00     0.049 A 
ATOM     54  H   UNL A   1      40.695  30.746  29.583  1.00  0.00     0.167 HD
ATOM     55  C   UNL A   1      43.399  24.529  27.671  1.00  0.00     0.037 A 
ATOM     56  C   UNL A   1      43.144  31.238  30.769  1.00  0.00     0.037 A 
ATOM     57  C   UNL A   1      44.367  25.577  28.012  1.00  0.00     0.049 A 
ATOM     58  C   UNL A   1      44.225  30.341  31.251  1.00  0.00     0.074 A 
ATOM     59  C   UNL A   1      44.942  26.581  27.248  1.00  0.00     0.029 A 
ATOM     60  N   UNL A   1      44.608  25.920  29.337  1.00  0.00    -0.354 N 
ATOM     61  N   UNL A   1      44.331  29.110  30.838  1.00  0.00    -0.248 NA
ATOM     62  C   UNL A   1      45.328  30.776  32.085  1.00  0.00     0.031 C 
ATOM     63  C   UNL A   1      45.624  27.467  28.121  1.00  0.00     0.029 A 
ATOM     64  C   UNL A   1      45.430  27.027  29.421  1.00  0.00     0.049 A 
ATOM     65  H   UNL A   1      44.242  25.437  30.114  1.00  0.00     0.167 HD
ATOM     66  C   UNL A   1      45.563  28.641  31.175  1.00  0.00     0.074 A 
ATOM     67  C   UNL A   1      46.131  29.701  31.992  1.00  0.00     0.031 C 
ATOM     68  C   UNL A   1      46.006  27.443  30.696  1.00  0.00     0.037 A 
BRANCH  55  69
ATOM     69  C   UNL A   1      43.683  23.486  26.596  1.00  0.00     0.064 A 
ATOM     70  C   UNL A   1      43.364  22.121  26.800  1.00  0.00     0.173 A 
ATOM     71  C   UNL A   1      44.236  23.765  25.331  1.00  0.00     0.173 A 
ATOM     72  F   UNL A   1      42.727  21.700  27.899  1.00  0.00    -0.203 F 
ATOM     73  C   UNL A   1      43.664  21.120  25.872  1.00  0.00     0.198 A 
ATOM     74  C   UNL A   1      44.567  22.757  24.411  1.00  0.00     0.198 A 
ATOM     75  F   UNL A   1      44.416  25.024  24.914  1.00  0.00    -0.203 F 
ATOM     76  F   UNL A   1      43.339  19.847  26.142  1.00  0.00    -0.200 F 
ATOM     77  C   UNL A   1      44.287  21.434  24.685  1.00  0.00     0.200 A 
ATOM     78  F   UNL A   1      45.149  23.080  23.247  1.00  0.00    -0.200 F 
ATOM     79  F   UNL A   1      44.582  20.472  23.800  1.00  0.00    -0.200 F 
ENDBRANCH  55  69
BRANCH  56  80
ATOM     80  C   UNL A   1      41.999  31.823  31.537  1.00  0.00     0.064 A 
ATOM     81  C   UNL A   1      41.572  33.125  31.184  1.00  0.00     0.173 A 
ATOM     82  C   UNL A   1      41.093  31.042  32.267  1.00  0.00     0.173 A 
ATOM     83  F   UNL A   1      42.388  33.927  30.480  1.00  0.00    -0.203 F 
ATOM     84  C   UNL A   1      40.272  33.569  31.433  1.00  0.00     0.198 A 
ATOM     85  C   UNL A   1      39.797  31.504  32.543  1.00  0.00     0.198 A 
ATOM     86  F   UNL A   1      41.408  29.786  32.611  1.00  0.00    -0.203 F 
ATOM     87  F   UNL A   1      39.861  34.750  30.945  1.00  0.00    -0.200 F 
ATOM     88  C   UNL A   1      39.377  32.747  32.088  1.00  0.00     0.200 A 
ATOM     89  F   UNL A   1      38.916  30.698  33.152  1.00  0.00    -0.200 F 
ATOM     90  F   UNL A   1      38.093  33.116  32.211  1.00  0.00    -0.200 F 
ENDBRANCH  56  80
BRANCH  68  91
ATOM     91  C   UNL A   1      47.088  26.584  31.297  1.00  0.00     0.064 A 
ATOM     92  C   UNL A   1      48.377  26.447  30.768  1.00  0.00     0.173 A 
ATOM     93  C   UNL A   1      46.896  25.972  32.565  1.00  0.00     0.173 A 
ATOM     94  F   UNL A   1      48.763  27.070  29.651  1.00  0.00    -0.203 F 
ATOM     95  C   UNL A   1      49.367  25.707  31.411  1.00  0.00     0.198 A 
ATOM     96  C   UNL A   1      47.910  25.313  33.244  1.00  0.00     0.198 A 
ATOM     97  F   UNL A   1      45.731  26.019  33.224  1.00  0.00    -0.203 F 
ATOM     98  F   UNL A   1      50.562  25.564  30.823  1.00  0.00    -0.200 F 
ATOM     99  C   UNL A   1      49.142  25.158  32.657  1.00  0.00     0.200 A 
ATOM    100  F   UNL A   1      47.684  24.851  34.482  1.00  0.00    -0.200 F 
ATOM    101  F   UNL A   1      50.117  24.504  33.296  1.00  0.00    -0.200 F 
ENDBRANCH  68  91
ENDBRANCH  42  43
ENDBRANCH  35  37
ENDBRANCH  34  35
ENDBRANCH  33  34
ENDBRANCH   1  33
TORSDOF 15
ENDMDL
