MODEL 1
REMARK VINA RESULT:      -9.1      0.000      0.000
REMARK SMILES CCCC[C@H](C(=O)OCCOC(=O)c1ccc(-c2c3nc(c(-c4c(F)c(F)c(F)c(F)c4F)c4ccc([nH]4)c(-c4c(F)c(F)c(F)c(F)c4F)c4nc(c(-c5c(F)c(F)c(F)c(F)c5F)c5ccc2[nH]5)C=C4)C=C3)cc1)c1ccccn1
REMARK SMILES IDX 9 1 8 2 6 3 7 4 5 5 4 6 3 7 2 8 1 9 77 10 78 11 82 12 79 13
REMARK SMILES IDX 81 14 80 15 10 16 11 17 12 18 13 19 14 20 15 21 76 22 16 23
REMARK SMILES IDX 75 24 17 25 18 26 19 27 69 28 20 29 74 30 68 31 70 32 21 33
REMARK SMILES IDX 73 34 67 35 66 36 22 38 54 39 34 40 53 41 35 42 38 43 52 44
REMARK SMILES IDX 71 45 36 46 37 47 51 49 72 50 39 51 23 52 24 53 32 54 25 55
REMARK SMILES IDX 26 56 30 57 33 58 27 59 28 60 31 61 29 62 55 63 56 64 64 65
REMARK SMILES IDX 57 66 58 67 62 68 65 69 59 70 60 71 63 72 61 73 40 74 41 75
REMARK SMILES IDX 49 76 42 77 43 78 47 79 50 80 44 81 45 82 48 83 46 84
REMARK H PARENT 70 37 38 48
REMARK Flexibility Score: inf
ROOT
ATOM      1  C   UNL A   1      33.885  34.370  29.770  1.00  0.00     0.274 C 
ENDROOT
BRANCH   1   2
ATOM      2  O   UNL A   1      34.019  33.824  31.096  1.00  0.00    -0.462 OA
BRANCH   2   3
ATOM      3  C   UNL A   1      34.934  34.438  31.898  1.00  0.00     0.315 C 
ATOM      4  O   UNL A   1      34.749  35.537  32.407  1.00  0.00    -0.251 OA
BRANCH   3   5
ATOM      5  C   UNL A   1      36.133  33.541  32.192  1.00  0.00     0.148 C 
BRANCH   5   6
ATOM      6  C   UNL A   1      35.896  32.051  32.510  1.00  0.00     0.022 C 
BRANCH   6   7
ATOM      7  C   UNL A   1      37.016  31.211  33.132  1.00  0.00     0.001 C 
BRANCH   7   8
ATOM      8  C   UNL A   1      37.762  31.824  34.309  1.00  0.00    -0.003 C 
ATOM      9  C   UNL A   1      38.412  30.791  35.216  1.00  0.00     0.004 C 
ENDBRANCH   7   8
ENDBRANCH   6   7
ENDBRANCH   5   6
BRANCH   5  10
ATOM     10  C   UNL A   1      37.301  33.797  31.248  1.00  0.00     0.055 A 
ATOM     11  C   UNL A   1      37.285  33.409  29.908  1.00  0.00     0.025 A 
ATOM     12  N   UNL A   1      38.357  34.476  31.775  1.00  0.00    -0.260 NA
ATOM     13  C   UNL A   1      38.357  33.741  29.083  1.00  0.00     0.003 A 
ATOM     14  C   UNL A   1      39.381  34.792  30.948  1.00  0.00     0.111 A 
ATOM     15  C   UNL A   1      39.424  34.454  29.607  1.00  0.00     0.020 A 
ENDBRANCH   5  10
ENDBRANCH   3   5
ENDBRANCH   2   3
ENDBRANCH   1   2
BRANCH   1  16
ATOM     16  C   UNL A   1      33.838  33.261  28.716  1.00  0.00     0.275 C 
BRANCH  16  17
ATOM     17  O   UNL A   1      34.375  32.016  29.204  1.00  0.00    -0.458 OA
BRANCH  17  18
ATOM     18  C   UNL A   1      34.573  31.073  28.253  1.00  0.00     0.338 C 
ATOM     19  O   UNL A   1      33.834  30.829  27.304  1.00  0.00    -0.246 OA
BRANCH  18  20
ATOM     20  C   UNL A   1      35.872  30.401  28.423  1.00  0.00     0.060 A 
ATOM     21  C   UNL A   1      36.121  29.784  29.652  1.00  0.00     0.016 A 
ATOM     22  C   UNL A   1      36.877  30.461  27.454  1.00  0.00     0.016 A 
ATOM     23  C   UNL A   1      37.369  29.244  29.932  1.00  0.00     0.010 A 
ATOM     24  C   UNL A   1      38.143  29.931  27.740  1.00  0.00     0.010 A 
ATOM     25  C   UNL A   1      38.399  29.344  28.991  1.00  0.00    -0.014 A 
BRANCH  25  26
ATOM     26  C   UNL A   1      39.759  28.941  29.411  1.00  0.00     0.031 A 
ATOM     27  C   UNL A   1      40.466  29.739  30.470  1.00  0.00     0.074 A 
ATOM     28  C   UNL A   1      40.299  27.804  28.941  1.00  0.00     0.049 A 
ATOM     29  N   UNL A   1      41.633  29.532  31.025  1.00  0.00    -0.248 NA
ATOM     30  C   UNL A   1      39.758  30.924  30.978  1.00  0.00     0.031 C 
ATOM     31  C   UNL A   1      39.671  26.916  27.964  1.00  0.00     0.029 A 
ATOM     32  N   UNL A   1      41.488  27.190  29.242  1.00  0.00    -0.354 N 
ATOM     33  C   UNL A   1      41.802  30.561  31.940  1.00  0.00     0.074 A 
ATOM     34  C   UNL A   1      40.630  31.406  31.852  1.00  0.00     0.031 C 
ATOM     35  C   UNL A   1      40.476  25.861  27.754  1.00  0.00     0.029 A 
ATOM     36  C   UNL A   1      41.686  26.016  28.559  1.00  0.00     0.049 A 
ATOM     37  H   UNL A   1      42.136  27.555  29.886  1.00  0.00     0.167 HD
ATOM     38  C   UNL A   1      42.838  30.776  32.785  1.00  0.00     0.037 A 
ATOM     39  C   UNL A   1      42.731  25.168  28.580  1.00  0.00     0.037 A 
ATOM     40  C   UNL A   1      43.996  29.927  32.880  1.00  0.00     0.049 A 
ATOM     41  C   UNL A   1      43.894  25.460  29.489  1.00  0.00     0.074 A 
ATOM     42  C   UNL A   1      45.105  30.065  33.695  1.00  0.00     0.029 A 
ATOM     43  N   UNL A   1      44.188  28.775  32.132  1.00  0.00    -0.354 N 
ATOM     44  N   UNL A   1      44.053  26.443  30.341  1.00  0.00    -0.248 NA
ATOM     45  C   UNL A   1      45.023  24.521  29.441  1.00  0.00     0.031 C 
ATOM     46  C   UNL A   1      45.987  29.013  33.415  1.00  0.00     0.029 A 
ATOM     47  C   UNL A   1      45.406  28.198  32.455  1.00  0.00     0.049 A 
ATOM     48  H   UNL A   1      43.553  28.419  31.470  1.00  0.00     0.167 HD
ATOM     49  C   UNL A   1      45.288  26.236  30.940  1.00  0.00     0.074 A 
ATOM     50  C   UNL A   1      45.827  25.018  30.370  1.00  0.00     0.031 C 
ATOM     51  C   UNL A   1      45.923  26.986  31.873  1.00  0.00     0.037 A 
BRANCH  38  52
ATOM     52  C   UNL A   1      42.777  32.000  33.649  1.00  0.00     0.064 A 
ATOM     53  C   UNL A   1      43.286  33.234  33.217  1.00  0.00     0.173 A 
ATOM     54  C   UNL A   1      42.188  31.940  34.921  1.00  0.00     0.173 A 
ATOM     55  F   UNL A   1      43.874  33.339  32.016  1.00  0.00    -0.203 F 
ATOM     56  C   UNL A   1      43.229  34.358  34.039  1.00  0.00     0.198 A 
ATOM     57  C   UNL A   1      42.111  33.071  35.729  1.00  0.00     0.198 A 
ATOM     58  F   UNL A   1      41.685  30.784  35.380  1.00  0.00    -0.203 F 
ATOM     59  F   UNL A   1      43.761  35.516  33.625  1.00  0.00    -0.200 F 
ATOM     60  C   UNL A   1      42.638  34.276  35.291  1.00  0.00     0.200 A 
ATOM     61  F   UNL A   1      41.533  32.992  36.936  1.00  0.00    -0.200 F 
ATOM     62  F   UNL A   1      42.583  35.359  36.079  1.00  0.00    -0.200 F 
ENDBRANCH  38  52
BRANCH  39  63
ATOM     63  C   UNL A   1      42.731  23.969  27.704  1.00  0.00     0.064 A 
ATOM     64  C   UNL A   1      43.099  24.057  26.355  1.00  0.00     0.173 A 
ATOM     65  C   UNL A   1      42.346  22.714  28.197  1.00  0.00     0.173 A 
ATOM     66  F   UNL A   1      43.450  25.241  25.831  1.00  0.00    -0.203 F 
ATOM     67  C   UNL A   1      43.068  22.936  25.527  1.00  0.00     0.198 A 
ATOM     68  C   UNL A   1      42.340  21.589  27.375  1.00  0.00     0.198 A 
ATOM     69  F   UNL A   1      41.981  22.579  29.480  1.00  0.00    -0.203 F 
ATOM     70  F   UNL A   1      43.383  23.054  24.230  1.00  0.00    -0.200 F 
ATOM     71  C   UNL A   1      42.694  21.702  26.040  1.00  0.00     0.200 A 
ATOM     72  F   UNL A   1      41.988  20.398  27.877  1.00  0.00    -0.200 F 
ATOM     73  F   UNL A   1      42.666  20.624  25.244  1.00  0.00    -0.200 F 
ENDBRANCH  39  63
BRANCH  51  74
ATOM     74  C   UNL A   1      47.261  26.498  32.345  1.00  0.00     0.064 A 
ATOM     75  C   UNL A   1      47.375  25.575  33.395  1.00  0.00     0.173 A 
ATOM     76  C   UNL A   1      48.439  26.942  31.725  1.00  0.00     0.173 A 
ATOM     77  F   UNL A   1      46.278  25.133  34.027  1.00  0.00    -0.203 F 
ATOM     78  C   UNL A   1      48.622  25.135  33.827  1.00  0.00     0.198 A 
ATOM     79  C   UNL A   1      49.683  26.480  32.144  1.00  0.00     0.198 A 
ATOM     80  F   UNL A   1      48.382  27.820  30.714  1.00  0.00    -0.203 F 
ATOM     81  F   UNL A   1      48.711  24.291  34.864  1.00  0.00    -0.200 F 
ATOM     82  C   UNL A   1      49.775  25.584  33.199  1.00  0.00     0.200 A 
ATOM     83  F   UNL A   1      50.795  26.908  31.530  1.00  0.00    -0.200 F 
ATOM     84  F   UNL A   1      50.975  25.161  33.617  1.00  0.00    -0.200 F 
ENDBRANCH  51  74
ENDBRANCH  25  26
ENDBRANCH  18  20
ENDBRANCH  17  18
ENDBRANCH  16  17
ENDBRANCH   1  16
TORSDOF 15
ENDMDL
MODEL 2
REMARK VINA RESULT:      -9.0      5.816     11.132
REMARK SMILES CCCC[C@H](C(=O)OCCOC(=O)c1ccc(-c2c3nc(c(-c4c(F)c(F)c(F)c(F)c4F)c4ccc([nH]4)c(-c4c(F)c(F)c(F)c(F)c4F)c4nc(c(-c5c(F)c(F)c(F)c(F)c5F)c5ccc2[nH]5)C=C4)C=C3)cc1)c1ccccn1
REMARK SMILES IDX 9 1 8 2 6 3 7 4 5 5 4 6 3 7 2 8 1 9 77 10 78 11 82 12 79 13
REMARK SMILES IDX 81 14 80 15 10 16 11 17 12 18 13 19 14 20 15 21 76 22 16 23
REMARK SMILES IDX 75 24 17 25 18 26 19 27 69 28 20 29 74 30 68 31 70 32 21 33
REMARK SMILES IDX 73 34 67 35 66 36 22 38 54 39 34 40 53 41 35 42 38 43 52 44
REMARK SMILES IDX 71 45 36 46 37 47 51 49 72 50 39 51 23 52 24 53 32 54 25 55
REMARK SMILES IDX 26 56 30 57 33 58 27 59 28 60 31 61 29 62 55 63 56 64 64 65
REMARK SMILES IDX 57 66 58 67 62 68 65 69 59 70 60 71 63 72 61 73 40 74 41 75
REMARK SMILES IDX 49 76 42 77 43 78 47 79 50 80 44 81 45 82 48 83 46 84
REMARK H PARENT 70 37 38 48
REMARK Flexibility Score: inf
ROOT
ATOM      1  C   UNL A   1      42.169  19.162  26.542  1.00  0.00     0.274 C 
ENDROOT
BRANCH   1   2
ATOM      2  O   UNL A   1      41.380  20.079  25.760  1.00  0.00    -0.462 OA
BRANCH   2   3
ATOM      3  C   UNL A   1      41.568  21.401  26.032  1.00  0.00     0.315 C 
ATOM      4  O   UNL A   1      42.264  22.135  25.341  1.00  0.00    -0.251 OA
BRANCH   3   5
ATOM      5  C   UNL A   1      40.708  21.875  27.199  1.00  0.00     0.148 C 
BRANCH   5   6
ATOM      6  C   UNL A   1      41.387  22.560  28.403  1.00  0.00     0.022 C 
BRANCH   6   7
ATOM      7  C   UNL A   1      42.889  22.383  28.641  1.00  0.00     0.001 C 
BRANCH   7   8
ATOM      8  C   UNL A   1      43.484  23.100  29.844  1.00  0.00    -0.003 C 
ATOM      9  C   UNL A   1      44.820  23.765  29.551  1.00  0.00     0.004 C 
ENDBRANCH   7   8
ENDBRANCH   6   7
ENDBRANCH   5   6
BRANCH   5  10
ATOM     10  C   UNL A   1      39.422  22.554  26.742  1.00  0.00     0.055 A 
ATOM     11  C   UNL A   1      39.142  23.894  27.012  1.00  0.00     0.025 A 
ATOM     12  N   UNL A   1      38.572  21.789  26.004  1.00  0.00    -0.260 NA
ATOM     13  C   UNL A   1      37.982  24.471  26.500  1.00  0.00     0.003 A 
ATOM     14  C   UNL A   1      37.457  22.378  25.512  1.00  0.00     0.111 A 
ATOM     15  C   UNL A   1      37.124  23.703  25.727  1.00  0.00     0.020 A 
ENDBRANCH   5  10
ENDBRANCH   3   5
ENDBRANCH   2   3
ENDBRANCH   1   2
BRANCH   1  16
ATOM     16  C   UNL A   1      43.404  18.693  25.768  1.00  0.00     0.275 C 
BRANCH  16  17
ATOM     17  O   UNL A   1      43.550  19.370  24.504  1.00  0.00    -0.458 OA
BRANCH  17  18
ATOM     18  C   UNL A   1      44.830  19.610  24.136  1.00  0.00     0.338 C 
ATOM     19  O   UNL A   1      45.570  18.843  23.527  1.00  0.00    -0.246 OA
BRANCH  18  20
ATOM     20  C   UNL A   1      45.237  20.986  24.469  1.00  0.00     0.060 A 
ATOM     21  C   UNL A   1      45.744  21.214  25.751  1.00  0.00     0.016 A 
ATOM     22  C   UNL A   1      45.029  22.059  23.598  1.00  0.00     0.016 A 
ATOM     23  C   UNL A   1      46.026  22.504  26.181  1.00  0.00     0.010 A 
ATOM     24  C   UNL A   1      45.298  23.364  24.034  1.00  0.00     0.010 A 
ATOM     25  C   UNL A   1      45.773  23.590  25.338  1.00  0.00    -0.014 A 
BRANCH  25  26
ATOM     26  C   UNL A   1      45.894  24.950  25.909  1.00  0.00     0.031 A 
ATOM     27  C   UNL A   1      47.213  25.665  25.828  1.00  0.00     0.074 A 
ATOM     28  C   UNL A   1      44.805  25.581  26.379  1.00  0.00     0.049 A 
ATOM     29  N   UNL A   1      47.525  26.877  26.210  1.00  0.00    -0.248 NA
ATOM     30  C   UNL A   1      48.327  24.917  25.225  1.00  0.00     0.031 C 
ATOM     31  C   UNL A   1      43.461  25.008  26.441  1.00  0.00     0.029 A 
ATOM     32  N   UNL A   1      44.653  26.852  26.870  1.00  0.00    -0.354 N 
ATOM     33  C   UNL A   1      48.869  27.034  25.902  1.00  0.00     0.074 A 
ATOM     34  C   UNL A   1      49.321  25.787  25.322  1.00  0.00     0.031 C 
ATOM     35  C   UNL A   1      42.616  25.930  26.931  1.00  0.00     0.029 A 
ATOM     36  C   UNL A   1      43.365  27.145  27.243  1.00  0.00     0.049 A 
ATOM     37  H   UNL A   1      45.396  27.493  26.948  1.00  0.00     0.167 HD
ATOM     38  C   UNL A   1      49.653  28.124  26.079  1.00  0.00     0.037 A 
ATOM     39  C   UNL A   1      42.854  28.267  27.782  1.00  0.00     0.037 A 
ATOM     40  C   UNL A   1      49.197  29.367  26.644  1.00  0.00     0.049 A 
ATOM     41  C   UNL A   1      43.759  29.447  28.017  1.00  0.00     0.074 A 
ATOM     42  C   UNL A   1      49.915  30.526  26.877  1.00  0.00     0.029 A 
ATOM     43  N   UNL A   1      47.897  29.609  27.062  1.00  0.00    -0.354 N 
ATOM     44  N   UNL A   1      45.032  29.582  27.737  1.00  0.00    -0.248 NA
ATOM     45  C   UNL A   1      43.154  30.630  28.644  1.00  0.00     0.031 C 
ATOM     46  C   UNL A   1      49.056  31.461  27.469  1.00  0.00     0.029 A 
ATOM     47  C   UNL A   1      47.794  30.895  27.567  1.00  0.00     0.049 A 
ATOM     48  H   UNL A   1      47.156  28.962  27.008  1.00  0.00     0.167 HD
ATOM     49  C   UNL A   1      45.378  30.866  28.136  1.00  0.00     0.074 A 
ATOM     50  C   UNL A   1      44.173  31.478  28.659  1.00  0.00     0.031 C 
ATOM     51  C   UNL A   1      46.583  31.483  28.082  1.00  0.00     0.037 A 
BRANCH  38  52
ATOM     52  C   UNL A   1      51.095  28.004  25.686  1.00  0.00     0.064 A 
ATOM     53  C   UNL A   1      52.089  27.673  26.620  1.00  0.00     0.173 A 
ATOM     54  C   UNL A   1      51.485  28.210  24.354  1.00  0.00     0.173 A 
ATOM     55  F   UNL A   1      51.769  27.485  27.908  1.00  0.00    -0.203 F 
ATOM     56  C   UNL A   1      53.425  27.577  26.237  1.00  0.00     0.198 A 
ATOM     57  C   UNL A   1      52.818  28.088  23.971  1.00  0.00     0.198 A 
ATOM     58  F   UNL A   1      50.573  28.526  23.423  1.00  0.00    -0.203 F 
ATOM     59  F   UNL A   1      54.364  27.304  27.153  1.00  0.00    -0.200 F 
ATOM     60  C   UNL A   1      53.787  27.779  24.914  1.00  0.00     0.200 A 
ATOM     61  F   UNL A   1      53.165  28.277  22.690  1.00  0.00    -0.200 F 
ATOM     62  F   UNL A   1      55.073  27.685  24.547  1.00  0.00    -0.200 F 
ENDBRANCH  38  52
BRANCH  39  63
ATOM     63  C   UNL A   1      41.415  28.327  28.146  1.00  0.00     0.064 A 
ATOM     64  C   UNL A   1      40.465  28.856  27.262  1.00  0.00     0.173 A 
ATOM     65  C   UNL A   1      40.966  27.869  29.393  1.00  0.00     0.173 A 
ATOM     66  F   UNL A   1      40.850  29.329  26.067  1.00  0.00    -0.203 F 
ATOM     67  C   UNL A   1      39.120  28.938  27.618  1.00  0.00     0.198 A 
ATOM     68  C   UNL A   1      39.617  27.929  29.738  1.00  0.00     0.198 A 
ATOM     69  F   UNL A   1      41.837  27.359  30.275  1.00  0.00    -0.203 F 
ATOM     70  F   UNL A   1      38.237  29.487  26.772  1.00  0.00    -0.200 F 
ATOM     71  C   UNL A   1      38.697  28.471  28.853  1.00  0.00     0.200 A 
ATOM     72  F   UNL A   1      39.212  27.467  30.928  1.00  0.00    -0.200 F 
ATOM     73  F   UNL A   1      37.404  28.549  29.195  1.00  0.00    -0.200 F 
ENDBRANCH  39  63
BRANCH  51  74
ATOM     74  C   UNL A   1      46.649  32.895  28.584  1.00  0.00     0.064 A 
ATOM     75  C   UNL A   1      46.394  33.985  27.739  1.00  0.00     0.173 A 
ATOM     76  C   UNL A   1      46.949  33.159  29.929  1.00  0.00     0.173 A 
ATOM     77  F   UNL A   1      46.118  33.783  26.443  1.00  0.00    -0.203 F 
ATOM     78  C   UNL A   1      46.465  35.290  28.216  1.00  0.00     0.198 A 
ATOM     79  C   UNL A   1      46.994  34.465  30.408  1.00  0.00     0.198 A 
ATOM     80  F   UNL A   1      47.195  32.150  30.778  1.00  0.00    -0.203 F 
ATOM     81  F   UNL A   1      46.266  36.319  27.381  1.00  0.00    -0.200 F 
ATOM     82  C   UNL A   1      46.760  35.529  29.551  1.00  0.00     0.200 A 
ATOM     83  F   UNL A   1      47.270  34.693  31.700  1.00  0.00    -0.200 F 
ATOM     84  F   UNL A   1      46.829  36.787  30.008  1.00  0.00    -0.200 F 
ENDBRANCH  51  74
ENDBRANCH  25  26
ENDBRANCH  18  20
ENDBRANCH  17  18
ENDBRANCH  16  17
ENDBRANCH   1  16
TORSDOF 15
ENDMDL
MODEL 3
REMARK VINA RESULT:      -9.0      5.903     11.233
REMARK SMILES CCCC[C@H](C(=O)OCCOC(=O)c1ccc(-c2c3nc(c(-c4c(F)c(F)c(F)c(F)c4F)c4ccc([nH]4)c(-c4c(F)c(F)c(F)c(F)c4F)c4nc(c(-c5c(F)c(F)c(F)c(F)c5F)c5ccc2[nH]5)C=C4)C=C3)cc1)c1ccccn1
REMARK SMILES IDX 9 1 8 2 6 3 7 4 5 5 4 6 3 7 2 8 1 9 77 10 78 11 82 12 79 13
REMARK SMILES IDX 81 14 80 15 10 16 11 17 12 18 13 19 14 20 15 21 76 22 16 23
REMARK SMILES IDX 75 24 17 25 18 26 19 27 69 28 20 29 74 30 68 31 70 32 21 33
REMARK SMILES IDX 73 34 67 35 66 36 22 38 54 39 34 40 53 41 35 42 38 43 52 44
REMARK SMILES IDX 71 45 36 46 37 47 51 49 72 50 39 51 23 52 24 53 32 54 25 55
REMARK SMILES IDX 26 56 30 57 33 58 27 59 28 60 31 61 29 62 55 63 56 64 64 65
REMARK SMILES IDX 57 66 58 67 62 68 65 69 59 70 60 71 63 72 61 73 40 74 41 75
REMARK SMILES IDX 49 76 42 77 43 78 47 79 50 80 44 81 45 82 48 83 46 84
REMARK H PARENT 70 37 38 48
REMARK Flexibility Score: inf
ROOT
ATOM      1  C   UNL A   1      36.110  21.731  25.730  1.00  0.00     0.274 C 
ENDROOT
BRANCH   1   2
ATOM      2  O   UNL A   1      34.916  21.339  25.026  1.00  0.00    -0.462 OA
BRANCH   2   3
ATOM      3  C   UNL A   1      33.863  20.970  25.808  1.00  0.00     0.315 C 
ATOM      4  O   UNL A   1      33.809  21.196  27.011  1.00  0.00    -0.251 OA
BRANCH   3   5
ATOM      5  C   UNL A   1      32.720  20.377  24.990  1.00  0.00     0.148 C 
BRANCH   5   6
ATOM      6  C   UNL A   1      32.214  21.137  23.746  1.00  0.00     0.022 C 
BRANCH   6   7
ATOM      7  C   UNL A   1      32.260  22.667  23.710  1.00  0.00     0.001 C 
BRANCH   7   8
ATOM      8  C   UNL A   1      31.037  23.403  24.239  1.00  0.00    -0.003 C 
ATOM      9  C   UNL A   1      30.771  23.152  25.715  1.00  0.00     0.004 C 
ENDBRANCH   7   8
ENDBRANCH   6   7
ENDBRANCH   5   6
BRANCH   5  10
ATOM     10  C   UNL A   1      32.865  18.874  24.782  1.00  0.00     0.055 A 
ATOM     11  C   UNL A   1      33.336  18.320  23.591  1.00  0.00     0.025 A 
ATOM     12  N   UNL A   1      32.554  18.091  25.852  1.00  0.00    -0.260 NA
ATOM     13  C   UNL A   1      33.515  16.943  23.497  1.00  0.00     0.003 A 
ATOM     14  C   UNL A   1      32.745  16.756  25.734  1.00  0.00     0.111 A 
ATOM     15  C   UNL A   1      33.222  16.142  24.590  1.00  0.00     0.020 A 
ENDBRANCH   5  10
ENDBRANCH   3   5
ENDBRANCH   2   3
ENDBRANCH   1   2
BRANCH   1  16
ATOM     16  C   UNL A   1      37.263  20.763  25.449  1.00  0.00     0.275 C 
BRANCH  16  17
ATOM     17  O   UNL A   1      38.507  21.446  25.203  1.00  0.00    -0.458 OA
BRANCH  17  18
ATOM     18  C   UNL A   1      39.477  21.203  26.115  1.00  0.00     0.338 C 
ATOM     19  O   UNL A   1      40.008  20.121  26.344  1.00  0.00    -0.246 OA
BRANCH  18  20
ATOM     20  C   UNL A   1      39.921  22.445  26.771  1.00  0.00     0.060 A 
ATOM     21  C   UNL A   1      39.361  23.645  26.324  1.00  0.00     0.016 A 
ATOM     22  C   UNL A   1      40.942  22.463  27.724  1.00  0.00     0.016 A 
ATOM     23  C   UNL A   1      39.823  24.863  26.803  1.00  0.00     0.010 A 
ATOM     24  C   UNL A   1      41.423  23.692  28.198  1.00  0.00     0.010 A 
ATOM     25  C   UNL A   1      40.880  24.897  27.718  1.00  0.00    -0.014 A 
BRANCH  25  26
ATOM     26  C   UNL A   1      41.473  26.213  28.040  1.00  0.00     0.031 A 
ATOM     27  C   UNL A   1      42.846  26.544  27.529  1.00  0.00     0.074 A 
ATOM     28  C   UNL A   1      40.740  27.144  28.675  1.00  0.00     0.049 A 
ATOM     29  N   UNL A   1      43.530  27.654  27.644  1.00  0.00    -0.248 NA
ATOM     30  C   UNL A   1      43.538  25.485  26.777  1.00  0.00     0.031 C 
ATOM     31  C   UNL A   1      39.371  26.954  29.153  1.00  0.00     0.029 A 
ATOM     32  N   UNL A   1      41.036  28.442  29.003  1.00  0.00    -0.354 N 
ATOM     33  C   UNL A   1      44.731  27.426  26.988  1.00  0.00     0.074 A 
ATOM     34  C   UNL A   1      44.695  26.065  26.497  1.00  0.00     0.031 C 
ATOM     35  C   UNL A   1      38.940  28.100  29.704  1.00  0.00     0.029 A 
ATOM     36  C   UNL A   1      40.010  29.092  29.642  1.00  0.00     0.049 A 
ATOM     37  H   UNL A   1      41.900  28.866  28.798  1.00  0.00     0.167 HD
ATOM     38  C   UNL A   1      45.767  28.278  26.805  1.00  0.00     0.037 A 
ATOM     39  C   UNL A   1      39.950  30.347  30.126  1.00  0.00     0.037 A 
ATOM     40  C   UNL A   1      45.795  29.635  27.284  1.00  0.00     0.049 A 
ATOM     41  C   UNL A   1      41.137  31.257  29.956  1.00  0.00     0.074 A 
ATOM     42  C   UNL A   1      46.801  30.576  27.162  1.00  0.00     0.029 A 
ATOM     43  N   UNL A   1      44.759  30.244  27.977  1.00  0.00    -0.354 N 
ATOM     44  N   UNL A   1      42.275  31.028  29.348  1.00  0.00    -0.248 NA
ATOM     45  C   UNL A   1      41.028  32.601  30.540  1.00  0.00     0.031 C 
ATOM     46  C   UNL A   1      46.388  31.746  27.812  1.00  0.00     0.029 A 
ATOM     47  C   UNL A   1      45.107  31.545  28.303  1.00  0.00     0.049 A 
ATOM     48  H   UNL A   1      43.902  29.815  28.204  1.00  0.00     0.167 HD
ATOM     49  C   UNL A   1      43.011  32.199  29.461  1.00  0.00     0.074 A 
ATOM     50  C   UNL A   1      42.180  33.146  30.177  1.00  0.00     0.031 C 
ATOM     51  C   UNL A   1      44.264  32.469  29.017  1.00  0.00     0.037 A 
BRANCH  38  52
ATOM     52  C   UNL A   1      46.971  27.751  26.083  1.00  0.00     0.064 A 
ATOM     53  C   UNL A   1      47.059  27.773  24.683  1.00  0.00     0.173 A 
ATOM     54  C   UNL A   1      48.056  27.230  26.803  1.00  0.00     0.173 A 
ATOM     55  F   UNL A   1      46.040  28.245  23.949  1.00  0.00    -0.203 F 
ATOM     56  C   UNL A   1      48.182  27.269  24.030  1.00  0.00     0.198 A 
ATOM     57  C   UNL A   1      49.187  26.750  26.147  1.00  0.00     0.198 A 
ATOM     58  F   UNL A   1      48.022  27.188  28.143  1.00  0.00    -0.203 F 
ATOM     59  F   UNL A   1      48.227  27.258  22.690  1.00  0.00    -0.200 F 
ATOM     60  C   UNL A   1      49.245  26.763  24.762  1.00  0.00     0.200 A 
ATOM     61  F   UNL A   1      50.217  26.268  26.856  1.00  0.00    -0.200 F 
ATOM     62  F   UNL A   1      50.325  26.280  24.131  1.00  0.00    -0.200 F 
ENDBRANCH  38  52
BRANCH  39  63
ATOM     63  C   UNL A   1      38.727  30.812  30.828  1.00  0.00     0.064 A 
ATOM     64  C   UNL A   1      37.642  31.343  30.119  1.00  0.00     0.173 A 
ATOM     65  C   UNL A   1      38.628  30.749  32.226  1.00  0.00     0.173 A 
ATOM     66  F   UNL A   1      37.700  31.447  28.783  1.00  0.00    -0.203 F 
ATOM     67  C   UNL A   1      36.508  31.808  30.783  1.00  0.00     0.198 A 
ATOM     68  C   UNL A   1      37.483  31.191  32.887  1.00  0.00     0.198 A 
ATOM     69  F   UNL A   1      39.642  30.254  32.950  1.00  0.00    -0.203 F 
ATOM     70  F   UNL A   1      35.501  32.351  30.085  1.00  0.00    -0.200 F 
ATOM     71  C   UNL A   1      36.428  31.727  32.165  1.00  0.00     0.200 A 
ATOM     72  F   UNL A   1      37.406  31.101  34.221  1.00  0.00    -0.200 F 
ATOM     73  F   UNL A   1      35.336  32.172  32.802  1.00  0.00    -0.200 F 
ENDBRANCH  39  63
BRANCH  51  74
ATOM     74  C   UNL A   1      44.798  33.846  29.281  1.00  0.00     0.064 A 
ATOM     75  C   UNL A   1      44.580  34.900  28.383  1.00  0.00     0.173 A 
ATOM     76  C   UNL A   1      45.519  34.117  30.454  1.00  0.00     0.173 A 
ATOM     77  F   UNL A   1      43.910  34.686  27.241  1.00  0.00    -0.203 F 
ATOM     78  C   UNL A   1      45.087  36.171  28.636  1.00  0.00     0.198 A 
ATOM     79  C   UNL A   1      46.003  35.395  30.716  1.00  0.00     0.198 A 
ATOM     80  F   UNL A   1      45.750  33.143  31.347  1.00  0.00    -0.203 F 
ATOM     81  F   UNL A   1      44.909  37.152  27.741  1.00  0.00    -0.200 F 
ATOM     82  C   UNL A   1      45.794  36.418  29.804  1.00  0.00     0.200 A 
ATOM     83  F   UNL A   1      46.677  35.635  31.849  1.00  0.00    -0.200 F 
ATOM     84  F   UNL A   1      46.282  37.642  30.045  1.00  0.00    -0.200 F 
ENDBRANCH  51  74
ENDBRANCH  25  26
ENDBRANCH  18  20
ENDBRANCH  17  18
ENDBRANCH  16  17
ENDBRANCH   1  16
TORSDOF 15
ENDMDL
