MODEL 1
REMARK VINA RESULT:     -12.3      0.000      0.000
REMARK SMILES CC(=O)c1c[nH]c(C(=O)N[C@H]2C=C[C@H](C(=O)OCCOC(=O)c3ccc(-c4c5nc(c(-c6c(F)c(F)c(F)c(F)c6F)c6ccc([nH]6)c(-c6c(F)c(F)c(F)c(F)c6F)c6nc(c(-c7c(F)c(F)c(F)c(F)c7F)c7ccc4[nH]7)C=C6)C=C5)cc3)C2)c1
REMARK SMILES IDX 18 1 17 2 15 3 16 4 14 5 11 6 12 7 86 8 13 9 10 10 8 11 9 12
REMARK SMILES IDX 7 14 4 15 5 16 87 17 6 18 2 20 1 21 3 22 19 23 20 24 21 25
REMARK SMILES IDX 22 26 23 27 24 28 85 29 25 30 84 31 26 32 27 33 28 34 78 35
REMARK SMILES IDX 29 36 83 37 77 38 79 39 30 40 82 41 76 42 75 43 31 45 63 46
REMARK SMILES IDX 43 47 62 48 44 49 47 50 61 51 80 52 45 53 46 54 60 56 81 57
REMARK SMILES IDX 48 58 32 59 33 60 41 61 34 62 35 63 39 64 42 65 36 66 37 67
REMARK SMILES IDX 40 68 38 69 64 70 65 71 73 72 66 73 67 74 71 75 74 76 68 77
REMARK SMILES IDX 69 78 72 79 70 80 49 81 50 82 58 83 51 84 52 85 56 86 59 87
REMARK SMILES IDX 53 88 54 89 57 90 55 91
REMARK H PARENT 10 13 6 19 79 44 47 55
REMARK Flexibility Score: inf
ROOT
ATOM      1  C   UNL A   1      33.548  31.663  27.582  1.00  0.00     0.274 C 
ENDROOT
BRANCH   1   2
ATOM      2  O   UNL A   1      32.866  30.436  27.270  1.00  0.00    -0.462 OA
BRANCH   2   3
ATOM      3  C   UNL A   1      31.941  30.498  26.267  1.00  0.00     0.312 C 
ATOM      4  O   UNL A   1      31.314  31.508  25.970  1.00  0.00    -0.252 OA
BRANCH   3   5
ATOM      5  C   UNL A   1      31.899  29.197  25.462  1.00  0.00     0.124 C 
ATOM      6  C   UNL A   1      32.700  28.958  23.157  1.00  0.00     0.106 C 
ATOM      7  C   UNL A   1      31.217  28.967  23.216  1.00  0.00    -0.006 C 
ATOM      8  C   UNL A   1      33.167  28.969  24.615  1.00  0.00     0.048 C 
ATOM      9  C   UNL A   1      30.777  29.134  24.467  1.00  0.00    -0.014 C 
BRANCH   6  10
ATOM     10  N   UNL A   1      33.200  27.908  22.294  1.00  0.00    -0.345 N 
ATOM     11  C   UNL A   1      33.086  26.548  22.229  1.00  0.00     0.268 C 
ATOM     12  O   UNL A   1      33.815  25.976  21.412  1.00  0.00    -0.268 OA
ATOM     13  H   UNL A   1      33.765  28.264  21.571  1.00  0.00     0.164 HD
BRANCH  11  14
ATOM     14  C   UNL A   1      32.245  25.786  23.118  1.00  0.00     0.105 A 
ATOM     15  C   UNL A   1      31.276  24.558  24.783  1.00  0.00     0.035 A 
ATOM     16  C   UNL A   1      30.540  24.392  23.627  1.00  0.00     0.094 A 
ATOM     17  C   UNL A   1      32.273  25.527  24.475  1.00  0.00     0.045 A 
ATOM     18  N   UNL A   1      31.088  25.191  22.657  1.00  0.00    -0.356 N 
ATOM     19  H   UNL A   1      30.708  25.323  21.757  1.00  0.00     0.166 HD
BRANCH  15  20
ATOM     20  C   UNL A   1      31.090  23.884  26.066  1.00  0.00     0.161 C 
ATOM     21  C   UNL A   1      30.661  22.440  26.064  1.00  0.00     0.093 C 
ATOM     22  O   UNL A   1      31.293  24.471  27.128  1.00  0.00    -0.294 OA
ENDBRANCH  15  20
ENDBRANCH  11  14
ENDBRANCH   6  10
ENDBRANCH   3   5
ENDBRANCH   2   3
ENDBRANCH   1   2
BRANCH   1  23
ATOM     23  C   UNL A   1      34.812  31.438  28.414  1.00  0.00     0.275 C 
BRANCH  23  24
ATOM     24  O   UNL A   1      35.988  31.186  27.635  1.00  0.00    -0.458 OA
BRANCH  24  25
ATOM     25  C   UNL A   1      36.283  29.871  27.564  1.00  0.00     0.338 C 
ATOM     26  O   UNL A   1      35.535  28.961  27.252  1.00  0.00    -0.246 OA
BRANCH  25  27
ATOM     27  C   UNL A   1      37.575  29.566  28.165  1.00  0.00     0.060 A 
ATOM     28  C   UNL A   1      38.679  29.568  27.308  1.00  0.00     0.016 A 
ATOM     29  C   UNL A   1      37.593  28.922  29.406  1.00  0.00     0.016 A 
ATOM     30  C   UNL A   1      39.775  28.804  27.646  1.00  0.00     0.010 A 
ATOM     31  C   UNL A   1      38.682  28.134  29.731  1.00  0.00     0.010 A 
ATOM     32  C   UNL A   1      39.750  28.053  28.827  1.00  0.00    -0.014 A 
BRANCH  32  33
ATOM     33  C   UNL A   1      41.004  27.402  29.223  1.00  0.00     0.031 A 
ATOM     34  C   UNL A   1      41.030  25.971  28.645  1.00  0.00     0.074 A 
ATOM     35  C   UNL A   1      41.855  28.126  30.019  1.00  0.00     0.049 A 
ATOM     36  N   UNL A   1      41.763  24.959  28.978  1.00  0.00    -0.248 NA
ATOM     37  C   UNL A   1      40.066  25.584  27.567  1.00  0.00     0.031 C 
ATOM     38  C   UNL A   1      41.625  29.521  30.465  1.00  0.00     0.029 A 
ATOM     39  N   UNL A   1      43.069  27.854  30.626  1.00  0.00    -0.354 N 
ATOM     40  C   UNL A   1      41.539  23.941  28.026  1.00  0.00     0.074 A 
ATOM     41  C   UNL A   1      40.391  24.326  27.273  1.00  0.00     0.031 C 
ATOM     42  C   UNL A   1      42.593  29.930  31.318  1.00  0.00     0.029 A 
ATOM     43  C   UNL A   1      43.573  28.874  31.488  1.00  0.00     0.049 A 
ATOM     44  H   UNL A   1      43.553  27.011  30.473  1.00  0.00     0.167 HD
ATOM     45  C   UNL A   1      42.433  22.932  27.818  1.00  0.00     0.037 A 
ATOM     46  C   UNL A   1      44.688  28.849  32.293  1.00  0.00     0.037 A 
ATOM     47  C   UNL A   1      43.475  23.027  28.781  1.00  0.00     0.049 A 
ATOM     48  C   UNL A   1      45.425  27.660  31.853  1.00  0.00     0.074 A 
ATOM     49  C   UNL A   1      43.469  22.810  30.134  1.00  0.00     0.029 A 
ATOM     50  N   UNL A   1      44.563  23.793  28.438  1.00  0.00    -0.354 N 
ATOM     51  N   UNL A   1      46.069  27.582  30.728  1.00  0.00    -0.248 NA
ATOM     52  C   UNL A   1      45.390  26.451  32.683  1.00  0.00     0.031 C 
ATOM     53  C   UNL A   1      44.270  23.859  30.619  1.00  0.00     0.029 A 
ATOM     54  C   UNL A   1      44.952  24.473  29.561  1.00  0.00     0.049 A 
ATOM     55  H   UNL A   1      44.984  23.844  27.550  1.00  0.00     0.167 HD
ATOM     56  C   UNL A   1      46.186  26.224  30.569  1.00  0.00     0.074 A 
ATOM     57  C   UNL A   1      46.088  25.641  31.891  1.00  0.00     0.031 C 
ATOM     58  C   UNL A   1      45.742  25.669  29.412  1.00  0.00     0.037 A 
BRANCH  45  59
ATOM     59  C   UNL A   1      42.646  21.988  26.671  1.00  0.00     0.064 A 
ATOM     60  C   UNL A   1      42.136  20.671  26.806  1.00  0.00     0.173 A 
ATOM     61  C   UNL A   1      43.619  22.177  25.684  1.00  0.00     0.173 A 
ATOM     62  F   UNL A   1      41.154  20.399  27.682  1.00  0.00    -0.203 F 
ATOM     63  C   UNL A   1      42.696  19.592  26.130  1.00  0.00     0.198 A 
ATOM     64  C   UNL A   1      44.138  21.097  24.964  1.00  0.00     0.198 A 
ATOM     65  F   UNL A   1      44.166  23.379  25.466  1.00  0.00    -0.203 F 
ATOM     66  F   UNL A   1      42.299  18.345  26.420  1.00  0.00    -0.200 F 
ATOM     67  C   UNL A   1      43.714  19.804  25.225  1.00  0.00     0.200 A 
ATOM     68  F   UNL A   1      45.117  21.307  24.074  1.00  0.00    -0.200 F 
ATOM     69  F   UNL A   1      44.312  18.763  24.630  1.00  0.00    -0.200 F 
ENDBRANCH  45  59
BRANCH  46  70
ATOM     70  C   UNL A   1      45.339  29.619  33.432  1.00  0.00     0.064 A 
ATOM     71  C   UNL A   1      46.492  30.405  33.353  1.00  0.00     0.173 A 
ATOM     72  C   UNL A   1      44.691  29.679  34.708  1.00  0.00     0.173 A 
ATOM     73  F   UNL A   1      47.277  30.364  32.271  1.00  0.00    -0.203 F 
ATOM     74  C   UNL A   1      46.882  31.267  34.402  1.00  0.00     0.198 A 
ATOM     75  C   UNL A   1      45.036  30.577  35.717  1.00  0.00     0.198 A 
ATOM     76  F   UNL A   1      43.678  28.864  35.028  1.00  0.00    -0.203 F 
ATOM     77  F   UNL A   1      47.995  32.004  34.279  1.00  0.00    -0.200 F 
ATOM     78  C   UNL A   1      46.127  31.389  35.558  1.00  0.00     0.200 A 
ATOM     79  F   UNL A   1      44.280  30.655  36.823  1.00  0.00    -0.200 F 
ATOM     80  F   UNL A   1      46.452  32.272  36.511  1.00  0.00    -0.200 F 
ENDBRANCH  46  70
BRANCH  58  81
ATOM     81  C   UNL A   1      45.796  26.601  28.212  1.00  0.00     0.064 A 
ATOM     82  C   UNL A   1      47.032  27.132  27.803  1.00  0.00     0.173 A 
ATOM     83  C   UNL A   1      44.669  27.086  27.528  1.00  0.00     0.173 A 
ATOM     84  F   UNL A   1      48.166  26.697  28.374  1.00  0.00    -0.203 F 
ATOM     85  C   UNL A   1      47.126  28.110  26.809  1.00  0.00     0.198 A 
ATOM     86  C   UNL A   1      44.758  28.067  26.535  1.00  0.00     0.198 A 
ATOM     87  F   UNL A   1      43.454  26.610  27.795  1.00  0.00    -0.203 F 
ATOM     88  F   UNL A   1      48.327  28.590  26.456  1.00  0.00    -0.200 F 
ATOM     89  C   UNL A   1      45.989  28.584  26.180  1.00  0.00     0.200 A 
ATOM     90  F   UNL A   1      43.647  28.500  25.917  1.00  0.00    -0.200 F 
ATOM     91  F   UNL A   1      46.079  29.516  25.220  1.00  0.00    -0.200 F 
ENDBRANCH  58  81
ENDBRANCH  32  33
ENDBRANCH  25  27
ENDBRANCH  24  25
ENDBRANCH  23  24
ENDBRANCH   1  23
TORSDOF 14
ENDMDL
MODEL 2
REMARK VINA RESULT:     -12.2      4.720      9.612
REMARK SMILES CC(=O)c1c[nH]c(C(=O)N[C@H]2C=C[C@H](C(=O)OCCOC(=O)c3ccc(-c4c5nc(c(-c6c(F)c(F)c(F)c(F)c6F)c6ccc([nH]6)c(-c6c(F)c(F)c(F)c(F)c6F)c6nc(c(-c7c(F)c(F)c(F)c(F)c7F)c7ccc4[nH]7)C=C6)C=C5)cc3)C2)c1
REMARK SMILES IDX 18 1 17 2 15 3 16 4 14 5 11 6 12 7 86 8 13 9 10 10 8 11 9 12
REMARK SMILES IDX 7 14 4 15 5 16 87 17 6 18 2 20 1 21 3 22 19 23 20 24 21 25
REMARK SMILES IDX 22 26 23 27 24 28 85 29 25 30 84 31 26 32 27 33 28 34 78 35
REMARK SMILES IDX 29 36 83 37 77 38 79 39 30 40 82 41 76 42 75 43 31 45 63 46
REMARK SMILES IDX 43 47 62 48 44 49 47 50 61 51 80 52 45 53 46 54 60 56 81 57
REMARK SMILES IDX 48 58 32 59 33 60 41 61 34 62 35 63 39 64 42 65 36 66 37 67
REMARK SMILES IDX 40 68 38 69 64 70 65 71 73 72 66 73 67 74 71 75 74 76 68 77
REMARK SMILES IDX 69 78 72 79 70 80 49 81 50 82 58 83 51 84 52 85 56 86 59 87
REMARK SMILES IDX 53 88 54 89 57 90 55 91
REMARK H PARENT 10 13 6 19 79 44 47 55
REMARK Flexibility Score: inf
ROOT
ATOM      1  C   UNL A   1      38.973  21.269  26.095  1.00  0.00     0.274 C 
ENDROOT
BRANCH   1   2
ATOM      2  O   UNL A   1      37.989  21.539  25.082  1.00  0.00    -0.462 OA
BRANCH   2   3
ATOM      3  C   UNL A   1      36.973  20.633  24.970  1.00  0.00     0.312 C 
ATOM      4  O   UNL A   1      37.128  19.418  25.004  1.00  0.00    -0.252 OA
BRANCH   3   5
ATOM      5  C   UNL A   1      35.607  21.322  24.952  1.00  0.00     0.124 C 
ATOM      6  C   UNL A   1      34.023  21.322  26.823  1.00  0.00     0.106 C 
ATOM      7  C   UNL A   1      33.576  20.414  25.737  1.00  0.00    -0.006 C 
ATOM      8  C   UNL A   1      35.269  22.026  26.281  1.00  0.00     0.048 C 
ATOM      9  C   UNL A   1      34.456  20.384  24.731  1.00  0.00    -0.014 C 
BRANCH   6  10
ATOM     10  N   UNL A   1      32.939  22.146  27.318  1.00  0.00    -0.345 N 
ATOM     11  C   UNL A   1      32.124  23.113  26.803  1.00  0.00     0.268 C 
ATOM     12  O   UNL A   1      31.404  23.710  27.612  1.00  0.00    -0.268 OA
ATOM     13  H   UNL A   1      32.739  21.963  28.264  1.00  0.00     0.164 HD
BRANCH  11  14
ATOM     14  C   UNL A   1      32.150  23.509  25.417  1.00  0.00     0.105 A 
ATOM     15  C   UNL A   1      32.392  24.501  23.373  1.00  0.00     0.035 A 
ATOM     16  C   UNL A   1      31.386  23.559  23.290  1.00  0.00     0.094 A 
ATOM     17  C   UNL A   1      32.938  24.374  24.683  1.00  0.00     0.045 A 
ATOM     18  N   UNL A   1      31.302  22.920  24.500  1.00  0.00    -0.356 N 
ATOM     19  H   UNL A   1      30.719  22.149  24.689  1.00  0.00     0.166 HD
BRANCH  15  20
ATOM     20  C   UNL A   1      32.819  25.446  22.345  1.00  0.00     0.161 C 
ATOM     21  C   UNL A   1      31.780  26.328  21.703  1.00  0.00     0.093 C 
ATOM     22  O   UNL A   1      34.002  25.537  22.017  1.00  0.00    -0.294 OA
ENDBRANCH  15  20
ENDBRANCH  11  14
ENDBRANCH   6  10
ENDBRANCH   3   5
ENDBRANCH   2   3
ENDBRANCH   1   2
BRANCH   1  23
ATOM     23  C   UNL A   1      39.927  22.443  26.317  1.00  0.00     0.275 C 
BRANCH  23  24
ATOM     24  O   UNL A   1      39.657  23.200  27.503  1.00  0.00    -0.458 OA
BRANCH  24  25
ATOM     25  C   UNL A   1      38.940  24.314  27.248  1.00  0.00     0.338 C 
ATOM     26  O   UNL A   1      37.983  24.422  26.501  1.00  0.00    -0.246 OA
BRANCH  25  27
ATOM     27  C   UNL A   1      39.582  25.512  27.772  1.00  0.00     0.060 A 
ATOM     28  C   UNL A   1      39.277  25.860  29.090  1.00  0.00     0.016 A 
ATOM     29  C   UNL A   1      40.117  26.429  26.861  1.00  0.00     0.016 A 
ATOM     30  C   UNL A   1      39.390  27.182  29.465  1.00  0.00     0.010 A 
ATOM     31  C   UNL A   1      40.203  27.759  27.230  1.00  0.00     0.010 A 
ATOM     32  C   UNL A   1      39.803  28.129  28.520  1.00  0.00    -0.014 A 
BRANCH  32  33
ATOM     33  C   UNL A   1      40.073  29.482  29.018  1.00  0.00     0.031 A 
ATOM     34  C   UNL A   1      38.746  30.267  29.085  1.00  0.00     0.074 A 
ATOM     35  C   UNL A   1      41.382  29.798  29.279  1.00  0.00     0.049 A 
ATOM     36  N   UNL A   1      38.543  31.542  29.164  1.00  0.00    -0.248 NA
ATOM     37  C   UNL A   1      37.442  29.536  29.003  1.00  0.00     0.031 C 
ATOM     38  C   UNL A   1      42.527  28.865  29.143  1.00  0.00     0.029 A 
ATOM     39  N   UNL A   1      42.030  30.947  29.696  1.00  0.00    -0.354 N 
ATOM     40  C   UNL A   1      37.162  31.739  29.389  1.00  0.00     0.074 A 
ATOM     41  C   UNL A   1      36.522  30.490  29.141  1.00  0.00     0.031 C 
ATOM     42  C   UNL A   1      43.703  29.493  29.379  1.00  0.00     0.029 A 
ATOM     43  C   UNL A   1      43.455  30.878  29.733  1.00  0.00     0.049 A 
ATOM     44  H   UNL A   1      41.539  31.761  29.952  1.00  0.00     0.167 HD
ATOM     45  C   UNL A   1      36.674  32.888  29.938  1.00  0.00     0.037 A 
ATOM     46  C   UNL A   1      44.360  31.876  30.006  1.00  0.00     0.037 A 
ATOM     47  C   UNL A   1      37.735  33.823  30.084  1.00  0.00     0.049 A 
ATOM     48  C   UNL A   1      43.544  32.965  30.552  1.00  0.00     0.074 A 
ATOM     49  C   UNL A   1      38.453  34.517  29.147  1.00  0.00     0.029 A 
ATOM     50  N   UNL A   1      38.428  33.788  31.270  1.00  0.00    -0.354 N 
ATOM     51  N   UNL A   1      43.005  32.945  31.734  1.00  0.00    -0.248 NA
ATOM     52  C   UNL A   1      43.246  34.126  29.708  1.00  0.00     0.031 C 
ATOM     53  C   UNL A   1      39.764  34.450  29.650  1.00  0.00     0.029 A 
ATOM     54  C   UNL A   1      39.749  33.994  30.974  1.00  0.00     0.049 A 
ATOM     55  H   UNL A   1      38.047  33.641  32.165  1.00  0.00     0.167 HD
ATOM     56  C   UNL A   1      42.029  33.900  31.609  1.00  0.00     0.074 A 
ATOM     57  C   UNL A   1      42.446  34.785  30.542  1.00  0.00     0.031 C 
ATOM     58  C   UNL A   1      40.750  33.561  31.917  1.00  0.00     0.037 A 
BRANCH  45  59
ATOM     59  C   UNL A   1      35.378  33.211  30.623  1.00  0.00     0.064 A 
ATOM     60  C   UNL A   1      34.560  34.209  30.035  1.00  0.00     0.173 A 
ATOM     61  C   UNL A   1      35.112  32.901  31.962  1.00  0.00     0.173 A 
ATOM     62  F   UNL A   1      34.694  34.534  28.739  1.00  0.00    -0.203 F 
ATOM     63  C   UNL A   1      33.671  34.969  30.788  1.00  0.00     0.198 A 
ATOM     64  C   UNL A   1      34.175  33.630  32.700  1.00  0.00     0.198 A 
ATOM     65  F   UNL A   1      35.819  31.972  32.616  1.00  0.00    -0.203 F 
ATOM     66  F   UNL A   1      33.049  36.017  30.228  1.00  0.00    -0.200 F 
ATOM     67  C   UNL A   1      33.496  34.693  32.128  1.00  0.00     0.200 A 
ATOM     68  F   UNL A   1      33.995  33.350  33.998  1.00  0.00    -0.200 F 
ATOM     69  F   UNL A   1      32.703  35.471  32.877  1.00  0.00    -0.200 F 
ENDBRANCH  45  59
BRANCH  46  70
ATOM     70  C   UNL A   1      45.848  32.180  29.910  1.00  0.00     0.064 A 
ATOM     71  C   UNL A   1      46.801  31.999  30.916  1.00  0.00     0.173 A 
ATOM     72  C   UNL A   1      46.409  32.582  28.655  1.00  0.00     0.173 A 
ATOM     73  F   UNL A   1      46.429  31.741  32.175  1.00  0.00    -0.203 F 
ATOM     74  C   UNL A   1      48.187  32.085  30.656  1.00  0.00     0.198 A 
ATOM     75  C   UNL A   1      47.776  32.601  28.381  1.00  0.00     0.198 A 
ATOM     76  F   UNL A   1      45.644  32.971  27.628  1.00  0.00    -0.203 F 
ATOM     77  F   UNL A   1      49.064  31.900  31.654  1.00  0.00    -0.200 F 
ATOM     78  C   UNL A   1      48.672  32.334  29.382  1.00  0.00     0.200 A 
ATOM     79  F   UNL A   1      48.200  32.857  27.134  1.00  0.00    -0.200 F 
ATOM     80  F   UNL A   1      49.986  32.327  29.124  1.00  0.00    -0.200 F 
ENDBRANCH  46  70
BRANCH  58  81
ATOM     81  C   UNL A   1      40.630  32.455  32.952  1.00  0.00     0.064 A 
ATOM     82  C   UNL A   1      41.178  32.644  34.234  1.00  0.00     0.173 A 
ATOM     83  C   UNL A   1      40.108  31.177  32.698  1.00  0.00     0.173 A 
ATOM     84  F   UNL A   1      41.664  33.846  34.580  1.00  0.00    -0.203 F 
ATOM     85  C   UNL A   1      41.236  31.612  35.176  1.00  0.00     0.198 A 
ATOM     86  C   UNL A   1      40.166  30.140  33.635  1.00  0.00     0.198 A 
ATOM     87  F   UNL A   1      39.513  30.903  31.537  1.00  0.00    -0.203 F 
ATOM     88  F   UNL A   1      41.772  31.840  36.383  1.00  0.00    -0.200 F 
ATOM     89  C   UNL A   1      40.737  30.358  34.874  1.00  0.00     0.200 A 
ATOM     90  F   UNL A   1      39.657  28.934  33.336  1.00  0.00    -0.200 F 
ATOM     91  F   UNL A   1      40.785  29.370  35.780  1.00  0.00    -0.200 F 
ENDBRANCH  58  81
ENDBRANCH  32  33
ENDBRANCH  25  27
ENDBRANCH  24  25
ENDBRANCH  23  24
ENDBRANCH   1  23
TORSDOF 14
ENDMDL
MODEL 3
REMARK VINA RESULT:     -12.2      4.156      6.443
REMARK SMILES CC(=O)c1c[nH]c(C(=O)N[C@H]2C=C[C@H](C(=O)OCCOC(=O)c3ccc(-c4c5nc(c(-c6c(F)c(F)c(F)c(F)c6F)c6ccc([nH]6)c(-c6c(F)c(F)c(F)c(F)c6F)c6nc(c(-c7c(F)c(F)c(F)c(F)c7F)c7ccc4[nH]7)C=C6)C=C5)cc3)C2)c1
REMARK SMILES IDX 18 1 17 2 15 3 16 4 14 5 11 6 12 7 86 8 13 9 10 10 8 11 9 12
REMARK SMILES IDX 7 14 4 15 5 16 87 17 6 18 2 20 1 21 3 22 19 23 20 24 21 25
REMARK SMILES IDX 22 26 23 27 24 28 85 29 25 30 84 31 26 32 27 33 28 34 78 35
REMARK SMILES IDX 29 36 83 37 77 38 79 39 30 40 82 41 76 42 75 43 31 45 63 46
REMARK SMILES IDX 43 47 62 48 44 49 47 50 61 51 80 52 45 53 46 54 60 56 81 57
REMARK SMILES IDX 48 58 32 59 33 60 41 61 34 62 35 63 39 64 42 65 36 66 37 67
REMARK SMILES IDX 40 68 38 69 64 70 65 71 73 72 66 73 67 74 71 75 74 76 68 77
REMARK SMILES IDX 69 78 72 79 70 80 49 81 50 82 58 83 51 84 52 85 56 86 59 87
REMARK SMILES IDX 53 88 54 89 57 90 55 91
REMARK H PARENT 10 13 6 19 79 44 47 55
REMARK Flexibility Score: inf
ROOT
ATOM      1  C   UNL A   1      33.235  31.979  27.784  1.00  0.00     0.274 C 
ENDROOT
BRANCH   1   2
ATOM      2  O   UNL A   1      32.399  31.210  26.902  1.00  0.00    -0.462 OA
BRANCH   2   3
ATOM      3  C   UNL A   1      32.875  29.983  26.537  1.00  0.00     0.312 C 
ATOM      4  O   UNL A   1      34.063  29.684  26.516  1.00  0.00    -0.252 OA
BRANCH   3   5
ATOM      5  C   UNL A   1      31.736  28.987  26.307  1.00  0.00     0.124 C 
ATOM      6  C   UNL A   1      31.939  26.557  26.566  1.00  0.00     0.106 C 
ATOM      7  C   UNL A   1      31.885  26.945  25.134  1.00  0.00    -0.006 C 
ATOM      8  C   UNL A   1      31.708  27.851  27.349  1.00  0.00     0.048 C 
ATOM      9  C   UNL A   1      31.812  28.272  24.989  1.00  0.00    -0.014 C 
BRANCH   6  10
ATOM     10  N   UNL A   1      31.077  25.428  26.852  1.00  0.00    -0.345 N 
ATOM     11  C   UNL A   1      31.237  24.080  27.004  1.00  0.00     0.268 C 
ATOM     12  O   UNL A   1      30.201  23.412  27.088  1.00  0.00    -0.268 OA
ATOM     13  H   UNL A   1      30.138  25.701  26.967  1.00  0.00     0.164 HD
BRANCH  11  14
ATOM     14  C   UNL A   1      32.525  23.432  26.971  1.00  0.00     0.105 A 
ATOM     15  C   UNL A   1      34.619  22.627  26.537  1.00  0.00     0.035 A 
ATOM     16  C   UNL A   1      33.990  21.771  27.419  1.00  0.00     0.094 A 
ATOM     17  C   UNL A   1      33.728  23.725  26.359  1.00  0.00     0.045 A 
ATOM     18  N   UNL A   1      32.765  22.303  27.729  1.00  0.00    -0.356 N 
ATOM     19  H   UNL A   1      32.144  21.933  28.398  1.00  0.00     0.166 HD
BRANCH  15  20
ATOM     20  C   UNL A   1      35.924  22.458  25.903  1.00  0.00     0.161 C 
ATOM     21  C   UNL A   1      36.699  23.689  25.514  1.00  0.00     0.093 C 
ATOM     22  O   UNL A   1      36.392  21.338  25.703  1.00  0.00    -0.294 OA
ENDBRANCH  15  20
ENDBRANCH  11  14
ENDBRANCH   6  10
ENDBRANCH   3   5
ENDBRANCH   2   3
ENDBRANCH   1   2
BRANCH   1  23
ATOM     23  C   UNL A   1      33.215  33.474  27.458  1.00  0.00     0.275 C 
BRANCH  23  24
ATOM     24  O   UNL A   1      32.350  34.244  28.301  1.00  0.00    -0.458 OA
BRANCH  24  25
ATOM     25  C   UNL A   1      32.995  35.270  28.895  1.00  0.00     0.338 C 
ATOM     26  O   UNL A   1      32.863  36.459  28.665  1.00  0.00    -0.246 OA
BRANCH  25  27
ATOM     27  C   UNL A   1      34.113  34.815  29.711  1.00  0.00     0.060 A 
ATOM     28  C   UNL A   1      35.358  34.739  29.081  1.00  0.00     0.016 A 
ATOM     29  C   UNL A   1      33.832  34.125  30.895  1.00  0.00     0.016 A 
ATOM     30  C   UNL A   1      36.295  33.858  29.576  1.00  0.00     0.010 A 
ATOM     31  C   UNL A   1      34.762  33.221  31.375  1.00  0.00     0.010 A 
ATOM     32  C   UNL A   1      35.973  33.069  30.687  1.00  0.00    -0.014 A 
BRANCH  32  33
ATOM     33  C   UNL A   1      37.062  32.282  31.275  1.00  0.00     0.031 A 
ATOM     34  C   UNL A   1      37.269  31.004  30.435  1.00  0.00     0.074 A 
ATOM     35  C   UNL A   1      37.637  32.775  32.419  1.00  0.00     0.049 A 
ATOM     36  N   UNL A   1      37.881  29.906  30.738  1.00  0.00    -0.248 NA
ATOM     37  C   UNL A   1      36.665  30.904  29.068  1.00  0.00     0.031 C 
ATOM     38  C   UNL A   1      37.275  34.057  33.070  1.00  0.00     0.029 A 
ATOM     39  N   UNL A   1      38.623  32.316  33.275  1.00  0.00    -0.354 N 
ATOM     40  C   UNL A   1      37.954  29.123  29.564  1.00  0.00     0.074 A 
ATOM     41  C   UNL A   1      37.073  29.720  28.616  1.00  0.00     0.031 C 
ATOM     42  C   UNL A   1      37.948  34.225  34.233  1.00  0.00     0.029 A 
ATOM     43  C   UNL A   1      38.845  33.104  34.445  1.00  0.00     0.049 A 
ATOM     44  H   UNL A   1      39.138  31.499  33.089  1.00  0.00     0.167 HD
ATOM     45  C   UNL A   1      38.878  28.132  29.409  1.00  0.00     0.037 A 
ATOM     46  C   UNL A   1      39.676  32.851  35.510  1.00  0.00     0.037 A 
ATOM     47  C   UNL A   1      39.593  27.967  30.627  1.00  0.00     0.049 A 
ATOM     48  C   UNL A   1      40.520  31.741  35.054  1.00  0.00     0.074 A 
ATOM     49  C   UNL A   1      39.194  27.473  31.841  1.00  0.00     0.029 A 
ATOM     50  N   UNL A   1      40.727  28.727  30.785  1.00  0.00    -0.354 N 
ATOM     51  N   UNL A   1      41.465  31.865  34.172  1.00  0.00    -0.248 NA
ATOM     52  C   UNL A   1      40.255  30.390  35.558  1.00  0.00     0.031 C 
ATOM     53  C   UNL A   1      39.809  28.351  32.750  1.00  0.00     0.029 A 
ATOM     54  C   UNL A   1      40.765  29.135  32.091  1.00  0.00     0.049 A 
ATOM     55  H   UNL A   1      41.388  28.939  30.088  1.00  0.00     0.167 HD
ATOM     56  C   UNL A   1      41.635  30.566  33.765  1.00  0.00     0.074 A 
ATOM     57  C   UNL A   1      41.161  29.725  34.844  1.00  0.00     0.031 C 
ATOM     58  C   UNL A   1      41.554  30.290  32.438  1.00  0.00     0.037 A 
BRANCH  45  59
ATOM     59  C   UNL A   1      39.425  27.439  28.196  1.00  0.00     0.064 A 
ATOM     60  C   UNL A   1      39.559  26.028  28.256  1.00  0.00     0.173 A 
ATOM     61  C   UNL A   1      40.159  28.089  27.198  1.00  0.00     0.173 A 
ATOM     62  F   UNL A   1      38.848  25.305  29.137  1.00  0.00    -0.203 F 
ATOM     63  C   UNL A   1      40.501  25.345  27.493  1.00  0.00     0.198 A 
ATOM     64  C   UNL A   1      41.064  27.389  26.394  1.00  0.00     0.198 A 
ATOM     65  F   UNL A   1      40.105  29.418  27.047  1.00  0.00    -0.203 F 
ATOM     66  F   UNL A   1      40.715  24.039  27.710  1.00  0.00    -0.200 F 
ATOM     67  C   UNL A   1      41.270  26.032  26.578  1.00  0.00     0.200 A 
ATOM     68  F   UNL A   1      41.799  28.056  25.494  1.00  0.00    -0.200 F 
ATOM     69  F   UNL A   1      42.235  25.397  25.899  1.00  0.00    -0.200 F 
ENDBRANCH  45  59
BRANCH  46  70
ATOM     70  C   UNL A   1      39.959  33.329  36.926  1.00  0.00     0.064 A 
ATOM     71  C   UNL A   1      41.096  34.016  37.361  1.00  0.00     0.173 A 
ATOM     72  C   UNL A   1      38.950  33.195  37.934  1.00  0.00     0.173 A 
ATOM     73  F   UNL A   1      42.176  34.119  36.578  1.00  0.00    -0.203 F 
ATOM     74  C   UNL A   1      41.161  34.622  38.635  1.00  0.00     0.198 A 
ATOM     75  C   UNL A   1      38.985  33.849  39.165  1.00  0.00     0.198 A 
ATOM     76  F   UNL A   1      37.872  32.421  37.760  1.00  0.00    -0.203 F 
ATOM     77  F   UNL A   1      42.272  35.274  39.006  1.00  0.00    -0.200 F 
ATOM     78  C   UNL A   1      40.088  34.582  39.512  1.00  0.00     0.200 A 
ATOM     79  F   UNL A   1      37.927  33.774  39.987  1.00  0.00    -0.200 F 
ATOM     80  F   UNL A   1      40.122  35.233  40.682  1.00  0.00    -0.200 F 
ENDBRANCH  46  70
BRANCH  58  81
ATOM     81  C   UNL A   1      41.947  31.448  31.534  1.00  0.00     0.064 A 
ATOM     82  C   UNL A   1      43.271  31.922  31.554  1.00  0.00     0.173 A 
ATOM     83  C   UNL A   1      41.049  32.184  30.745  1.00  0.00     0.173 A 
ATOM     84  F   UNL A   1      44.207  31.259  32.251  1.00  0.00    -0.203 F 
ATOM     85  C   UNL A   1      43.656  33.077  30.866  1.00  0.00     0.198 A 
ATOM     86  C   UNL A   1      41.429  33.341  30.056  1.00  0.00     0.198 A 
ATOM     87  F   UNL A   1      39.784  31.792  30.607  1.00  0.00    -0.203 F 
ATOM     88  F   UNL A   1      44.929  33.492  30.919  1.00  0.00    -0.200 F 
ATOM     89  C   UNL A   1      42.733  33.791  30.123  1.00  0.00     0.200 A 
ATOM     90  F   UNL A   1      40.527  34.011  29.320  1.00  0.00    -0.200 F 
ATOM     91  F   UNL A   1      43.103  34.894  29.455  1.00  0.00    -0.200 F 
ENDBRANCH  58  81
ENDBRANCH  32  33
ENDBRANCH  25  27
ENDBRANCH  24  25
ENDBRANCH  23  24
ENDBRANCH   1  23
TORSDOF 14
ENDMDL
