MODEL 1
REMARK VINA RESULT:     -15.0      0.000      0.000
REMARK SMILES NC(=O)C[C@@H](NC(=O)Cn1cnc2ccccc21)C(=O)OCCOC(=O)c1ccc(-c2c3nc(c(-c4c(F)c(F)c(F)c(F)c4F)c4ccc([nH]4)c(-c4c(F)c(F)c(F)c(F)c4F)c4nc(c(-c5c(F)c(F)c(F)c(F)c5F)c5ccc2[nH]5)C=C4)C=C3)cc1
REMARK SMILES IDX 22 1 21 2 19 3 20 4 5 5 4 6 2 7 1 8 3 11 6 12 7 13 8 15 9 16
REMARK SMILES IDX 10 17 11 18 18 19 12 20 13 21 17 22 14 23 16 24 15 25 23 26
REMARK SMILES IDX 24 27 25 28 26 29 27 30 28 31 89 32 29 33 88 34 30 35 31 36
REMARK SMILES IDX 32 37 82 38 33 39 87 40 81 41 83 42 34 43 86 44 80 45 79 46
REMARK SMILES IDX 35 48 67 49 47 50 66 51 48 52 51 53 65 54 84 55 49 56 50 57
REMARK SMILES IDX 64 59 85 60 52 61 36 62 37 63 45 64 38 65 39 66 43 67 46 68
REMARK SMILES IDX 40 69 41 70 44 71 42 72 68 73 69 74 77 75 70 76 71 77 75 78
REMARK SMILES IDX 78 79 72 80 73 81 76 82 74 83 53 84 54 85 62 86 55 87 56 88
REMARK SMILES IDX 60 89 63 90 57 91 58 92 61 93 59 94
REMARK H PARENT 1 9 1 10 6 14 83 47 51 58
REMARK Flexibility Score: inf
ROOT
ATOM      1  C   UNL A   1      33.524  28.784  27.255  1.00  0.00     0.274 C 
ENDROOT
BRANCH   1   2
ATOM      2  O   UNL A   1      32.664  27.675  26.081  1.00  0.00    -0.461 OA
BRANCH   2   3
ATOM      3  C   UNL A   1      31.338  27.136  25.839  1.00  0.00     0.329 C 
ATOM      4  O   UNL A   1      30.701  26.820  26.849  1.00  0.00    -0.250 OA
BRANCH   3   5
ATOM      5  C   UNL A   1      30.637  26.743  24.237  1.00  0.00     0.201 C 
BRANCH   5   6
ATOM      6  C   UNL A   1      29.725  27.425  23.129  1.00  0.00     0.136 C 
BRANCH   6   7
ATOM      7  C   UNL A   1      30.107  28.824  22.624  1.00  0.00     0.220 C 
ATOM      8  N   UNL A   1      30.836  29.616  23.453  1.00  0.00    -0.370 N 
ATOM      9  H   UNL A   1      31.101  30.520  23.164  1.00  0.00     0.159 HD
ATOM     10  H   UNL A   1      31.100  29.287  24.342  1.00  0.00     0.159 HD
ATOM     11  O   UNL A   1      29.701  29.313  21.574  1.00  0.00    -0.275 OA
ENDBRANCH   6   7
ENDBRANCH   5   6
BRANCH   5  12
ATOM     12  N   UNL A   1      31.683  26.063  23.504  1.00  0.00    -0.341 N 
ATOM     13  C   UNL A   1      31.736  24.718  23.400  1.00  0.00     0.240 C 
ATOM     14  H   UNL A   1      32.381  26.600  23.065  1.00  0.00     0.164 HD
ATOM     15  O   UNL A   1      32.652  24.198  22.771  1.00  0.00    -0.273 OA
BRANCH  13  16
ATOM     16  C   UNL A   1      30.582  23.963  24.000  1.00  0.00     0.223 C 
BRANCH  16  17
ATOM     17  N   UNL A   1      30.941  23.084  25.144  1.00  0.00    -0.321 N 
ATOM     18  C   UNL A   1      30.510  23.520  26.391  1.00  0.00     0.201 A 
ATOM     19  C   UNL A   1      31.888  21.956  25.356  1.00  0.00     0.068 A 
ATOM     20  N   UNL A   1      31.421  23.462  27.332  1.00  0.00    -0.237 NA
ATOM     21  C   UNL A   1      32.441  22.760  26.787  1.00  0.00     0.088 A 
ATOM     22  C   UNL A   1      33.103  20.855  24.421  1.00  0.00     0.028 A 
ATOM     23  C   UNL A   1      34.126  22.709  27.205  1.00  0.00     0.030 A 
ATOM     24  C   UNL A   1      34.873  20.869  24.914  1.00  0.00     0.002 A 
ATOM     25  C   UNL A   1      35.325  21.810  26.310  1.00  0.00     0.002 A 
ENDBRANCH  16  17
ENDBRANCH  13  16
ENDBRANCH   5  12
ENDBRANCH   3   5
ENDBRANCH   2   3
ENDBRANCH   1   2
BRANCH   1  26
ATOM     26  C   UNL A   1      33.051  30.952  27.239  1.00  0.00     0.275 C 
BRANCH  26  27
ATOM     27  O   UNL A   1      34.005  32.089  28.187  1.00  0.00    -0.458 OA
BRANCH  27  28
ATOM     28  C   UNL A   1      35.325  32.401  27.986  1.00  0.00     0.338 C 
ATOM     29  O   UNL A   1      35.653  33.454  27.453  1.00  0.00    -0.246 OA
BRANCH  28  30
ATOM     30  C   UNL A   1      36.388  31.492  28.669  1.00  0.00     0.060 A 
ATOM     31  C   UNL A   1      37.320  31.801  29.680  1.00  0.00     0.016 A 
ATOM     32  C   UNL A   1      36.622  30.287  28.014  1.00  0.00     0.016 A 
ATOM     33  C   UNL A   1      38.590  31.112  29.767  1.00  0.00     0.010 A 
ATOM     34  C   UNL A   1      37.872  29.630  28.083  1.00  0.00     0.010 A 
ATOM     35  C   UNL A   1      38.942  30.094  28.864  1.00  0.00    -0.014 A 
BRANCH  35  36
ATOM     36  C   UNL A   1      40.228  29.273  28.865  1.00  0.00     0.031 A 
ATOM     37  C   UNL A   1      40.516  28.937  30.281  1.00  0.00     0.074 A 
ATOM     38  C   UNL A   1      41.034  28.700  27.900  1.00  0.00     0.049 A 
ATOM     39  N   UNL A   1      41.392  29.534  31.021  1.00  0.00    -0.248 NA
ATOM     40  C   UNL A   1      39.585  28.078  31.029  1.00  0.00     0.031 C 
ATOM     41  C   UNL A   1      40.991  28.808  26.450  1.00  0.00     0.029 A 
ATOM     42  N   UNL A   1      42.101  27.795  28.014  1.00  0.00    -0.354 N 
ATOM     43  C   UNL A   1      41.252  28.950  32.271  1.00  0.00     0.074 A 
ATOM     44  C   UNL A   1      39.967  28.317  32.285  1.00  0.00     0.031 C 
ATOM     45  C   UNL A   1      41.668  27.824  25.810  1.00  0.00     0.029 A 
ATOM     46  C   UNL A   1      42.440  27.117  26.800  1.00  0.00     0.049 A 
ATOM     47  H   UNL A   1      42.578  27.641  28.861  1.00  0.00     0.167 HD
ATOM     48  C   UNL A   1      42.347  28.696  33.035  1.00  0.00     0.037 A 
ATOM     49  C   UNL A   1      43.436  26.209  26.544  1.00  0.00     0.037 A 
ATOM     50  C   UNL A   1      43.499  29.383  32.514  1.00  0.00     0.049 A 
ATOM     51  C   UNL A   1      44.437  26.405  27.598  1.00  0.00     0.074 A 
ATOM     52  C   UNL A   1      43.934  30.687  32.433  1.00  0.00     0.029 A 
ATOM     53  N   UNL A   1      44.144  28.676  31.535  1.00  0.00    -0.354 N 
ATOM     54  N   UNL A   1      45.211  27.447  27.662  1.00  0.00    -0.248 NA
ATOM     55  C   UNL A   1      44.290  25.626  28.812  1.00  0.00     0.031 C 
ATOM     56  C   UNL A   1      44.739  30.766  31.258  1.00  0.00     0.029 A 
ATOM     57  C   UNL A   1      44.847  29.495  30.699  1.00  0.00     0.049 A 
ATOM     58  H   UNL A   1      44.107  27.697  31.446  1.00  0.00     0.167 HD
ATOM     59  C   UNL A   1      45.257  27.724  29.011  1.00  0.00     0.074 A 
ATOM     60  C   UNL A   1      44.800  26.504  29.676  1.00  0.00     0.031 C 
ATOM     61  C   UNL A   1      45.336  29.018  29.429  1.00  0.00     0.037 A 
BRANCH  48  62
ATOM     62  C   UNL A   1      42.485  27.463  33.899  1.00  0.00     0.064 A 
ATOM     63  C   UNL A   1      42.107  27.526  35.251  1.00  0.00     0.173 A 
ATOM     64  C   UNL A   1      43.210  26.307  33.527  1.00  0.00     0.173 A 
ATOM     65  F   UNL A   1      41.486  28.612  35.733  1.00  0.00    -0.203 F 
ATOM     66  C   UNL A   1      42.425  26.505  36.153  1.00  0.00     0.198 A 
ATOM     67  C   UNL A   1      43.468  25.264  34.409  1.00  0.00     0.198 A 
ATOM     68  F   UNL A   1      43.805  26.187  32.334  1.00  0.00    -0.203 F 
ATOM     69  F   UNL A   1      42.128  26.647  37.451  1.00  0.00    -0.200 F 
ATOM     70  C   UNL A   1      43.092  25.368  35.729  1.00  0.00     0.200 A 
ATOM     71  F   UNL A   1      44.152  24.193  33.981  1.00  0.00    -0.200 F 
ATOM     72  F   UNL A   1      43.419  24.402  36.595  1.00  0.00    -0.200 F 
ENDBRANCH  48  62
BRANCH  49  73
ATOM     73  C   UNL A   1      43.531  24.994  25.666  1.00  0.00     0.064 A 
ATOM     74  C   UNL A   1      44.711  24.697  24.937  1.00  0.00     0.173 A 
ATOM     75  C   UNL A   1      42.640  23.922  25.836  1.00  0.00     0.173 A 
ATOM     76  F   UNL A   1      45.638  25.645  24.732  1.00  0.00    -0.203 F 
ATOM     77  C   UNL A   1      45.011  23.399  24.489  1.00  0.00     0.198 A 
ATOM     78  C   UNL A   1      42.942  22.626  25.391  1.00  0.00     0.198 A 
ATOM     79  F   UNL A   1      41.509  24.092  26.535  1.00  0.00    -0.203 F 
ATOM     80  F   UNL A   1      46.181  23.146  23.885  1.00  0.00    -0.200 F 
ATOM     81  C   UNL A   1      44.136  22.359  24.741  1.00  0.00     0.200 A 
ATOM     82  F   UNL A   1      42.105  21.618  25.670  1.00  0.00    -0.200 F 
ATOM     83  F   UNL A   1      44.459  21.102  24.403  1.00  0.00    -0.200 F 
ENDBRANCH  49  73
BRANCH  61  84
ATOM     84  C   UNL A   1      45.853  30.035  28.456  1.00  0.00     0.064 A 
ATOM     85  C   UNL A   1      45.066  30.762  27.548  1.00  0.00     0.173 A 
ATOM     86  C   UNL A   1      47.213  30.363  28.544  1.00  0.00     0.173 A 
ATOM     87  F   UNL A   1      43.747  30.538  27.446  1.00  0.00    -0.203 F 
ATOM     88  C   UNL A   1      45.626  31.768  26.760  1.00  0.00     0.198 A 
ATOM     89  C   UNL A   1      47.761  31.389  27.785  1.00  0.00     0.198 A 
ATOM     90  F   UNL A   1      48.002  29.715  29.416  1.00  0.00    -0.203 F 
ATOM     91  F   UNL A   1      44.863  32.453  25.895  1.00  0.00    -0.200 F 
ATOM     92  C   UNL A   1      46.970  32.089  26.890  1.00  0.00     0.200 A 
ATOM     93  F   UNL A   1      49.049  31.718  27.946  1.00  0.00    -0.200 F 
ATOM     94  F   UNL A   1      47.498  33.087  26.169  1.00  0.00    -0.200 F 
ENDBRANCH  61  84
ENDBRANCH  35  36
ENDBRANCH  28  30
ENDBRANCH  27  28
ENDBRANCH  26  27
ENDBRANCH   1  26
TORSDOF 16
ENDMDL
MODEL 2
REMARK VINA RESULT:     -14.8      1.379      1.774
REMARK SMILES NC(=O)C[C@@H](NC(=O)Cn1cnc2ccccc21)C(=O)OCCOC(=O)c1ccc(-c2c3nc(c(-c4c(F)c(F)c(F)c(F)c4F)c4ccc([nH]4)c(-c4c(F)c(F)c(F)c(F)c4F)c4nc(c(-c5c(F)c(F)c(F)c(F)c5F)c5ccc2[nH]5)C=C4)C=C3)cc1
REMARK SMILES IDX 22 1 21 2 19 3 20 4 5 5 4 6 2 7 1 8 3 11 6 12 7 13 8 15 9 16
REMARK SMILES IDX 10 17 11 18 18 19 12 20 13 21 17 22 14 23 16 24 15 25 23 26
REMARK SMILES IDX 24 27 25 28 26 29 27 30 28 31 89 32 29 33 88 34 30 35 31 36
REMARK SMILES IDX 32 37 82 38 33 39 87 40 81 41 83 42 34 43 86 44 80 45 79 46
REMARK SMILES IDX 35 48 67 49 47 50 66 51 48 52 51 53 65 54 84 55 49 56 50 57
REMARK SMILES IDX 64 59 85 60 52 61 36 62 37 63 45 64 38 65 39 66 43 67 46 68
REMARK SMILES IDX 40 69 41 70 44 71 42 72 68 73 69 74 77 75 70 76 71 77 75 78
REMARK SMILES IDX 78 79 72 80 73 81 76 82 74 83 53 84 54 85 62 86 55 87 56 88
REMARK SMILES IDX 60 89 63 90 57 91 58 92 61 93 59 94
REMARK H PARENT 1 9 1 10 6 14 83 47 51 58
REMARK Flexibility Score: inf
ROOT
ATOM      1  C   UNL A   1      31.939  28.230  27.223  1.00  0.00     0.274 C 
ENDROOT
BRANCH   1   2
ATOM      2  O   UNL A   1      31.730  26.905  25.979  1.00  0.00    -0.461 OA
BRANCH   2   3
ATOM      3  C   UNL A   1      32.462  25.777  25.431  1.00  0.00     0.329 C 
ATOM      4  O   UNL A   1      33.296  25.268  26.186  1.00  0.00    -0.250 OA
BRANCH   3   5
ATOM      5  C   UNL A   1      32.377  25.187  23.741  1.00  0.00     0.201 C 
BRANCH   5   6
ATOM      6  C   UNL A   1      31.674  25.577  22.370  1.00  0.00     0.136 C 
BRANCH   6   7
ATOM      7  C   UNL A   1      32.558  25.964  21.176  1.00  0.00     0.220 C 
ATOM      8  N   UNL A   1      32.151  25.577  19.939  1.00  0.00    -0.370 N 
ATOM      9  H   UNL A   1      32.690  25.806  19.148  1.00  0.00     0.159 HD
ATOM     10  H   UNL A   1      31.316  25.066  19.833  1.00  0.00     0.159 HD
ATOM     11  O   UNL A   1      33.659  26.496  21.276  1.00  0.00    -0.275 OA
ENDBRANCH   6   7
ENDBRANCH   5   6
BRANCH   5  12
ATOM     12  N   UNL A   1      33.730  24.817  23.383  1.00  0.00    -0.341 N 
ATOM     13  C   UNL A   1      34.078  23.547  23.090  1.00  0.00     0.240 C 
ATOM     14  H   UNL A   1      34.421  25.518  23.353  1.00  0.00     0.164 HD
ATOM     15  O   UNL A   1      35.242  23.292  22.801  1.00  0.00    -0.273 OA
BRANCH  13  16
ATOM     16  C   UNL A   1      32.955  22.546  23.049  1.00  0.00     0.223 C 
BRANCH  16  17
ATOM     17  N   UNL A   1      32.993  21.525  24.127  1.00  0.00    -0.321 N 
ATOM     18  C   UNL A   1      33.660  21.902  25.286  1.00  0.00     0.201 A 
ATOM     19  C   UNL A   1      32.720  20.064  24.213  1.00  0.00     0.068 A 
ATOM     20  N   UNL A   1      34.491  21.003  25.754  1.00  0.00    -0.237 NA
ATOM     21  C   UNL A   1      34.232  19.885  25.037  1.00  0.00     0.088 A 
ATOM     22  C   UNL A   1      32.088  18.619  23.177  1.00  0.00     0.028 A 
ATOM     23  C   UNL A   1      35.221  18.490  24.728  1.00  0.00     0.030 A 
ATOM     24  C   UNL A   1      33.200  17.186  22.881  1.00  0.00     0.002 A 
ATOM     25  C   UNL A   1      34.749  17.175  23.681  1.00  0.00     0.002 A 
ENDBRANCH  16  17
ENDBRANCH  13  16
ENDBRANCH   5  12
ENDBRANCH   3   5
ENDBRANCH   2   3
ENDBRANCH   1   2
BRANCH   1  26
ATOM     26  C   UNL A   1      33.064  30.061  26.673  1.00  0.00     0.275 C 
BRANCH  26  27
ATOM     27  O   UNL A   1      33.612  31.187  27.912  1.00  0.00    -0.458 OA
BRANCH  27  28
ATOM     28  C   UNL A   1      34.826  31.825  27.946  1.00  0.00     0.338 C 
ATOM     29  O   UNL A   1      34.936  32.994  27.600  1.00  0.00    -0.246 OA
BRANCH  28  30
ATOM     30  C   UNL A   1      35.999  31.093  28.660  1.00  0.00     0.060 A 
ATOM     31  C   UNL A   1      36.993  31.609  29.515  1.00  0.00     0.016 A 
ATOM     32  C   UNL A   1      36.252  29.810  28.185  1.00  0.00     0.016 A 
ATOM     33  C   UNL A   1      38.308  31.006  29.588  1.00  0.00     0.010 A 
ATOM     34  C   UNL A   1      37.543  29.235  28.238  1.00  0.00     0.010 A 
ATOM     35  C   UNL A   1      38.645  29.872  28.828  1.00  0.00    -0.014 A 
BRANCH  35  36
ATOM     36  C   UNL A   1      39.975  29.126  28.836  1.00  0.00     0.031 A 
ATOM     37  C   UNL A   1      40.283  28.823  30.256  1.00  0.00     0.074 A 
ATOM     38  C   UNL A   1      40.812  28.590  27.877  1.00  0.00     0.049 A 
ATOM     39  N   UNL A   1      41.123  29.477  30.988  1.00  0.00    -0.248 NA
ATOM     40  C   UNL A   1      39.403  27.920  31.015  1.00  0.00     0.031 C 
ATOM     41  C   UNL A   1      40.762  28.679  26.425  1.00  0.00     0.029 A 
ATOM     42  N   UNL A   1      41.929  27.749  27.999  1.00  0.00    -0.354 N 
ATOM     43  C   UNL A   1      41.019  28.900  32.244  1.00  0.00     0.074 A 
ATOM     44  C   UNL A   1      39.772  28.195  32.267  1.00  0.00     0.031 C 
ATOM     45  C   UNL A   1      41.494  27.729  25.795  1.00  0.00     0.029 A 
ATOM     46  C   UNL A   1      42.306  27.078  26.793  1.00  0.00     0.049 A 
ATOM     47  H   UNL A   1      42.415  27.631  28.847  1.00  0.00     0.167 HD
ATOM     48  C   UNL A   1      42.126  28.718  33.010  1.00  0.00     0.037 A 
ATOM     49  C   UNL A   1      43.351  26.226  26.545  1.00  0.00     0.037 A 
ATOM     50  C   UNL A   1      43.238  29.463  32.479  1.00  0.00     0.049 A 
ATOM     51  C   UNL A   1      44.341  26.490  27.595  1.00  0.00     0.074 A 
ATOM     52  C   UNL A   1      43.597  30.790  32.384  1.00  0.00     0.029 A 
ATOM     53  N   UNL A   1      43.921  28.784  31.507  1.00  0.00    -0.354 N 
ATOM     54  N   UNL A   1      45.053  27.576  27.647  1.00  0.00    -0.248 NA
ATOM     55  C   UNL A   1      44.239  25.718  28.818  1.00  0.00     0.031 C 
ATOM     56  C   UNL A   1      44.395  30.901  31.207  1.00  0.00     0.029 A 
ATOM     57  C   UNL A   1      44.575  29.633  30.661  1.00  0.00     0.049 A 
ATOM     58  H   UNL A   1      43.940  27.803  31.430  1.00  0.00     0.167 HD
ATOM     59  C   UNL A   1      45.085  27.870  28.993  1.00  0.00     0.074 A 
ATOM     60  C   UNL A   1      44.699  26.633  29.672  1.00  0.00     0.031 C 
ATOM     61  C   UNL A   1      45.089  29.171  29.397  1.00  0.00     0.037 A 
BRANCH  48  62
ATOM     62  C   UNL A   1      42.335  27.504  33.887  1.00  0.00     0.064 A 
ATOM     63  C   UNL A   1      41.935  27.552  35.233  1.00  0.00     0.173 A 
ATOM     64  C   UNL A   1      43.143  26.398  33.535  1.00  0.00     0.173 A 
ATOM     65  F   UNL A   1      41.234  28.597  35.696  1.00  0.00    -0.203 F 
ATOM     66  C   UNL A   1      42.309  26.563  36.149  1.00  0.00     0.198 A 
ATOM     67  C   UNL A   1      43.459  25.381  34.431  1.00  0.00     0.198 A 
ATOM     68  F   UNL A   1      43.762  26.308  32.352  1.00  0.00    -0.203 F 
ATOM     69  F   UNL A   1      41.983  26.695  37.442  1.00  0.00    -0.200 F 
ATOM     70  C   UNL A   1      43.057  25.471  35.745  1.00  0.00     0.200 A 
ATOM     71  F   UNL A   1      44.221  24.356  34.023  1.00  0.00    -0.200 F 
ATOM     72  F   UNL A   1      43.437  24.536  36.624  1.00  0.00    -0.200 F 
ENDBRANCH  48  62
BRANCH  49  73
ATOM     73  C   UNL A   1      43.515  25.009  25.680  1.00  0.00     0.064 A 
ATOM     74  C   UNL A   1      44.720  24.757  24.975  1.00  0.00     0.173 A 
ATOM     75  C   UNL A   1      42.670  23.900  25.845  1.00  0.00     0.173 A 
ATOM     76  F   UNL A   1      45.608  25.744  24.776  1.00  0.00    -0.203 F 
ATOM     77  C   UNL A   1      45.084  23.471  24.544  1.00  0.00     0.198 A 
ATOM     78  C   UNL A   1      43.036  22.615  25.417  1.00  0.00     0.198 A 
ATOM     79  F   UNL A   1      41.520  24.026  26.523  1.00  0.00    -0.203 F 
ATOM     80  F   UNL A   1      46.276  23.264  23.962  1.00  0.00    -0.200 F 
ATOM     81  C   UNL A   1      44.252  22.396  24.791  1.00  0.00     0.200 A 
ATOM     82  F   UNL A   1      42.239  21.573  25.691  1.00  0.00    -0.200 F 
ATOM     83  F   UNL A   1      44.636  21.150  24.470  1.00  0.00    -0.200 F 
ENDBRANCH  49  73
BRANCH  61  84
ATOM     84  C   UNL A   1      45.547  30.205  28.412  1.00  0.00     0.064 A 
ATOM     85  C   UNL A   1      44.708  30.929  27.549  1.00  0.00     0.173 A 
ATOM     86  C   UNL A   1      46.904  30.552  28.441  1.00  0.00     0.173 A 
ATOM     87  F   UNL A   1      43.390  30.687  27.505  1.00  0.00    -0.203 F 
ATOM     88  C   UNL A   1      45.218  31.952  26.746  1.00  0.00     0.198 A 
ATOM     89  C   UNL A   1      47.403  31.593  27.668  1.00  0.00     0.198 A 
ATOM     90  F   UNL A   1      47.742  29.906  29.268  1.00  0.00    -0.203 F 
ATOM     91  F   UNL A   1      44.406  32.635  25.926  1.00  0.00    -0.200 F 
ATOM     92  C   UNL A   1      46.561  32.291  26.818  1.00  0.00     0.200 A 
ATOM     93  F   UNL A   1      48.692  31.938  27.773  1.00  0.00    -0.200 F 
ATOM     94  F   UNL A   1      47.042  33.303  26.085  1.00  0.00    -0.200 F 
ENDBRANCH  61  84
ENDBRANCH  35  36
ENDBRANCH  28  30
ENDBRANCH  27  28
ENDBRANCH  26  27
ENDBRANCH   1  26
TORSDOF 16
ENDMDL
MODEL 3
REMARK VINA RESULT:     -14.6      3.112      8.926
REMARK SMILES NC(=O)C[C@@H](NC(=O)Cn1cnc2ccccc21)C(=O)OCCOC(=O)c1ccc(-c2c3nc(c(-c4c(F)c(F)c(F)c(F)c4F)c4ccc([nH]4)c(-c4c(F)c(F)c(F)c(F)c4F)c4nc(c(-c5c(F)c(F)c(F)c(F)c5F)c5ccc2[nH]5)C=C4)C=C3)cc1
REMARK SMILES IDX 22 1 21 2 19 3 20 4 5 5 4 6 2 7 1 8 3 11 6 12 7 13 8 15 9 16
REMARK SMILES IDX 10 17 11 18 18 19 12 20 13 21 17 22 14 23 16 24 15 25 23 26
REMARK SMILES IDX 24 27 25 28 26 29 27 30 28 31 89 32 29 33 88 34 30 35 31 36
REMARK SMILES IDX 32 37 82 38 33 39 87 40 81 41 83 42 34 43 86 44 80 45 79 46
REMARK SMILES IDX 35 48 67 49 47 50 66 51 48 52 51 53 65 54 84 55 49 56 50 57
REMARK SMILES IDX 64 59 85 60 52 61 36 62 37 63 45 64 38 65 39 66 43 67 46 68
REMARK SMILES IDX 40 69 41 70 44 71 42 72 68 73 69 74 77 75 70 76 71 77 75 78
REMARK SMILES IDX 78 79 72 80 73 81 76 82 74 83 53 84 54 85 62 86 55 87 56 88
REMARK SMILES IDX 60 89 63 90 57 91 58 92 61 93 59 94
REMARK H PARENT 1 9 1 10 6 14 83 47 51 58
REMARK Flexibility Score: inf
ROOT
ATOM      1  C   UNL A   1      37.032  23.099  24.034  1.00  0.00     0.274 C 
ENDROOT
BRANCH   1   2
ATOM      2  O   UNL A   1      35.255  23.525  24.130  1.00  0.00    -0.461 OA
BRANCH   2   3
ATOM      3  C   UNL A   1      34.189  23.605  25.112  1.00  0.00     0.329 C 
ATOM      4  O   UNL A   1      34.435  24.293  26.108  1.00  0.00    -0.250 OA
BRANCH   3   5
ATOM      5  C   UNL A   1      32.655  22.679  25.079  1.00  0.00     0.201 C 
BRANCH   5   6
ATOM      6  C   UNL A   1      32.144  21.199  25.349  1.00  0.00     0.136 C 
BRANCH   6   7
ATOM      7  C   UNL A   1      33.184  20.078  25.488  1.00  0.00     0.220 C 
ATOM      8  N   UNL A   1      32.903  19.060  26.344  1.00  0.00    -0.370 N 
ATOM      9  H   UNL A   1      33.545  18.323  26.460  1.00  0.00     0.159 HD
ATOM     10  H   UNL A   1      32.058  19.060  26.848  1.00  0.00     0.159 HD
ATOM     11  O   UNL A   1      34.295  20.099  24.968  1.00  0.00    -0.275 OA
ENDBRANCH   6   7
ENDBRANCH   5   6
BRANCH   5  12
ATOM     12  N   UNL A   1      31.659  23.541  25.678  1.00  0.00    -0.341 N 
ATOM     13  C   UNL A   1      30.815  24.293  24.941  1.00  0.00     0.240 C 
ATOM     14  H   UNL A   1      31.595  23.580  26.660  1.00  0.00     0.164 HD
ATOM     15  O   UNL A   1      29.997  25.011  25.506  1.00  0.00    -0.273 OA
BRANCH  13  16
ATOM     16  C   UNL A   1      30.893  24.105  23.450  1.00  0.00     0.223 C 
BRANCH  16  17
ATOM     17  N   UNL A   1      31.489  25.247  22.709  1.00  0.00    -0.321 N 
ATOM     18  C   UNL A   1      32.636  24.955  21.980  1.00  0.00     0.201 A 
ATOM     19  C   UNL A   1      31.332  26.726  22.740  1.00  0.00     0.068 A 
ATOM     20  N   UNL A   1      33.611  25.817  22.132  1.00  0.00    -0.237 NA
ATOM     21  C   UNL A   1      33.058  26.855  22.801  1.00  0.00     0.088 A 
ATOM     22  C   UNL A   1      30.303  28.084  23.554  1.00  0.00     0.028 A 
ATOM     23  C   UNL A   1      33.795  28.090  23.775  1.00  0.00     0.030 A 
ATOM     24  C   UNL A   1      31.156  29.346  24.583  1.00  0.00     0.002 A 
ATOM     25  C   UNL A   1      32.897  29.301  24.655  1.00  0.00     0.002 A 
ENDBRANCH  16  17
ENDBRANCH  13  16
ENDBRANCH   5  12
ENDBRANCH   3   5
ENDBRANCH   2   3
ENDBRANCH   1   2
BRANCH   1  26
ATOM     26  C   UNL A   1      37.775  21.310  25.116  1.00  0.00     0.275 C 
BRANCH  26  27
ATOM     27  O   UNL A   1      39.483  21.142  25.512  1.00  0.00    -0.458 OA
BRANCH  27  28
ATOM     28  C   UNL A   1      40.083  21.518  26.686  1.00  0.00     0.338 C 
ATOM     29  O   UNL A   1      40.405  20.688  27.526  1.00  0.00    -0.246 OA
BRANCH  28  30
ATOM     30  C   UNL A   1      40.552  22.997  26.808  1.00  0.00     0.060 A 
ATOM     31  C   UNL A   1      41.835  23.512  27.085  1.00  0.00     0.016 A 
ATOM     32  C   UNL A   1      39.520  23.923  26.913  1.00  0.00     0.016 A 
ATOM     33  C   UNL A   1      42.003  24.780  27.765  1.00  0.00     0.010 A 
ATOM     34  C   UNL A   1      39.683  25.149  27.598  1.00  0.00     0.010 A 
ATOM     35  C   UNL A   1      40.902  25.559  28.160  1.00  0.00    -0.014 A 
BRANCH  35  36
ATOM     36  C   UNL A   1      40.942  26.919  28.851  1.00  0.00     0.031 A 
ATOM     37  C   UNL A   1      42.100  27.651  28.280  1.00  0.00     0.074 A 
ATOM     38  C   UNL A   1      40.118  27.612  29.716  1.00  0.00     0.049 A 
ATOM     39  N   UNL A   1      43.247  27.790  28.858  1.00  0.00    -0.248 NA
ATOM     40  C   UNL A   1      42.099  28.015  26.853  1.00  0.00     0.031 C 
ATOM     41  C   UNL A   1      38.909  27.189  30.407  1.00  0.00     0.029 A 
ATOM     42  N   UNL A   1      40.154  28.946  30.148  1.00  0.00    -0.354 N 
ATOM     43  C   UNL A   1      44.029  28.461  27.930  1.00  0.00     0.074 A 
ATOM     44  C   UNL A   1      43.389  28.292  26.659  1.00  0.00     0.031 C 
ATOM     45  C   UNL A   1      38.149  28.218  30.855  1.00  0.00     0.029 A 
ATOM     46  C   UNL A   1      38.931  29.422  30.720  1.00  0.00     0.049 A 
ATOM     47  H   UNL A   1      40.957  29.509  30.065  1.00  0.00     0.167 HD
ATOM     48  C   UNL A   1      44.905  29.418  28.334  1.00  0.00     0.037 A 
ATOM     49  C   UNL A   1      38.629  30.642  31.268  1.00  0.00     0.037 A 
ATOM     50  C   UNL A   1      45.093  29.363  29.759  1.00  0.00     0.049 A 
ATOM     51  C   UNL A   1      39.913  31.244  31.641  1.00  0.00     0.074 A 
ATOM     52  C   UNL A   1      45.705  28.512  30.654  1.00  0.00     0.029 A 
ATOM     53  N   UNL A   1      44.152  30.075  30.451  1.00  0.00    -0.354 N 
ATOM     54  N   UNL A   1      40.639  30.820  32.632  1.00  0.00    -0.248 NA
ATOM     55  C   UNL A   1      40.580  32.061  30.646  1.00  0.00     0.031 C 
ATOM     56  C   UNL A   1      44.974  28.627  31.874  1.00  0.00     0.029 A 
ATOM     57  C   UNL A   1      43.992  29.603  31.722  1.00  0.00     0.049 A 
ATOM     58  H   UNL A   1      43.652  30.837  30.077  1.00  0.00     0.167 HD
ATOM     59  C   UNL A   1      41.925  30.908  32.142  1.00  0.00     0.074 A 
ATOM     60  C   UNL A   1      41.843  31.802  30.988  1.00  0.00     0.031 C 
ATOM     61  C   UNL A   1      42.851  29.982  32.517  1.00  0.00     0.037 A 
BRANCH  48  62
ATOM     62  C   UNL A   1      45.166  30.684  27.550  1.00  0.00     0.064 A 
ATOM     63  C   UNL A   1      46.485  31.007  27.186  1.00  0.00     0.173 A 
ATOM     64  C   UNL A   1      44.218  31.719  27.370  1.00  0.00     0.173 A 
ATOM     65  F   UNL A   1      47.479  30.132  27.389  1.00  0.00    -0.203 F 
ATOM     66  C   UNL A   1      46.820  32.265  26.674  1.00  0.00     0.198 A 
ATOM     67  C   UNL A   1      44.542  32.945  26.799  1.00  0.00     0.198 A 
ATOM     68  F   UNL A   1      42.969  31.638  27.845  1.00  0.00    -0.203 F 
ATOM     69  F   UNL A   1      48.103  32.562  26.427  1.00  0.00    -0.200 F 
ATOM     70  C   UNL A   1      45.847  33.227  26.466  1.00  0.00     0.200 A 
ATOM     71  F   UNL A   1      43.586  33.874  26.648  1.00  0.00    -0.200 F 
ATOM     72  F   UNL A   1      46.170  34.440  25.999  1.00  0.00    -0.200 F 
ENDBRANCH  48  62
BRANCH  49  73
ATOM     73  C   UNL A   1      37.394  31.496  31.279  1.00  0.00     0.064 A 
ATOM     74  C   UNL A   1      36.745  31.848  32.490  1.00  0.00     0.173 A 
ATOM     75  C   UNL A   1      37.072  32.293  30.168  1.00  0.00     0.173 A 
ATOM     76  F   UNL A   1      36.994  31.162  33.616  1.00  0.00    -0.203 F 
ATOM     77  C   UNL A   1      35.903  32.967  32.595  1.00  0.00     0.198 A 
ATOM     78  C   UNL A   1      36.233  33.414  30.275  1.00  0.00     0.198 A 
ATOM     79  F   UNL A   1      37.654  32.062  28.983  1.00  0.00    -0.203 F 
ATOM     80  F   UNL A   1      35.384  33.315  33.782  1.00  0.00    -0.200 F 
ATOM     81  C   UNL A   1      35.670  33.766  31.491  1.00  0.00     0.200 A 
ATOM     82  F   UNL A   1      36.041  34.201  29.208  1.00  0.00    -0.200 F 
ATOM     83  F   UNL A   1      34.947  34.890  31.604  1.00  0.00    -0.200 F 
ENDBRANCH  49  73
BRANCH  61  84
ATOM     84  C   UNL A   1      42.602  29.220  33.784  1.00  0.00     0.064 A 
ATOM     85  C   UNL A   1      41.905  28.004  33.875  1.00  0.00     0.173 A 
ATOM     86  C   UNL A   1      43.213  29.706  34.948  1.00  0.00     0.173 A 
ATOM     87  F   UNL A   1      41.338  27.452  32.792  1.00  0.00    -0.203 F 
ATOM     88  C   UNL A   1      41.822  27.315  35.086  1.00  0.00     0.198 A 
ATOM     89  C   UNL A   1      43.160  29.001  36.143  1.00  0.00     0.198 A 
ATOM     90  F   UNL A   1      43.913  30.851  34.907  1.00  0.00    -0.203 F 
ATOM     91  F   UNL A   1      41.151  26.155  35.158  1.00  0.00    -0.200 F 
ATOM     92  C   UNL A   1      42.461  27.807  36.214  1.00  0.00     0.200 A 
ATOM     93  F   UNL A   1      43.812  29.464  37.217  1.00  0.00    -0.200 F 
ATOM     94  F   UNL A   1      42.423  27.122  37.365  1.00  0.00    -0.200 F 
ENDBRANCH  61  84
ENDBRANCH  35  36
ENDBRANCH  28  30
ENDBRANCH  27  28
ENDBRANCH  26  27
ENDBRANCH   1  26
TORSDOF 16
ENDMDL
