MODEL 1
REMARK VINA RESULT:     -12.8      0.000      0.000
REMARK SMILES Cc1cc2c(c(C)c1Br)C=C(C(=O)OCCOC(=O)c1ccc(-c3c4nc(c(-c5c(F)c(F)c(F)c(F)c5F)c5ccc([nH]5)c(-c5c(F)c(F)c(F)c(F)c5F)c5nc(c(-c6c(F)c(F)c(F)c(F)c6F)c6ccc3[nH]6)C=C5)C=C4)cc1)[C@@H](C(F)(F)F)O2
REMARK SMILES IDX 16 1 15 2 14 3 12 4 13 5 11 6 1 7 2 8 3 9 8 10 4 11 6 12
REMARK SMILES IDX 9 13 5 14 88 15 7 16 10 17 83 18 84 19 85 20 86 21 87 22
REMARK SMILES IDX 17 23 18 24 19 25 20 26 21 27 82 28 22 29 81 30 23 31 24 32
REMARK SMILES IDX 25 33 75 34 26 35 80 36 74 37 76 38 27 39 79 40 73 41 72 42
REMARK SMILES IDX 28 44 60 45 40 46 59 47 41 48 44 49 58 50 77 51 42 52 43 53
REMARK SMILES IDX 57 55 78 56 45 57 29 58 30 59 38 60 31 61 32 62 36 63 39 64
REMARK SMILES IDX 33 65 34 66 37 67 35 68 61 69 62 70 70 71 63 72 64 73 68 74
REMARK SMILES IDX 71 75 65 76 66 77 69 78 67 79 46 80 47 81 55 82 48 83 49 84
REMARK SMILES IDX 53 85 56 86 50 87 51 88 54 89 52 90
REMARK H PARENT 76 43 44 54
REMARK Flexibility Score: inf
ROOT
ATOM      1  C   UNL A   1      31.840  30.071  25.456  1.00  0.00     0.275 C 
ENDROOT
BRANCH   1   2
ATOM      2  C   UNL A   1      31.422  28.640  25.126  1.00  0.00     0.275 C 
BRANCH   2   3
ATOM      3  O   UNL A   1      32.465  27.701  25.470  1.00  0.00    -0.459 OA
BRANCH   3   4
ATOM      4  C   UNL A   1      33.068  27.093  24.420  1.00  0.00     0.338 C 
ATOM      5  O   UNL A   1      33.552  27.632  23.443  1.00  0.00    -0.246 OA
BRANCH   4   6
ATOM      6  C   UNL A   1      33.093  25.630  24.624  1.00  0.00     0.087 C 
ATOM      7  C   UNL A   1      34.313  19.259  24.721  1.00  0.00     0.046 C 
ATOM      8  C   UNL A   1      34.377  20.762  24.762  1.00  0.00    -0.033 A 
ATOM      9  C   UNL A   1      33.173  21.479  24.769  1.00  0.00     0.051 A 
ATOM     10  C   UNL A   1      35.596  21.472  24.810  1.00  0.00     0.024 A 
ATOM     11  C   UNL A   1      33.165  22.872  24.776  1.00  0.00     0.128 A 
ATOM     12  C   UNL A   1      35.610  22.887  24.810  1.00  0.00    -0.026 A 
ATOM     13  Br  UNL A   1      37.228  20.473  24.884  1.00  0.00    -0.050 Br
ATOM     14  C   UNL A   1      34.368  23.581  24.776  1.00  0.00     0.021 A 
ATOM     15  O   UNL A   1      31.924  23.447  24.800  1.00  0.00    -0.475 OA
ATOM     16  C   UNL A   1      36.899  23.676  24.861  1.00  0.00     0.046 C 
ATOM     17  C   UNL A   1      34.289  25.038  24.714  1.00  0.00     0.027 C 
ATOM     18  C   UNL A   1      31.800  24.876  24.584  1.00  0.00     0.316 C 
BRANCH  18  19
ATOM     19  C   UNL A   1      31.046  25.116  23.266  1.00  0.00     0.430 C 
ATOM     20  F   UNL A   1      31.896  25.176  22.214  1.00  0.00    -0.167 F 
ATOM     21  F   UNL A   1      30.175  24.113  23.000  1.00  0.00    -0.167 F 
ATOM     22  F   UNL A   1      30.340  26.270  23.285  1.00  0.00    -0.167 F 
ENDBRANCH  18  19
ENDBRANCH   4   6
ENDBRANCH   3   4
ENDBRANCH   2   3
ENDBRANCH   1   2
BRANCH   1  23
ATOM     23  O   UNL A   1      32.375  30.128  26.790  1.00  0.00    -0.458 OA
BRANCH  23  24
ATOM     24  C   UNL A   1      32.992  31.281  27.131  1.00  0.00     0.338 C 
ATOM     25  O   UNL A   1      32.520  32.407  27.129  1.00  0.00    -0.246 OA
BRANCH  24  26
ATOM     26  C   UNL A   1      34.369  31.006  27.578  1.00  0.00     0.060 A 
ATOM     27  C   UNL A   1      34.759  29.692  27.812  1.00  0.00     0.016 A 
ATOM     28  C   UNL A   1      35.220  32.053  27.927  1.00  0.00     0.016 A 
ATOM     29  C   UNL A   1      35.926  29.428  28.524  1.00  0.00     0.010 A 
ATOM     30  C   UNL A   1      36.458  31.773  28.523  1.00  0.00     0.010 A 
ATOM     31  C   UNL A   1      36.806  30.458  28.883  1.00  0.00    -0.014 A 
BRANCH  31  32
ATOM     32  C   UNL A   1      38.044  30.166  29.672  1.00  0.00     0.031 A 
ATOM     33  C   UNL A   1      39.166  29.358  29.063  1.00  0.00     0.074 A 
ATOM     34  C   UNL A   1      38.204  30.653  30.922  1.00  0.00     0.049 A 
ATOM     35  N   UNL A   1      40.212  28.820  29.643  1.00  0.00    -0.248 NA
ATOM     36  C   UNL A   1      39.100  29.108  27.614  1.00  0.00     0.031 C 
ATOM     37  C   UNL A   1      37.249  31.505  31.632  1.00  0.00     0.029 A 
ATOM     38  N   UNL A   1      39.244  30.522  31.813  1.00  0.00    -0.354 N 
ATOM     39  C   UNL A   1      40.881  28.114  28.650  1.00  0.00     0.074 A 
ATOM     40  C   UNL A   1      40.131  28.295  27.427  1.00  0.00     0.031 C 
ATOM     41  C   UNL A   1      37.775  31.881  32.806  1.00  0.00     0.029 A 
ATOM     42  C   UNL A   1      39.048  31.197  32.995  1.00  0.00     0.049 A 
ATOM     43  H   UNL A   1      40.053  29.994  31.623  1.00  0.00     0.167 HD
ATOM     44  C   UNL A   1      42.016  27.381  28.754  1.00  0.00     0.037 A 
ATOM     45  C   UNL A   1      39.774  31.227  34.129  1.00  0.00     0.037 A 
ATOM     46  C   UNL A   1      42.807  27.270  29.952  1.00  0.00     0.049 A 
ATOM     47  C   UNL A   1      41.012  30.381  34.229  1.00  0.00     0.074 A 
ATOM     48  C   UNL A   1      43.968  26.542  30.155  1.00  0.00     0.029 A 
ATOM     49  N   UNL A   1      42.539  27.931  31.140  1.00  0.00    -0.354 N 
ATOM     50  N   UNL A   1      41.570  29.622  33.319  1.00  0.00    -0.248 NA
ATOM     51  C   UNL A   1      41.701  30.366  35.528  1.00  0.00     0.031 C 
ATOM     52  C   UNL A   1      44.387  26.742  31.474  1.00  0.00     0.029 A 
ATOM     53  C   UNL A   1      43.512  27.627  32.079  1.00  0.00     0.049 A 
ATOM     54  H   UNL A   1      41.772  28.529  31.294  1.00  0.00     0.167 HD
ATOM     55  C   UNL A   1      42.672  29.043  33.930  1.00  0.00     0.074 A 
ATOM     56  C   UNL A   1      42.723  29.559  35.281  1.00  0.00     0.031 C 
ATOM     57  C   UNL A   1      43.556  28.154  33.418  1.00  0.00     0.037 A 
BRANCH  44  58
ATOM     58  C   UNL A   1      42.478  26.613  27.549  1.00  0.00     0.064 A 
ATOM     59  C   UNL A   1      43.474  27.101  26.695  1.00  0.00     0.173 A 
ATOM     60  C   UNL A   1      41.982  25.321  27.309  1.00  0.00     0.173 A 
ATOM     61  F   UNL A   1      43.973  28.333  26.874  1.00  0.00    -0.203 F 
ATOM     62  C   UNL A   1      43.953  26.327  25.639  1.00  0.00     0.198 A 
ATOM     63  C   UNL A   1      42.482  24.541  26.270  1.00  0.00     0.198 A 
ATOM     64  F   UNL A   1      41.033  24.802  28.104  1.00  0.00    -0.203 F 
ATOM     65  F   UNL A   1      44.891  26.823  24.820  1.00  0.00    -0.200 F 
ATOM     66  C   UNL A   1      43.466  25.045  25.435  1.00  0.00     0.200 A 
ATOM     67  F   UNL A   1      42.020  23.295  26.086  1.00  0.00    -0.200 F 
ATOM     68  F   UNL A   1      43.947  24.293  24.434  1.00  0.00    -0.200 F 
ENDBRANCH  44  58
BRANCH  45  69
ATOM     69  C   UNL A   1      39.316  32.049  35.282  1.00  0.00     0.064 A 
ATOM     70  C   UNL A   1      39.680  33.397  35.395  1.00  0.00     0.173 A 
ATOM     71  C   UNL A   1      38.494  31.509  36.284  1.00  0.00     0.173 A 
ATOM     72  F   UNL A   1      40.489  33.951  34.481  1.00  0.00    -0.203 F 
ATOM     73  C   UNL A   1      39.239  34.174  36.464  1.00  0.00     0.198 A 
ATOM     74  C   UNL A   1      38.026  32.296  37.333  1.00  0.00     0.198 A 
ATOM     75  F   UNL A   1      38.123  30.222  36.227  1.00  0.00    -0.203 F 
ATOM     76  F   UNL A   1      39.630  35.451  36.569  1.00  0.00    -0.200 F 
ATOM     77  C   UNL A   1      38.401  33.626  37.426  1.00  0.00     0.200 A 
ATOM     78  F   UNL A   1      37.203  31.765  38.248  1.00  0.00    -0.200 F 
ATOM     79  F   UNL A   1      37.963  34.379  38.444  1.00  0.00    -0.200 F 
ENDBRANCH  45  69
BRANCH  57  80
ATOM     80  C   UNL A   1      44.671  27.696  34.308  1.00  0.00     0.064 A 
ATOM     81  C   UNL A   1      44.552  26.538  35.091  1.00  0.00     0.173 A 
ATOM     82  C   UNL A   1      45.891  28.388  34.334  1.00  0.00     0.173 A 
ATOM     83  F   UNL A   1      43.399  25.852  35.109  1.00  0.00    -0.203 F 
ATOM     84  C   UNL A   1      45.610  26.098  35.879  1.00  0.00     0.198 A 
ATOM     85  C   UNL A   1      46.955  27.930  35.105  1.00  0.00     0.198 A 
ATOM     86  F   UNL A   1      46.054  29.496  33.597  1.00  0.00    -0.203 F 
ATOM     87  F   UNL A   1      45.465  25.008  36.646  1.00  0.00    -0.200 F 
ATOM     88  C   UNL A   1      46.813  26.789  35.880  1.00  0.00     0.200 A 
ATOM     89  F   UNL A   1      48.122  28.591  35.094  1.00  0.00    -0.200 F 
ATOM     90  F   UNL A   1      47.836  26.356  36.631  1.00  0.00    -0.200 F 
ENDBRANCH  57  80
ENDBRANCH  31  32
ENDBRANCH  24  26
ENDBRANCH  23  24
ENDBRANCH   1  23
TORSDOF 12
ENDMDL
MODEL 2
REMARK VINA RESULT:     -12.8      0.289      1.677
REMARK SMILES Cc1cc2c(c(C)c1Br)C=C(C(=O)OCCOC(=O)c1ccc(-c3c4nc(c(-c5c(F)c(F)c(F)c(F)c5F)c5ccc([nH]5)c(-c5c(F)c(F)c(F)c(F)c5F)c5nc(c(-c6c(F)c(F)c(F)c(F)c6F)c6ccc3[nH]6)C=C5)C=C4)cc1)[C@@H](C(F)(F)F)O2
REMARK SMILES IDX 16 1 15 2 14 3 12 4 13 5 11 6 1 7 2 8 3 9 8 10 4 11 6 12
REMARK SMILES IDX 9 13 5 14 88 15 7 16 10 17 83 18 84 19 85 20 86 21 87 22
REMARK SMILES IDX 17 23 18 24 19 25 20 26 21 27 82 28 22 29 81 30 23 31 24 32
REMARK SMILES IDX 25 33 75 34 26 35 80 36 74 37 76 38 27 39 79 40 73 41 72 42
REMARK SMILES IDX 28 44 60 45 40 46 59 47 41 48 44 49 58 50 77 51 42 52 43 53
REMARK SMILES IDX 57 55 78 56 45 57 29 58 30 59 38 60 31 61 32 62 36 63 39 64
REMARK SMILES IDX 33 65 34 66 37 67 35 68 61 69 62 70 70 71 63 72 64 73 68 74
REMARK SMILES IDX 71 75 65 76 66 77 69 78 67 79 46 80 47 81 55 82 48 83 49 84
REMARK SMILES IDX 53 85 56 86 50 87 51 88 54 89 52 90
REMARK H PARENT 76 43 44 54
REMARK Flexibility Score: inf
ROOT
ATOM      1  C   UNL A   1      31.462  30.150  25.429  1.00  0.00     0.275 C 
ENDROOT
BRANCH   1   2
ATOM      2  C   UNL A   1      31.377  28.854  24.625  1.00  0.00     0.275 C 
BRANCH   2   3
ATOM      3  O   UNL A   1      32.229  27.834  25.191  1.00  0.00    -0.459 OA
BRANCH   3   4
ATOM      4  C   UNL A   1      33.057  27.217  24.314  1.00  0.00     0.338 C 
ATOM      5  O   UNL A   1      33.754  27.748  23.470  1.00  0.00    -0.246 OA
BRANCH   4   6
ATOM      6  C   UNL A   1      33.035  25.756  24.533  1.00  0.00     0.087 C 
ATOM      7  C   UNL A   1      34.077  19.356  24.737  1.00  0.00     0.046 C 
ATOM      8  C   UNL A   1      34.180  20.858  24.766  1.00  0.00    -0.033 A 
ATOM      9  C   UNL A   1      32.996  21.607  24.721  1.00  0.00     0.051 A 
ATOM     10  C   UNL A   1      35.415  21.534  24.853  1.00  0.00     0.024 A 
ATOM     11  C   UNL A   1      33.026  22.999  24.714  1.00  0.00     0.128 A 
ATOM     12  C   UNL A   1      35.467  22.949  24.840  1.00  0.00    -0.026 A 
ATOM     13  Br  UNL A   1      37.015  20.494  24.998  1.00  0.00    -0.050 Br
ATOM     14  C   UNL A   1      34.248  23.675  24.753  1.00  0.00     0.021 A 
ATOM     15  O   UNL A   1      31.801  23.608  24.686  1.00  0.00    -0.475 OA
ATOM     16  C   UNL A   1      36.775  23.704  24.932  1.00  0.00     0.046 C 
ATOM     17  C   UNL A   1      34.210  25.133  24.674  1.00  0.00     0.027 C 
ATOM     18  C   UNL A   1      31.724  25.037  24.452  1.00  0.00     0.316 C 
BRANCH  18  19
ATOM     19  C   UNL A   1      31.027  25.283  23.104  1.00  0.00     0.430 C 
ATOM     20  F   UNL A   1      30.267  26.403  23.138  1.00  0.00    -0.167 F 
ATOM     21  F   UNL A   1      31.924  25.457  22.104  1.00  0.00    -0.167 F 
ATOM     22  F   UNL A   1      30.223  24.254  22.751  1.00  0.00    -0.167 F 
ENDBRANCH  18  19
ENDBRANCH   4   6
ENDBRANCH   3   4
ENDBRANCH   2   3
ENDBRANCH   1   2
BRANCH   1  23
ATOM     23  O   UNL A   1      32.399  29.992  26.511  1.00  0.00    -0.458 OA
BRANCH  23  24
ATOM     24  C   UNL A   1      32.915  31.135  27.015  1.00  0.00     0.338 C 
ATOM     25  O   UNL A   1      32.364  32.219  27.118  1.00  0.00    -0.246 OA
BRANCH  24  26
ATOM     26  C   UNL A   1      34.285  30.898  27.503  1.00  0.00     0.060 A 
ATOM     27  C   UNL A   1      34.750  29.594  27.624  1.00  0.00     0.016 A 
ATOM     28  C   UNL A   1      35.049  31.953  27.998  1.00  0.00     0.016 A 
ATOM     29  C   UNL A   1      35.899  29.328  28.364  1.00  0.00     0.010 A 
ATOM     30  C   UNL A   1      36.274  31.689  28.626  1.00  0.00     0.010 A 
ATOM     31  C   UNL A   1      36.692  30.367  28.870  1.00  0.00    -0.014 A 
BRANCH  31  32
ATOM     32  C   UNL A   1      37.910  30.071  29.688  1.00  0.00     0.031 A 
ATOM     33  C   UNL A   1      39.043  29.259  29.106  1.00  0.00     0.074 A 
ATOM     34  C   UNL A   1      38.041  30.556  30.941  1.00  0.00     0.049 A 
ATOM     35  N   UNL A   1      40.074  28.718  29.710  1.00  0.00    -0.248 NA
ATOM     36  C   UNL A   1      39.012  29.011  27.655  1.00  0.00     0.031 C 
ATOM     37  C   UNL A   1      37.072  31.411  31.629  1.00  0.00     0.029 A 
ATOM     38  N   UNL A   1      39.059  30.422  31.858  1.00  0.00    -0.354 N 
ATOM     39  C   UNL A   1      40.764  28.011  28.733  1.00  0.00     0.074 A 
ATOM     40  C   UNL A   1      40.045  28.194  27.492  1.00  0.00     0.031 C 
ATOM     41  C   UNL A   1      37.571  31.784  32.816  1.00  0.00     0.029 A 
ATOM     42  C   UNL A   1      38.837  31.096  33.035  1.00  0.00     0.049 A 
ATOM     43  H   UNL A   1      39.871  29.891  31.686  1.00  0.00     0.167 HD
ATOM     44  C   UNL A   1      41.894  27.274  28.863  1.00  0.00     0.037 A 
ATOM     45  C   UNL A   1      39.536  31.123  34.186  1.00  0.00     0.037 A 
ATOM     46  C   UNL A   1      42.655  27.159  30.080  1.00  0.00     0.049 A 
ATOM     47  C   UNL A   1      40.768  30.273  34.316  1.00  0.00     0.074 A 
ATOM     48  C   UNL A   1      43.809  26.428  30.310  1.00  0.00     0.029 A 
ATOM     49  N   UNL A   1      42.361  27.821  31.262  1.00  0.00    -0.354 N 
ATOM     50  N   UNL A   1      41.345  29.513  33.418  1.00  0.00    -0.248 NA
ATOM     51  C   UNL A   1      41.425  30.255  35.630  1.00  0.00     0.031 C 
ATOM     52  C   UNL A   1      44.197  26.625  31.639  1.00  0.00     0.029 A 
ATOM     53  C   UNL A   1      43.310  27.513  32.224  1.00  0.00     0.049 A 
ATOM     54  H   UNL A   1      41.592  28.421  31.398  1.00  0.00     0.167 HD
ATOM     55  C   UNL A   1      42.431  28.931  34.055  1.00  0.00     0.074 A 
ATOM     56  C   UNL A   1      42.451  29.445  35.408  1.00  0.00     0.031 C 
ATOM     57  C   UNL A   1      43.324  28.038  33.564  1.00  0.00     0.037 A 
BRANCH  44  58
ATOM     58  C   UNL A   1      42.383  26.505  27.670  1.00  0.00     0.064 A 
ATOM     59  C   UNL A   1      43.382  27.004  26.824  1.00  0.00     0.173 A 
ATOM     60  C   UNL A   1      41.909  25.204  27.432  1.00  0.00     0.173 A 
ATOM     61  F   UNL A   1      43.859  28.244  27.001  1.00  0.00    -0.203 F 
ATOM     62  C   UNL A   1      43.885  26.230  25.780  1.00  0.00     0.198 A 
ATOM     63  C   UNL A   1      42.433  24.425  26.404  1.00  0.00     0.198 A 
ATOM     64  F   UNL A   1      40.958  24.676  28.219  1.00  0.00    -0.203 F 
ATOM     65  F   UNL A   1      44.825  26.735  24.968  1.00  0.00    -0.200 F 
ATOM     66  C   UNL A   1      43.420  24.939  25.578  1.00  0.00     0.200 A 
ATOM     67  F   UNL A   1      41.993  23.171  26.223  1.00  0.00    -0.200 F 
ATOM     68  F   UNL A   1      43.924  24.189  24.588  1.00  0.00    -0.200 F 
ENDBRANCH  44  58
BRANCH  45  69
ATOM     69  C   UNL A   1      39.053  31.945  35.328  1.00  0.00     0.064 A 
ATOM     70  C   UNL A   1      38.290  31.374  36.355  1.00  0.00     0.173 A 
ATOM     71  C   UNL A   1      39.356  33.313  35.425  1.00  0.00     0.173 A 
ATOM     72  F   UNL A   1      37.946  30.079  36.294  1.00  0.00    -0.203 F 
ATOM     73  C   UNL A   1      37.850  32.138  37.435  1.00  0.00     0.198 A 
ATOM     74  C   UNL A   1      38.946  34.067  36.522  1.00  0.00     0.198 A 
ATOM     75  F   UNL A   1      40.077  33.911  34.465  1.00  0.00    -0.203 F 
ATOM     76  F   UNL A   1      37.091  31.576  38.386  1.00  0.00    -0.200 F 
ATOM     77  C   UNL A   1      38.189  33.481  37.524  1.00  0.00     0.200 A 
ATOM     78  F   UNL A   1      39.292  35.358  36.610  1.00  0.00    -0.200 F 
ATOM     79  F   UNL A   1      37.781  34.209  38.571  1.00  0.00    -0.200 F 
ENDBRANCH  45  69
BRANCH  57  80
ATOM     80  C   UNL A   1      44.416  27.577  34.480  1.00  0.00     0.064 A 
ATOM     81  C   UNL A   1      45.614  28.294  34.608  1.00  0.00     0.173 A 
ATOM     82  C   UNL A   1      44.237  26.440  35.283  1.00  0.00     0.173 A 
ATOM     83  F   UNL A   1      45.836  29.379  33.850  1.00  0.00    -0.203 F 
ATOM     84  C   UNL A   1      46.602  27.880  35.496  1.00  0.00     0.198 A 
ATOM     85  C   UNL A   1      45.217  26.045  36.188  1.00  0.00     0.198 A 
ATOM     86  F   UNL A   1      43.105  25.727  35.201  1.00  0.00    -0.203 F 
ATOM     87  F   UNL A   1      47.754  28.560  35.579  1.00  0.00    -0.200 F 
ATOM     88  C   UNL A   1      46.400  26.761  36.291  1.00  0.00     0.200 A 
ATOM     89  F   UNL A   1      45.015  24.971  36.966  1.00  0.00    -0.200 F 
ATOM     90  F   UNL A   1      47.347  26.371  37.155  1.00  0.00    -0.200 F 
ENDBRANCH  57  80
ENDBRANCH  31  32
ENDBRANCH  24  26
ENDBRANCH  23  24
ENDBRANCH   1  23
TORSDOF 12
ENDMDL
MODEL 3
REMARK VINA RESULT:     -12.7      1.308      2.030
REMARK SMILES Cc1cc2c(c(C)c1Br)C=C(C(=O)OCCOC(=O)c1ccc(-c3c4nc(c(-c5c(F)c(F)c(F)c(F)c5F)c5ccc([nH]5)c(-c5c(F)c(F)c(F)c(F)c5F)c5nc(c(-c6c(F)c(F)c(F)c(F)c6F)c6ccc3[nH]6)C=C5)C=C4)cc1)[C@@H](C(F)(F)F)O2
REMARK SMILES IDX 16 1 15 2 14 3 12 4 13 5 11 6 1 7 2 8 3 9 8 10 4 11 6 12
REMARK SMILES IDX 9 13 5 14 88 15 7 16 10 17 83 18 84 19 85 20 86 21 87 22
REMARK SMILES IDX 17 23 18 24 19 25 20 26 21 27 82 28 22 29 81 30 23 31 24 32
REMARK SMILES IDX 25 33 75 34 26 35 80 36 74 37 76 38 27 39 79 40 73 41 72 42
REMARK SMILES IDX 28 44 60 45 40 46 59 47 41 48 44 49 58 50 77 51 42 52 43 53
REMARK SMILES IDX 57 55 78 56 45 57 29 58 30 59 38 60 31 61 32 62 36 63 39 64
REMARK SMILES IDX 33 65 34 66 37 67 35 68 61 69 62 70 70 71 63 72 64 73 68 74
REMARK SMILES IDX 71 75 65 76 66 77 69 78 67 79 46 80 47 81 55 82 48 83 49 84
REMARK SMILES IDX 53 85 56 86 50 87 51 88 54 89 52 90
REMARK H PARENT 76 43 44 54
REMARK Flexibility Score: inf
ROOT
ATOM      1  C   UNL A   1      31.372  30.865  26.232  1.00  0.00     0.275 C 
ENDROOT
BRANCH   1   2
ATOM      2  C   UNL A   1      31.064  30.153  24.916  1.00  0.00     0.275 C 
BRANCH   2   3
ATOM      3  O   UNL A   1      31.127  28.719  25.075  1.00  0.00    -0.459 OA
BRANCH   3   4
ATOM      4  C   UNL A   1      30.801  27.998  23.974  1.00  0.00     0.338 C 
ATOM      5  O   UNL A   1      29.876  28.206  23.213  1.00  0.00    -0.246 OA
BRANCH   4   6
ATOM      6  C   UNL A   1      31.764  26.894  23.784  1.00  0.00     0.087 C 
ATOM      7  C   UNL A   1      36.125  22.120  24.303  1.00  0.00     0.046 C 
ATOM      8  C   UNL A   1      34.960  23.061  24.454  1.00  0.00    -0.033 A 
ATOM      9  C   UNL A   1      34.754  24.029  23.461  1.00  0.00     0.051 A 
ATOM     10  C   UNL A   1      34.063  22.993  25.540  1.00  0.00     0.024 A 
ATOM     11  C   UNL A   1      33.712  24.948  23.558  1.00  0.00     0.128 A 
ATOM     12  C   UNL A   1      33.002  23.922  25.661  1.00  0.00    -0.026 A 
ATOM     13  Br  UNL A   1      34.311  21.611  26.841  1.00  0.00    -0.050 Br
ATOM     14  C   UNL A   1      32.848  24.917  24.656  1.00  0.00     0.021 A 
ATOM     15  O   UNL A   1      33.612  25.827  22.516  1.00  0.00    -0.475 OA
ATOM     16  C   UNL A   1      32.023  23.877  26.814  1.00  0.00     0.046 C 
ATOM     17  C   UNL A   1      31.819  25.951  24.730  1.00  0.00     0.027 C 
ATOM     18  C   UNL A   1      32.710  26.958  22.624  1.00  0.00     0.316 C 
BRANCH  18  19
ATOM     19  C   UNL A   1      33.536  28.254  22.640  1.00  0.00     0.430 C 
ATOM     20  F   UNL A   1      34.581  28.185  21.783  1.00  0.00    -0.167 F 
ATOM     21  F   UNL A   1      32.795  29.322  22.258  1.00  0.00    -0.167 F 
ATOM     22  F   UNL A   1      34.033  28.527  23.868  1.00  0.00    -0.167 F 
ENDBRANCH  18  19
ENDBRANCH   4   6
ENDBRANCH   3   4
ENDBRANCH   2   3
ENDBRANCH   1   2
BRANCH   1  23
ATOM     23  O   UNL A   1      32.762  30.693  26.566  1.00  0.00    -0.458 OA
BRANCH  23  24
ATOM     24  C   UNL A   1      33.346  31.727  27.211  1.00  0.00     0.338 C 
ATOM     25  O   UNL A   1      32.865  32.823  27.451  1.00  0.00    -0.246 OA
BRANCH  24  26
ATOM     26  C   UNL A   1      34.694  31.342  27.665  1.00  0.00     0.060 A 
ATOM     27  C   UNL A   1      34.964  30.008  27.946  1.00  0.00     0.016 A 
ATOM     28  C   UNL A   1      35.640  32.319  27.972  1.00  0.00     0.016 A 
ATOM     29  C   UNL A   1      36.107  29.664  28.664  1.00  0.00     0.010 A 
ATOM     30  C   UNL A   1      36.850  31.949  28.574  1.00  0.00     0.010 A 
ATOM     31  C   UNL A   1      37.079  30.622  28.983  1.00  0.00    -0.014 A 
BRANCH  31  32
ATOM     32  C   UNL A   1      38.290  30.247  29.778  1.00  0.00     0.031 A 
ATOM     33  C   UNL A   1      39.375  29.393  29.163  1.00  0.00     0.074 A 
ATOM     34  C   UNL A   1      38.460  30.696  31.040  1.00  0.00     0.049 A 
ATOM     35  N   UNL A   1      40.384  28.788  29.742  1.00  0.00    -0.248 NA
ATOM     36  C   UNL A   1      39.314  29.180  27.708  1.00  0.00     0.031 C 
ATOM     37  C   UNL A   1      37.543  31.582  31.759  1.00  0.00     0.029 A 
ATOM     38  N   UNL A   1      39.481  30.490  31.940  1.00  0.00    -0.354 N 
ATOM     39  C   UNL A   1      41.027  28.069  28.741  1.00  0.00     0.074 A 
ATOM     40  C   UNL A   1      40.303  28.317  27.513  1.00  0.00     0.031 C 
ATOM     41  C   UNL A   1      38.074  31.902  32.947  1.00  0.00     0.029 A 
ATOM     42  C   UNL A   1      39.306  31.147  33.135  1.00  0.00     0.049 A 
ATOM     43  H   UNL A   1      40.263  29.923  31.746  1.00  0.00     0.167 HD
ATOM     44  C   UNL A   1      42.119  27.274  28.839  1.00  0.00     0.037 A 
ATOM     45  C   UNL A   1      40.019  31.113  34.277  1.00  0.00     0.037 A 
ATOM     46  C   UNL A   1      42.888  27.094  30.044  1.00  0.00     0.049 A 
ATOM     47  C   UNL A   1      41.209  30.200  34.372  1.00  0.00     0.074 A 
ATOM     48  C   UNL A   1      44.007  26.302  30.243  1.00  0.00     0.029 A 
ATOM     49  N   UNL A   1      42.642  27.742  31.244  1.00  0.00    -0.354 N 
ATOM     50  N   UNL A   1      41.737  29.432  33.450  1.00  0.00    -0.248 NA
ATOM     51  C   UNL A   1      41.880  30.119  35.677  1.00  0.00     0.031 C 
ATOM     52  C   UNL A   1      44.420  26.448  31.570  1.00  0.00     0.029 A 
ATOM     53  C   UNL A   1      43.585  27.365  32.186  1.00  0.00     0.049 A 
ATOM     54  H   UNL A   1      41.905  28.377  31.403  1.00  0.00     0.167 HD
ATOM     55  C   UNL A   1      42.799  28.783  34.059  1.00  0.00     0.074 A 
ATOM     56  C   UNL A   1      42.861  29.264  35.423  1.00  0.00     0.031 C 
ATOM     57  C   UNL A   1      43.641  27.859  33.537  1.00  0.00     0.037 A 
BRANCH  44  58
ATOM     58  C   UNL A   1      42.555  26.510  27.623  1.00  0.00     0.064 A 
ATOM     59  C   UNL A   1      43.529  27.004  26.745  1.00  0.00     0.173 A 
ATOM     60  C   UNL A   1      42.058  25.217  27.392  1.00  0.00     0.173 A 
ATOM     61  F   UNL A   1      44.027  28.238  26.914  1.00  0.00    -0.203 F 
ATOM     62  C   UNL A   1      43.984  26.234  25.677  1.00  0.00     0.198 A 
ATOM     63  C   UNL A   1      42.535  24.440  26.340  1.00  0.00     0.198 A 
ATOM     64  F   UNL A   1      41.131  24.693  28.210  1.00  0.00    -0.203 F 
ATOM     65  F   UNL A   1      44.900  26.734  24.836  1.00  0.00    -0.200 F 
ATOM     66  C   UNL A   1      43.497  24.950  25.482  1.00  0.00     0.200 A 
ATOM     67  F   UNL A   1      42.074  23.193  26.166  1.00  0.00    -0.200 F 
ATOM     68  F   UNL A   1      43.956  24.201  24.469  1.00  0.00    -0.200 F 
ENDBRANCH  44  58
BRANCH  45  69
ATOM     69  C   UNL A   1      39.591  31.932  35.443  1.00  0.00     0.064 A 
ATOM     70  C   UNL A   1      40.117  33.213  35.656  1.00  0.00     0.173 A 
ATOM     71  C   UNL A   1      38.638  31.459  36.359  1.00  0.00     0.173 A 
ATOM     72  F   UNL A   1      41.054  33.698  34.828  1.00  0.00    -0.203 F 
ATOM     73  C   UNL A   1      39.706  33.989  36.738  1.00  0.00     0.198 A 
ATOM     74  C   UNL A   1      38.202  32.249  37.420  1.00  0.00     0.198 A 
ATOM     75  F   UNL A   1      38.108  30.236  36.206  1.00  0.00    -0.203 F 
ATOM     76  F   UNL A   1      40.251  35.196  36.940  1.00  0.00    -0.200 F 
ATOM     77  C   UNL A   1      38.739  33.512  37.612  1.00  0.00     0.200 A 
ATOM     78  F   UNL A   1      37.255  31.789  38.249  1.00  0.00    -0.200 F 
ATOM     79  F   UNL A   1      38.331  34.266  38.641  1.00  0.00    -0.200 F 
ENDBRANCH  45  69
BRANCH  57  80
ATOM     80  C   UNL A   1      44.719  27.322  34.429  1.00  0.00     0.064 A 
ATOM     81  C   UNL A   1      45.954  27.975  34.556  1.00  0.00     0.173 A 
ATOM     82  C   UNL A   1      44.493  26.179  35.209  1.00  0.00     0.173 A 
ATOM     83  F   UNL A   1      46.220  29.064  33.820  1.00  0.00    -0.203 F 
ATOM     84  C   UNL A   1      46.930  27.492  35.423  1.00  0.00     0.198 A 
ATOM     85  C   UNL A   1      45.462  25.714  36.093  1.00  0.00     0.198 A 
ATOM     86  F   UNL A   1      43.325  25.525  35.127  1.00  0.00    -0.203 F 
ATOM     87  F   UNL A   1      48.116  28.111  35.505  1.00  0.00    -0.200 F 
ATOM     88  C   UNL A   1      46.681  26.368  36.196  1.00  0.00     0.200 A 
ATOM     89  F   UNL A   1      45.215  24.634  36.849  1.00  0.00    -0.200 F 
ATOM     90  F   UNL A   1      47.618  25.911  37.038  1.00  0.00    -0.200 F 
ENDBRANCH  57  80
ENDBRANCH  31  32
ENDBRANCH  24  26
ENDBRANCH  23  24
ENDBRANCH   1  23
TORSDOF 12
ENDMDL
