MODEL 1
REMARK VINA RESULT:     -12.5      0.000      0.000
REMARK SMILES CC(C)(C)OC(=O)N1C[C@@H](c2cccc(Cl)c2)CC[C@H]1C(=O)OCCOC(=O)c1ccc(-c2c3nc(c(-c4c(F)c(F)c(F)c(F)c4F)c4ccc([nH]4)c(-c4c(F)c(F)c(F)c(F)c4F)c4nc(c(-c5c(F)c(F)c(F)c(F)c5F)c5ccc2[nH]5)C=C4)C=C3)cc1
REMARK SMILES IDX 24 1 23 2 21 3 22 4 20 5 8 6 9 7 10 8 19 9 18 10 6 11 7 12
REMARK SMILES IDX 5 13 2 14 1 15 3 16 4 17 11 18 12 19 17 20 13 21 15 22 14 23
REMARK SMILES IDX 16 24 25 25 26 26 27 27 28 28 29 29 30 30 91 31 31 32 90 33
REMARK SMILES IDX 32 34 33 35 34 36 84 37 35 38 89 39 83 40 85 41 36 42 88 43
REMARK SMILES IDX 82 44 81 45 37 47 69 48 49 49 68 50 50 51 53 52 67 53 86 54
REMARK SMILES IDX 51 55 52 56 66 58 87 59 54 60 38 61 39 62 47 63 40 64 41 65
REMARK SMILES IDX 45 66 48 67 42 68 43 69 46 70 44 71 70 72 71 73 79 74 72 75
REMARK SMILES IDX 73 76 77 77 80 78 74 79 75 80 78 81 76 82 55 83 56 84 64 85
REMARK SMILES IDX 57 86 58 87 62 88 65 89 59 90 60 91 63 92 61 93
REMARK H PARENT 85 46 53 57
REMARK Flexibility Score: inf
ROOT
ATOM      1  C   UNL A   1      31.863  28.653  27.220  1.00  0.00     0.274 C 
ENDROOT
BRANCH   1   2
ATOM      2  O   UNL A   1      32.968  27.965  26.600  1.00  0.00    -0.461 OA
BRANCH   2   3
ATOM      3  C   UNL A   1      32.620  26.917  25.805  1.00  0.00     0.329 C 
ATOM      4  O   UNL A   1      31.662  26.182  26.028  1.00  0.00    -0.250 OA
BRANCH   3   5
ATOM      5  C   UNL A   1      33.474  26.824  24.521  1.00  0.00     0.198 C 
ATOM      6  N   UNL A   1      32.865  26.097  23.411  1.00  0.00    -0.294 N 
ATOM      7  C   UNL A   1      31.588  26.614  22.958  1.00  0.00     0.132 C 
ATOM      8  C   UNL A   1      31.596  28.122  22.609  1.00  0.00     0.039 C 
ATOM      9  C   UNL A   1      33.779  28.234  23.990  1.00  0.00     0.038 C 
ATOM     10  C   UNL A   1      32.496  28.951  23.560  1.00  0.00     0.013 C 
BRANCH   6  11
ATOM     11  C   UNL A   1      33.506  25.118  22.680  1.00  0.00     0.411 C 
ATOM     12  O   UNL A   1      33.278  24.933  21.494  1.00  0.00    -0.224 OA
BRANCH  11  13
ATOM     13  O   UNL A   1      34.362  24.373  23.430  1.00  0.00    -0.444 OA
BRANCH  13  14
ATOM     14  C   UNL A   1      33.917  23.111  24.007  1.00  0.00     0.106 C 
ATOM     15  C   UNL A   1      35.165  22.214  24.068  1.00  0.00     0.056 C 
ATOM     16  C   UNL A   1      32.885  22.461  23.082  1.00  0.00     0.056 C 
ATOM     17  C   UNL A   1      33.387  23.251  25.445  1.00  0.00     0.056 C 
ENDBRANCH  13  14
ENDBRANCH  11  13
ENDBRANCH   6  11
BRANCH   8  18
ATOM     18  C   UNL A   1      30.192  28.741  22.558  1.00  0.00    -0.042 A 
ATOM     19  C   UNL A   1      29.125  28.084  23.195  1.00  0.00     0.004 A 
ATOM     20  C   UNL A   1      29.903  29.931  21.867  1.00  0.00     0.024 A 
ATOM     21  C   UNL A   1      27.819  28.577  23.111  1.00  0.00     0.002 A 
ATOM     22  C   UNL A   1      28.598  30.419  21.783  1.00  0.00     0.041 A 
ATOM     23  C   UNL A   1      27.553  29.743  22.400  1.00  0.00     0.020 A 
ATOM     24  Cl  UNL A   1      28.286  31.861  20.896  1.00  0.00    -0.084 Cl
ENDBRANCH   8  18
ENDBRANCH   3   5
ENDBRANCH   2   3
ENDBRANCH   1   2
BRANCH   1  25
ATOM     25  C   UNL A   1      31.825  30.151  26.875  1.00  0.00     0.275 C 
BRANCH  25  26
ATOM     26  O   UNL A   1      33.115  30.677  26.498  1.00  0.00    -0.458 OA
BRANCH  26  27
ATOM     27  C   UNL A   1      33.560  31.709  27.255  1.00  0.00     0.338 C 
ATOM     28  O   UNL A   1      32.946  32.722  27.546  1.00  0.00    -0.246 OA
BRANCH  27  29
ATOM     29  C   UNL A   1      34.855  31.374  27.875  1.00  0.00     0.060 A 
ATOM     30  C   UNL A   1      35.009  30.079  28.376  1.00  0.00     0.016 A 
ATOM     31  C   UNL A   1      35.869  32.313  28.048  1.00  0.00     0.016 A 
ATOM     32  C   UNL A   1      36.172  29.696  29.028  1.00  0.00     0.010 A 
ATOM     33  C   UNL A   1      37.037  31.939  28.727  1.00  0.00     0.010 A 
ATOM     34  C   UNL A   1      37.192  30.629  29.224  1.00  0.00    -0.014 A 
BRANCH  34  35
ATOM     35  C   UNL A   1      38.364  30.246  30.045  1.00  0.00     0.031 A 
ATOM     36  C   UNL A   1      39.390  29.318  29.468  1.00  0.00     0.074 A 
ATOM     37  C   UNL A   1      38.536  30.772  31.271  1.00  0.00     0.049 A 
ATOM     38  N   UNL A   1      40.439  28.780  30.037  1.00  0.00    -0.248 NA
ATOM     39  C   UNL A   1      39.213  28.947  28.055  1.00  0.00     0.031 C 
ATOM     40  C   UNL A   1      37.651  31.750  31.902  1.00  0.00     0.029 A 
ATOM     41  N   UNL A   1      39.514  30.550  32.208  1.00  0.00    -0.354 N 
ATOM     42  C   UNL A   1      41.029  27.986  29.063  1.00  0.00     0.074 A 
ATOM     43  C   UNL A   1      40.214  28.099  27.872  1.00  0.00     0.031 C 
ATOM     44  C   UNL A   1      38.122  32.038  33.127  1.00  0.00     0.029 A 
ATOM     45  C   UNL A   1      39.305  31.224  33.387  1.00  0.00     0.049 A 
ATOM     46  H   UNL A   1      40.290  29.965  32.049  1.00  0.00     0.167 HD
ATOM     47  C   UNL A   1      42.150  27.232  29.159  1.00  0.00     0.037 A 
ATOM     48  C   UNL A   1      39.972  31.154  34.555  1.00  0.00     0.037 A 
ATOM     49  C   UNL A   1      42.957  27.138  30.348  1.00  0.00     0.049 A 
ATOM     50  C   UNL A   1      41.162  30.237  34.665  1.00  0.00     0.074 A 
ATOM     51  C   UNL A   1      44.114  26.405  30.550  1.00  0.00     0.029 A 
ATOM     52  N   UNL A   1      42.689  27.796  31.541  1.00  0.00    -0.354 N 
ATOM     53  N   UNL A   1      41.708  29.473  33.749  1.00  0.00    -0.248 NA
ATOM     54  C   UNL A   1      41.826  30.168  35.974  1.00  0.00     0.031 C 
ATOM     55  C   UNL A   1      44.509  26.571  31.881  1.00  0.00     0.029 A 
ATOM     56  C   UNL A   1      43.641  27.463  32.491  1.00  0.00     0.049 A 
ATOM     57  H   UNL A   1      41.933  28.409  31.688  1.00  0.00     0.167 HD
ATOM     58  C   UNL A   1      42.795  28.860  34.359  1.00  0.00     0.074 A 
ATOM     59  C   UNL A   1      42.839  29.352  35.721  1.00  0.00     0.031 C 
ATOM     60  C   UNL A   1      43.676  27.970  33.840  1.00  0.00     0.037 A 
BRANCH  47  61
ATOM     61  C   UNL A   1      42.540  26.412  27.963  1.00  0.00     0.064 A 
ATOM     62  C   UNL A   1      42.011  25.134  27.732  1.00  0.00     0.173 A 
ATOM     63  C   UNL A   1      43.447  26.925  27.023  1.00  0.00     0.173 A 
ATOM     64  F   UNL A   1      41.152  24.588  28.606  1.00  0.00    -0.203 F 
ATOM     65  C   UNL A   1      42.398  24.389  26.619  1.00  0.00     0.198 A 
ATOM     66  C   UNL A   1      43.805  26.193  25.895  1.00  0.00     0.198 A 
ATOM     67  F   UNL A   1      43.982  28.144  27.195  1.00  0.00    -0.203 F 
ATOM     68  F   UNL A   1      41.921  23.148  26.447  1.00  0.00    -0.200 F 
ATOM     69  C   UNL A   1      43.289  24.921  25.699  1.00  0.00     0.200 A 
ATOM     70  F   UNL A   1      44.655  26.716  25.000  1.00  0.00    -0.200 F 
ATOM     71  F   UNL A   1      43.655  24.206  24.627  1.00  0.00    -0.200 F 
ENDBRANCH  47  61
BRANCH  48  72
ATOM     72  C   UNL A   1      39.510  31.948  35.726  1.00  0.00     0.064 A 
ATOM     73  C   UNL A   1      38.514  31.462  36.583  1.00  0.00     0.173 A 
ATOM     74  C   UNL A   1      40.040  33.218  35.998  1.00  0.00     0.173 A 
ATOM     75  F   UNL A   1      37.955  30.265  36.350  1.00  0.00    -0.203 F 
ATOM     76  C   UNL A   1      38.050  32.224  37.653  1.00  0.00     0.198 A 
ATOM     77  C   UNL A   1      39.600  33.965  37.089  1.00  0.00     0.198 A 
ATOM     78  F   UNL A   1      40.993  33.734  35.208  1.00  0.00    -0.203 F 
ATOM     79  F   UNL A   1      37.058  31.758  38.424  1.00  0.00    -0.200 F 
ATOM     80  C   UNL A   1      38.598  33.472  37.910  1.00  0.00     0.200 A 
ATOM     81  F   UNL A   1      40.144  35.164  37.341  1.00  0.00    -0.200 F 
ATOM     82  F   UNL A   1      38.155  34.203  38.942  1.00  0.00    -0.200 F 
ENDBRANCH  48  72
BRANCH  60  83
ATOM     83  C   UNL A   1      44.795  27.507  34.730  1.00  0.00     0.064 A 
ATOM     84  C   UNL A   1      46.026  28.177  34.785  1.00  0.00     0.173 A 
ATOM     85  C   UNL A   1      44.615  26.397  35.572  1.00  0.00     0.173 A 
ATOM     86  F   UNL A   1      46.255  29.233  33.991  1.00  0.00    -0.203 F 
ATOM     87  C   UNL A   1      47.044  27.736  35.628  1.00  0.00     0.198 A 
ATOM     88  C   UNL A   1      45.622  25.982  36.438  1.00  0.00     0.198 A 
ATOM     89  F   UNL A   1      43.455  25.724  35.565  1.00  0.00    -0.203 F 
ATOM     90  F   UNL A   1      48.231  28.359  35.623  1.00  0.00    -0.200 F 
ATOM     91  C   UNL A   1      46.839  26.646  36.459  1.00  0.00     0.200 A 
ATOM     92  F   UNL A   1      45.414  24.939  37.254  1.00  0.00    -0.200 F 
ATOM     93  F   UNL A   1      47.816  26.230  37.276  1.00  0.00    -0.200 F 
ENDBRANCH  60  83
ENDBRANCH  34  35
ENDBRANCH  27  29
ENDBRANCH  26  27
ENDBRANCH  25  26
ENDBRANCH   1  25
TORSDOF 15
ENDMDL
MODEL 2
REMARK VINA RESULT:     -12.5      0.423      1.246
REMARK SMILES CC(C)(C)OC(=O)N1C[C@@H](c2cccc(Cl)c2)CC[C@H]1C(=O)OCCOC(=O)c1ccc(-c2c3nc(c(-c4c(F)c(F)c(F)c(F)c4F)c4ccc([nH]4)c(-c4c(F)c(F)c(F)c(F)c4F)c4nc(c(-c5c(F)c(F)c(F)c(F)c5F)c5ccc2[nH]5)C=C4)C=C3)cc1
REMARK SMILES IDX 24 1 23 2 21 3 22 4 20 5 8 6 9 7 10 8 19 9 18 10 6 11 7 12
REMARK SMILES IDX 5 13 2 14 1 15 3 16 4 17 11 18 12 19 17 20 13 21 15 22 14 23
REMARK SMILES IDX 16 24 25 25 26 26 27 27 28 28 29 29 30 30 91 31 31 32 90 33
REMARK SMILES IDX 32 34 33 35 34 36 84 37 35 38 89 39 83 40 85 41 36 42 88 43
REMARK SMILES IDX 82 44 81 45 37 47 69 48 49 49 68 50 50 51 53 52 67 53 86 54
REMARK SMILES IDX 51 55 52 56 66 58 87 59 54 60 38 61 39 62 47 63 40 64 41 65
REMARK SMILES IDX 45 66 48 67 42 68 43 69 46 70 44 71 70 72 71 73 79 74 72 75
REMARK SMILES IDX 73 76 77 77 80 78 74 79 75 80 78 81 76 82 55 83 56 84 64 85
REMARK SMILES IDX 57 86 58 87 62 88 65 89 59 90 60 91 63 92 61 93
REMARK H PARENT 85 46 53 57
REMARK Flexibility Score: inf
ROOT
ATOM      1  C   UNL A   1      31.797  28.729  27.251  1.00  0.00     0.274 C 
ENDROOT
BRANCH   1   2
ATOM      2  O   UNL A   1      32.772  27.915  26.570  1.00  0.00    -0.461 OA
BRANCH   2   3
ATOM      3  C   UNL A   1      32.257  26.871  25.865  1.00  0.00     0.329 C 
ATOM      4  O   UNL A   1      31.233  26.274  26.183  1.00  0.00    -0.250 OA
BRANCH   3   5
ATOM      5  C   UNL A   1      33.022  26.595  24.551  1.00  0.00     0.198 C 
ATOM      6  N   UNL A   1      32.271  25.878  23.525  1.00  0.00    -0.294 N 
ATOM      7  C   UNL A   1      31.041  26.515  23.098  1.00  0.00     0.132 C 
ATOM      8  C   UNL A   1      31.205  27.987  22.646  1.00  0.00     0.039 C 
ATOM      9  C   UNL A   1      33.460  27.922  23.911  1.00  0.00     0.038 C 
ATOM     10  C   UNL A   1      32.248  28.759  23.493  1.00  0.00     0.013 C 
BRANCH   6  11
ATOM     11  C   UNL A   1      32.752  24.785  22.834  1.00  0.00     0.411 C 
ATOM     12  O   UNL A   1      33.665  24.873  22.026  1.00  0.00    -0.224 OA
BRANCH  11  13
ATOM     13  O   UNL A   1      32.076  23.639  23.116  1.00  0.00    -0.444 OA
BRANCH  13  14
ATOM     14  C   UNL A   1      32.600  22.706  24.104  1.00  0.00     0.106 C 
ATOM     15  C   UNL A   1      32.519  21.315  23.453  1.00  0.00     0.056 C 
ATOM     16  C   UNL A   1      31.709  22.724  25.348  1.00  0.00     0.056 C 
ATOM     17  C   UNL A   1      34.077  22.957  24.457  1.00  0.00     0.056 C 
ENDBRANCH  13  14
ENDBRANCH  11  13
ENDBRANCH   6  11
BRANCH   8  18
ATOM     18  C   UNL A   1      29.884  28.765  22.619  1.00  0.00    -0.042 A 
ATOM     19  C   UNL A   1      28.734  28.194  23.193  1.00  0.00     0.004 A 
ATOM     20  C   UNL A   1      29.747  30.026  22.010  1.00  0.00     0.024 A 
ATOM     21  C   UNL A   1      27.495  28.839  23.126  1.00  0.00     0.002 A 
ATOM     22  C   UNL A   1      28.509  30.666  21.943  1.00  0.00     0.041 A 
ATOM     23  C   UNL A   1      27.380  30.075  22.495  1.00  0.00     0.020 A 
ATOM     24  Cl  UNL A   1      28.383  32.192  21.155  1.00  0.00    -0.084 Cl
ENDBRANCH   8  18
ENDBRANCH   3   5
ENDBRANCH   2   3
ENDBRANCH   1   2
BRANCH   1  25
ATOM     25  C   UNL A   1      31.777  30.182  26.748  1.00  0.00     0.275 C 
BRANCH  25  26
ATOM     26  O   UNL A   1      33.093  30.695  26.450  1.00  0.00    -0.458 OA
BRANCH  26  27
ATOM     27  C   UNL A   1      33.512  31.706  27.249  1.00  0.00     0.338 C 
ATOM     28  O   UNL A   1      32.876  32.697  27.572  1.00  0.00    -0.246 OA
BRANCH  27  29
ATOM     29  C   UNL A   1      34.807  31.372  27.870  1.00  0.00     0.060 A 
ATOM     30  C   UNL A   1      34.961  30.079  28.376  1.00  0.00     0.016 A 
ATOM     31  C   UNL A   1      35.822  32.311  28.037  1.00  0.00     0.016 A 
ATOM     32  C   UNL A   1      36.124  29.698  29.028  1.00  0.00     0.010 A 
ATOM     33  C   UNL A   1      36.991  31.938  28.717  1.00  0.00     0.010 A 
ATOM     34  C   UNL A   1      37.144  30.631  29.219  1.00  0.00    -0.014 A 
BRANCH  34  35
ATOM     35  C   UNL A   1      38.318  30.250  30.040  1.00  0.00     0.031 A 
ATOM     36  C   UNL A   1      39.337  29.311  29.469  1.00  0.00     0.074 A 
ATOM     37  C   UNL A   1      38.495  30.787  31.261  1.00  0.00     0.049 A 
ATOM     38  N   UNL A   1      40.385  28.773  30.040  1.00  0.00    -0.248 NA
ATOM     39  C   UNL A   1      39.154  28.927  28.061  1.00  0.00     0.031 C 
ATOM     40  C   UNL A   1      37.617  31.776  31.885  1.00  0.00     0.029 A 
ATOM     41  N   UNL A   1      39.475  30.569  32.197  1.00  0.00    -0.354 N 
ATOM     42  C   UNL A   1      40.968  27.966  29.073  1.00  0.00     0.074 A 
ATOM     43  C   UNL A   1      40.150  28.071  27.883  1.00  0.00     0.031 C 
ATOM     44  C   UNL A   1      38.094  32.073  33.105  1.00  0.00     0.029 A 
ATOM     45  C   UNL A   1      39.274  31.256  33.369  1.00  0.00     0.049 A 
ATOM     46  H   UNL A   1      40.248  29.979  32.042  1.00  0.00     0.167 HD
ATOM     47  C   UNL A   1      42.085  27.208  29.173  1.00  0.00     0.037 A 
ATOM     48  C   UNL A   1      39.944  31.195  34.536  1.00  0.00     0.037 A 
ATOM     49  C   UNL A   1      42.896  27.121  30.360  1.00  0.00     0.049 A 
ATOM     50  C   UNL A   1      41.130  30.272  34.652  1.00  0.00     0.074 A 
ATOM     51  C   UNL A   1      44.050  26.385  30.566  1.00  0.00     0.029 A 
ATOM     52  N   UNL A   1      42.634  27.792  31.547  1.00  0.00    -0.354 N 
ATOM     53  N   UNL A   1      41.669  29.497  33.742  1.00  0.00    -0.248 NA
ATOM     54  C   UNL A   1      41.796  30.213  35.959  1.00  0.00     0.031 C 
ATOM     55  C   UNL A   1      44.449  26.562  31.894  1.00  0.00     0.029 A 
ATOM     56  C   UNL A   1      43.588  27.464  32.498  1.00  0.00     0.049 A 
ATOM     57  H   UNL A   1      41.882  28.411  31.691  1.00  0.00     0.167 HD
ATOM     58  C   UNL A   1      42.754  28.884  34.355  1.00  0.00     0.074 A 
ATOM     59  C   UNL A   1      42.805  29.389  35.711  1.00  0.00     0.031 C 
ATOM     60  C   UNL A   1      43.630  27.984  33.841  1.00  0.00     0.037 A 
BRANCH  47  61
ATOM     61  C   UNL A   1      42.467  26.374  27.984  1.00  0.00     0.064 A 
ATOM     62  C   UNL A   1      41.942  25.090  27.775  1.00  0.00     0.173 A 
ATOM     63  C   UNL A   1      43.363  26.879  27.029  1.00  0.00     0.173 A 
ATOM     64  F   UNL A   1      41.094  24.552  28.664  1.00  0.00    -0.203 F 
ATOM     65  C   UNL A   1      42.321  24.333  26.668  1.00  0.00     0.198 A 
ATOM     66  C   UNL A   1      43.714  26.134  25.907  1.00  0.00     0.198 A 
ATOM     67  F   UNL A   1      43.894  28.102  27.179  1.00  0.00    -0.203 F 
ATOM     68  F   UNL A   1      41.849  23.088  26.517  1.00  0.00    -0.200 F 
ATOM     69  C   UNL A   1      43.201  24.857  25.732  1.00  0.00     0.200 A 
ATOM     70  F   UNL A   1      44.552  26.649  24.997  1.00  0.00    -0.200 F 
ATOM     71  F   UNL A   1      43.560  24.129  24.666  1.00  0.00    -0.200 F 
ENDBRANCH  47  61
BRANCH  48  72
ATOM     72  C   UNL A   1      39.489  32.002  35.700  1.00  0.00     0.064 A 
ATOM     73  C   UNL A   1      40.054  33.254  35.979  1.00  0.00     0.173 A 
ATOM     74  C   UNL A   1      38.495  31.529  36.570  1.00  0.00     0.173 A 
ATOM     75  F   UNL A   1      41.027  33.740  35.193  1.00  0.00    -0.203 F 
ATOM     76  C   UNL A   1      39.659  33.990  37.094  1.00  0.00     0.198 A 
ATOM     77  C   UNL A   1      38.077  32.281  37.666  1.00  0.00     0.198 A 
ATOM     78  F   UNL A   1      37.923  30.336  36.353  1.00  0.00    -0.203 F 
ATOM     79  F   UNL A   1      40.255  35.158  37.368  1.00  0.00    -0.200 F 
ATOM     80  C   UNL A   1      38.666  33.506  37.933  1.00  0.00     0.200 A 
ATOM     81  F   UNL A   1      37.106  31.815  38.464  1.00  0.00    -0.200 F 
ATOM     82  F   UNL A   1      38.284  34.216  39.003  1.00  0.00    -0.200 F 
ENDBRANCH  48  72
BRANCH  60  83
ATOM     83  C   UNL A   1      44.749  27.524  34.733  1.00  0.00     0.064 A 
ATOM     84  C   UNL A   1      45.953  28.235  34.840  1.00  0.00     0.173 A 
ATOM     85  C   UNL A   1      44.595  26.374  35.524  1.00  0.00     0.173 A 
ATOM     86  F   UNL A   1      46.156  29.333  34.096  1.00  0.00    -0.203 F 
ATOM     87  C   UNL A   1      46.971  27.796  35.683  1.00  0.00     0.198 A 
ATOM     88  C   UNL A   1      45.600  25.959  36.391  1.00  0.00     0.198 A 
ATOM     89  F   UNL A   1      43.460  25.661  35.467  1.00  0.00    -0.203 F 
ATOM     90  F   UNL A   1      48.134  28.462  35.727  1.00  0.00    -0.200 F 
ATOM     91  C   UNL A   1      46.792  26.665  36.464  1.00  0.00     0.200 A 
ATOM     92  F   UNL A   1      45.417  24.875  37.159  1.00  0.00    -0.200 F 
ATOM     93  F   UNL A   1      47.769  26.251  37.281  1.00  0.00    -0.200 F 
ENDBRANCH  60  83
ENDBRANCH  34  35
ENDBRANCH  27  29
ENDBRANCH  26  27
ENDBRANCH  25  26
ENDBRANCH   1  25
TORSDOF 15
ENDMDL
MODEL 3
REMARK VINA RESULT:     -12.4      4.670     10.274
REMARK SMILES CC(C)(C)OC(=O)N1C[C@@H](c2cccc(Cl)c2)CC[C@H]1C(=O)OCCOC(=O)c1ccc(-c2c3nc(c(-c4c(F)c(F)c(F)c(F)c4F)c4ccc([nH]4)c(-c4c(F)c(F)c(F)c(F)c4F)c4nc(c(-c5c(F)c(F)c(F)c(F)c5F)c5ccc2[nH]5)C=C4)C=C3)cc1
REMARK SMILES IDX 24 1 23 2 21 3 22 4 20 5 8 6 9 7 10 8 19 9 18 10 6 11 7 12
REMARK SMILES IDX 5 13 2 14 1 15 3 16 4 17 11 18 12 19 17 20 13 21 15 22 14 23
REMARK SMILES IDX 16 24 25 25 26 26 27 27 28 28 29 29 30 30 91 31 31 32 90 33
REMARK SMILES IDX 32 34 33 35 34 36 84 37 35 38 89 39 83 40 85 41 36 42 88 43
REMARK SMILES IDX 82 44 81 45 37 47 69 48 49 49 68 50 50 51 53 52 67 53 86 54
REMARK SMILES IDX 51 55 52 56 66 58 87 59 54 60 38 61 39 62 47 63 40 64 41 65
REMARK SMILES IDX 45 66 48 67 42 68 43 69 46 70 44 71 70 72 71 73 79 74 72 75
REMARK SMILES IDX 73 76 77 77 80 78 74 79 75 80 78 81 76 82 55 83 56 84 64 85
REMARK SMILES IDX 57 86 58 87 62 88 65 89 59 90 60 91 63 92 61 93
REMARK H PARENT 85 46 53 57
REMARK Flexibility Score: inf
ROOT
ATOM      1  C   UNL A   1      35.612  33.632  28.817  1.00  0.00     0.274 C 
ENDROOT
BRANCH   1   2
ATOM      2  O   UNL A   1      36.644  33.081  29.660  1.00  0.00    -0.461 OA
BRANCH   2   3
ATOM      3  C   UNL A   1      37.322  33.992  30.409  1.00  0.00     0.329 C 
ATOM      4  O   UNL A   1      38.368  34.525  30.050  1.00  0.00    -0.250 OA
BRANCH   3   5
ATOM      5  C   UNL A   1      36.575  34.386  31.703  1.00  0.00     0.198 C 
ATOM      6  N   UNL A   1      35.678  33.370  32.246  1.00  0.00    -0.294 N 
ATOM      7  C   UNL A   1      36.301  32.099  32.561  1.00  0.00     0.132 C 
ATOM      8  C   UNL A   1      37.538  32.205  33.487  1.00  0.00     0.039 C 
ATOM      9  C   UNL A   1      37.586  34.702  32.816  1.00  0.00     0.038 C 
ATOM     10  C   UNL A   1      38.399  33.460  33.193  1.00  0.00     0.013 C 
BRANCH   6  11
ATOM     11  C   UNL A   1      34.379  33.613  32.640  1.00  0.00     0.411 C 
ATOM     12  O   UNL A   1      33.908  33.142  33.664  1.00  0.00    -0.224 OA
BRANCH  11  13
ATOM     13  O   UNL A   1      33.690  34.379  31.752  1.00  0.00    -0.444 OA
BRANCH  13  14
ATOM     14  C   UNL A   1      33.175  35.681  32.157  1.00  0.00     0.106 C 
ATOM     15  C   UNL A   1      33.233  36.564  30.899  1.00  0.00     0.056 C 
ATOM     16  C   UNL A   1      34.089  36.282  33.227  1.00  0.00     0.056 C 
ATOM     17  C   UNL A   1      31.707  35.640  32.616  1.00  0.00     0.056 C 
ENDBRANCH  13  14
ENDBRANCH  11  13
ENDBRANCH   6  11
BRANCH   8  18
ATOM     18  C   UNL A   1      38.426  30.953  33.459  1.00  0.00    -0.042 A 
ATOM     19  C   UNL A   1      39.709  31.005  34.031  1.00  0.00     0.004 A 
ATOM     20  C   UNL A   1      38.034  29.747  32.850  1.00  0.00     0.024 A 
ATOM     21  C   UNL A   1      40.576  29.909  33.962  1.00  0.00     0.002 A 
ATOM     22  C   UNL A   1      38.902  28.657  32.782  1.00  0.00     0.041 A 
ATOM     23  C   UNL A   1      40.175  28.735  33.332  1.00  0.00     0.020 A 
ATOM     24  Cl  UNL A   1      38.391  27.213  31.995  1.00  0.00    -0.084 Cl
ENDBRANCH   8  18
ENDBRANCH   3   5
ENDBRANCH   2   3
ENDBRANCH   1   2
BRANCH   1  25
ATOM     25  C   UNL A   1      34.359  32.744  28.752  1.00  0.00     0.275 C 
BRANCH  25  26
ATOM     26  O   UNL A   1      34.303  31.931  27.561  1.00  0.00    -0.458 OA
BRANCH  26  27
ATOM     27  C   UNL A   1      34.315  30.593  27.776  1.00  0.00     0.338 C 
ATOM     28  O   UNL A   1      33.371  29.826  27.678  1.00  0.00    -0.246 OA
BRANCH  27  29
ATOM     29  C   UNL A   1      35.697  30.112  27.963  1.00  0.00     0.060 A 
ATOM     30  C   UNL A   1      36.048  29.654  29.235  1.00  0.00     0.016 A 
ATOM     31  C   UNL A   1      36.657  30.181  26.956  1.00  0.00     0.016 A 
ATOM     32  C   UNL A   1      37.342  29.239  29.515  1.00  0.00     0.010 A 
ATOM     33  C   UNL A   1      37.972  29.784  27.240  1.00  0.00     0.010 A 
ATOM     34  C   UNL A   1      38.321  29.317  28.523  1.00  0.00    -0.014 A 
BRANCH  34  35
ATOM     35  C   UNL A   1      39.725  29.005  28.877  1.00  0.00     0.031 A 
ATOM     36  C   UNL A   1      40.522  30.004  29.661  1.00  0.00     0.074 A 
ATOM     37  C   UNL A   1      40.260  27.814  28.550  1.00  0.00     0.049 A 
ATOM     38  N   UNL A   1      41.787  29.980  29.997  1.00  0.00    -0.248 NA
ATOM     39  C   UNL A   1      39.794  31.191  30.134  1.00  0.00     0.031 C 
ATOM     40  C   UNL A   1      39.555  26.731  27.865  1.00  0.00     0.029 A 
ATOM     41  N   UNL A   1      41.525  27.320  28.747  1.00  0.00    -0.354 N 
ATOM     42  C   UNL A   1      42.013  31.159  30.693  1.00  0.00     0.074 A 
ATOM     43  C   UNL A   1      40.761  31.884  30.719  1.00  0.00     0.031 C 
ATOM     44  C   UNL A   1      40.401  25.702  27.692  1.00  0.00     0.029 A 
ATOM     45  C   UNL A   1      41.718  26.075  28.199  1.00  0.00     0.049 A 
ATOM     46  H   UNL A   1      42.226  27.811  29.235  1.00  0.00     0.167 HD
ATOM     47  C   UNL A   1      43.164  31.593  31.259  1.00  0.00     0.037 A 
ATOM     48  C   UNL A   1      42.842  25.343  28.085  1.00  0.00     0.037 A 
ATOM     49  C   UNL A   1      44.401  30.855  31.235  1.00  0.00     0.049 A 
ATOM     50  C   UNL A   1      44.132  25.889  28.641  1.00  0.00     0.074 A 
ATOM     51  C   UNL A   1      45.625  31.204  31.781  1.00  0.00     0.029 A 
ATOM     52  N   UNL A   1      44.573  29.619  30.628  1.00  0.00    -0.354 N 
ATOM     53  N   UNL A   1      44.348  27.012  29.284  1.00  0.00    -0.248 NA
ATOM     54  C   UNL A   1      45.335  25.068  28.451  1.00  0.00     0.031 C 
ATOM     55  C   UNL A   1      46.549  30.208  31.450  1.00  0.00     0.029 A 
ATOM     56  C   UNL A   1      45.889  29.204  30.760  1.00  0.00     0.049 A 
ATOM     57  H   UNL A   1      43.863  29.111  30.171  1.00  0.00     0.167 HD
ATOM     58  C   UNL A   1      45.700  27.017  29.602  1.00  0.00     0.074 A 
ATOM     59  C   UNL A   1      46.251  25.778  29.094  1.00  0.00     0.031 C 
ATOM     60  C   UNL A   1      46.420  27.962  30.256  1.00  0.00     0.037 A 
BRANCH  47  61
ATOM     61  C   UNL A   1      43.153  32.948  31.907  1.00  0.00     0.064 A 
ATOM     62  C   UNL A   1      43.027  33.108  33.295  1.00  0.00     0.173 A 
ATOM     63  C   UNL A   1      43.289  34.104  31.124  1.00  0.00     0.173 A 
ATOM     64  F   UNL A   1      42.878  32.038  34.089  1.00  0.00    -0.203 F 
ATOM     65  C   UNL A   1      43.008  34.377  33.870  1.00  0.00     0.198 A 
ATOM     66  C   UNL A   1      43.305  35.369  31.704  1.00  0.00     0.198 A 
ATOM     67  F   UNL A   1      43.416  34.007  29.791  1.00  0.00    -0.203 F 
ATOM     68  F   UNL A   1      42.832  34.509  35.192  1.00  0.00    -0.200 F 
ATOM     69  C   UNL A   1      43.154  35.506  33.076  1.00  0.00     0.200 A 
ATOM     70  F   UNL A   1      43.461  36.456  30.936  1.00  0.00    -0.200 F 
ATOM     71  F   UNL A   1      43.142  36.725  33.632  1.00  0.00    -0.200 F 
ENDBRANCH  47  61
BRANCH  48  72
ATOM     72  C   UNL A   1      42.809  24.030  27.385  1.00  0.00     0.064 A 
ATOM     73  C   UNL A   1      42.463  22.855  28.065  1.00  0.00     0.173 A 
ATOM     74  C   UNL A   1      43.144  23.922  26.026  1.00  0.00     0.173 A 
ATOM     75  F   UNL A   1      42.162  22.900  29.371  1.00  0.00    -0.203 F 
ATOM     76  C   UNL A   1      42.475  21.620  27.419  1.00  0.00     0.198 A 
ATOM     77  C   UNL A   1      43.122  22.692  25.373  1.00  0.00     0.198 A 
ATOM     78  F   UNL A   1      43.486  25.015  25.328  1.00  0.00    -0.203 F 
ATOM     79  F   UNL A   1      42.195  20.505  28.107  1.00  0.00    -0.200 F 
ATOM     80  C   UNL A   1      42.798  21.540  26.073  1.00  0.00     0.200 A 
ATOM     81  F   UNL A   1      43.420  22.622  24.068  1.00  0.00    -0.200 F 
ATOM     82  F   UNL A   1      42.806  20.353  25.452  1.00  0.00    -0.200 F 
ENDBRANCH  48  72
BRANCH  60  83
ATOM     83  C   UNL A   1      47.874  27.673  30.504  1.00  0.00     0.064 A 
ATOM     84  C   UNL A   1      48.880  28.139  29.646  1.00  0.00     0.173 A 
ATOM     85  C   UNL A   1      48.266  26.952  31.645  1.00  0.00     0.173 A 
ATOM     86  F   UNL A   1      48.559  28.820  28.536  1.00  0.00    -0.203 F 
ATOM     87  C   UNL A   1      50.222  27.868  29.904  1.00  0.00     0.198 A 
ATOM     88  C   UNL A   1      49.609  26.715  31.917  1.00  0.00     0.198 A 
ATOM     89  F   UNL A   1      47.344  26.490  32.503  1.00  0.00    -0.203 F 
ATOM     90  F   UNL A   1      51.163  28.276  29.040  1.00  0.00    -0.200 F 
ATOM     91  C   UNL A   1      50.586  27.165  31.042  1.00  0.00     0.200 A 
ATOM     92  F   UNL A   1      49.959  26.051  33.028  1.00  0.00    -0.200 F 
ATOM     93  F   UNL A   1      51.879  26.915  31.293  1.00  0.00    -0.200 F 
ENDBRANCH  60  83
ENDBRANCH  34  35
ENDBRANCH  27  29
ENDBRANCH  26  27
ENDBRANCH  25  26
ENDBRANCH   1  25
TORSDOF 15
ENDMDL
