MODEL 1
REMARK VINA RESULT:     -12.0      0.000      0.000
REMARK SMILES Cc1nn(C)c(N[C@@H]2C=C[C@H](C(=O)OCCOC(=O)c3ccc(-c4c5nc(c(-c6c(F)c(F)c(F)c(F)c6F)c6ccc([nH]6)c(-c6c(F)c(F)c(F)c(F)c6F)c6nc(c(-c7c(F)c(F)c(F)c(F)c7F)c7ccc4[nH]7)C=C6)C=C5)cc3)C2)c1C#N
REMARK SMILES IDX 15 1 14 2 12 3 13 4 11 5 8 6 9 7 83 8 10 9 7 10 6 12 1 13
REMARK SMILES IDX 2 14 3 15 84 16 4 17 5 18 85 19 86 20 16 21 17 22 18 23
REMARK SMILES IDX 19 24 20 25 21 26 82 27 22 28 81 29 23 30 24 31 25 32 75 33
REMARK SMILES IDX 26 34 80 35 74 36 76 37 27 38 79 39 73 40 72 41 28 43 60 44
REMARK SMILES IDX 40 45 59 46 41 47 44 48 58 49 77 50 42 51 43 52 57 54 78 55
REMARK SMILES IDX 45 56 29 57 30 58 38 59 31 60 32 61 36 62 39 63 33 64 34 65
REMARK SMILES IDX 37 66 35 67 61 68 62 69 70 70 63 71 64 72 68 73 71 74 65 75
REMARK SMILES IDX 66 76 69 77 67 78 46 79 47 80 55 81 48 82 49 83 53 84 56 85
REMARK SMILES IDX 50 86 51 87 54 88 52 89
REMARK H PARENT 7 11 76 42 44 53
REMARK Flexibility Score: inf
ROOT
ATOM      1  C   UNL A   1      37.041  21.715  24.135  1.00  0.00     0.274 C 
ENDROOT
BRANCH   1   2
ATOM      2  O   UNL A   1      36.872  23.113  24.467  1.00  0.00    -0.462 OA
BRANCH   2   3
ATOM      3  C   UNL A   1      35.585  23.577  24.445  1.00  0.00     0.312 C 
ATOM      4  O   UNL A   1      34.885  23.601  23.438  1.00  0.00    -0.252 OA
BRANCH   3   5
ATOM      5  C   UNL A   1      35.128  24.095  25.806  1.00  0.00     0.124 C 
ATOM      6  C   UNL A   1      33.200  22.832  26.662  1.00  0.00     0.104 C 
ATOM      7  C   UNL A   1      32.783  24.143  26.110  1.00  0.00    -0.006 C 
ATOM      8  C   UNL A   1      34.731  22.912  26.713  1.00  0.00     0.048 C 
ATOM      9  C   UNL A   1      33.839  24.870  25.712  1.00  0.00    -0.014 C 
BRANCH   6  10
ATOM     10  N   UNL A   1      32.638  21.638  26.055  1.00  0.00    -0.363 N 
ATOM     11  H   UNL A   1      32.345  20.999  26.745  1.00  0.00     0.162 HD
BRANCH  10  12
ATOM     12  C   UNL A   1      32.398  21.140  24.795  1.00  0.00     0.142 A 
ATOM     13  C   UNL A   1      32.290  18.551  22.125  1.00  0.00     0.070 C 
ATOM     14  C   UNL A   1      32.280  19.718  23.037  1.00  0.00     0.079 A 
ATOM     15  N   UNL A   1      32.027  20.919  22.537  1.00  0.00    -0.175 NA
ATOM     16  C   UNL A   1      32.478  19.790  24.431  1.00  0.00     0.117 A 
ATOM     17  N   UNL A   1      32.037  21.749  23.605  1.00  0.00    -0.251 N 
ATOM     18  C   UNL A   1      31.614  23.071  23.262  1.00  0.00     0.176 C 
BRANCH  16  19
ATOM     19  C   UNL A   1      32.691  18.683  25.293  1.00  0.00     0.105 C 
ATOM     20  N   UNL A   1      32.882  17.757  25.982  1.00  0.00    -0.192 NA
ENDBRANCH  16  19
ENDBRANCH  10  12
ENDBRANCH   6  10
ENDBRANCH   3   5
ENDBRANCH   2   3
ENDBRANCH   1   2
BRANCH   1  21
ATOM     21  C   UNL A   1      37.543  20.868  25.298  1.00  0.00     0.275 C 
BRANCH  21  22
ATOM     22  O   UNL A   1      38.836  21.294  25.707  1.00  0.00    -0.458 OA
BRANCH  22  23
ATOM     23  C   UNL A   1      39.759  20.311  25.771  1.00  0.00     0.338 C 
ATOM     24  O   UNL A   1      39.618  19.134  25.474  1.00  0.00    -0.246 OA
BRANCH  23  25
ATOM     25  C   UNL A   1      40.972  20.828  26.402  1.00  0.00     0.060 A 
ATOM     26  C   UNL A   1      40.980  20.789  27.798  1.00  0.00     0.016 A 
ATOM     27  C   UNL A   1      41.687  21.772  25.664  1.00  0.00     0.016 A 
ATOM     28  C   UNL A   1      41.394  21.920  28.454  1.00  0.00     0.010 A 
ATOM     29  C   UNL A   1      42.077  22.905  26.315  1.00  0.00     0.010 A 
ATOM     30  C   UNL A   1      41.811  23.007  27.680  1.00  0.00    -0.014 A 
BRANCH  30  31
ATOM     31  C   UNL A   1      42.202  24.235  28.330  1.00  0.00     0.031 A 
ATOM     32  C   UNL A   1      41.158  25.260  28.087  1.00  0.00     0.074 A 
ATOM     33  C   UNL A   1      43.278  24.285  29.144  1.00  0.00     0.049 A 
ATOM     34  N   UNL A   1      41.264  26.326  27.365  1.00  0.00    -0.248 NA
ATOM     35  C   UNL A   1      39.760  24.921  28.432  1.00  0.00     0.031 C 
ATOM     36  C   UNL A   1      44.181  23.192  29.526  1.00  0.00     0.029 A 
ATOM     37  N   UNL A   1      43.736  25.325  29.902  1.00  0.00    -0.354 N 
ATOM     38  C   UNL A   1      40.006  26.917  27.421  1.00  0.00     0.074 A 
ATOM     39  C   UNL A   1      39.089  25.887  27.807  1.00  0.00     0.031 C 
ATOM     40  C   UNL A   1      44.901  23.554  30.615  1.00  0.00     0.029 A 
ATOM     41  C   UNL A   1      44.609  24.937  30.931  1.00  0.00     0.049 A 
ATOM     42  H   UNL A   1      43.478  26.261  29.741  1.00  0.00     0.167 HD
ATOM     43  C   UNL A   1      39.907  28.266  27.556  1.00  0.00     0.037 A 
ATOM     44  C   UNL A   1      44.960  25.719  31.992  1.00  0.00     0.037 A 
ATOM     45  C   UNL A   1      41.129  28.895  27.114  1.00  0.00     0.049 A 
ATOM     46  C   UNL A   1      44.644  27.122  31.601  1.00  0.00     0.074 A 
ATOM     47  C   UNL A   1      41.819  28.934  25.918  1.00  0.00     0.029 A 
ATOM     48  N   UNL A   1      42.033  29.234  28.089  1.00  0.00    -0.354 N 
ATOM     49  N   UNL A   1      45.259  27.748  30.634  1.00  0.00    -0.248 NA
ATOM     50  C   UNL A   1      43.300  27.589  31.905  1.00  0.00     0.031 C 
ATOM     51  C   UNL A   1      43.196  28.857  26.280  1.00  0.00     0.029 A 
ATOM     52  C   UNL A   1      43.291  28.889  27.671  1.00  0.00     0.049 A 
ATOM     53  H   UNL A   1      41.814  29.656  28.951  1.00  0.00     0.167 HD
ATOM     54  C   UNL A   1      44.238  28.356  29.916  1.00  0.00     0.074 A 
ATOM     55  C   UNL A   1      43.052  28.242  30.766  1.00  0.00     0.031 C 
ATOM     56  C   UNL A   1      44.375  28.610  28.582  1.00  0.00     0.037 A 
BRANCH  43  57
ATOM     57  C   UNL A   1      38.952  28.936  28.523  1.00  0.00     0.064 A 
ATOM     58  C   UNL A   1      39.026  28.575  29.882  1.00  0.00     0.173 A 
ATOM     59  C   UNL A   1      37.793  29.664  28.158  1.00  0.00     0.173 A 
ATOM     60  F   UNL A   1      40.070  27.872  30.343  1.00  0.00    -0.203 F 
ATOM     61  C   UNL A   1      37.985  28.840  30.776  1.00  0.00     0.198 A 
ATOM     62  C   UNL A   1      36.781  29.969  29.064  1.00  0.00     0.198 A 
ATOM     63  F   UNL A   1      37.520  30.025  26.901  1.00  0.00    -0.203 F 
ATOM     64  F   UNL A   1      38.046  28.360  32.024  1.00  0.00    -0.200 F 
ATOM     65  C   UNL A   1      36.860  29.531  30.365  1.00  0.00     0.200 A 
ATOM     66  F   UNL A   1      35.691  30.622  28.634  1.00  0.00    -0.200 F 
ATOM     67  F   UNL A   1      35.835  29.731  31.203  1.00  0.00    -0.200 F 
ENDBRANCH  43  57
BRANCH  44  68
ATOM     68  C   UNL A   1      45.158  25.335  33.416  1.00  0.00     0.064 A 
ATOM     69  C   UNL A   1      44.065  25.096  34.274  1.00  0.00     0.173 A 
ATOM     70  C   UNL A   1      46.413  24.899  33.883  1.00  0.00     0.173 A 
ATOM     71  F   UNL A   1      42.823  25.422  33.889  1.00  0.00    -0.203 F 
ATOM     72  C   UNL A   1      44.220  24.448  35.508  1.00  0.00     0.198 A 
ATOM     73  C   UNL A   1      46.567  24.255  35.114  1.00  0.00     0.198 A 
ATOM     74  F   UNL A   1      47.503  24.999  33.110  1.00  0.00    -0.203 F 
ATOM     75  F   UNL A   1      43.148  24.188  36.270  1.00  0.00    -0.200 F 
ATOM     76  C   UNL A   1      45.470  24.020  35.922  1.00  0.00     0.200 A 
ATOM     77  F   UNL A   1      47.774  23.804  35.481  1.00  0.00    -0.200 F 
ATOM     78  F   UNL A   1      45.613  23.345  37.072  1.00  0.00    -0.200 F 
ENDBRANCH  44  68
BRANCH  56  79
ATOM     79  C   UNL A   1      45.737  28.435  27.967  1.00  0.00     0.064 A 
ATOM     80  C   UNL A   1      46.209  27.240  27.392  1.00  0.00     0.173 A 
ATOM     81  C   UNL A   1      46.525  29.581  27.806  1.00  0.00     0.173 A 
ATOM     82  F   UNL A   1      45.473  26.122  27.424  1.00  0.00    -0.203 F 
ATOM     83  C   UNL A   1      47.427  27.199  26.711  1.00  0.00     0.198 A 
ATOM     84  C   UNL A   1      47.720  29.545  27.096  1.00  0.00     0.198 A 
ATOM     85  F   UNL A   1      46.098  30.757  28.290  1.00  0.00    -0.203 F 
ATOM     86  F   UNL A   1      47.859  26.050  26.169  1.00  0.00    -0.200 F 
ATOM     87  C   UNL A   1      48.176  28.354  26.556  1.00  0.00     0.200 A 
ATOM     88  F   UNL A   1      48.411  30.677  26.906  1.00  0.00    -0.200 F 
ATOM     89  F   UNL A   1      49.323  28.328  25.863  1.00  0.00    -0.200 F 
ENDBRANCH  56  79
ENDBRANCH  30  31
ENDBRANCH  23  25
ENDBRANCH  22  23
ENDBRANCH  21  22
ENDBRANCH   1  21
TORSDOF 14
ENDMDL
MODEL 2
REMARK VINA RESULT:     -11.9      4.721      9.378
REMARK SMILES Cc1nn(C)c(N[C@@H]2C=C[C@H](C(=O)OCCOC(=O)c3ccc(-c4c5nc(c(-c6c(F)c(F)c(F)c(F)c6F)c6ccc([nH]6)c(-c6c(F)c(F)c(F)c(F)c6F)c6nc(c(-c7c(F)c(F)c(F)c(F)c7F)c7ccc4[nH]7)C=C6)C=C5)cc3)C2)c1C#N
REMARK SMILES IDX 15 1 14 2 12 3 13 4 11 5 8 6 9 7 83 8 10 9 7 10 6 12 1 13
REMARK SMILES IDX 2 14 3 15 84 16 4 17 5 18 85 19 86 20 16 21 17 22 18 23
REMARK SMILES IDX 19 24 20 25 21 26 82 27 22 28 81 29 23 30 24 31 25 32 75 33
REMARK SMILES IDX 26 34 80 35 74 36 76 37 27 38 79 39 73 40 72 41 28 43 60 44
REMARK SMILES IDX 40 45 59 46 41 47 44 48 58 49 77 50 42 51 43 52 57 54 78 55
REMARK SMILES IDX 45 56 29 57 30 58 38 59 31 60 32 61 36 62 39 63 33 64 34 65
REMARK SMILES IDX 37 66 35 67 61 68 62 69 70 70 63 71 64 72 68 73 71 74 65 75
REMARK SMILES IDX 66 76 69 77 67 78 46 79 47 80 55 81 48 82 49 83 53 84 56 85
REMARK SMILES IDX 50 86 51 87 54 88 52 89
REMARK H PARENT 7 11 76 42 44 53
REMARK Flexibility Score: inf
ROOT
ATOM      1  C   UNL A   1      32.291  29.173  27.236  1.00  0.00     0.274 C 
ENDROOT
BRANCH   1   2
ATOM      2  O   UNL A   1      31.345  28.266  26.625  1.00  0.00    -0.462 OA
BRANCH   2   3
ATOM      3  C   UNL A   1      31.799  27.584  25.529  1.00  0.00     0.312 C 
ATOM      4  O   UNL A   1      32.870  26.985  25.493  1.00  0.00    -0.252 OA
BRANCH   3   5
ATOM      5  C   UNL A   1      30.844  27.682  24.342  1.00  0.00     0.124 C 
ATOM      6  C   UNL A   1      30.205  25.462  23.502  1.00  0.00     0.104 C 
ATOM      7  C   UNL A   1      31.224  26.093  22.632  1.00  0.00    -0.006 C 
ATOM      8  C   UNL A   1      29.763  26.586  24.446  1.00  0.00     0.048 C 
ATOM      9  C   UNL A   1      31.521  27.336  23.041  1.00  0.00    -0.014 C 
BRANCH   6  10
ATOM     10  N   UNL A   1      30.545  24.194  24.126  1.00  0.00    -0.363 N 
ATOM     11  H   UNL A   1      29.814  23.542  24.015  1.00  0.00     0.162 HD
BRANCH  10  12
ATOM     12  C   UNL A   1      31.591  23.641  24.827  1.00  0.00     0.142 A 
ATOM     13  C   UNL A   1      33.335  22.265  27.812  1.00  0.00     0.070 C 
ATOM     14  C   UNL A   1      32.826  22.797  26.526  1.00  0.00     0.079 A 
ATOM     15  N   UNL A   1      33.674  22.955  25.519  1.00  0.00    -0.175 NA
ATOM     16  C   UNL A   1      31.522  23.168  26.143  1.00  0.00     0.117 A 
ATOM     17  N   UNL A   1      32.913  23.398  24.492  1.00  0.00    -0.251 N 
ATOM     18  C   UNL A   1      33.648  23.463  23.268  1.00  0.00     0.176 C 
BRANCH  16  19
ATOM     19  C   UNL A   1      30.359  23.051  26.950  1.00  0.00     0.105 C 
ATOM     20  N   UNL A   1      29.407  22.925  27.618  1.00  0.00    -0.192 NA
ENDBRANCH  16  19
ENDBRANCH  10  12
ENDBRANCH   6  10
ENDBRANCH   3   5
ENDBRANCH   2   3
ENDBRANCH   1   2
BRANCH   1  21
ATOM     21  C   UNL A   1      32.045  30.637  26.887  1.00  0.00     0.275 C 
BRANCH  21  22
ATOM     22  O   UNL A   1      33.151  31.438  27.281  1.00  0.00    -0.458 OA
BRANCH  22  23
ATOM     23  C   UNL A   1      32.831  32.699  27.644  1.00  0.00     0.338 C 
ATOM     24  O   UNL A   1      31.863  33.355  27.292  1.00  0.00    -0.246 OA
BRANCH  23  25
ATOM     25  C   UNL A   1      33.916  33.259  28.447  1.00  0.00     0.060 A 
ATOM     26  C   UNL A   1      34.943  33.867  27.721  1.00  0.00     0.016 A 
ATOM     27  C   UNL A   1      34.116  32.671  29.697  1.00  0.00     0.016 A 
ATOM     28  C   UNL A   1      36.231  33.549  28.071  1.00  0.00     0.010 A 
ATOM     29  C   UNL A   1      35.394  32.337  30.032  1.00  0.00     0.010 A 
ATOM     30  C   UNL A   1      36.418  32.678  29.148  1.00  0.00    -0.014 A 
BRANCH  30  31
ATOM     31  C   UNL A   1      37.755  32.275  29.513  1.00  0.00     0.031 A 
ATOM     32  C   UNL A   1      37.934  30.842  29.178  1.00  0.00     0.074 A 
ATOM     33  C   UNL A   1      38.669  33.178  29.928  1.00  0.00     0.049 A 
ATOM     34  N   UNL A   1      38.072  29.858  30.003  1.00  0.00    -0.248 NA
ATOM     35  C   UNL A   1      37.629  30.411  27.796  1.00  0.00     0.031 C 
ATOM     36  C   UNL A   1      38.518  34.634  30.057  1.00  0.00     0.029 A 
ATOM     37  N   UNL A   1      39.990  32.993  30.225  1.00  0.00    -0.354 N 
ATOM     38  C   UNL A   1      38.154  28.729  29.196  1.00  0.00     0.074 A 
ATOM     39  C   UNL A   1      37.581  29.087  27.934  1.00  0.00     0.031 C 
ATOM     40  C   UNL A   1      39.738  35.214  30.152  1.00  0.00     0.029 A 
ATOM     41  C   UNL A   1      40.746  34.176  30.219  1.00  0.00     0.049 A 
ATOM     42  H   UNL A   1      40.376  32.109  30.424  1.00  0.00     0.167 HD
ATOM     43  C   UNL A   1      39.055  27.756  29.499  1.00  0.00     0.037 A 
ATOM     44  C   UNL A   1      42.108  34.230  30.185  1.00  0.00     0.037 A 
ATOM     45  C   UNL A   1      39.420  27.841  30.893  1.00  0.00     0.049 A 
ATOM     46  C   UNL A   1      42.593  32.889  30.619  1.00  0.00     0.074 A 
ATOM     47  C   UNL A   1      38.722  27.747  32.082  1.00  0.00     0.029 A 
ATOM     48  N   UNL A   1      40.587  28.500  31.185  1.00  0.00    -0.354 N 
ATOM     49  N   UNL A   1      42.406  32.420  31.824  1.00  0.00    -0.248 NA
ATOM     50  C   UNL A   1      42.764  31.895  29.570  1.00  0.00     0.031 C 
ATOM     51  C   UNL A   1      39.296  28.740  32.929  1.00  0.00     0.029 A 
ATOM     52  C   UNL A   1      40.383  29.312  32.268  1.00  0.00     0.049 A 
ATOM     53  H   UNL A   1      41.435  28.405  30.694  1.00  0.00     0.167 HD
ATOM     54  C   UNL A   1      41.981  31.115  31.621  1.00  0.00     0.074 A 
ATOM     55  C   UNL A   1      42.246  30.840  30.208  1.00  0.00     0.031 C 
ATOM     56  C   UNL A   1      41.171  30.493  32.527  1.00  0.00     0.037 A 
BRANCH  43  57
ATOM     57  C   UNL A   1      39.946  27.099  28.464  1.00  0.00     0.064 A 
ATOM     58  C   UNL A   1      40.750  27.930  27.661  1.00  0.00     0.173 A 
ATOM     59  C   UNL A   1      39.833  25.760  28.017  1.00  0.00     0.173 A 
ATOM     60  F   UNL A   1      40.922  29.222  27.976  1.00  0.00    -0.203 F 
ATOM     61  C   UNL A   1      41.315  27.481  26.464  1.00  0.00     0.198 A 
ATOM     62  C   UNL A   1      40.439  25.304  26.849  1.00  0.00     0.198 A 
ATOM     63  F   UNL A   1      39.055  24.852  28.612  1.00  0.00    -0.203 F 
ATOM     64  F   UNL A   1      41.960  28.345  25.670  1.00  0.00    -0.200 F 
ATOM     65  C   UNL A   1      41.152  26.170  26.055  1.00  0.00     0.200 A 
ATOM     66  F   UNL A   1      40.248  24.033  26.465  1.00  0.00    -0.200 F 
ATOM     67  F   UNL A   1      41.639  25.755  24.879  1.00  0.00    -0.200 F 
ENDBRANCH  43  57
BRANCH  44  68
ATOM     68  C   UNL A   1      42.991  35.174  29.446  1.00  0.00     0.064 A 
ATOM     69  C   UNL A   1      42.669  35.623  28.150  1.00  0.00     0.173 A 
ATOM     70  C   UNL A   1      44.007  35.888  30.110  1.00  0.00     0.173 A 
ATOM     71  F   UNL A   1      41.674  35.043  27.464  1.00  0.00    -0.203 F 
ATOM     72  C   UNL A   1      43.311  36.725  27.567  1.00  0.00     0.198 A 
ATOM     73  C   UNL A   1      44.648  36.985  29.528  1.00  0.00     0.198 A 
ATOM     74  F   UNL A   1      44.330  35.598  31.378  1.00  0.00    -0.203 F 
ATOM     75  F   UNL A   1      42.937  37.158  26.354  1.00  0.00    -0.200 F 
ATOM     76  C   UNL A   1      44.293  37.411  28.262  1.00  0.00     0.200 A 
ATOM     77  F   UNL A   1      45.563  37.668  30.229  1.00  0.00    -0.200 F 
ATOM     78  F   UNL A   1      44.866  38.502  27.733  1.00  0.00    -0.200 F 
ENDBRANCH  44  68
BRANCH  56  79
ATOM     79  C   UNL A   1      40.949  31.168  33.854  1.00  0.00     0.064 A 
ATOM     80  C   UNL A   1      39.879  32.036  34.142  1.00  0.00     0.173 A 
ATOM     81  C   UNL A   1      41.766  30.776  34.921  1.00  0.00     0.173 A 
ATOM     82  F   UNL A   1      39.001  32.386  33.194  1.00  0.00    -0.203 F 
ATOM     83  C   UNL A   1      39.661  32.505  35.439  1.00  0.00     0.198 A 
ATOM     84  C   UNL A   1      41.524  31.216  36.218  1.00  0.00     0.198 A 
ATOM     85  F   UNL A   1      42.768  29.909  34.711  1.00  0.00    -0.203 F 
ATOM     86  F   UNL A   1      38.635  33.332  35.694  1.00  0.00    -0.200 F 
ATOM     87  C   UNL A   1      40.479  32.087  36.476  1.00  0.00     0.200 A 
ATOM     88  F   UNL A   1      42.286  30.764  37.223  1.00  0.00    -0.200 F 
ATOM     89  F   UNL A   1      40.243  32.499  37.730  1.00  0.00    -0.200 F 
ENDBRANCH  56  79
ENDBRANCH  30  31
ENDBRANCH  23  25
ENDBRANCH  22  23
ENDBRANCH  21  22
ENDBRANCH   1  21
TORSDOF 14
ENDMDL
MODEL 3
REMARK VINA RESULT:     -11.7      1.467      2.562
REMARK SMILES Cc1nn(C)c(N[C@@H]2C=C[C@H](C(=O)OCCOC(=O)c3ccc(-c4c5nc(c(-c6c(F)c(F)c(F)c(F)c6F)c6ccc([nH]6)c(-c6c(F)c(F)c(F)c(F)c6F)c6nc(c(-c7c(F)c(F)c(F)c(F)c7F)c7ccc4[nH]7)C=C6)C=C5)cc3)C2)c1C#N
REMARK SMILES IDX 15 1 14 2 12 3 13 4 11 5 8 6 9 7 83 8 10 9 7 10 6 12 1 13
REMARK SMILES IDX 2 14 3 15 84 16 4 17 5 18 85 19 86 20 16 21 17 22 18 23
REMARK SMILES IDX 19 24 20 25 21 26 82 27 22 28 81 29 23 30 24 31 25 32 75 33
REMARK SMILES IDX 26 34 80 35 74 36 76 37 27 38 79 39 73 40 72 41 28 43 60 44
REMARK SMILES IDX 40 45 59 46 41 47 44 48 58 49 77 50 42 51 43 52 57 54 78 55
REMARK SMILES IDX 45 56 29 57 30 58 38 59 31 60 32 61 36 62 39 63 33 64 34 65
REMARK SMILES IDX 37 66 35 67 61 68 62 69 70 70 63 71 64 72 68 73 71 74 65 75
REMARK SMILES IDX 66 76 69 77 67 78 46 79 47 80 55 81 48 82 49 83 53 84 56 85
REMARK SMILES IDX 50 86 51 87 54 88 52 89
REMARK H PARENT 7 11 76 42 44 53
REMARK Flexibility Score: inf
ROOT
ATOM      1  C   UNL A   1      36.967  22.287  24.870  1.00  0.00     0.274 C 
ENDROOT
BRANCH   1   2
ATOM      2  O   UNL A   1      35.903  22.414  25.842  1.00  0.00    -0.462 OA
BRANCH   2   3
ATOM      3  C   UNL A   1      34.682  22.778  25.341  1.00  0.00     0.312 C 
ATOM      4  O   UNL A   1      34.016  23.711  25.779  1.00  0.00    -0.252 OA
BRANCH   3   5
ATOM      5  C   UNL A   1      34.223  21.871  24.202  1.00  0.00     0.124 C 
ATOM      6  C   UNL A   1      32.221  22.756  23.083  1.00  0.00     0.104 C 
ATOM      7  C   UNL A   1      31.878  21.645  24.001  1.00  0.00    -0.006 C 
ATOM      8  C   UNL A   1      33.752  22.726  23.007  1.00  0.00     0.048 C 
ATOM      9  C   UNL A   1      32.975  21.106  24.556  1.00  0.00    -0.014 C 
BRANCH   6  10
ATOM     10  N   UNL A   1      31.615  24.052  23.340  1.00  0.00    -0.363 N 
ATOM     11  H   UNL A   1      30.637  23.971  23.421  1.00  0.00     0.162 HD
BRANCH  10  12
ATOM     12  C   UNL A   1      32.013  25.359  23.502  1.00  0.00     0.142 A 
ATOM     13  C   UNL A   1      33.652  28.559  22.544  1.00  0.00     0.070 C 
ATOM     14  C   UNL A   1      32.968  27.374  23.113  1.00  0.00     0.079 A 
ATOM     15  N   UNL A   1      32.584  27.405  24.381  1.00  0.00    -0.175 NA
ATOM     16  C   UNL A   1      32.607  26.152  22.512  1.00  0.00     0.117 A 
ATOM     17  N   UNL A   1      31.958  26.223  24.583  1.00  0.00    -0.251 N 
ATOM     18  C   UNL A   1      31.331  26.159  25.866  1.00  0.00     0.176 C 
BRANCH  16  19
ATOM     19  C   UNL A   1      32.796  25.815  21.146  1.00  0.00     0.105 C 
ATOM     20  N   UNL A   1      32.928  25.518  20.022  1.00  0.00    -0.192 NA
ENDBRANCH  16  19
ENDBRANCH  10  12
ENDBRANCH   6  10
ENDBRANCH   3   5
ENDBRANCH   2   3
ENDBRANCH   1   2
BRANCH   1  21
ATOM     21  C   UNL A   1      37.793  21.016  25.034  1.00  0.00     0.275 C 
BRANCH  21  22
ATOM     22  O   UNL A   1      38.871  21.232  25.934  1.00  0.00    -0.458 OA
BRANCH  22  23
ATOM     23  C   UNL A   1      39.850  20.304  25.873  1.00  0.00     0.338 C 
ATOM     24  O   UNL A   1      39.755  19.142  25.507  1.00  0.00    -0.246 OA
BRANCH  23  25
ATOM     25  C   UNL A   1      41.071  20.852  26.459  1.00  0.00     0.060 A 
ATOM     26  C   UNL A   1      41.138  20.802  27.854  1.00  0.00     0.016 A 
ATOM     27  C   UNL A   1      41.729  21.823  25.702  1.00  0.00     0.016 A 
ATOM     28  C   UNL A   1      41.544  21.940  28.503  1.00  0.00     0.010 A 
ATOM     29  C   UNL A   1      42.111  22.962  26.347  1.00  0.00     0.010 A 
ATOM     30  C   UNL A   1      41.898  23.044  27.723  1.00  0.00    -0.014 A 
BRANCH  30  31
ATOM     31  C   UNL A   1      42.278  24.279  28.368  1.00  0.00     0.031 A 
ATOM     32  C   UNL A   1      41.228  25.295  28.118  1.00  0.00     0.074 A 
ATOM     33  C   UNL A   1      43.352  24.340  29.183  1.00  0.00     0.049 A 
ATOM     34  N   UNL A   1      41.327  26.358  27.392  1.00  0.00    -0.248 NA
ATOM     35  C   UNL A   1      39.831  24.947  28.461  1.00  0.00     0.031 C 
ATOM     36  C   UNL A   1      44.262  23.255  29.573  1.00  0.00     0.029 A 
ATOM     37  N   UNL A   1      43.802  25.387  29.938  1.00  0.00    -0.354 N 
ATOM     38  C   UNL A   1      40.064  26.940  27.442  1.00  0.00     0.074 A 
ATOM     39  C   UNL A   1      39.154  25.905  27.831  1.00  0.00     0.031 C 
ATOM     40  C   UNL A   1      44.978  23.628  30.661  1.00  0.00     0.029 A 
ATOM     41  C   UNL A   1      44.675  25.010  30.971  1.00  0.00     0.049 A 
ATOM     42  H   UNL A   1      43.536  26.320  29.772  1.00  0.00     0.167 HD
ATOM     43  C   UNL A   1      39.955  28.289  27.570  1.00  0.00     0.037 A 
ATOM     44  C   UNL A   1      45.018  25.799  32.028  1.00  0.00     0.037 A 
ATOM     45  C   UNL A   1      41.174  28.925  27.128  1.00  0.00     0.049 A 
ATOM     46  C   UNL A   1      44.693  27.199  31.631  1.00  0.00     0.074 A 
ATOM     47  C   UNL A   1      41.866  28.963  25.933  1.00  0.00     0.029 A 
ATOM     48  N   UNL A   1      42.074  29.275  28.103  1.00  0.00    -0.354 N 
ATOM     49  N   UNL A   1      45.305  27.824  30.661  1.00  0.00    -0.248 NA
ATOM     50  C   UNL A   1      43.344  27.657  31.930  1.00  0.00     0.031 C 
ATOM     51  C   UNL A   1      43.242  28.897  26.298  1.00  0.00     0.029 A 
ATOM     52  C   UNL A   1      43.334  28.937  27.690  1.00  0.00     0.049 A 
ATOM     53  H   UNL A   1      41.849  29.699  28.963  1.00  0.00     0.167 HD
ATOM     54  C   UNL A   1      44.281  28.422  29.939  1.00  0.00     0.074 A 
ATOM     55  C   UNL A   1      43.094  28.303  30.787  1.00  0.00     0.031 C 
ATOM     56  C   UNL A   1      44.419  28.670  28.603  1.00  0.00     0.037 A 
BRANCH  43  57
ATOM     57  C   UNL A   1      38.993  28.956  28.533  1.00  0.00     0.064 A 
ATOM     58  C   UNL A   1      39.069  28.604  29.893  1.00  0.00     0.173 A 
ATOM     59  C   UNL A   1      37.829  29.673  28.162  1.00  0.00     0.173 A 
ATOM     60  F   UNL A   1      40.118  27.912  30.360  1.00  0.00    -0.203 F 
ATOM     61  C   UNL A   1      38.025  28.865  30.785  1.00  0.00     0.198 A 
ATOM     62  C   UNL A   1      36.813  29.975  29.065  1.00  0.00     0.198 A 
ATOM     63  F   UNL A   1      37.555  30.024  26.903  1.00  0.00    -0.203 F 
ATOM     64  F   UNL A   1      38.088  28.393  32.036  1.00  0.00    -0.200 F 
ATOM     65  C   UNL A   1      36.895  29.544  30.368  1.00  0.00     0.200 A 
ATOM     66  F   UNL A   1      35.718  30.616  28.630  1.00  0.00    -0.200 F 
ATOM     67  F   UNL A   1      35.867  29.740  31.204  1.00  0.00    -0.200 F 
ENDBRANCH  43  57
BRANCH  44  68
ATOM     68  C   UNL A   1      45.216  25.423  33.455  1.00  0.00     0.064 A 
ATOM     69  C   UNL A   1      44.125  25.121  34.295  1.00  0.00     0.173 A 
ATOM     70  C   UNL A   1      46.486  25.058  33.940  1.00  0.00     0.173 A 
ATOM     71  F   UNL A   1      42.873  25.378  33.892  1.00  0.00    -0.203 F 
ATOM     72  C   UNL A   1      44.298  24.480  35.531  1.00  0.00     0.198 A 
ATOM     73  C   UNL A   1      46.658  24.420  35.172  1.00  0.00     0.198 A 
ATOM     74  F   UNL A   1      47.580  25.221  33.183  1.00  0.00    -0.203 F 
ATOM     75  F   UNL A   1      43.231  24.158  36.276  1.00  0.00    -0.200 F 
ATOM     76  C   UNL A   1      45.564  24.121  35.963  1.00  0.00     0.200 A 
ATOM     77  F   UNL A   1      47.883  24.037  35.556  1.00  0.00    -0.200 F 
ATOM     78  F   UNL A   1      45.727  23.453  37.113  1.00  0.00    -0.200 F 
ENDBRANCH  44  68
BRANCH  56  79
ATOM     79  C   UNL A   1      45.784  28.502  27.992  1.00  0.00     0.064 A 
ATOM     80  C   UNL A   1      46.264  27.309  27.420  1.00  0.00     0.173 A 
ATOM     81  C   UNL A   1      46.565  29.653  27.832  1.00  0.00     0.173 A 
ATOM     82  F   UNL A   1      45.534  26.187  27.452  1.00  0.00    -0.203 F 
ATOM     83  C   UNL A   1      47.484  27.274  26.742  1.00  0.00     0.198 A 
ATOM     84  C   UNL A   1      47.762  29.623  27.125  1.00  0.00     0.198 A 
ATOM     85  F   UNL A   1      46.130  30.827  28.312  1.00  0.00    -0.203 F 
ATOM     86  F   UNL A   1      47.924  26.127  26.202  1.00  0.00    -0.200 F 
ATOM     87  C   UNL A   1      48.226  28.433  26.587  1.00  0.00     0.200 A 
ATOM     88  F   UNL A   1      48.446  30.758  26.934  1.00  0.00    -0.200 F 
ATOM     89  F   UNL A   1      49.375  28.413  25.897  1.00  0.00    -0.200 F 
ENDBRANCH  56  79
ENDBRANCH  30  31
ENDBRANCH  23  25
ENDBRANCH  22  23
ENDBRANCH  21  22
ENDBRANCH   1  21
TORSDOF 14
ENDMDL
