MODEL 1
REMARK VINA RESULT:     -11.5      0.000      0.000
REMARK SMILES NS(=O)(=O)c1ccc(-c2coc(=O)n2-c2ccc(C(=O)OCCOC(=O)c3ccc(-c4c5nc(c(-c6c(F)c(F)c(F)c(F)c6F)c6ccc([nH]6)c(-c6c(F)c(F)c(F)c(F)c6F)c6nc(c(-c7c(F)c(F)c(F)c(F)c7F)c7ccc4[nH]7)C=C6)C=C5)cc3)cc2)cc1
REMARK SMILES IDX 22 1 21 2 19 3 20 4 18 5 15 6 16 7 91 8 17 9 90 10 14 11
REMARK SMILES IDX 9 12 10 13 11 14 12 15 13 16 8 17 5 18 6 19 93 20 7 21 92 22
REMARK SMILES IDX 2 23 3 24 4 25 1 26 23 29 24 30 25 31 26 32 27 33 28 34
REMARK SMILES IDX 89 35 29 36 88 37 30 38 31 39 32 40 82 41 33 42 87 43 81 44
REMARK SMILES IDX 83 45 34 46 86 47 80 48 79 49 35 51 67 52 47 53 66 54 48 55
REMARK SMILES IDX 51 56 65 57 84 58 49 59 50 60 64 62 85 63 52 64 36 65 37 66
REMARK SMILES IDX 45 67 38 68 39 69 43 70 46 71 40 72 41 73 44 74 42 75 68 76
REMARK SMILES IDX 69 77 77 78 70 79 71 80 75 81 78 82 72 83 73 84 76 85 74 86
REMARK SMILES IDX 53 87 54 88 62 89 55 90 56 91 60 92 63 93 57 94 58 95 61 96
REMARK SMILES IDX 59 97
REMARK H PARENT 1 27 1 28 83 50 51 61
REMARK Flexibility Score: inf
ROOT
ATOM      1  C   UNL A   1      34.614  34.604  28.866  1.00  0.00     0.275 C 
ENDROOT
BRANCH   1   2
ATOM      2  O   UNL A   1      35.345  34.198  30.035  1.00  0.00    -0.458 OA
BRANCH   2   3
ATOM      3  C   UNL A   1      34.657  34.226  31.206  1.00  0.00     0.338 C 
ATOM      4  O   UNL A   1      33.501  34.585  31.363  1.00  0.00    -0.246 OA
BRANCH   3   5
ATOM      5  C   UNL A   1      35.481  33.651  32.296  1.00  0.00     0.060 A 
ATOM      6  C   UNL A   1      37.268  32.680  34.212  1.00  0.00     0.053 A 
ATOM      7  C   UNL A   1      36.846  34.010  34.276  1.00  0.00     0.028 A 
ATOM      8  C   UNL A   1      36.688  31.815  33.272  1.00  0.00     0.028 A 
ATOM      9  C   UNL A   1      35.974  34.501  33.300  1.00  0.00     0.018 A 
ATOM     10  C   UNL A   1      35.792  32.292  32.323  1.00  0.00     0.018 A 
BRANCH   6  11
ATOM     11  N   UNL A   1      38.381  32.242  34.959  1.00  0.00    -0.242 N 
ATOM     12  C   UNL A   1      39.697  32.313  34.587  1.00  0.00     0.095 A 
ATOM     13  C   UNL A   1      40.393  31.789  35.588  1.00  0.00     0.228 A 
ATOM     14  O   UNL A   1      39.612  31.361  36.662  1.00  0.00    -0.415 OA
ATOM     15  C   UNL A   1      38.324  31.700  36.239  1.00  0.00     0.424 A 
ATOM     16  O   UNL A   1      37.333  31.501  36.929  1.00  0.00    -0.223 OA
BRANCH  12  17
ATOM     17  C   UNL A   1      40.196  33.004  33.399  1.00  0.00     0.002 A 
ATOM     18  C   UNL A   1      41.344  34.162  31.126  1.00  0.00     0.082 A 
ATOM     19  C   UNL A   1      40.610  32.984  30.997  1.00  0.00     0.022 A 
ATOM     20  C   UNL A   1      41.502  34.773  32.374  1.00  0.00     0.022 A 
ATOM     21  C   UNL A   1      40.031  32.414  32.132  1.00  0.00     0.012 A 
ATOM     22  C   UNL A   1      40.918  34.198  33.508  1.00  0.00     0.012 A 
BRANCH  18  23
ATOM     23  S   UNL A   1      42.136  34.854  29.704  1.00  0.00     0.238 S 
ATOM     24  O   UNL A   1      41.190  35.634  28.953  1.00  0.00    -0.207 OA
ATOM     25  O   UNL A   1      42.967  33.835  29.093  1.00  0.00    -0.207 OA
BRANCH  23  26
ATOM     26  N   UNL A   1      43.189  35.960  30.401  1.00  0.00    -0.225 NA
ATOM     27  H   UNL A   1      43.842  36.298  29.695  1.00  0.00     0.137 HD
ATOM     28  H   UNL A   1      43.708  35.507  31.153  1.00  0.00     0.137 HD
ENDBRANCH  23  26
ENDBRANCH  18  23
ENDBRANCH  12  17
ENDBRANCH   6  11
ENDBRANCH   3   5
ENDBRANCH   2   3
ENDBRANCH   1   2
BRANCH   1  29
ATOM     29  C   UNL A   1      34.281  33.407  27.989  1.00  0.00     0.275 C 
BRANCH  29  30
ATOM     30  O   UNL A   1      35.453  32.654  27.692  1.00  0.00    -0.458 OA
BRANCH  30  31
ATOM     31  C   UNL A   1      35.276  31.315  27.635  1.00  0.00     0.338 C 
ATOM     32  O   UNL A   1      34.322  30.704  27.186  1.00  0.00    -0.246 OA
BRANCH  31  33
ATOM     33  C   UNL A   1      36.306  30.678  28.453  1.00  0.00     0.060 A 
ATOM     34  C   UNL A   1      37.239  31.508  29.083  1.00  0.00     0.016 A 
ATOM     35  C   UNL A   1      36.524  29.307  28.268  1.00  0.00     0.016 A 
ATOM     36  C   UNL A   1      38.488  30.993  29.350  1.00  0.00     0.010 A 
ATOM     37  C   UNL A   1      37.772  28.805  28.507  1.00  0.00     0.010 A 
ATOM     38  C   UNL A   1      38.758  29.676  28.965  1.00  0.00    -0.014 A 
BRANCH  38  39
ATOM     39  C   UNL A   1      40.075  29.127  29.177  1.00  0.00     0.031 A 
ATOM     40  C   UNL A   1      40.372  28.931  30.614  1.00  0.00     0.074 A 
ATOM     41  C   UNL A   1      40.823  28.692  28.145  1.00  0.00     0.049 A 
ATOM     42  N   UNL A   1      41.320  29.483  31.291  1.00  0.00    -0.248 NA
ATOM     43  C   UNL A   1      39.396  28.196  31.439  1.00  0.00     0.031 C 
ATOM     44  C   UNL A   1      40.481  28.672  26.719  1.00  0.00     0.029 A 
ATOM     45  N   UNL A   1      42.026  28.059  28.176  1.00  0.00    -0.354 N 
ATOM     46  C   UNL A   1      41.182  29.003  32.587  1.00  0.00     0.074 A 
ATOM     47  C   UNL A   1      39.885  28.390  32.664  1.00  0.00     0.031 C 
ATOM     48  C   UNL A   1      41.342  27.861  26.063  1.00  0.00     0.029 A 
ATOM     49  C   UNL A   1      42.352  27.396  26.995  1.00  0.00     0.049 A 
ATOM     50  H   UNL A   1      42.615  28.069  28.965  1.00  0.00     0.167 HD
ATOM     51  C   UNL A   1      42.265  28.913  33.404  1.00  0.00     0.037 A 
ATOM     52  C   UNL A   1      43.332  26.463  26.862  1.00  0.00     0.037 A 
ATOM     53  C   UNL A   1      43.339  29.744  32.921  1.00  0.00     0.049 A 
ATOM     54  C   UNL A   1      44.277  26.668  27.997  1.00  0.00     0.074 A 
ATOM     55  C   UNL A   1      43.474  31.101  32.701  1.00  0.00     0.029 A 
ATOM     56  N   UNL A   1      44.338  29.140  32.195  1.00  0.00    -0.354 N 
ATOM     57  N   UNL A   1      45.031  27.729  28.109  1.00  0.00    -0.248 NA
ATOM     58  C   UNL A   1      43.994  25.971  29.245  1.00  0.00     0.031 C 
ATOM     59  C   UNL A   1      44.223  31.207  31.493  1.00  0.00     0.029 A 
ATOM     60  C   UNL A   1      44.583  29.920  31.092  1.00  0.00     0.049 A 
ATOM     61  H   UNL A   1      44.796  28.300  32.424  1.00  0.00     0.167 HD
ATOM     62  C   UNL A   1      44.937  28.086  29.447  1.00  0.00     0.074 A 
ATOM     63  C   UNL A   1      44.337  26.929  30.112  1.00  0.00     0.031 C 
ATOM     64  C   UNL A   1      45.054  29.391  29.835  1.00  0.00     0.037 A 
BRANCH  51  65
ATOM     65  C   UNL A   1      42.486  27.785  34.375  1.00  0.00     0.064 A 
ATOM     66  C   UNL A   1      43.044  26.585  33.900  1.00  0.00     0.173 A 
ATOM     67  C   UNL A   1      41.895  27.719  35.658  1.00  0.00     0.173 A 
ATOM     68  F   UNL A   1      43.620  26.533  32.689  1.00  0.00    -0.203 F 
ATOM     69  C   UNL A   1      42.935  25.389  34.613  1.00  0.00     0.198 A 
ATOM     70  C   UNL A   1      41.836  26.535  36.390  1.00  0.00     0.198 A 
ATOM     71  F   UNL A   1      41.249  28.752  36.207  1.00  0.00    -0.203 F 
ATOM     72  F   UNL A   1      43.360  24.245  34.061  1.00  0.00    -0.200 F 
ATOM     73  C   UNL A   1      42.324  25.364  35.854  1.00  0.00     0.200 A 
ATOM     74  F   UNL A   1      41.223  26.531  37.582  1.00  0.00    -0.200 F 
ATOM     75  F   UNL A   1      42.157  24.208  36.509  1.00  0.00    -0.200 F 
ENDBRANCH  51  65
BRANCH  52  76
ATOM     76  C   UNL A   1      43.312  25.224  26.042  1.00  0.00     0.064 A 
ATOM     77  C   UNL A   1      44.353  24.923  25.146  1.00  0.00     0.173 A 
ATOM     78  C   UNL A   1      42.406  24.176  26.309  1.00  0.00     0.173 A 
ATOM     79  F   UNL A   1      45.289  25.841  24.865  1.00  0.00    -0.203 F 
ATOM     80  C   UNL A   1      44.494  23.649  24.578  1.00  0.00     0.198 A 
ATOM     81  C   UNL A   1      42.542  22.911  25.736  1.00  0.00     0.198 A 
ATOM     82  F   UNL A   1      41.421  24.325  27.204  1.00  0.00    -0.203 F 
ATOM     83  F   UNL A   1      45.535  23.383  23.777  1.00  0.00    -0.200 F 
ATOM     84  C   UNL A   1      43.593  22.641  24.883  1.00  0.00     0.200 A 
ATOM     85  F   UNL A   1      41.682  21.938  26.069  1.00  0.00    -0.200 F 
ATOM     86  F   UNL A   1      43.760  21.407  24.389  1.00  0.00    -0.200 F 
ENDBRANCH  52  76
BRANCH  64  87
ATOM     87  C   UNL A   1      45.502  30.390  28.802  1.00  0.00     0.064 A 
ATOM     88  C   UNL A   1      44.631  31.046  27.912  1.00  0.00     0.173 A 
ATOM     89  C   UNL A   1      46.838  30.806  28.811  1.00  0.00     0.173 A 
ATOM     90  F   UNL A   1      43.319  30.793  27.920  1.00  0.00    -0.203 F 
ATOM     91  C   UNL A   1      45.092  32.025  27.034  1.00  0.00     0.198 A 
ATOM     92  C   UNL A   1      47.289  31.812  27.962  1.00  0.00     0.198 A 
ATOM     93  F   UNL A   1      47.702  30.265  29.685  1.00  0.00    -0.203 F 
ATOM     94  F   UNL A   1      44.242  32.620  26.182  1.00  0.00    -0.200 F 
ATOM     95  C   UNL A   1      46.421  32.411  27.063  1.00  0.00     0.200 A 
ATOM     96  F   UNL A   1      48.562  32.221  28.035  1.00  0.00    -0.200 F 
ATOM     97  F   UNL A   1      46.859  33.378  26.246  1.00  0.00    -0.200 F 
ENDBRANCH  64  87
ENDBRANCH  38  39
ENDBRANCH  31  33
ENDBRANCH  30  31
ENDBRANCH  29  30
ENDBRANCH   1  29
TORSDOF 15
ENDMDL
MODEL 2
REMARK VINA RESULT:     -11.3      5.853     11.697
REMARK SMILES NS(=O)(=O)c1ccc(-c2coc(=O)n2-c2ccc(C(=O)OCCOC(=O)c3ccc(-c4c5nc(c(-c6c(F)c(F)c(F)c(F)c6F)c6ccc([nH]6)c(-c6c(F)c(F)c(F)c(F)c6F)c6nc(c(-c7c(F)c(F)c(F)c(F)c7F)c7ccc4[nH]7)C=C6)C=C5)cc3)cc2)cc1
REMARK SMILES IDX 22 1 21 2 19 3 20 4 18 5 15 6 16 7 91 8 17 9 90 10 14 11
REMARK SMILES IDX 9 12 10 13 11 14 12 15 13 16 8 17 5 18 6 19 93 20 7 21 92 22
REMARK SMILES IDX 2 23 3 24 4 25 1 26 23 29 24 30 25 31 26 32 27 33 28 34
REMARK SMILES IDX 89 35 29 36 88 37 30 38 31 39 32 40 82 41 33 42 87 43 81 44
REMARK SMILES IDX 83 45 34 46 86 47 80 48 79 49 35 51 67 52 47 53 66 54 48 55
REMARK SMILES IDX 51 56 65 57 84 58 49 59 50 60 64 62 85 63 52 64 36 65 37 66
REMARK SMILES IDX 45 67 38 68 39 69 43 70 46 71 40 72 41 73 44 74 42 75 68 76
REMARK SMILES IDX 69 77 77 78 70 79 71 80 75 81 78 82 72 83 73 84 76 85 74 86
REMARK SMILES IDX 53 87 54 88 62 89 55 90 56 91 60 92 63 93 57 94 58 95 61 96
REMARK SMILES IDX 59 97
REMARK H PARENT 1 27 1 28 83 50 51 61
REMARK Flexibility Score: inf
ROOT
ATOM      1  C   UNL A   1      40.079  21.438  26.845  1.00  0.00     0.275 C 
ENDROOT
BRANCH   1   2
ATOM      2  O   UNL A   1      39.288  22.225  25.941  1.00  0.00    -0.458 OA
BRANCH   2   3
ATOM      3  C   UNL A   1      38.267  21.575  25.324  1.00  0.00     0.338 C 
ATOM      4  O   UNL A   1      38.176  20.372  25.137  1.00  0.00    -0.246 OA
BRANCH   3   5
ATOM      5  C   UNL A   1      37.187  22.532  24.980  1.00  0.00     0.060 A 
ATOM      6  C   UNL A   1      34.963  24.131  24.429  1.00  0.00     0.053 A 
ATOM      7  C   UNL A   1      35.469  24.079  25.730  1.00  0.00     0.028 A 
ATOM      8  C   UNL A   1      35.656  23.489  23.392  1.00  0.00     0.028 A 
ATOM      9  C   UNL A   1      36.564  23.256  26.008  1.00  0.00     0.018 A 
ATOM     10  C   UNL A   1      36.769  22.700  23.660  1.00  0.00     0.018 A 
BRANCH   6  11
ATOM     11  N   UNL A   1      33.686  24.671  24.175  1.00  0.00    -0.242 N 
ATOM     12  C   UNL A   1      32.558  23.979  23.823  1.00  0.00     0.095 A 
ATOM     13  C   UNL A   1      31.597  24.883  23.687  1.00  0.00     0.228 A 
ATOM     14  O   UNL A   1      32.005  26.192  23.942  1.00  0.00    -0.415 OA
ATOM     15  C   UNL A   1      33.348  26.016  24.288  1.00  0.00     0.424 A 
ATOM     16  O   UNL A   1      34.070  26.950  24.610  1.00  0.00    -0.223 OA
BRANCH  12  17
ATOM     17  C   UNL A   1      32.443  22.522  23.799  1.00  0.00     0.002 A 
ATOM     18  C   UNL A   1      32.478  19.725  23.757  1.00  0.00     0.082 A 
ATOM     19  C   UNL A   1      32.674  20.394  24.965  1.00  0.00     0.022 A 
ATOM     20  C   UNL A   1      32.254  20.436  22.574  1.00  0.00     0.022 A 
ATOM     21  C   UNL A   1      32.648  21.789  24.983  1.00  0.00     0.012 A 
ATOM     22  C   UNL A   1      32.226  21.834  22.599  1.00  0.00     0.012 A 
BRANCH  18  23
ATOM     23  S   UNL A   1      32.576  17.959  23.715  1.00  0.00     0.238 S 
ATOM     24  O   UNL A   1      31.713  17.400  24.720  1.00  0.00    -0.207 OA
ATOM     25  O   UNL A   1      33.967  17.575  23.578  1.00  0.00    -0.207 OA
BRANCH  23  26
ATOM     26  N   UNL A   1      31.848  17.610  22.242  1.00  0.00    -0.225 NA
ATOM     27  H   UNL A   1      30.926  17.207  22.407  1.00  0.00     0.137 HD
ATOM     28  H   UNL A   1      32.424  16.943  21.728  1.00  0.00     0.137 HD
ENDBRANCH  23  26
ENDBRANCH  18  23
ENDBRANCH  12  17
ENDBRANCH   6  11
ENDBRANCH   3   5
ENDBRANCH   2   3
ENDBRANCH   1   2
BRANCH   1  29
ATOM     29  C   UNL A   1      41.487  21.240  26.307  1.00  0.00     0.275 C 
BRANCH  29  30
ATOM     30  O   UNL A   1      41.816  22.253  25.361  1.00  0.00    -0.458 OA
BRANCH  30  31
ATOM     31  C   UNL A   1      42.770  23.123  25.758  1.00  0.00     0.338 C 
ATOM     32  O   UNL A   1      43.975  23.040  25.593  1.00  0.00    -0.246 OA
BRANCH  31  33
ATOM     33  C   UNL A   1      42.165  24.084  26.677  1.00  0.00     0.060 A 
ATOM     34  C   UNL A   1      41.330  25.066  26.133  1.00  0.00     0.016 A 
ATOM     35  C   UNL A   1      42.727  24.200  27.955  1.00  0.00     0.016 A 
ATOM     36  C   UNL A   1      41.221  26.266  26.799  1.00  0.00     0.010 A 
ATOM     37  C   UNL A   1      42.640  25.401  28.601  1.00  0.00     0.010 A 
ATOM     38  C   UNL A   1      41.959  26.442  27.974  1.00  0.00    -0.014 A 
BRANCH  38  39
ATOM     39  C   UNL A   1      41.912  27.708  28.663  1.00  0.00     0.031 A 
ATOM     40  C   UNL A   1      43.020  28.602  28.260  1.00  0.00     0.074 A 
ATOM     41  C   UNL A   1      40.856  28.046  29.427  1.00  0.00     0.049 A 
ATOM     42  N   UNL A   1      43.943  29.082  29.022  1.00  0.00    -0.248 NA
ATOM     43  C   UNL A   1      43.250  28.835  26.822  1.00  0.00     0.031 C 
ATOM     44  C   UNL A   1      39.635  27.276  29.684  1.00  0.00     0.029 A 
ATOM     45  N   UNL A   1      40.605  29.227  30.053  1.00  0.00    -0.354 N 
ATOM     46  C   UNL A   1      44.754  29.846  28.191  1.00  0.00     0.074 A 
ATOM     47  C   UNL A   1      44.406  29.497  26.842  1.00  0.00     0.031 C 
ATOM     48  C   UNL A   1      38.693  28.090  30.212  1.00  0.00     0.029 A 
ATOM     49  C   UNL A   1      39.275  29.402  30.430  1.00  0.00     0.049 A 
ATOM     50  H   UNL A   1      41.303  29.900  30.225  1.00  0.00     0.167 HD
ATOM     51  C   UNL A   1      45.449  30.900  28.693  1.00  0.00     0.037 A 
ATOM     52  C   UNL A   1      38.710  30.582  30.796  1.00  0.00     0.037 A 
ATOM     53  C   UNL A   1      45.565  30.802  30.126  1.00  0.00     0.049 A 
ATOM     54  C   UNL A   1      39.825  31.480  31.213  1.00  0.00     0.074 A 
ATOM     55  C   UNL A   1      46.132  29.874  30.978  1.00  0.00     0.029 A 
ATOM     56  N   UNL A   1      44.686  31.531  30.890  1.00  0.00    -0.354 N 
ATOM     57  N   UNL A   1      40.544  31.268  32.283  1.00  0.00    -0.248 NA
ATOM     58  C   UNL A   1      40.467  32.283  30.180  1.00  0.00     0.031 C 
ATOM     59  C   UNL A   1      45.226  29.775  32.074  1.00  0.00     0.029 A 
ATOM     60  C   UNL A   1      44.208  30.708  31.879  1.00  0.00     0.049 A 
ATOM     61  H   UNL A   1      44.443  32.475  30.754  1.00  0.00     0.167 HD
ATOM     62  C   UNL A   1      41.850  31.507  31.880  1.00  0.00     0.074 A 
ATOM     63  C   UNL A   1      41.736  32.192  30.593  1.00  0.00     0.031 C 
ATOM     64  C   UNL A   1      42.896  30.850  32.465  1.00  0.00     0.037 A 
BRANCH  51  65
ATOM     65  C   UNL A   1      45.654  32.193  27.950  1.00  0.00     0.064 A 
ATOM     66  C   UNL A   1      44.524  32.934  27.560  1.00  0.00     0.173 A 
ATOM     67  C   UNL A   1      46.873  32.571  27.341  1.00  0.00     0.173 A 
ATOM     68  F   UNL A   1      43.315  32.652  28.067  1.00  0.00    -0.203 F 
ATOM     69  C   UNL A   1      44.592  33.913  26.566  1.00  0.00     0.198 A 
ATOM     70  C   UNL A   1      46.946  33.585  26.389  1.00  0.00     0.198 A 
ATOM     71  F   UNL A   1      48.015  31.907  27.544  1.00  0.00    -0.203 F 
ATOM     72  F   UNL A   1      43.469  34.496  26.129  1.00  0.00    -0.200 F 
ATOM     73  C   UNL A   1      45.802  34.232  25.976  1.00  0.00     0.200 A 
ATOM     74  F   UNL A   1      48.126  33.864  25.818  1.00  0.00    -0.200 F 
ATOM     75  F   UNL A   1      45.861  35.120  24.976  1.00  0.00    -0.200 F 
ENDBRANCH  51  65
BRANCH  52  76
ATOM     76  C   UNL A   1      37.346  31.081  30.483  1.00  0.00     0.064 A 
ATOM     77  C   UNL A   1      36.442  31.427  31.503  1.00  0.00     0.173 A 
ATOM     78  C   UNL A   1      36.987  31.482  29.180  1.00  0.00     0.173 A 
ATOM     79  F   UNL A   1      36.718  31.128  32.781  1.00  0.00    -0.203 F 
ATOM     80  C   UNL A   1      35.270  32.150  31.239  1.00  0.00     0.198 A 
ATOM     81  C   UNL A   1      35.817  32.195  28.916  1.00  0.00     0.198 A 
ATOM     82  F   UNL A   1      37.808  31.275  28.142  1.00  0.00    -0.203 F 
ATOM     83  F   UNL A   1      34.465  32.514  32.246  1.00  0.00    -0.200 F 
ATOM     84  C   UNL A   1      34.965  32.543  29.945  1.00  0.00     0.200 A 
ATOM     85  F   UNL A   1      35.554  32.597  27.664  1.00  0.00    -0.200 F 
ATOM     86  F   UNL A   1      33.878  33.286  29.698  1.00  0.00    -0.200 F 
ENDBRANCH  52  76
BRANCH  64  87
ATOM     87  C   UNL A   1      42.608  30.030  33.693  1.00  0.00     0.064 A 
ATOM     88  C   UNL A   1      42.586  30.550  35.000  1.00  0.00     0.173 A 
ATOM     89  C   UNL A   1      42.199  28.702  33.527  1.00  0.00     0.173 A 
ATOM     90  F   UNL A   1      42.849  31.840  35.233  1.00  0.00    -0.203 F 
ATOM     91  C   UNL A   1      42.230  29.760  36.091  1.00  0.00     0.198 A 
ATOM     92  C   UNL A   1      41.805  27.925  34.613  1.00  0.00     0.198 A 
ATOM     93  F   UNL A   1      42.135  28.169  32.297  1.00  0.00    -0.203 F 
ATOM     94  F   UNL A   1      42.236  30.279  37.329  1.00  0.00    -0.200 F 
ATOM     95  C   UNL A   1      41.834  28.448  35.896  1.00  0.00     0.200 A 
ATOM     96  F   UNL A   1      41.369  26.675  34.411  1.00  0.00    -0.200 F 
ATOM     97  F   UNL A   1      41.457  27.696  36.938  1.00  0.00    -0.200 F 
ENDBRANCH  64  87
ENDBRANCH  38  39
ENDBRANCH  31  33
ENDBRANCH  30  31
ENDBRANCH  29  30
ENDBRANCH   1  29
TORSDOF 15
ENDMDL
MODEL 3
REMARK VINA RESULT:     -11.3      4.566      9.514
REMARK SMILES NS(=O)(=O)c1ccc(-c2coc(=O)n2-c2ccc(C(=O)OCCOC(=O)c3ccc(-c4c5nc(c(-c6c(F)c(F)c(F)c(F)c6F)c6ccc([nH]6)c(-c6c(F)c(F)c(F)c(F)c6F)c6nc(c(-c7c(F)c(F)c(F)c(F)c7F)c7ccc4[nH]7)C=C6)C=C5)cc3)cc2)cc1
REMARK SMILES IDX 22 1 21 2 19 3 20 4 18 5 15 6 16 7 91 8 17 9 90 10 14 11
REMARK SMILES IDX 9 12 10 13 11 14 12 15 13 16 8 17 5 18 6 19 93 20 7 21 92 22
REMARK SMILES IDX 2 23 3 24 4 25 1 26 23 29 24 30 25 31 26 32 27 33 28 34
REMARK SMILES IDX 89 35 29 36 88 37 30 38 31 39 32 40 82 41 33 42 87 43 81 44
REMARK SMILES IDX 83 45 34 46 86 47 80 48 79 49 35 51 67 52 47 53 66 54 48 55
REMARK SMILES IDX 51 56 65 57 84 58 49 59 50 60 64 62 85 63 52 64 36 65 37 66
REMARK SMILES IDX 45 67 38 68 39 69 43 70 46 71 40 72 41 73 44 74 42 75 68 76
REMARK SMILES IDX 69 77 77 78 70 79 71 80 75 81 78 82 72 83 73 84 76 85 74 86
REMARK SMILES IDX 53 87 54 88 62 89 55 90 56 91 60 92 63 93 57 94 58 95 61 96
REMARK SMILES IDX 59 97
REMARK H PARENT 1 27 1 28 83 50 51 61
REMARK Flexibility Score: inf
ROOT
ATOM      1  C   UNL A   1      34.318  32.068  28.564  1.00  0.00     0.275 C 
ENDROOT
BRANCH   1   2
ATOM      2  O   UNL A   1      34.154  30.836  27.844  1.00  0.00    -0.458 OA
BRANCH   2   3
ATOM      3  C   UNL A   1      32.960  30.666  27.219  1.00  0.00     0.338 C 
ATOM      4  O   UNL A   1      32.145  31.537  26.958  1.00  0.00    -0.246 OA
BRANCH   3   5
ATOM      5  C   UNL A   1      32.806  29.256  26.786  1.00  0.00     0.060 A 
ATOM      6  C   UNL A   1      32.402  26.705  25.722  1.00  0.00     0.053 A 
ATOM      7  C   UNL A   1      33.533  27.435  25.349  1.00  0.00     0.028 A 
ATOM      8  C   UNL A   1      31.557  27.203  26.725  1.00  0.00     0.028 A 
ATOM      9  C   UNL A   1      33.718  28.723  25.861  1.00  0.00     0.018 A 
ATOM     10  C   UNL A   1      31.760  28.468  27.265  1.00  0.00     0.018 A 
BRANCH   6  11
ATOM     11  N   UNL A   1      32.008  25.566  24.990  1.00  0.00    -0.242 N 
ATOM     12  C   UNL A   1      31.029  25.503  24.035  1.00  0.00     0.095 A 
ATOM     13  C   UNL A   1      31.002  24.245  23.615  1.00  0.00     0.228 A 
ATOM     14  O   UNL A   1      31.939  23.417  24.234  1.00  0.00    -0.415 OA
ATOM     15  C   UNL A   1      32.595  24.308  25.089  1.00  0.00     0.424 A 
ATOM     16  O   UNL A   1      33.522  23.964  25.809  1.00  0.00    -0.223 OA
BRANCH  12  17
ATOM     17  C   UNL A   1      30.315  26.657  23.491  1.00  0.00     0.002 A 
ATOM     18  C   UNL A   1      29.044  29.000  22.641  1.00  0.00     0.082 A 
ATOM     19  C   UNL A   1      30.397  28.814  22.358  1.00  0.00     0.022 A 
ATOM     20  C   UNL A   1      28.318  28.026  23.333  1.00  0.00     0.022 A 
ATOM     21  C   UNL A   1      31.025  27.639  22.776  1.00  0.00     0.012 A 
ATOM     22  C   UNL A   1      28.952  26.850  23.748  1.00  0.00     0.012 A 
BRANCH  18  23
ATOM     23  S   UNL A   1      28.257  30.514  22.173  1.00  0.00     0.238 S 
ATOM     24  O   UNL A   1      27.316  30.905  23.187  1.00  0.00    -0.207 OA
ATOM     25  O   UNL A   1      27.906  30.439  20.769  1.00  0.00    -0.207 OA
BRANCH  23  26
ATOM     26  N   UNL A   1      29.526  31.607  22.280  1.00  0.00    -0.225 NA
ATOM     27  H   UNL A   1      29.861  31.646  23.242  1.00  0.00     0.137 HD
ATOM     28  H   UNL A   1      29.202  32.532  21.996  1.00  0.00     0.137 HD
ENDBRANCH  23  26
ENDBRANCH  18  23
ENDBRANCH  12  17
ENDBRANCH   6  11
ENDBRANCH   3   5
ENDBRANCH   2   3
ENDBRANCH   1   2
BRANCH   1  29
ATOM     29  C   UNL A   1      35.239  31.883  29.760  1.00  0.00     0.275 C 
BRANCH  29  30
ATOM     30  O   UNL A   1      36.241  30.909  29.483  1.00  0.00    -0.458 OA
BRANCH  30  31
ATOM     31  C   UNL A   1      36.470  30.021  30.476  1.00  0.00     0.338 C 
ATOM     32  O   UNL A   1      36.070  30.065  31.627  1.00  0.00    -0.246 OA
BRANCH  31  33
ATOM     33  C   UNL A   1      37.520  29.103  30.041  1.00  0.00     0.060 A 
ATOM     34  C   UNL A   1      38.213  28.395  31.028  1.00  0.00     0.016 A 
ATOM     35  C   UNL A   1      38.013  29.254  28.738  1.00  0.00     0.016 A 
ATOM     36  C   UNL A   1      39.507  28.006  30.759  1.00  0.00     0.010 A 
ATOM     37  C   UNL A   1      39.306  28.893  28.483  1.00  0.00     0.010 A 
ATOM     38  C   UNL A   1      40.059  28.351  29.522  1.00  0.00    -0.014 A 
BRANCH  38  39
ATOM     39  C   UNL A   1      41.431  28.010  29.233  1.00  0.00     0.031 A 
ATOM     40  C   UNL A   1      41.553  26.671  28.614  1.00  0.00     0.074 A 
ATOM     41  C   UNL A   1      42.416  28.919  29.361  1.00  0.00     0.049 A 
ATOM     42  N   UNL A   1      42.194  25.656  29.085  1.00  0.00    -0.248 NA
ATOM     43  C   UNL A   1      40.713  26.358  27.443  1.00  0.00     0.031 C 
ATOM     44  C   UNL A   1      42.311  30.323  29.769  1.00  0.00     0.029 A 
ATOM     45  N   UNL A   1      43.730  28.797  29.035  1.00  0.00    -0.354 N 
ATOM     46  C   UNL A   1      42.005  24.634  28.163  1.00  0.00     0.074 A 
ATOM     47  C   UNL A   1      40.939  25.052  27.296  1.00  0.00     0.031 C 
ATOM     48  C   UNL A   1      43.454  30.971  29.447  1.00  0.00     0.029 A 
ATOM     49  C   UNL A   1      44.403  30.011  28.915  1.00  0.00     0.049 A 
ATOM     50  H   UNL A   1      44.168  27.926  28.894  1.00  0.00     0.167 HD
ATOM     51  C   UNL A   1      42.935  23.652  28.029  1.00  0.00     0.037 A 
ATOM     52  C   UNL A   1      45.615  30.183  28.326  1.00  0.00     0.037 A 
ATOM     53  C   UNL A   1      43.790  23.595  29.189  1.00  0.00     0.049 A 
ATOM     54  C   UNL A   1      46.283  28.850  28.319  1.00  0.00     0.074 A 
ATOM     55  C   UNL A   1      43.566  23.361  30.531  1.00  0.00     0.029 A 
ATOM     56  N   UNL A   1      45.015  24.214  29.110  1.00  0.00    -0.354 N 
ATOM     57  N   UNL A   1      46.681  28.251  29.409  1.00  0.00    -0.248 NA
ATOM     58  C   UNL A   1      46.026  27.973  27.184  1.00  0.00     0.031 C 
ATOM     59  C   UNL A   1      44.426  24.269  31.214  1.00  0.00     0.029 A 
ATOM     60  C   UNL A   1      45.191  24.941  30.261  1.00  0.00     0.049 A 
ATOM     61  H   UNL A   1      45.653  24.146  28.364  1.00  0.00     0.167 HD
ATOM     62  C   UNL A   1      46.291  26.929  29.244  1.00  0.00     0.074 A 
ATOM     63  C   UNL A   1      45.951  26.802  27.827  1.00  0.00     0.031 C 
ATOM     64  C   UNL A   1      45.975  26.151  30.323  1.00  0.00     0.037 A 
BRANCH  51  65
ATOM     65  C   UNL A   1      43.318  23.040  26.709  1.00  0.00     0.064 A 
ATOM     66  C   UNL A   1      43.124  21.660  26.523  1.00  0.00     0.173 A 
ATOM     67  C   UNL A   1      44.143  23.676  25.752  1.00  0.00     0.173 A 
ATOM     68  F   UNL A   1      42.369  20.956  27.379  1.00  0.00    -0.203 F 
ATOM     69  C   UNL A   1      43.780  20.954  25.512  1.00  0.00     0.198 A 
ATOM     70  C   UNL A   1      44.752  22.977  24.713  1.00  0.00     0.198 A 
ATOM     71  F   UNL A   1      44.490  24.964  25.843  1.00  0.00    -0.203 F 
ATOM     72  F   UNL A   1      43.673  19.620  25.456  1.00  0.00    -0.200 F 
ATOM     73  C   UNL A   1      44.601  21.612  24.614  1.00  0.00     0.200 A 
ATOM     74  F   UNL A   1      45.557  23.633  23.865  1.00  0.00    -0.200 F 
ATOM     75  F   UNL A   1      45.285  20.929  23.687  1.00  0.00    -0.200 F 
ENDBRANCH  51  65
BRANCH  52  76
ATOM     76  C   UNL A   1      46.070  31.318  27.480  1.00  0.00     0.064 A 
ATOM     77  C   UNL A   1      45.207  31.935  26.557  1.00  0.00     0.173 A 
ATOM     78  C   UNL A   1      47.277  31.999  27.744  1.00  0.00     0.173 A 
ATOM     79  F   UNL A   1      44.016  31.386  26.276  1.00  0.00    -0.203 F 
ATOM     80  C   UNL A   1      45.519  33.164  25.960  1.00  0.00     0.198 A 
ATOM     81  C   UNL A   1      47.592  33.218  27.143  1.00  0.00     0.198 A 
ATOM     82  F   UNL A   1      48.140  31.545  28.663  1.00  0.00    -0.203 F 
ATOM     83  F   UNL A   1      44.643  33.750  25.132  1.00  0.00    -0.200 F 
ATOM     84  C   UNL A   1      46.708  33.809  26.262  1.00  0.00     0.200 A 
ATOM     85  F   UNL A   1      48.730  33.845  27.473  1.00  0.00    -0.200 F 
ATOM     86  F   UNL A   1      46.981  35.012  25.739  1.00  0.00    -0.200 F 
ENDBRANCH  52  76
BRANCH  64  87
ATOM     87  C   UNL A   1      46.270  26.701  31.692  1.00  0.00     0.064 A 
ATOM     88  C   UNL A   1      45.359  27.461  32.449  1.00  0.00     0.173 A 
ATOM     89  C   UNL A   1      47.462  26.322  32.320  1.00  0.00     0.173 A 
ATOM     90  F   UNL A   1      44.150  27.765  31.968  1.00  0.00    -0.203 F 
ATOM     91  C   UNL A   1      45.657  27.871  33.747  1.00  0.00     0.198 A 
ATOM     92  C   UNL A   1      47.741  26.698  33.631  1.00  0.00     0.198 A 
ATOM     93  F   UNL A   1      48.341  25.540  31.673  1.00  0.00    -0.203 F 
ATOM     94  F   UNL A   1      44.776  28.612  34.438  1.00  0.00    -0.200 F 
ATOM     95  C   UNL A   1      46.847  27.485  34.339  1.00  0.00     0.200 A 
ATOM     96  F   UNL A   1      48.868  26.274  34.217  1.00  0.00    -0.200 F 
ATOM     97  F   UNL A   1      47.120  27.847  35.599  1.00  0.00    -0.200 F 
ENDBRANCH  64  87
ENDBRANCH  38  39
ENDBRANCH  31  33
ENDBRANCH  30  31
ENDBRANCH  29  30
ENDBRANCH   1  29
TORSDOF 15
ENDMDL
