MODEL 1
REMARK VINA RESULT:     -10.1      0.000      0.000
REMARK SMILES COc1ccc2cc([C@@H](C)C(=O)OCCOC(=O)c3ccc(-c4c5nc(c(-c6c(F)c(F)c(F)c(F)c6F)c6ccc([nH]6)c(-c6c(F)c(F)c(F)c(F)c6F)c6nc(c(-c7c(F)c(F)c(F)c(F)c7F)c7ccc4[nH]7)C=C6)C=C5)cc3)ccc2c1
REMARK SMILES IDX 14 1 13 2 11 3 12 4 9 5 10 6 8 7 3 8 4 9 85 10 5 11 84 12
REMARK SMILES IDX 6 13 83 14 7 15 82 16 2 17 1 18 15 19 16 20 17 21 18 22
REMARK SMILES IDX 19 23 20 24 81 25 21 26 80 27 22 28 23 29 24 30 74 31 25 32
REMARK SMILES IDX 79 33 73 34 75 35 26 36 78 37 72 38 71 39 27 41 59 42 39 43
REMARK SMILES IDX 58 44 40 45 43 46 57 47 76 48 41 49 42 50 56 52 77 53 44 54
REMARK SMILES IDX 28 55 29 56 37 57 30 58 31 59 35 60 38 61 32 62 33 63 36 64
REMARK SMILES IDX 34 65 60 66 61 67 69 68 62 69 63 70 67 71 70 72 64 73 65 74
REMARK SMILES IDX 68 75 66 76 45 77 46 78 54 79 47 80 48 81 52 82 55 83 49 84
REMARK SMILES IDX 50 85 53 86 51 87
REMARK H PARENT 75 40 43 51
REMARK Flexibility Score: inf
ROOT
ATOM      1  C   UNL A   1      42.406  20.027  26.507  1.00  0.00     0.274 C 
ENDROOT
BRANCH   1   2
ATOM      2  O   UNL A   1      43.217  20.383  25.371  1.00  0.00    -0.462 OA
BRANCH   2   3
ATOM      3  C   UNL A   1      43.519  21.697  25.218  1.00  0.00     0.313 C 
ATOM      4  O   UNL A   1      42.700  22.565  24.926  1.00  0.00    -0.252 OA
BRANCH   3   5
ATOM      5  C   UNL A   1      45.000  22.014  25.387  1.00  0.00     0.126 C 
ATOM      6  C   UNL A   1      45.814  20.721  25.370  1.00  0.00     0.025 C 
BRANCH   5   7
ATOM      7  C   UNL A   1      45.362  22.910  26.562  1.00  0.00    -0.033 A 
ATOM      8  C   UNL A   1      45.713  25.319  31.022  1.00  0.00     0.119 A 
ATOM      9  C   UNL A   1      44.532  24.582  31.074  1.00  0.00     0.047 A 
ATOM     10  C   UNL A   1      46.480  25.327  29.857  1.00  0.00     0.055 A 
ATOM     11  C   UNL A   1      44.148  23.807  29.978  1.00  0.00     0.012 A 
ATOM     12  C   UNL A   1      46.110  24.545  28.751  1.00  0.00    -0.015 A 
ATOM     13  C   UNL A   1      44.936  23.764  28.818  1.00  0.00    -0.018 A 
ATOM     14  C   UNL A   1      46.886  24.511  27.585  1.00  0.00     0.009 A 
ATOM     15  C   UNL A   1      44.579  22.957  27.725  1.00  0.00     0.013 A 
ATOM     16  C   UNL A   1      46.518  23.703  26.507  1.00  0.00     0.005 A 
BRANCH   8  17
ATOM     17  O   UNL A   1      46.171  26.094  32.054  1.00  0.00    -0.497 OA
ATOM     18  C   UNL A   1      45.188  26.990  32.568  1.00  0.00     0.278 C 
ENDBRANCH   8  17
ENDBRANCH   5   7
ENDBRANCH   3   5
ENDBRANCH   2   3
ENDBRANCH   1   2
BRANCH   1  19
ATOM     19  C   UNL A   1      40.942  19.823  26.112  1.00  0.00     0.275 C 
BRANCH  19  20
ATOM     20  O   UNL A   1      40.058  20.533  27.000  1.00  0.00    -0.458 OA
BRANCH  20  21
ATOM     21  C   UNL A   1      39.313  21.495  26.412  1.00  0.00     0.338 C 
ATOM     22  O   UNL A   1      38.348  21.349  25.684  1.00  0.00    -0.246 OA
BRANCH  21  23
ATOM     23  C   UNL A   1      39.761  22.816  26.872  1.00  0.00     0.060 A 
ATOM     24  C   UNL A   1      39.305  23.939  26.177  1.00  0.00     0.016 A 
ATOM     25  C   UNL A   1      40.694  22.945  27.902  1.00  0.00     0.016 A 
ATOM     26  C   UNL A   1      39.792  25.202  26.495  1.00  0.00     0.010 A 
ATOM     27  C   UNL A   1      41.181  24.215  28.223  1.00  0.00     0.010 A 
ATOM     28  C   UNL A   1      40.746  25.347  27.509  1.00  0.00    -0.014 A 
BRANCH  28  29
ATOM     29  C   UNL A   1      41.339  26.680  27.768  1.00  0.00     0.031 A 
ATOM     30  C   UNL A   1      42.714  26.991  27.256  1.00  0.00     0.074 A 
ATOM     31  C   UNL A   1      40.630  27.613  28.426  1.00  0.00     0.049 A 
ATOM     32  N   UNL A   1      43.437  28.070  27.424  1.00  0.00    -0.248 NA
ATOM     33  C   UNL A   1      43.365  25.950  26.446  1.00  0.00     0.031 C 
ATOM     34  C   UNL A   1      39.268  27.440  28.927  1.00  0.00     0.029 A 
ATOM     35  N   UNL A   1      40.962  28.895  28.786  1.00  0.00    -0.354 N 
ATOM     36  C   UNL A   1      44.632  27.831  26.759  1.00  0.00     0.074 A 
ATOM     37  C   UNL A   1      44.544  26.501  26.195  1.00  0.00     0.031 C 
ATOM     38  C   UNL A   1      38.877  28.574  29.532  1.00  0.00     0.029 A 
ATOM     39  C   UNL A   1      39.976  29.537  29.493  1.00  0.00     0.049 A 
ATOM     40  H   UNL A   1      41.823  29.314  28.559  1.00  0.00     0.167 HD
ATOM     41  C   UNL A   1      45.702  28.650  26.631  1.00  0.00     0.037 A 
ATOM     42  C   UNL A   1      39.972  30.756  30.065  1.00  0.00     0.037 A 
ATOM     43  C   UNL A   1      45.778  29.979  27.181  1.00  0.00     0.049 A 
ATOM     44  C   UNL A   1      41.191  31.629  29.945  1.00  0.00     0.074 A 
ATOM     45  C   UNL A   1      46.817  30.888  27.102  1.00  0.00     0.029 A 
ATOM     46  N   UNL A   1      44.768  30.587  27.911  1.00  0.00    -0.354 N 
ATOM     47  N   UNL A   1      42.321  31.391  29.325  1.00  0.00    -0.248 NA
ATOM     48  C   UNL A   1      41.135  32.939  30.609  1.00  0.00     0.031 C 
ATOM     49  C   UNL A   1      46.450  32.036  27.812  1.00  0.00     0.029 A 
ATOM     50  C   UNL A   1      45.166  31.856  28.300  1.00  0.00     0.049 A 
ATOM     51  H   UNL A   1      43.898  30.179  28.121  1.00  0.00     0.167 HD
ATOM     52  C   UNL A   1      43.101  32.525  29.505  1.00  0.00     0.074 A 
ATOM     53  C   UNL A   1      42.311  33.457  30.282  1.00  0.00     0.031 C 
ATOM     54  C   UNL A   1      44.360  32.770  29.068  1.00  0.00     0.037 A 
BRANCH  41  55
ATOM     55  C   UNL A   1      46.890  28.120  25.889  1.00  0.00     0.064 A 
ATOM     56  C   UNL A   1      46.920  28.063  24.488  1.00  0.00     0.173 A 
ATOM     57  C   UNL A   1      48.028  27.689  26.589  1.00  0.00     0.173 A 
ATOM     58  F   UNL A   1      45.852  28.450  23.775  1.00  0.00    -0.203 F 
ATOM     59  C   UNL A   1      48.037  27.575  23.815  1.00  0.00     0.198 A 
ATOM     60  C   UNL A   1      49.151  27.223  25.913  1.00  0.00     0.198 A 
ATOM     61  F   UNL A   1      48.050  27.725  27.930  1.00  0.00    -0.203 F 
ATOM     62  F   UNL A   1      48.030  27.493  22.478  1.00  0.00    -0.200 F 
ATOM     63  C   UNL A   1      49.153  27.161  24.528  1.00  0.00     0.200 A 
ATOM     64  F   UNL A   1      50.232  26.831  26.602  1.00  0.00    -0.200 F 
ATOM     65  F   UNL A   1      50.230  26.695  23.878  1.00  0.00    -0.200 F 
ENDBRANCH  41  55
BRANCH  42  66
ATOM     66  C   UNL A   1      38.777  31.214  30.816  1.00  0.00     0.064 A 
ATOM     67  C   UNL A   1      37.741  31.904  30.172  1.00  0.00     0.173 A 
ATOM     68  C   UNL A   1      38.647  30.972  32.192  1.00  0.00     0.173 A 
ATOM     69  F   UNL A   1      37.833  32.181  28.863  1.00  0.00    -0.203 F 
ATOM     70  C   UNL A   1      36.624  32.345  30.879  1.00  0.00     0.198 A 
ATOM     71  C   UNL A   1      37.518  31.392  32.892  1.00  0.00     0.198 A 
ATOM     72  F   UNL A   1      39.613  30.318  32.852  1.00  0.00    -0.203 F 
ATOM     73  F   UNL A   1      35.665  33.036  30.248  1.00  0.00    -0.200 F 
ATOM     74  C   UNL A   1      36.510  32.083  32.236  1.00  0.00     0.200 A 
ATOM     75  F   UNL A   1      37.409  31.129  34.201  1.00  0.00    -0.200 F 
ATOM     76  F   UNL A   1      35.434  32.504  32.915  1.00  0.00    -0.200 F 
ENDBRANCH  42  66
BRANCH  54  77
ATOM     77  C   UNL A   1      44.948  34.110  29.396  1.00  0.00     0.064 A 
ATOM     78  C   UNL A   1      45.697  34.316  30.564  1.00  0.00     0.173 A 
ATOM     79  C   UNL A   1      44.792  35.189  28.514  1.00  0.00     0.173 A 
ATOM     80  F   UNL A   1      45.860  33.318  31.445  1.00  0.00    -0.203 F 
ATOM     81  C   UNL A   1      46.250  35.561  30.847  1.00  0.00     0.198 A 
ATOM     82  C   UNL A   1      45.367  36.427  28.788  1.00  0.00     0.198 A 
ATOM     83  F   UNL A   1      44.089  35.040  27.381  1.00  0.00    -0.203 F 
ATOM     84  F   UNL A   1      46.928  35.748  31.988  1.00  0.00    -0.200 F 
ATOM     85  C   UNL A   1      46.090  36.614  29.956  1.00  0.00     0.200 A 
ATOM     86  F   UNL A   1      45.218  37.439  27.924  1.00  0.00    -0.200 F 
ATOM     87  F   UNL A   1      46.627  37.810  30.229  1.00  0.00    -0.200 F 
ENDBRANCH  54  77
ENDBRANCH  28  29
ENDBRANCH  21  23
ENDBRANCH  20  21
ENDBRANCH  19  20
ENDBRANCH   1  19
TORSDOF 13
ENDMDL
MODEL 2
REMARK VINA RESULT:      -9.9      2.634      5.434
REMARK SMILES COc1ccc2cc([C@@H](C)C(=O)OCCOC(=O)c3ccc(-c4c5nc(c(-c6c(F)c(F)c(F)c(F)c6F)c6ccc([nH]6)c(-c6c(F)c(F)c(F)c(F)c6F)c6nc(c(-c7c(F)c(F)c(F)c(F)c7F)c7ccc4[nH]7)C=C6)C=C5)cc3)ccc2c1
REMARK SMILES IDX 14 1 13 2 11 3 12 4 9 5 10 6 8 7 3 8 4 9 85 10 5 11 84 12
REMARK SMILES IDX 6 13 83 14 7 15 82 16 2 17 1 18 15 19 16 20 17 21 18 22
REMARK SMILES IDX 19 23 20 24 81 25 21 26 80 27 22 28 23 29 24 30 74 31 25 32
REMARK SMILES IDX 79 33 73 34 75 35 26 36 78 37 72 38 71 39 27 41 59 42 39 43
REMARK SMILES IDX 58 44 40 45 43 46 57 47 76 48 41 49 42 50 56 52 77 53 44 54
REMARK SMILES IDX 28 55 29 56 37 57 30 58 31 59 35 60 38 61 32 62 33 63 36 64
REMARK SMILES IDX 34 65 60 66 61 67 69 68 62 69 63 70 67 71 70 72 64 73 65 74
REMARK SMILES IDX 68 75 66 76 45 77 46 78 54 79 47 80 48 81 52 82 55 83 49 84
REMARK SMILES IDX 50 85 53 86 51 87
REMARK H PARENT 75 40 43 51
REMARK Flexibility Score: inf
ROOT
ATOM      1  C   UNL A   1      42.565  18.424  26.389  1.00  0.00     0.274 C 
ENDROOT
BRANCH   1   2
ATOM      2  O   UNL A   1      41.976  19.715  26.145  1.00  0.00    -0.462 OA
BRANCH   2   3
ATOM      3  C   UNL A   1      41.328  20.304  27.183  1.00  0.00     0.313 C 
ATOM      4  O   UNL A   1      40.799  19.688  28.105  1.00  0.00    -0.252 OA
BRANCH   3   5
ATOM      5  C   UNL A   1      41.261  21.823  27.087  1.00  0.00     0.126 C 
ATOM      6  C   UNL A   1      41.772  22.450  28.383  1.00  0.00     0.025 C 
BRANCH   5   7
ATOM      7  C   UNL A   1      39.927  22.407  26.647  1.00  0.00    -0.033 A 
ATOM      8  C   UNL A   1      35.274  23.269  24.797  1.00  0.00     0.119 A 
ATOM      9  C   UNL A   1      35.648  22.012  24.328  1.00  0.00     0.047 A 
ATOM     10  C   UNL A   1      36.169  24.027  25.553  1.00  0.00     0.055 A 
ATOM     11  C   UNL A   1      36.899  21.488  24.665  1.00  0.00     0.012 A 
ATOM     12  C   UNL A   1      37.425  23.508  25.907  1.00  0.00    -0.015 A 
ATOM     13  C   UNL A   1      37.788  22.217  25.468  1.00  0.00    -0.018 A 
ATOM     14  C   UNL A   1      38.323  24.239  26.695  1.00  0.00     0.009 A 
ATOM     15  C   UNL A   1      39.032  21.684  25.845  1.00  0.00     0.013 A 
ATOM     16  C   UNL A   1      39.556  23.695  27.062  1.00  0.00     0.005 A 
BRANCH   8  17
ATOM     17  O   UNL A   1      34.065  23.851  24.527  1.00  0.00    -0.497 OA
ATOM     18  C   UNL A   1      34.063  24.624  23.328  1.00  0.00     0.278 C 
ENDBRANCH   8  17
ENDBRANCH   5   7
ENDBRANCH   3   5
ENDBRANCH   2   3
ENDBRANCH   1   2
BRANCH   1  19
ATOM     19  C   UNL A   1      43.776  18.178  25.487  1.00  0.00     0.275 C 
BRANCH  19  20
ATOM     20  O   UNL A   1      43.828  19.134  24.411  1.00  0.00    -0.458 OA
BRANCH  20  21
ATOM     21  C   UNL A   1      45.025  19.740  24.244  1.00  0.00     0.338 C 
ATOM     22  O   UNL A   1      45.998  19.315  23.649  1.00  0.00    -0.246 OA
BRANCH  21  23
ATOM     23  C   UNL A   1      44.971  21.098  24.801  1.00  0.00     0.060 A 
ATOM     24  C   UNL A   1      44.746  22.157  23.918  1.00  0.00     0.016 A 
ATOM     25  C   UNL A   1      45.238  21.338  26.149  1.00  0.00     0.016 A 
ATOM     26  C   UNL A   1      44.805  23.469  24.373  1.00  0.00     0.010 A 
ATOM     27  C   UNL A   1      45.294  22.658  26.607  1.00  0.00     0.010 A 
ATOM     28  C   UNL A   1      45.096  23.729  25.717  1.00  0.00    -0.014 A 
BRANCH  28  29
ATOM     29  C   UNL A   1      45.263  25.131  26.169  1.00  0.00     0.031 A 
ATOM     30  C   UNL A   1      46.610  25.784  26.075  1.00  0.00     0.074 A 
ATOM     31  C   UNL A   1      44.203  25.819  26.627  1.00  0.00     0.049 A 
ATOM     32  N   UNL A   1      46.984  26.975  26.470  1.00  0.00    -0.248 NA
ATOM     33  C   UNL A   1      47.682  24.992  25.453  1.00  0.00     0.031 C 
ATOM     34  C   UNL A   1      42.838  25.304  26.718  1.00  0.00     0.029 A 
ATOM     35  N   UNL A   1      44.112  27.103  27.101  1.00  0.00    -0.354 N 
ATOM     36  C   UNL A   1      48.334  27.068  26.162  1.00  0.00     0.074 A 
ATOM     37  C   UNL A   1      48.720  25.809  25.560  1.00  0.00     0.031 C 
ATOM     38  C   UNL A   1      42.043  26.263  27.220  1.00  0.00     0.029 A 
ATOM     39  C   UNL A   1      42.850  27.444  27.519  1.00  0.00     0.049 A 
ATOM     40  H   UNL A   1      44.877  27.721  27.138  1.00  0.00     0.167 HD
ATOM     41  C   UNL A   1      49.173  28.111  26.365  1.00  0.00     0.037 A 
ATOM     42  C   UNL A   1      42.404  28.573  28.100  1.00  0.00     0.037 A 
ATOM     43  C   UNL A   1      48.781  29.367  26.950  1.00  0.00     0.049 A 
ATOM     44  C   UNL A   1      43.366  29.701  28.354  1.00  0.00     0.074 A 
ATOM     45  C   UNL A   1      49.557  30.486  27.192  1.00  0.00     0.029 A 
ATOM     46  N   UNL A   1      47.498  29.667  27.382  1.00  0.00    -0.354 N 
ATOM     47  N   UNL A   1      44.644  29.777  28.070  1.00  0.00    -0.248 NA
ATOM     48  C   UNL A   1      42.825  30.898  29.011  1.00  0.00     0.031 C 
ATOM     49  C   UNL A   1      48.750  31.454  27.802  1.00  0.00     0.029 A 
ATOM     50  C   UNL A   1      47.464  30.950  27.903  1.00  0.00     0.049 A 
ATOM     51  H   UNL A   1      46.726  29.059  27.327  1.00  0.00     0.167 HD
ATOM     52  C   UNL A   1      45.055  31.032  28.495  1.00  0.00     0.074 A 
ATOM     53  C   UNL A   1      43.887  31.691  29.043  1.00  0.00     0.031 C 
ATOM     54  C   UNL A   1      46.289  31.589  28.438  1.00  0.00     0.037 A 
BRANCH  41  55
ATOM     55  C   UNL A   1      50.608  27.927  25.973  1.00  0.00     0.064 A 
ATOM     56  C   UNL A   1      51.592  27.595  26.916  1.00  0.00     0.173 A 
ATOM     57  C   UNL A   1      50.997  28.055  24.631  1.00  0.00     0.173 A 
ATOM     58  F   UNL A   1      51.272  27.476  28.213  1.00  0.00    -0.203 F 
ATOM     59  C   UNL A   1      52.919  27.419  26.531  1.00  0.00     0.198 A 
ATOM     60  C   UNL A   1      52.320  27.856  24.247  1.00  0.00     0.198 A 
ATOM     61  F   UNL A   1      50.093  28.369  23.692  1.00  0.00    -0.203 F 
ATOM     62  F   UNL A   1      53.851  27.140  27.454  1.00  0.00    -0.200 F 
ATOM     63  C   UNL A   1      53.281  27.544  25.198  1.00  0.00     0.200 A 
ATOM     64  F   UNL A   1      52.667  27.969  22.958  1.00  0.00    -0.200 F 
ATOM     65  F   UNL A   1      54.558  27.369  24.830  1.00  0.00    -0.200 F 
ENDBRANCH  41  55
BRANCH  42  66
ATOM     66  C   UNL A   1      40.978  28.684  28.496  1.00  0.00     0.064 A 
ATOM     67  C   UNL A   1      40.009  29.127  27.586  1.00  0.00     0.173 A 
ATOM     68  C   UNL A   1      40.556  28.350  29.792  1.00  0.00     0.173 A 
ATOM     69  F   UNL A   1      40.369  29.482  26.344  1.00  0.00    -0.203 F 
ATOM     70  C   UNL A   1      38.671  29.244  27.961  1.00  0.00     0.198 A 
ATOM     71  C   UNL A   1      39.215  28.444  30.158  1.00  0.00     0.198 A 
ATOM     72  F   UNL A   1      41.447  27.925  30.699  1.00  0.00    -0.203 F 
ATOM     73  F   UNL A   1      37.771  29.706  27.084  1.00  0.00    -0.200 F 
ATOM     74  C   UNL A   1      38.275  28.896  29.243  1.00  0.00     0.200 A 
ATOM     75  F   UNL A   1      38.835  28.099  31.395  1.00  0.00    -0.200 F 
ATOM     76  F   UNL A   1      36.988  29.004  29.602  1.00  0.00    -0.200 F 
ENDBRANCH  42  66
BRANCH  54  77
ATOM     77  C   UNL A   1      46.432  32.989  28.955  1.00  0.00     0.064 A 
ATOM     78  C   UNL A   1      46.784  33.245  30.289  1.00  0.00     0.173 A 
ATOM     79  C   UNL A   1      46.251  34.084  28.099  1.00  0.00     0.173 A 
ATOM     80  F   UNL A   1      46.951  32.230  31.149  1.00  0.00    -0.203 F 
ATOM     81  C   UNL A   1      46.928  34.550  30.750  1.00  0.00     0.198 A 
ATOM     82  C   UNL A   1      46.420  35.388  28.558  1.00  0.00     0.198 A 
ATOM     83  F   UNL A   1      45.920  33.890  26.813  1.00  0.00    -0.203 F 
ATOM     84  F   UNL A   1      47.225  34.775  32.038  1.00  0.00    -0.200 F 
ATOM     85  C   UNL A   1      46.753  35.620  29.884  1.00  0.00     0.200 A 
ATOM     86  F   UNL A   1      46.258  36.419  27.718  1.00  0.00    -0.200 F 
ATOM     87  F   UNL A   1      46.896  36.875  30.329  1.00  0.00    -0.200 F 
ENDBRANCH  54  77
ENDBRANCH  28  29
ENDBRANCH  21  23
ENDBRANCH  20  21
ENDBRANCH  19  20
ENDBRANCH   1  19
TORSDOF 13
ENDMDL
MODEL 3
REMARK VINA RESULT:      -9.8      2.642      5.607
REMARK SMILES COc1ccc2cc([C@@H](C)C(=O)OCCOC(=O)c3ccc(-c4c5nc(c(-c6c(F)c(F)c(F)c(F)c6F)c6ccc([nH]6)c(-c6c(F)c(F)c(F)c(F)c6F)c6nc(c(-c7c(F)c(F)c(F)c(F)c7F)c7ccc4[nH]7)C=C6)C=C5)cc3)ccc2c1
REMARK SMILES IDX 14 1 13 2 11 3 12 4 9 5 10 6 8 7 3 8 4 9 85 10 5 11 84 12
REMARK SMILES IDX 6 13 83 14 7 15 82 16 2 17 1 18 15 19 16 20 17 21 18 22
REMARK SMILES IDX 19 23 20 24 81 25 21 26 80 27 22 28 23 29 24 30 74 31 25 32
REMARK SMILES IDX 79 33 73 34 75 35 26 36 78 37 72 38 71 39 27 41 59 42 39 43
REMARK SMILES IDX 58 44 40 45 43 46 57 47 76 48 41 49 42 50 56 52 77 53 44 54
REMARK SMILES IDX 28 55 29 56 37 57 30 58 31 59 35 60 38 61 32 62 33 63 36 64
REMARK SMILES IDX 34 65 60 66 61 67 69 68 62 69 63 70 67 71 70 72 64 73 65 74
REMARK SMILES IDX 68 75 66 76 45 77 46 78 54 79 47 80 48 81 52 82 55 83 49 84
REMARK SMILES IDX 50 85 53 86 51 87
REMARK H PARENT 75 40 43 51
REMARK Flexibility Score: inf
ROOT
ATOM      1  C   UNL A   1      42.188  18.635  25.981  1.00  0.00     0.274 C 
ENDROOT
BRANCH   1   2
ATOM      2  O   UNL A   1      41.843  20.034  25.996  1.00  0.00    -0.462 OA
BRANCH   2   3
ATOM      3  C   UNL A   1      41.285  20.519  27.135  1.00  0.00     0.313 C 
ATOM      4  O   UNL A   1      40.892  19.818  28.064  1.00  0.00    -0.252 OA
BRANCH   3   5
ATOM      5  C   UNL A   1      41.132  22.035  27.149  1.00  0.00     0.126 C 
ATOM      6  C   UNL A   1      41.537  22.587  28.514  1.00  0.00     0.025 C 
BRANCH   5   7
ATOM      7  C   UNL A   1      39.789  22.576  26.681  1.00  0.00    -0.033 A 
ATOM      8  C   UNL A   1      35.141  23.282  24.752  1.00  0.00     0.119 A 
ATOM      9  C   UNL A   1      35.556  22.029  24.307  1.00  0.00     0.047 A 
ATOM     10  C   UNL A   1      36.003  24.074  25.509  1.00  0.00     0.055 A 
ATOM     11  C   UNL A   1      36.816  21.545  24.669  1.00  0.00     0.012 A 
ATOM     12  C   UNL A   1      37.268  23.596  25.889  1.00  0.00    -0.015 A 
ATOM     13  C   UNL A   1      37.674  22.309  25.474  1.00  0.00    -0.018 A 
ATOM     14  C   UNL A   1      38.134  24.363  26.680  1.00  0.00     0.009 A 
ATOM     15  C   UNL A   1      38.925  21.817  25.877  1.00  0.00     0.013 A 
ATOM     16  C   UNL A   1      39.375  23.858  27.072  1.00  0.00     0.005 A 
BRANCH   8  17
ATOM     17  O   UNL A   1      33.921  23.826  24.456  1.00  0.00    -0.497 OA
ATOM     18  C   UNL A   1      34.004  24.995  23.643  1.00  0.00     0.278 C 
ENDBRANCH   8  17
ENDBRANCH   5   7
ENDBRANCH   3   5
ENDBRANCH   2   3
ENDBRANCH   1   2
BRANCH   1  19
ATOM     19  C   UNL A   1      43.621  18.414  25.493  1.00  0.00     0.275 C 
BRANCH  19  20
ATOM     20  O   UNL A   1      43.873  19.134  24.272  1.00  0.00    -0.458 OA
BRANCH  20  21
ATOM     21  C   UNL A   1      45.093  19.712  24.192  1.00  0.00     0.338 C 
ATOM     22  O   UNL A   1      46.095  19.266  23.663  1.00  0.00    -0.246 OA
BRANCH  21  23
ATOM     23  C   UNL A   1      45.033  21.068  24.752  1.00  0.00     0.060 A 
ATOM     24  C   UNL A   1      44.803  22.128  23.872  1.00  0.00     0.016 A 
ATOM     25  C   UNL A   1      45.300  21.306  26.101  1.00  0.00     0.016 A 
ATOM     26  C   UNL A   1      44.856  23.440  24.330  1.00  0.00     0.010 A 
ATOM     27  C   UNL A   1      45.349  22.625  26.562  1.00  0.00     0.010 A 
ATOM     28  C   UNL A   1      45.146  23.698  25.675  1.00  0.00    -0.014 A 
BRANCH  28  29
ATOM     29  C   UNL A   1      45.307  25.099  26.130  1.00  0.00     0.031 A 
ATOM     30  C   UNL A   1      46.649  25.761  26.030  1.00  0.00     0.074 A 
ATOM     31  C   UNL A   1      44.245  25.779  26.596  1.00  0.00     0.049 A 
ATOM     32  N   UNL A   1      47.017  26.953  26.426  1.00  0.00    -0.248 NA
ATOM     33  C   UNL A   1      47.723  24.978  25.400  1.00  0.00     0.031 C 
ATOM     34  C   UNL A   1      42.884  25.254  26.694  1.00  0.00     0.029 A 
ATOM     35  N   UNL A   1      44.149  27.061  27.075  1.00  0.00    -0.354 N 
ATOM     36  C   UNL A   1      48.366  27.056  26.111  1.00  0.00     0.074 A 
ATOM     37  C   UNL A   1      48.756  25.802  25.503  1.00  0.00     0.031 C 
ATOM     38  C   UNL A   1      42.085  26.207  27.203  1.00  0.00     0.029 A 
ATOM     39  C   UNL A   1      42.887  27.392  27.501  1.00  0.00     0.049 A 
ATOM     40  H   UNL A   1      44.910  27.684  27.109  1.00  0.00     0.167 HD
ATOM     41  C   UNL A   1      49.198  28.104  26.312  1.00  0.00     0.037 A 
ATOM     42  C   UNL A   1      42.437  28.516  28.089  1.00  0.00     0.037 A 
ATOM     43  C   UNL A   1      48.802  29.355  26.903  1.00  0.00     0.049 A 
ATOM     44  C   UNL A   1      43.393  29.650  28.340  1.00  0.00     0.074 A 
ATOM     45  C   UNL A   1      49.572  30.479  27.145  1.00  0.00     0.029 A 
ATOM     46  N   UNL A   1      47.520  29.646  27.344  1.00  0.00    -0.354 N 
ATOM     47  N   UNL A   1      44.669  29.735  28.050  1.00  0.00    -0.248 NA
ATOM     48  C   UNL A   1      42.848  30.842  29.004  1.00  0.00     0.031 C 
ATOM     49  C   UNL A   1      48.763  31.439  27.762  1.00  0.00     0.029 A 
ATOM     50  C   UNL A   1      47.480  30.927  27.869  1.00  0.00     0.049 A 
ATOM     51  H   UNL A   1      46.751  29.033  27.291  1.00  0.00     0.167 HD
ATOM     52  C   UNL A   1      45.074  30.992  28.476  1.00  0.00     0.074 A 
ATOM     53  C   UNL A   1      43.906  31.641  29.033  1.00  0.00     0.031 C 
ATOM     54  C   UNL A   1      46.304  31.557  28.413  1.00  0.00     0.037 A 
BRANCH  41  55
ATOM     55  C   UNL A   1      50.632  27.930  25.912  1.00  0.00     0.064 A 
ATOM     56  C   UNL A   1      51.052  28.096  24.583  1.00  0.00     0.173 A 
ATOM     57  C   UNL A   1      51.604  27.622  26.876  1.00  0.00     0.173 A 
ATOM     58  F   UNL A   1      50.158  28.377  23.623  1.00  0.00    -0.203 F 
ATOM     59  C   UNL A   1      52.390  27.940  24.232  1.00  0.00     0.198 A 
ATOM     60  C   UNL A   1      52.944  27.489  26.525  1.00  0.00     0.198 A 
ATOM     61  F   UNL A   1      51.253  27.455  28.160  1.00  0.00    -0.203 F 
ATOM     62  F   UNL A   1      52.764  28.065  22.951  1.00  0.00    -0.200 F 
ATOM     63  C   UNL A   1      53.335  27.642  25.203  1.00  0.00     0.200 A 
ATOM     64  F   UNL A   1      53.857  27.209  27.465  1.00  0.00    -0.200 F 
ATOM     65  F   UNL A   1      54.624  27.496  24.863  1.00  0.00    -0.200 F 
ENDBRANCH  41  55
BRANCH  42  66
ATOM     66  C   UNL A   1      41.012  28.618  28.493  1.00  0.00     0.064 A 
ATOM     67  C   UNL A   1      40.601  28.254  29.782  1.00  0.00     0.173 A 
ATOM     68  C   UNL A   1      40.035  29.080  27.599  1.00  0.00     0.173 A 
ATOM     69  F   UNL A   1      41.495  27.781  30.663  1.00  0.00    -0.203 F 
ATOM     70  C   UNL A   1      39.261  28.337  30.159  1.00  0.00     0.198 A 
ATOM     71  C   UNL A   1      38.700  29.186  27.985  1.00  0.00     0.198 A 
ATOM     72  F   UNL A   1      40.380  29.437  26.354  1.00  0.00    -0.203 F 
ATOM     73  F   UNL A   1      38.887  27.946  31.384  1.00  0.00    -0.200 F 
ATOM     74  C   UNL A   1      38.314  28.809  29.263  1.00  0.00     0.200 A 
ATOM     75  F   UNL A   1      37.790  29.651  27.119  1.00  0.00    -0.200 F 
ATOM     76  F   UNL A   1      37.027  28.893  29.626  1.00  0.00    -0.200 F 
ENDBRANCH  42  66
BRANCH  54  77
ATOM     77  C   UNL A   1      46.441  32.956  28.934  1.00  0.00     0.064 A 
ATOM     78  C   UNL A   1      46.224  34.070  28.109  1.00  0.00     0.173 A 
ATOM     79  C   UNL A   1      46.757  33.184  30.281  1.00  0.00     0.173 A 
ATOM     80  F   UNL A   1      45.935  33.902  26.811  1.00  0.00    -0.203 F 
ATOM     81  C   UNL A   1      46.339  35.362  28.612  1.00  0.00     0.198 A 
ATOM     82  C   UNL A   1      46.849  34.478  30.786  1.00  0.00     0.198 A 
ATOM     83  F   UNL A   1      46.969  32.151  31.110  1.00  0.00    -0.203 F 
ATOM     84  F   UNL A   1      46.168  36.414  27.798  1.00  0.00    -0.200 F 
ATOM     85  C   UNL A   1      46.645  35.566  29.950  1.00  0.00     0.200 A 
ATOM     86  F   UNL A   1      47.136  34.673  32.079  1.00  0.00    -0.200 F 
ATOM     87  F   UNL A   1      46.752  36.811  30.432  1.00  0.00    -0.200 F 
ENDBRANCH  54  77
ENDBRANCH  28  29
ENDBRANCH  21  23
ENDBRANCH  20  21
ENDBRANCH  19  20
ENDBRANCH   1  19
TORSDOF 13
ENDMDL
