MODEL 1
REMARK VINA RESULT:     -13.1      0.000      0.000
REMARK SMILES O=C(OCCOC(=O)c1cc(-c2cccc(F)c2)nc2c(F)cccc12)c1ccc(-c2c3nc(c(-c4c(F)c(F)c(F)c(F)c4F)c4ccc([nH]4)c(-c4c(F)c(F)c(F)c(F)c4F)c4nc(c(-c5c(F)c(F)c(F)c(F)c5F)c5ccc2[nH]5)C=C4)C=C3)cc1
REMARK SMILES IDX 4 1 3 2 2 3 1 4 27 5 28 6 89 7 29 8 88 9 30 10 31 11 32 12
REMARK SMILES IDX 82 13 33 14 87 15 81 16 83 17 34 18 86 19 80 20 79 21 35 23
REMARK SMILES IDX 67 24 47 25 66 26 48 27 51 28 65 29 84 30 49 31 50 32 64 34
REMARK SMILES IDX 85 35 52 36 36 37 37 38 45 39 38 40 39 41 43 42 46 43 40 44
REMARK SMILES IDX 41 45 44 46 42 47 68 48 69 49 77 50 70 51 71 52 75 53 78 54
REMARK SMILES IDX 72 55 73 56 76 57 74 58 53 59 54 60 62 61 55 62 56 63 60 64
REMARK SMILES IDX 63 65 57 66 58 67 61 68 59 69 5 70 6 71 7 72 8 73 9 74 10 75
REMARK SMILES IDX 26 76 11 77 20 78 25 79 19 80 21 81 24 82 22 83 23 84 12 85
REMARK SMILES IDX 13 86 18 87 14 88 16 89 15 90 17 91
REMARK H PARENT 83 22 51 33
REMARK Flexibility Score: inf
ROOT
ATOM      1  C   UNL A   1      32.086  31.263  26.883  1.00  0.00     0.275 C 
ENDROOT
BRANCH   1   2
ATOM      2  O   UNL A   1      32.537  32.623  26.908  1.00  0.00    -0.458 OA
BRANCH   2   3
ATOM      3  C   UNL A   1      33.203  33.293  27.871  1.00  0.00     0.338 C 
ATOM      4  O   UNL A   1      32.768  34.388  28.229  1.00  0.00    -0.246 OA
BRANCH   3   5
ATOM      5  C   UNL A   1      34.515  32.854  28.451  1.00  0.00     0.060 A 
ATOM      6  C   UNL A   1      35.799  33.181  28.013  1.00  0.00     0.016 A 
ATOM      7  C   UNL A   1      34.414  32.025  29.576  1.00  0.00     0.016 A 
ATOM      8  C   UNL A   1      36.935  32.742  28.707  1.00  0.00     0.010 A 
ATOM      9  C   UNL A   1      35.534  31.634  30.312  1.00  0.00     0.010 A 
ATOM     10  C   UNL A   1      36.812  31.963  29.859  1.00  0.00    -0.014 A 
BRANCH  10  11
ATOM     11  C   UNL A   1      38.000  31.321  30.465  1.00  0.00     0.031 A 
ATOM     12  C   UNL A   1      38.410  31.752  31.843  1.00  0.00     0.074 A 
ATOM     13  C   UNL A   1      38.669  30.342  29.831  1.00  0.00     0.049 A 
ATOM     14  N   UNL A   1      39.368  31.287  32.603  1.00  0.00    -0.248 NA
ATOM     15  C   UNL A   1      37.625  32.834  32.463  1.00  0.00     0.031 C 
ATOM     16  C   UNL A   1      38.321  29.797  28.523  1.00  0.00     0.029 A 
ATOM     17  N   UNL A   1      39.784  29.631  30.200  1.00  0.00    -0.354 N 
ATOM     18  C   UNL A   1      39.257  31.981  33.798  1.00  0.00     0.074 A 
ATOM     19  C   UNL A   1      38.232  32.982  33.626  1.00  0.00     0.031 C 
ATOM     20  C   UNL A   1      39.229  28.870  28.177  1.00  0.00     0.029 A 
ATOM     21  C   UNL A   1      40.225  28.761  29.234  1.00  0.00     0.049 A 
ATOM     22  H   UNL A   1      40.225  29.735  31.074  1.00  0.00     0.167 HD
ATOM     23  C   UNL A   1      39.899  31.750  34.964  1.00  0.00     0.037 A 
ATOM     24  C   UNL A   1      41.309  27.964  29.203  1.00  0.00     0.037 A 
ATOM     25  C   UNL A   1      40.931  30.765  35.119  1.00  0.00     0.049 A 
ATOM     26  C   UNL A   1      42.133  27.838  30.453  1.00  0.00     0.074 A 
ATOM     27  C   UNL A   1      41.657  30.445  36.248  1.00  0.00     0.029 A 
ATOM     28  N   UNL A   1      41.392  29.949  34.093  1.00  0.00    -0.354 N 
ATOM     29  N   UNL A   1      41.978  28.450  31.602  1.00  0.00    -0.248 NA
ATOM     30  C   UNL A   1      43.236  26.869  30.430  1.00  0.00     0.031 C 
ATOM     31  C   UNL A   1      42.595  29.470  35.894  1.00  0.00     0.029 A 
ATOM     32  C   UNL A   1      42.411  29.137  34.559  1.00  0.00     0.049 A 
ATOM     33  H   UNL A   1      41.045  29.948  33.172  1.00  0.00     0.167 HD
ATOM     34  C   UNL A   1      42.912  27.894  32.461  1.00  0.00     0.074 A 
ATOM     35  C   UNL A   1      43.650  26.911  31.690  1.00  0.00     0.031 C 
ATOM     36  C   UNL A   1      43.116  28.152  33.775  1.00  0.00     0.037 A 
BRANCH  23  37
ATOM     37  C   UNL A   1      39.470  32.572  36.142  1.00  0.00     0.064 A 
ATOM     38  C   UNL A   1      38.435  32.141  36.981  1.00  0.00     0.173 A 
ATOM     39  C   UNL A   1      40.119  33.778  36.462  1.00  0.00     0.173 A 
ATOM     40  F   UNL A   1      37.787  30.996  36.724  1.00  0.00    -0.203 F 
ATOM     41  C   UNL A   1      38.071  32.882  38.103  1.00  0.00     0.198 A 
ATOM     42  C   UNL A   1      39.773  34.498  37.601  1.00  0.00     0.198 A 
ATOM     43  F   UNL A   1      41.133  34.220  35.704  1.00  0.00    -0.203 F 
ATOM     44  F   UNL A   1      37.075  32.455  38.891  1.00  0.00    -0.200 F 
ATOM     45  C   UNL A   1      38.747  34.052  38.418  1.00  0.00     0.200 A 
ATOM     46  F   UNL A   1      40.454  35.607  37.923  1.00  0.00    -0.200 F 
ATOM     47  F   UNL A   1      38.419  34.742  39.519  1.00  0.00    -0.200 F 
ENDBRANCH  23  37
BRANCH  24  48
ATOM     48  C   UNL A   1      41.621  27.189  27.973  1.00  0.00     0.064 A 
ATOM     49  C   UNL A   1      41.099  25.900  27.783  1.00  0.00     0.173 A 
ATOM     50  C   UNL A   1      42.480  27.694  26.990  1.00  0.00     0.173 A 
ATOM     51  F   UNL A   1      40.278  25.366  28.698  1.00  0.00    -0.203 F 
ATOM     52  C   UNL A   1      41.437  25.141  26.663  1.00  0.00     0.198 A 
ATOM     53  C   UNL A   1      42.804  26.942  25.860  1.00  0.00     0.198 A 
ATOM     54  F   UNL A   1      42.998  28.924  27.121  1.00  0.00    -0.203 F 
ATOM     55  F   UNL A   1      40.953  23.900  26.523  1.00  0.00    -0.200 F 
ATOM     56  C   UNL A   1      42.288  25.664  25.701  1.00  0.00     0.200 A 
ATOM     57  F   UNL A   1      43.619  27.454  24.928  1.00  0.00    -0.200 F 
ATOM     58  F   UNL A   1      42.616  24.935  24.626  1.00  0.00    -0.200 F 
ENDBRANCH  24  48
BRANCH  36  59
ATOM     59  C   UNL A   1      44.131  27.318  34.495  1.00  0.00     0.064 A 
ATOM     60  C   UNL A   1      43.743  26.109  35.094  1.00  0.00     0.173 A 
ATOM     61  C   UNL A   1      45.453  27.748  34.672  1.00  0.00     0.173 A 
ATOM     62  F   UNL A   1      42.486  25.658  34.957  1.00  0.00    -0.203 F 
ATOM     63  C   UNL A   1      44.636  25.373  35.864  1.00  0.00     0.198 A 
ATOM     64  C   UNL A   1      46.353  26.992  35.415  1.00  0.00     0.198 A 
ATOM     65  F   UNL A   1      45.873  28.890  34.107  1.00  0.00    -0.203 F 
ATOM     66  F   UNL A   1      44.231  24.244  36.463  1.00  0.00    -0.200 F 
ATOM     67  C   UNL A   1      45.941  25.813  36.021  1.00  0.00     0.200 A 
ATOM     68  F   UNL A   1      47.622  27.403  35.545  1.00  0.00    -0.200 F 
ATOM     69  F   UNL A   1      46.805  25.098  36.756  1.00  0.00    -0.200 F 
ENDBRANCH  36  59
ENDBRANCH  10  11
ENDBRANCH   3   5
ENDBRANCH   2   3
ENDBRANCH   1   2
BRANCH   1  70
ATOM     70  C   UNL A   1      33.142  30.255  26.421  1.00  0.00     0.275 C 
BRANCH  70  71
ATOM     71  O   UNL A   1      33.304  29.131  27.304  1.00  0.00    -0.458 OA
BRANCH  71  72
ATOM     72  C   UNL A   1      32.356  28.161  27.213  1.00  0.00     0.339 C 
ATOM     73  O   UNL A   1      31.414  27.995  27.971  1.00  0.00    -0.246 OA
BRANCH  72  74
ATOM     74  C   UNL A   1      32.552  27.346  25.992  1.00  0.00     0.071 A 
ATOM     75  C   UNL A   1      33.592  26.403  26.029  1.00  0.00     0.045 A 
ATOM     76  C   UNL A   1      31.781  27.539  24.820  1.00  0.00     0.018 A 
ATOM     77  C   UNL A   1      33.811  25.617  24.912  1.00  0.00     0.072 A 
ATOM     78  C   UNL A   1      32.109  26.717  23.725  1.00  0.00     0.107 A 
ATOM     79  C   UNL A   1      30.745  28.503  24.670  1.00  0.00     0.011 A 
ATOM     80  N   UNL A   1      33.080  25.783  23.788  1.00  0.00    -0.245 NA
ATOM     81  C   UNL A   1      31.406  26.897  22.534  1.00  0.00     0.149 A 
ATOM     82  C   UNL A   1      30.061  28.657  23.462  1.00  0.00     0.004 A 
ATOM     83  F   UNL A   1      31.686  26.126  21.470  1.00  0.00    -0.205 F 
ATOM     84  C   UNL A   1      30.406  27.856  22.386  1.00  0.00     0.041 A 
BRANCH  77  85
ATOM     85  C   UNL A   1      34.809  24.531  24.833  1.00  0.00     0.003 A 
ATOM     86  C   UNL A   1      35.459  24.075  25.994  1.00  0.00     0.010 A 
ATOM     87  C   UNL A   1      35.223  23.972  23.615  1.00  0.00     0.049 A 
ATOM     88  C   UNL A   1      36.475  23.110  25.938  1.00  0.00     0.004 A 
ATOM     89  C   UNL A   1      36.253  23.036  23.559  1.00  0.00     0.123 A 
ATOM     90  C   UNL A   1      36.881  22.596  24.711  1.00  0.00     0.039 A 
ATOM     91  F   UNL A   1      36.653  22.574  22.366  1.00  0.00    -0.207 F 
ENDBRANCH  77  85
ENDBRANCH  72  74
ENDBRANCH  71  72
ENDBRANCH  70  71
ENDBRANCH   1  70
TORSDOF 12
ENDMDL
MODEL 2
REMARK VINA RESULT:     -13.1      0.136      1.134
REMARK SMILES O=C(OCCOC(=O)c1cc(-c2cccc(F)c2)nc2c(F)cccc12)c1ccc(-c2c3nc(c(-c4c(F)c(F)c(F)c(F)c4F)c4ccc([nH]4)c(-c4c(F)c(F)c(F)c(F)c4F)c4nc(c(-c5c(F)c(F)c(F)c(F)c5F)c5ccc2[nH]5)C=C4)C=C3)cc1
REMARK SMILES IDX 4 1 3 2 2 3 1 4 27 5 28 6 89 7 29 8 88 9 30 10 31 11 32 12
REMARK SMILES IDX 82 13 33 14 87 15 81 16 83 17 34 18 86 19 80 20 79 21 35 23
REMARK SMILES IDX 67 24 47 25 66 26 48 27 51 28 65 29 84 30 49 31 50 32 64 34
REMARK SMILES IDX 85 35 52 36 36 37 37 38 45 39 38 40 39 41 43 42 46 43 40 44
REMARK SMILES IDX 41 45 44 46 42 47 68 48 69 49 77 50 70 51 71 52 75 53 78 54
REMARK SMILES IDX 72 55 73 56 76 57 74 58 53 59 54 60 62 61 55 62 56 63 60 64
REMARK SMILES IDX 63 65 57 66 58 67 61 68 59 69 5 70 6 71 7 72 8 73 9 74 10 75
REMARK SMILES IDX 26 76 11 77 20 78 25 79 19 80 21 81 24 82 22 83 23 84 12 85
REMARK SMILES IDX 13 86 18 87 14 88 16 89 15 90 17 91
REMARK H PARENT 83 22 51 33
REMARK Flexibility Score: inf
ROOT
ATOM      1  C   UNL A   1      32.132  31.344  27.167  1.00  0.00     0.275 C 
ENDROOT
BRANCH   1   2
ATOM      2  O   UNL A   1      32.561  32.710  27.117  1.00  0.00    -0.458 OA
BRANCH   2   3
ATOM      3  C   UNL A   1      33.294  33.418  28.002  1.00  0.00     0.338 C 
ATOM      4  O   UNL A   1      32.922  34.555  28.291  1.00  0.00    -0.246 OA
BRANCH   3   5
ATOM      5  C   UNL A   1      34.607  32.961  28.566  1.00  0.00     0.060 A 
ATOM      6  C   UNL A   1      35.890  33.289  28.127  1.00  0.00     0.016 A 
ATOM      7  C   UNL A   1      34.508  32.111  29.675  1.00  0.00     0.016 A 
ATOM      8  C   UNL A   1      37.027  32.832  28.806  1.00  0.00     0.010 A 
ATOM      9  C   UNL A   1      35.630  31.701  30.398  1.00  0.00     0.010 A 
ATOM     10  C   UNL A   1      36.906  32.032  29.943  1.00  0.00    -0.014 A 
BRANCH  10  11
ATOM     11  C   UNL A   1      38.095  31.373  30.530  1.00  0.00     0.031 A 
ATOM     12  C   UNL A   1      38.534  31.798  31.901  1.00  0.00     0.074 A 
ATOM     13  C   UNL A   1      38.738  30.383  29.887  1.00  0.00     0.049 A 
ATOM     14  N   UNL A   1      39.498  31.320  32.645  1.00  0.00    -0.248 NA
ATOM     15  C   UNL A   1      37.776  32.893  32.532  1.00  0.00     0.031 C 
ATOM     16  C   UNL A   1      38.360  29.842  28.585  1.00  0.00     0.029 A 
ATOM     17  N   UNL A   1      39.848  29.655  30.237  1.00  0.00    -0.354 N 
ATOM     18  C   UNL A   1      39.417  32.016  33.840  1.00  0.00     0.074 A 
ATOM     19  C   UNL A   1      38.406  33.033  33.685  1.00  0.00     0.031 C 
ATOM     20  C   UNL A   1      39.248  28.901  28.224  1.00  0.00     0.029 A 
ATOM     21  C   UNL A   1      40.260  28.778  29.265  1.00  0.00     0.049 A 
ATOM     22  H   UNL A   1      40.306  29.753  31.104  1.00  0.00     0.167 HD
ATOM     23  C   UNL A   1      40.076  31.777  34.996  1.00  0.00     0.037 A 
ATOM     24  C   UNL A   1      41.331  27.964  29.217  1.00  0.00     0.037 A 
ATOM     25  C   UNL A   1      41.094  30.776  35.135  1.00  0.00     0.049 A 
ATOM     26  C   UNL A   1      42.174  27.827  30.453  1.00  0.00     0.074 A 
ATOM     27  C   UNL A   1      41.835  30.446  36.252  1.00  0.00     0.029 A 
ATOM     28  N   UNL A   1      41.526  29.952  34.102  1.00  0.00    -0.354 N 
ATOM     29  N   UNL A   1      42.047  28.443  31.604  1.00  0.00    -0.248 NA
ATOM     30  C   UNL A   1      43.262  26.841  30.413  1.00  0.00     0.031 C 
ATOM     31  C   UNL A   1      42.751  29.457  35.884  1.00  0.00     0.029 A 
ATOM     32  C   UNL A   1      42.540  29.126  34.552  1.00  0.00     0.049 A 
ATOM     33  H   UNL A   1      41.164  29.956  33.187  1.00  0.00     0.167 HD
ATOM     34  C   UNL A   1      42.988  27.873  32.447  1.00  0.00     0.074 A 
ATOM     35  C   UNL A   1      43.697  26.879  31.666  1.00  0.00     0.031 C 
ATOM     36  C   UNL A   1      43.217  28.130  33.758  1.00  0.00     0.037 A 
BRANCH  23  37
ATOM     37  C   UNL A   1      39.678  32.606  36.180  1.00  0.00     0.064 A 
ATOM     38  C   UNL A   1      40.351  33.796  36.485  1.00  0.00     0.173 A 
ATOM     39  C   UNL A   1      38.595  32.234  36.997  1.00  0.00     0.173 A 
ATOM     40  F   UNL A   1      41.387  34.198  35.735  1.00  0.00    -0.203 F 
ATOM     41  C   UNL A   1      39.948  34.588  37.557  1.00  0.00     0.198 A 
ATOM     42  C   UNL A   1      38.177  33.045  38.047  1.00  0.00     0.198 A 
ATOM     43  F   UNL A   1      37.902  31.116  36.732  1.00  0.00    -0.203 F 
ATOM     44  F   UNL A   1      40.608  35.722  37.834  1.00  0.00    -0.200 F 
ATOM     45  C   UNL A   1      38.856  34.220  38.328  1.00  0.00     0.200 A 
ATOM     46  F   UNL A   1      37.099  32.705  38.766  1.00  0.00    -0.200 F 
ATOM     47  F   UNL A   1      38.449  35.004  39.336  1.00  0.00    -0.200 F 
ENDBRANCH  23  37
BRANCH  24  48
ATOM     48  C   UNL A   1      41.610  27.184  27.983  1.00  0.00     0.064 A 
ATOM     49  C   UNL A   1      41.052  25.910  27.796  1.00  0.00     0.173 A 
ATOM     50  C   UNL A   1      42.474  27.667  26.992  1.00  0.00     0.173 A 
ATOM     51  F   UNL A   1      40.226  25.397  28.717  1.00  0.00    -0.203 F 
ATOM     52  C   UNL A   1      41.359  25.144  26.671  1.00  0.00     0.198 A 
ATOM     53  C   UNL A   1      42.767  26.909  25.859  1.00  0.00     0.198 A 
ATOM     54  F   UNL A   1      43.026  28.883  27.120  1.00  0.00    -0.203 F 
ATOM     55  F   UNL A   1      40.841  23.917  26.534  1.00  0.00    -0.200 F 
ATOM     56  C   UNL A   1      42.215  25.646  25.702  1.00  0.00     0.200 A 
ATOM     57  F   UNL A   1      43.587  27.401  24.920  1.00  0.00    -0.200 F 
ATOM     58  F   UNL A   1      42.513  24.911  24.622  1.00  0.00    -0.200 F 
ENDBRANCH  24  48
BRANCH  36  59
ATOM     59  C   UNL A   1      44.232  27.281  34.462  1.00  0.00     0.064 A 
ATOM     60  C   UNL A   1      43.843  26.059  35.034  1.00  0.00     0.173 A 
ATOM     61  C   UNL A   1      45.553  27.708  34.650  1.00  0.00     0.173 A 
ATOM     62  F   UNL A   1      42.587  25.611  34.886  1.00  0.00    -0.203 F 
ATOM     63  C   UNL A   1      44.735  25.307  35.790  1.00  0.00     0.198 A 
ATOM     64  C   UNL A   1      46.452  26.936  35.378  1.00  0.00     0.198 A 
ATOM     65  F   UNL A   1      45.973  28.861  34.110  1.00  0.00    -0.203 F 
ATOM     66  F   UNL A   1      44.330  24.166  36.364  1.00  0.00    -0.200 F 
ATOM     67  C   UNL A   1      46.040  25.744  35.958  1.00  0.00     0.200 A 
ATOM     68  F   UNL A   1      47.721  27.345  35.519  1.00  0.00    -0.200 F 
ATOM     69  F   UNL A   1      46.902  25.015  36.679  1.00  0.00    -0.200 F 
ENDBRANCH  36  59
ENDBRANCH  10  11
ENDBRANCH   3   5
ENDBRANCH   2   3
ENDBRANCH   1   2
BRANCH   1  70
ATOM     70  C   UNL A   1      33.101  30.353  26.517  1.00  0.00     0.275 C 
BRANCH  70  71
ATOM     71  O   UNL A   1      33.320  29.157  27.287  1.00  0.00    -0.458 OA
BRANCH  71  72
ATOM     72  C   UNL A   1      32.357  28.203  27.190  1.00  0.00     0.339 C 
ATOM     73  O   UNL A   1      31.403  28.057  27.937  1.00  0.00    -0.246 OA
BRANCH  72  74
ATOM     74  C   UNL A   1      32.554  27.377  25.977  1.00  0.00     0.071 A 
ATOM     75  C   UNL A   1      33.604  26.445  26.018  1.00  0.00     0.045 A 
ATOM     76  C   UNL A   1      31.775  27.549  24.808  1.00  0.00     0.018 A 
ATOM     77  C   UNL A   1      33.825  25.649  24.908  1.00  0.00     0.072 A 
ATOM     78  C   UNL A   1      32.104  26.719  23.719  1.00  0.00     0.107 A 
ATOM     79  C   UNL A   1      30.727  28.500  24.653  1.00  0.00     0.011 A 
ATOM     80  N   UNL A   1      33.085  25.795  23.786  1.00  0.00    -0.245 NA
ATOM     81  C   UNL A   1      31.393  26.879  22.531  1.00  0.00     0.149 A 
ATOM     82  C   UNL A   1      30.035  28.634  23.448  1.00  0.00     0.004 A 
ATOM     83  F   UNL A   1      31.674  26.099  21.473  1.00  0.00    -0.205 F 
ATOM     84  C   UNL A   1      30.382  27.826  22.378  1.00  0.00     0.041 A 
BRANCH  77  85
ATOM     85  C   UNL A   1      34.834  24.573  24.834  1.00  0.00     0.003 A 
ATOM     86  C   UNL A   1      35.513  24.153  25.992  1.00  0.00     0.010 A 
ATOM     87  C   UNL A   1      35.229  23.989  23.622  1.00  0.00     0.049 A 
ATOM     88  C   UNL A   1      36.538  23.198  25.938  1.00  0.00     0.004 A 
ATOM     89  C   UNL A   1      36.268  23.063  23.567  1.00  0.00     0.123 A 
ATOM     90  C   UNL A   1      36.925  22.659  24.716  1.00  0.00     0.039 A 
ATOM     91  F   UNL A   1      36.649  22.577  22.378  1.00  0.00    -0.207 F 
ENDBRANCH  77  85
ENDBRANCH  72  74
ENDBRANCH  71  72
ENDBRANCH  70  71
ENDBRANCH   1  70
TORSDOF 12
ENDMDL
MODEL 3
REMARK VINA RESULT:     -13.0      5.190     10.277
REMARK SMILES O=C(OCCOC(=O)c1cc(-c2cccc(F)c2)nc2c(F)cccc12)c1ccc(-c2c3nc(c(-c4c(F)c(F)c(F)c(F)c4F)c4ccc([nH]4)c(-c4c(F)c(F)c(F)c(F)c4F)c4nc(c(-c5c(F)c(F)c(F)c(F)c5F)c5ccc2[nH]5)C=C4)C=C3)cc1
REMARK SMILES IDX 4 1 3 2 2 3 1 4 27 5 28 6 89 7 29 8 88 9 30 10 31 11 32 12
REMARK SMILES IDX 82 13 33 14 87 15 81 16 83 17 34 18 86 19 80 20 79 21 35 23
REMARK SMILES IDX 67 24 47 25 66 26 48 27 51 28 65 29 84 30 49 31 50 32 64 34
REMARK SMILES IDX 85 35 52 36 36 37 37 38 45 39 38 40 39 41 43 42 46 43 40 44
REMARK SMILES IDX 41 45 44 46 42 47 68 48 69 49 77 50 70 51 71 52 75 53 78 54
REMARK SMILES IDX 72 55 73 56 76 57 74 58 53 59 54 60 62 61 55 62 56 63 60 64
REMARK SMILES IDX 63 65 57 66 58 67 61 68 59 69 5 70 6 71 7 72 8 73 9 74 10 75
REMARK SMILES IDX 26 76 11 77 20 78 25 79 19 80 21 81 24 82 22 83 23 84 12 85
REMARK SMILES IDX 13 86 18 87 14 88 16 89 15 90 17 91
REMARK H PARENT 83 22 51 33
REMARK Flexibility Score: inf
ROOT
ATOM      1  C   UNL A   1      38.297  20.281  25.607  1.00  0.00     0.275 C 
ENDROOT
BRANCH   1   2
ATOM      2  O   UNL A   1      39.715  20.248  25.810  1.00  0.00    -0.458 OA
BRANCH   2   3
ATOM      3  C   UNL A   1      40.451  20.717  26.838  1.00  0.00     0.338 C 
ATOM      4  O   UNL A   1      40.818  19.923  27.704  1.00  0.00    -0.246 OA
BRANCH   3   5
ATOM      5  C   UNL A   1      40.747  22.169  27.070  1.00  0.00     0.060 A 
ATOM      6  C   UNL A   1      40.273  23.268  26.351  1.00  0.00     0.016 A 
ATOM      7  C   UNL A   1      41.597  22.432  28.153  1.00  0.00     0.016 A 
ATOM      8  C   UNL A   1      40.590  24.577  26.736  1.00  0.00     0.010 A 
ATOM      9  C   UNL A   1      41.869  23.731  28.584  1.00  0.00     0.010 A 
ATOM     10  C   UNL A   1      41.393  24.819  27.852  1.00  0.00    -0.014 A 
BRANCH  10  11
ATOM     11  C   UNL A   1      41.905  26.180  28.131  1.00  0.00     0.031 A 
ATOM     12  C   UNL A   1      43.301  26.513  27.690  1.00  0.00     0.074 A 
ATOM     13  C   UNL A   1      41.134  27.116  28.711  1.00  0.00     0.049 A 
ATOM     14  N   UNL A   1      43.940  27.652  27.760  1.00  0.00    -0.248 NA
ATOM     15  C   UNL A   1      44.078  25.427  27.066  1.00  0.00     0.031 C 
ATOM     16  C   UNL A   1      39.745  26.927  29.117  1.00  0.00     0.029 A 
ATOM     17  N   UNL A   1      41.408  28.413  29.064  1.00  0.00    -0.354 N 
ATOM     18  C   UNL A   1      45.159  27.427  27.141  1.00  0.00     0.074 A 
ATOM     19  C   UNL A   1      45.230  26.023  26.817  1.00  0.00     0.031 C 
ATOM     20  C   UNL A   1      39.301  28.050  29.705  1.00  0.00     0.029 A 
ATOM     21  C   UNL A   1      40.375  29.033  29.724  1.00  0.00     0.049 A 
ATOM     22  H   UNL A   1      42.263  28.858  28.864  1.00  0.00     0.167 HD
ATOM     23  C   UNL A   1      46.105  28.329  26.801  1.00  0.00     0.037 A 
ATOM     24  C   UNL A   1      40.301  30.257  30.279  1.00  0.00     0.037 A 
ATOM     25  C   UNL A   1      46.034  29.721  27.145  1.00  0.00     0.049 A 
ATOM     26  C   UNL A   1      41.437  31.212  30.048  1.00  0.00     0.074 A 
ATOM     27  C   UNL A   1      46.934  30.728  26.861  1.00  0.00     0.029 A 
ATOM     28  N   UNL A   1      44.998  30.293  27.872  1.00  0.00    -0.354 N 
ATOM     29  N   UNL A   1      42.560  31.008  29.401  1.00  0.00    -0.248 NA
ATOM     30  C   UNL A   1      41.276  32.579  30.560  1.00  0.00     0.031 C 
ATOM     31  C   UNL A   1      46.469  31.902  27.460  1.00  0.00     0.029 A 
ATOM     32  C   UNL A   1      45.247  31.640  28.065  1.00  0.00     0.049 A 
ATOM     33  H   UNL A   1      44.205  29.812  28.201  1.00  0.00     0.167 HD
ATOM     34  C   UNL A   1      43.207  32.233  29.364  1.00  0.00     0.074 A 
ATOM     35  C   UNL A   1      42.361  33.170  30.079  1.00  0.00     0.031 C 
ATOM     36  C   UNL A   1      44.379  32.556  28.764  1.00  0.00     0.037 A 
BRANCH  23  37
ATOM     37  C   UNL A   1      47.266  27.817  26.002  1.00  0.00     0.064 A 
ATOM     38  C   UNL A   1      47.213  27.768  24.604  1.00  0.00     0.173 A 
ATOM     39  C   UNL A   1      48.457  27.409  26.630  1.00  0.00     0.173 A 
ATOM     40  F   UNL A   1      46.103  28.151  23.955  1.00  0.00    -0.203 F 
ATOM     41  C   UNL A   1      48.311  27.338  23.863  1.00  0.00     0.198 A 
ATOM     42  C   UNL A   1      49.561  27.011  25.885  1.00  0.00     0.198 A 
ATOM     43  F   UNL A   1      48.567  27.461  27.967  1.00  0.00    -0.203 F 
ATOM     44  F   UNL A   1      48.238  27.294  22.525  1.00  0.00    -0.200 F 
ATOM     45  C   UNL A   1      49.486  26.972  24.502  1.00  0.00     0.200 A 
ATOM     46  F   UNL A   1      50.707  26.694  26.504  1.00  0.00    -0.200 F 
ATOM     47  F   UNL A   1      50.553  26.594  23.783  1.00  0.00    -0.200 F 
ENDBRANCH  23  37
BRANCH  24  48
ATOM     48  C   UNL A   1      39.086  30.649  31.039  1.00  0.00     0.064 A 
ATOM     49  C   UNL A   1      37.993  31.248  30.392  1.00  0.00     0.173 A 
ATOM     50  C   UNL A   1      39.006  30.483  32.427  1.00  0.00     0.173 A 
ATOM     51  F   UNL A   1      38.021  31.438  29.066  1.00  0.00    -0.203 F 
ATOM     52  C   UNL A   1      36.876  31.677  31.107  1.00  0.00     0.198 A 
ATOM     53  C   UNL A   1      37.880  30.895  33.140  1.00  0.00     0.198 A 
ATOM     54  F   UNL A   1      40.020  29.908  33.092  1.00  0.00    -0.203 F 
ATOM     55  F   UNL A   1      35.862  32.277  30.469  1.00  0.00    -0.200 F 
ATOM     56  C   UNL A   1      36.819  31.499  32.481  1.00  0.00     0.200 A 
ATOM     57  F   UNL A   1      37.825  30.713  34.467  1.00  0.00    -0.200 F 
ATOM     58  F   UNL A   1      35.747  31.913  33.169  1.00  0.00    -0.200 F 
ENDBRANCH  24  48
BRANCH  36  59
ATOM     59  C   UNL A   1      44.794  33.995  28.788  1.00  0.00     0.064 A 
ATOM     60  C   UNL A   1      44.387  34.857  27.757  1.00  0.00     0.173 A 
ATOM     61  C   UNL A   1      45.660  34.500  29.768  1.00  0.00     0.173 A 
ATOM     62  F   UNL A   1      43.564  34.417  26.793  1.00  0.00    -0.203 F 
ATOM     63  C   UNL A   1      44.851  36.165  27.694  1.00  0.00     0.198 A 
ATOM     64  C   UNL A   1      46.095  35.820  29.720  1.00  0.00     0.198 A 
ATOM     65  F   UNL A   1      46.064  33.718  30.780  1.00  0.00    -0.203 F 
ATOM     66  F   UNL A   1      44.485  36.957  26.675  1.00  0.00    -0.200 F 
ATOM     67  C   UNL A   1      45.702  36.647  28.677  1.00  0.00     0.200 A 
ATOM     68  F   UNL A   1      46.896  36.295  30.684  1.00  0.00    -0.200 F 
ATOM     69  F   UNL A   1      46.142  37.912  28.619  1.00  0.00    -0.200 F 
ENDBRANCH  36  59
ENDBRANCH  10  11
ENDBRANCH   3   5
ENDBRANCH   2   3
ENDBRANCH   1   2
BRANCH   1  70
ATOM     70  C   UNL A   1      37.781  21.568  24.960  1.00  0.00     0.275 C 
BRANCH  70  71
ATOM     71  O   UNL A   1      36.851  22.302  25.777  1.00  0.00    -0.458 OA
BRANCH  71  72
ATOM     72  C   UNL A   1      35.850  22.940  25.115  1.00  0.00     0.339 C 
ATOM     73  O   UNL A   1      35.963  23.928  24.408  1.00  0.00    -0.246 OA
BRANCH  72  74
ATOM     74  C   UNL A   1      34.566  22.222  25.284  1.00  0.00     0.071 A 
ATOM     75  C   UNL A   1      34.563  20.857  24.955  1.00  0.00     0.045 A 
ATOM     76  C   UNL A   1      33.381  22.878  25.696  1.00  0.00     0.018 A 
ATOM     77  C   UNL A   1      33.386  20.145  25.100  1.00  0.00     0.072 A 
ATOM     78  C   UNL A   1      32.227  22.074  25.774  1.00  0.00     0.107 A 
ATOM     79  C   UNL A   1      33.273  24.264  26.000  1.00  0.00     0.011 A 
ATOM     80  N   UNL A   1      32.247  20.753  25.499  1.00  0.00    -0.245 NA
ATOM     81  C   UNL A   1      31.025  22.681  26.134  1.00  0.00     0.149 A 
ATOM     82  C   UNL A   1      32.053  24.840  26.358  1.00  0.00     0.004 A 
ATOM     83  F   UNL A   1      29.905  21.944  26.227  1.00  0.00    -0.205 F 
ATOM     84  C   UNL A   1      30.921  24.043  26.411  1.00  0.00     0.041 A 
BRANCH  77  85
ATOM     85  C   UNL A   1      33.251  18.692  24.872  1.00  0.00     0.003 A 
ATOM     86  C   UNL A   1      32.600  17.880  25.819  1.00  0.00     0.010 A 
ATOM     87  C   UNL A   1      33.830  18.042  23.772  1.00  0.00     0.049 A 
ATOM     88  C   UNL A   1      32.536  16.487  25.673  1.00  0.00     0.004 A 
ATOM     89  C   UNL A   1      33.792  16.656  23.646  1.00  0.00     0.123 A 
ATOM     90  C   UNL A   1      33.146  15.871  24.585  1.00  0.00     0.039 A 
ATOM     91  F   UNL A   1      34.410  16.076  22.608  1.00  0.00    -0.207 F 
ENDBRANCH  77  85
ENDBRANCH  72  74
ENDBRANCH  71  72
ENDBRANCH  70  71
ENDBRANCH   1  70
TORSDOF 12
ENDMDL
