MODEL 1
REMARK VINA RESULT:     -12.9      0.000      0.000
REMARK SMILES COC(=O)c1c(NC(=O)[C@@H]2C[C@@H]2C(=O)OCCOC(=O)c2ccc(-c3c4nc(c(-c5c(F)c(F)c(F)c(F)c5F)c5ccc([nH]5)c(-c5c(F)c(F)c(F)c(F)c5F)c5nc(c(-c6c(F)c(F)c(F)c(F)c6F)c6ccc3[nH]6)C=C5)C=C4)cc2)sc2c1CC[N@@H+](Cc1ccccc1)C2
REMARK SMILES IDX 16 1 15 2 13 3 14 4 12 5 10 6 11 7 8 8 7 9 9 11 6 12 5 13
REMARK SMILES IDX 86 14 84 15 85 16 87 17 97 18 88 19 89 20 3 22 4 23 2 24
REMARK SMILES IDX 1 25 90 26 91 27 92 28 96 29 93 30 95 31 94 32 17 33 18 34
REMARK SMILES IDX 19 35 20 36 21 37 22 38 83 39 23 40 82 41 24 42 25 43 26 44
REMARK SMILES IDX 76 45 27 46 81 47 75 48 77 49 28 50 80 51 74 52 73 53 29 55
REMARK SMILES IDX 61 56 41 57 60 58 42 59 45 60 59 61 78 62 43 63 44 64 58 66
REMARK SMILES IDX 79 67 46 68 30 69 31 70 39 71 32 72 33 73 37 74 40 75 34 76
REMARK SMILES IDX 35 77 38 78 36 79 62 80 63 81 71 82 64 83 65 84 69 85 72 86
REMARK SMILES IDX 66 87 67 88 70 89 68 90 47 91 48 92 56 93 49 94 50 95 54 96
REMARK SMILES IDX 57 97 51 98 52 99 55 100 53 101
REMARK H PARENT 7 10 89 21 77 54 45 65
REMARK Flexibility Score: inf
ROOT
ATOM      1  C   UNL A   1      33.647  30.499  27.459  1.00  0.00     0.274 C 
ENDROOT
BRANCH   1   2
ATOM      2  O   UNL A   1      32.586  30.357  26.491  1.00  0.00    -0.462 OA
BRANCH   2   3
ATOM      3  C   UNL A   1      31.830  29.229  26.594  1.00  0.00     0.309 C 
ATOM      4  O   UNL A   1      31.760  28.513  27.585  1.00  0.00    -0.252 OA
BRANCH   3   5
ATOM      5  C   UNL A   1      31.208  28.844  25.298  1.00  0.00     0.112 C 
ATOM      6  C   UNL A   1      31.881  28.287  24.056  1.00  0.00     0.094 C 
ATOM      7  C   UNL A   1      31.513  29.750  24.125  1.00  0.00     0.030 C 
BRANCH   6   8
ATOM      8  C   UNL A   1      33.289  27.897  23.940  1.00  0.00     0.229 C 
ATOM      9  N   UNL A   1      33.736  26.635  24.212  1.00  0.00    -0.317 N 
ATOM     10  H   UNL A   1      34.693  26.606  24.445  1.00  0.00     0.170 HD
ATOM     11  O   UNL A   1      34.088  28.728  23.510  1.00  0.00    -0.274 OA
BRANCH   9  12
ATOM     12  C   UNL A   1      33.139  25.397  24.234  1.00  0.00     0.110 A 
ATOM     13  C   UNL A   1      32.986  24.279  23.435  1.00  0.00     0.098 A 
ATOM     14  C   UNL A   1      32.537  23.151  24.228  1.00  0.00    -0.006 A 
ATOM     15  S   UNL A   1      32.470  25.156  25.803  1.00  0.00    -0.116 S 
ATOM     16  C   UNL A   1      32.337  23.491  25.550  1.00  0.00     0.065 A 
ATOM     17  C   UNL A   1      32.465  21.713  23.797  1.00  0.00     0.099 C 
ATOM     18  C   UNL A   1      32.112  22.513  26.662  1.00  0.00     0.310 C 
ATOM     19  C   UNL A   1      32.211  20.745  24.984  1.00  0.00     0.267 C 
ATOM     20  N   UNL A   1      32.643  21.179  26.324  1.00  0.00    -0.326 N 
ATOM     21  H   UNL A   1      32.206  20.526  26.974  1.00  0.00     0.348 HD
BRANCH  13  22
ATOM     22  C   UNL A   1      33.335  24.162  22.028  1.00  0.00     0.341 C 
ATOM     23  O   UNL A   1      33.494  23.110  21.462  1.00  0.00    -0.246 OA
BRANCH  22  24
ATOM     24  O   UNL A   1      33.474  25.398  21.452  1.00  0.00    -0.465 OA
ATOM     25  C   UNL A   1      32.473  25.767  20.497  1.00  0.00     0.282 C 
ENDBRANCH  22  24
ENDBRANCH  13  22
BRANCH  20  26
ATOM     26  C   UNL A   1      34.065  20.966  26.645  1.00  0.00     0.299 C 
BRANCH  26  27
ATOM     27  C   UNL A   1      35.101  21.797  25.918  1.00  0.00     0.006 A 
ATOM     28  C   UNL A   1      35.689  21.333  24.732  1.00  0.00     0.009 A 
ATOM     29  C   UNL A   1      35.483  23.059  26.402  1.00  0.00     0.009 A 
ATOM     30  C   UNL A   1      36.576  22.138  24.013  1.00  0.00     0.001 A 
ATOM     31  C   UNL A   1      36.353  23.871  25.673  1.00  0.00     0.001 A 
ATOM     32  C   UNL A   1      36.893  23.414  24.475  1.00  0.00     0.000 A 
ENDBRANCH  26  27
ENDBRANCH  20  26
ENDBRANCH   9  12
ENDBRANCH   6   8
ENDBRANCH   3   5
ENDBRANCH   2   3
ENDBRANCH   1   2
BRANCH   1  33
ATOM     33  C   UNL A   1      34.977  29.862  27.052  1.00  0.00     0.275 C 
BRANCH  33  34
ATOM     34  O   UNL A   1      36.121  30.638  27.413  1.00  0.00    -0.458 OA
BRANCH  34  35
ATOM     35  C   UNL A   1      36.744  30.144  28.500  1.00  0.00     0.338 C 
ATOM     36  O   UNL A   1      36.578  30.471  29.666  1.00  0.00    -0.246 OA
BRANCH  35  37
ATOM     37  C   UNL A   1      37.846  29.267  28.135  1.00  0.00     0.060 A 
ATOM     38  C   UNL A   1      37.984  28.116  28.901  1.00  0.00     0.016 A 
ATOM     39  C   UNL A   1      38.888  29.755  27.351  1.00  0.00     0.016 A 
ATOM     40  C   UNL A   1      39.222  27.555  29.073  1.00  0.00     0.010 A 
ATOM     41  C   UNL A   1      40.122  29.142  27.453  1.00  0.00     0.010 A 
ATOM     42  C   UNL A   1      40.298  28.100  28.373  1.00  0.00    -0.014 A 
BRANCH  42  43
ATOM     43  C   UNL A   1      41.569  27.395  28.486  1.00  0.00     0.031 A 
ATOM     44  C   UNL A   1      42.281  27.667  29.769  1.00  0.00     0.074 A 
ATOM     45  C   UNL A   1      41.948  26.476  27.577  1.00  0.00     0.049 A 
ATOM     46  N   UNL A   1      43.537  27.906  29.959  1.00  0.00    -0.248 NA
ATOM     47  C   UNL A   1      41.457  27.803  30.990  1.00  0.00     0.031 C 
ATOM     48  C   UNL A   1      41.170  26.031  26.416  1.00  0.00     0.029 A 
ATOM     49  N   UNL A   1      43.013  25.624  27.584  1.00  0.00    -0.354 N 
ATOM     50  C   UNL A   1      43.683  28.057  31.339  1.00  0.00     0.074 A 
ATOM     51  C   UNL A   1      42.367  28.138  31.900  1.00  0.00     0.031 C 
ATOM     52  C   UNL A   1      41.632  24.831  26.013  1.00  0.00     0.029 A 
ATOM     53  C   UNL A   1      42.795  24.486  26.816  1.00  0.00     0.049 A 
ATOM     54  H   UNL A   1      43.846  25.795  28.081  1.00  0.00     0.167 HD
ATOM     55  C   UNL A   1      44.871  27.800  31.943  1.00  0.00     0.037 A 
ATOM     56  C   UNL A   1      43.446  23.304  26.905  1.00  0.00     0.037 A 
ATOM     57  C   UNL A   1      45.963  27.910  31.017  1.00  0.00     0.049 A 
ATOM     58  C   UNL A   1      44.724  23.531  27.615  1.00  0.00     0.074 A 
ATOM     59  C   UNL A   1      46.630  28.932  30.382  1.00  0.00     0.029 A 
ATOM     60  N   UNL A   1      46.288  26.748  30.376  1.00  0.00    -0.354 N 
ATOM     61  N   UNL A   1      45.736  24.184  27.115  1.00  0.00    -0.248 NA
ATOM     62  C   UNL A   1      44.800  23.269  29.050  1.00  0.00     0.031 C 
ATOM     63  C   UNL A   1      47.204  28.360  29.208  1.00  0.00     0.029 A 
ATOM     64  C   UNL A   1      46.878  27.005  29.170  1.00  0.00     0.049 A 
ATOM     65  H   UNL A   1      46.121  25.846  30.735  1.00  0.00     0.167 HD
ATOM     66  C   UNL A   1      46.327  24.783  28.210  1.00  0.00     0.074 A 
ATOM     67  C   UNL A   1      45.851  24.031  29.360  1.00  0.00     0.031 C 
ATOM     68  C   UNL A   1      46.870  26.029  28.104  1.00  0.00     0.037 A 
BRANCH  55  69
ATOM     69  C   UNL A   1      44.984  26.940  33.189  1.00  0.00     0.064 A 
ATOM     70  C   UNL A   1      44.441  25.640  33.163  1.00  0.00     0.173 A 
ATOM     71  C   UNL A   1      45.271  27.450  34.477  1.00  0.00     0.173 A 
ATOM     72  F   UNL A   1      44.114  25.059  31.997  1.00  0.00    -0.203 F 
ATOM     73  C   UNL A   1      44.122  24.949  34.336  1.00  0.00     0.198 A 
ATOM     74  C   UNL A   1      44.999  26.736  35.642  1.00  0.00     0.198 A 
ATOM     75  F   UNL A   1      45.712  28.697  34.675  1.00  0.00    -0.203 F 
ATOM     76  F   UNL A   1      43.482  23.774  34.263  1.00  0.00    -0.200 F 
ATOM     77  C   UNL A   1      44.392  25.502  35.574  1.00  0.00     0.200 A 
ATOM     78  F   UNL A   1      45.248  27.301  36.832  1.00  0.00    -0.200 F 
ATOM     79  F   UNL A   1      44.024  24.875  36.697  1.00  0.00    -0.200 F 
ENDBRANCH  55  69
BRANCH  56  80
ATOM     80  C   UNL A   1      42.943  21.941  26.608  1.00  0.00     0.064 A 
ATOM     81  C   UNL A   1      43.548  21.157  25.612  1.00  0.00     0.173 A 
ATOM     82  C   UNL A   1      42.024  21.281  27.448  1.00  0.00     0.173 A 
ATOM     83  F   UNL A   1      44.466  21.693  24.795  1.00  0.00    -0.203 F 
ATOM     84  C   UNL A   1      43.272  19.794  25.482  1.00  0.00     0.198 A 
ATOM     85  C   UNL A   1      41.734  19.925  27.305  1.00  0.00     0.198 A 
ATOM     86  F   UNL A   1      41.457  21.913  28.486  1.00  0.00    -0.203 F 
ATOM     87  F   UNL A   1      43.924  19.066  24.565  1.00  0.00    -0.200 F 
ATOM     88  C   UNL A   1      42.370  19.177  26.332  1.00  0.00     0.200 A 
ATOM     89  F   UNL A   1      40.880  19.335  28.154  1.00  0.00    -0.200 F 
ATOM     90  F   UNL A   1      42.144  17.859  26.243  1.00  0.00    -0.200 F 
ENDBRANCH  56  80
BRANCH  68  91
ATOM     91  C   UNL A   1      47.314  26.465  26.743  1.00  0.00     0.064 A 
ATOM     92  C   UNL A   1      48.555  26.148  26.169  1.00  0.00     0.173 A 
ATOM     93  C   UNL A   1      46.407  27.201  25.968  1.00  0.00     0.173 A 
ATOM     94  F   UNL A   1      49.436  25.369  26.811  1.00  0.00    -0.203 F 
ATOM     95  C   UNL A   1      48.892  26.605  24.897  1.00  0.00     0.198 A 
ATOM     96  C   UNL A   1      46.730  27.618  24.682  1.00  0.00     0.198 A 
ATOM     97  F   UNL A   1      45.188  27.493  26.452  1.00  0.00    -0.203 F 
ATOM     98  F   UNL A   1      50.098  26.324  24.380  1.00  0.00    -0.200 F 
ATOM     99  C   UNL A   1      47.979  27.336  24.154  1.00  0.00     0.200 A 
ATOM    100  F   UNL A   1      45.825  28.284  23.951  1.00  0.00    -0.200 F 
ATOM    101  F   UNL A   1      48.293  27.752  22.920  1.00  0.00    -0.200 F 
ENDBRANCH  68  91
ENDBRANCH  42  43
ENDBRANCH  35  37
ENDBRANCH  34  35
ENDBRANCH  33  34
ENDBRANCH   1  33
TORSDOF 17
ENDMDL
MODEL 2
REMARK VINA RESULT:     -12.6      1.357      2.172
REMARK SMILES COC(=O)c1c(NC(=O)[C@@H]2C[C@@H]2C(=O)OCCOC(=O)c2ccc(-c3c4nc(c(-c5c(F)c(F)c(F)c(F)c5F)c5ccc([nH]5)c(-c5c(F)c(F)c(F)c(F)c5F)c5nc(c(-c6c(F)c(F)c(F)c(F)c6F)c6ccc3[nH]6)C=C5)C=C4)cc2)sc2c1CC[N@@H+](Cc1ccccc1)C2
REMARK SMILES IDX 16 1 15 2 13 3 14 4 12 5 10 6 11 7 8 8 7 9 9 11 6 12 5 13
REMARK SMILES IDX 86 14 84 15 85 16 87 17 97 18 88 19 89 20 3 22 4 23 2 24
REMARK SMILES IDX 1 25 90 26 91 27 92 28 96 29 93 30 95 31 94 32 17 33 18 34
REMARK SMILES IDX 19 35 20 36 21 37 22 38 83 39 23 40 82 41 24 42 25 43 26 44
REMARK SMILES IDX 76 45 27 46 81 47 75 48 77 49 28 50 80 51 74 52 73 53 29 55
REMARK SMILES IDX 61 56 41 57 60 58 42 59 45 60 59 61 78 62 43 63 44 64 58 66
REMARK SMILES IDX 79 67 46 68 30 69 31 70 39 71 32 72 33 73 37 74 40 75 34 76
REMARK SMILES IDX 35 77 38 78 36 79 62 80 63 81 71 82 64 83 65 84 69 85 72 86
REMARK SMILES IDX 66 87 67 88 70 89 68 90 47 91 48 92 56 93 49 94 50 95 54 96
REMARK SMILES IDX 57 97 51 98 52 99 55 100 53 101
REMARK H PARENT 7 10 89 21 77 54 45 65
REMARK Flexibility Score: inf
ROOT
ATOM      1  C   UNL A   1      34.165  31.951  28.243  1.00  0.00     0.274 C 
ENDROOT
BRANCH   1   2
ATOM      2  O   UNL A   1      33.512  31.240  27.171  1.00  0.00    -0.462 OA
BRANCH   2   3
ATOM      3  C   UNL A   1      33.493  29.882  27.279  1.00  0.00     0.309 C 
ATOM      4  O   UNL A   1      34.395  29.198  27.747  1.00  0.00    -0.252 OA
BRANCH   3   5
ATOM      5  C   UNL A   1      32.313  29.277  26.605  1.00  0.00     0.112 C 
ATOM      6  C   UNL A   1      32.253  28.560  25.268  1.00  0.00     0.094 C 
ATOM      7  C   UNL A   1      31.813  30.001  25.373  1.00  0.00     0.030 C 
BRANCH   6   8
ATOM      8  C   UNL A   1      33.401  28.211  24.426  1.00  0.00     0.229 C 
ATOM      9  N   UNL A   1      33.802  26.922  24.212  1.00  0.00    -0.317 N 
ATOM     10  H   UNL A   1      34.749  26.851  23.951  1.00  0.00     0.170 HD
ATOM     11  O   UNL A   1      33.981  29.118  23.830  1.00  0.00    -0.274 OA
BRANCH   9  12
ATOM     12  C   UNL A   1      33.170  25.703  24.284  1.00  0.00     0.110 A 
ATOM     13  C   UNL A   1      32.966  24.567  23.524  1.00  0.00     0.098 A 
ATOM     14  C   UNL A   1      32.503  23.477  24.360  1.00  0.00    -0.006 A 
ATOM     15  S   UNL A   1      32.532  25.529  25.876  1.00  0.00    -0.116 S 
ATOM     16  C   UNL A   1      32.346  23.861  25.676  1.00  0.00     0.065 A 
ATOM     17  C   UNL A   1      32.380  22.029  23.974  1.00  0.00     0.099 C 
ATOM     18  C   UNL A   1      32.119  22.923  26.821  1.00  0.00     0.310 C 
ATOM     19  C   UNL A   1      32.127  21.105  25.195  1.00  0.00     0.267 C 
ATOM     20  N   UNL A   1      32.604  21.565  26.511  1.00  0.00    -0.326 N 
ATOM     21  H   UNL A   1      32.164  20.944  27.190  1.00  0.00     0.348 HD
BRANCH  13  22
ATOM     22  C   UNL A   1      33.277  24.399  22.113  1.00  0.00     0.341 C 
ATOM     23  O   UNL A   1      33.631  23.356  21.624  1.00  0.00    -0.246 OA
BRANCH  22  24
ATOM     24  O   UNL A   1      33.132  25.581  21.434  1.00  0.00    -0.465 OA
ATOM     25  C   UNL A   1      31.790  26.046  21.254  1.00  0.00     0.282 C 
ENDBRANCH  22  24
ENDBRANCH  13  22
BRANCH  20  26
ATOM     26  C   UNL A   1      34.026  21.320  26.805  1.00  0.00     0.299 C 
BRANCH  26  27
ATOM     27  C   UNL A   1      35.069  22.025  25.964  1.00  0.00     0.006 A 
ATOM     28  C   UNL A   1      35.540  21.449  24.775  1.00  0.00     0.009 A 
ATOM     29  C   UNL A   1      35.574  23.279  26.343  1.00  0.00     0.009 A 
ATOM     30  C   UNL A   1      36.433  22.139  23.952  1.00  0.00     0.001 A 
ATOM     31  C   UNL A   1      36.450  23.978  25.511  1.00  0.00     0.001 A 
ATOM     32  C   UNL A   1      36.873  23.412  24.312  1.00  0.00     0.000 A 
ENDBRANCH  26  27
ENDBRANCH  20  26
ENDBRANCH   9  12
ENDBRANCH   6   8
ENDBRANCH   3   5
ENDBRANCH   2   3
ENDBRANCH   1   2
BRANCH   1  33
ATOM     33  C   UNL A   1      35.662  32.187  28.039  1.00  0.00     0.275 C 
BRANCH  33  34
ATOM     34  O   UNL A   1      36.385  32.388  29.255  1.00  0.00    -0.458 OA
BRANCH  34  35
ATOM     35  C   UNL A   1      36.551  31.240  29.940  1.00  0.00     0.338 C 
ATOM     36  O   UNL A   1      35.975  30.894  30.961  1.00  0.00    -0.246 OA
BRANCH  35  37
ATOM     37  C   UNL A   1      37.689  30.480  29.447  1.00  0.00     0.060 A 
ATOM     38  C   UNL A   1      37.522  29.101  29.403  1.00  0.00     0.016 A 
ATOM     39  C   UNL A   1      38.950  31.068  29.408  1.00  0.00     0.016 A 
ATOM     40  C   UNL A   1      38.609  28.278  29.543  1.00  0.00     0.010 A 
ATOM     41  C   UNL A   1      40.056  30.241  29.462  1.00  0.00     0.010 A 
ATOM     42  C   UNL A   1      39.874  28.859  29.611  1.00  0.00    -0.014 A 
BRANCH  42  43
ATOM     43  C   UNL A   1      41.009  27.944  29.630  1.00  0.00     0.031 A 
ATOM     44  C   UNL A   1      41.652  27.832  30.971  1.00  0.00     0.074 A 
ATOM     45  C   UNL A   1      41.311  27.175  28.566  1.00  0.00     0.049 A 
ATOM     46  N   UNL A   1      42.911  27.815  31.263  1.00  0.00    -0.248 NA
ATOM     47  C   UNL A   1      40.767  27.857  32.156  1.00  0.00     0.031 C 
ATOM     48  C   UNL A   1      40.566  27.107  27.304  1.00  0.00     0.029 A 
ATOM     49  N   UNL A   1      42.228  26.172  28.442  1.00  0.00    -0.354 N 
ATOM     50  C   UNL A   1      42.972  27.661  32.649  1.00  0.00     0.074 A 
ATOM     51  C   UNL A   1      41.644  27.848  33.156  1.00  0.00     0.031 C 
ATOM     52  C   UNL A   1      40.868  25.951  26.680  1.00  0.00     0.029 A 
ATOM     53  C   UNL A   1      41.897  25.264  27.443  1.00  0.00     0.049 A 
ATOM     54  H   UNL A   1      43.036  26.099  29.000  1.00  0.00     0.167 HD
ATOM     55  C   UNL A   1      44.055  27.094  33.238  1.00  0.00     0.037 A 
ATOM     56  C   UNL A   1      42.349  23.995  27.312  1.00  0.00     0.037 A 
ATOM     57  C   UNL A   1      45.219  27.202  32.405  1.00  0.00     0.049 A 
ATOM     58  C   UNL A   1      43.588  23.860  28.110  1.00  0.00     0.074 A 
ATOM     59  C   UNL A   1      46.083  28.204  32.028  1.00  0.00     0.029 A 
ATOM     60  N   UNL A   1      45.410  26.154  31.550  1.00  0.00    -0.354 N 
ATOM     61  N   UNL A   1      44.724  24.420  27.803  1.00  0.00    -0.248 NA
ATOM     62  C   UNL A   1      43.511  23.308  29.461  1.00  0.00     0.031 C 
ATOM     63  C   UNL A   1      46.652  27.790  30.787  1.00  0.00     0.029 A 
ATOM     64  C   UNL A   1      46.125  26.544  30.452  1.00  0.00     0.049 A 
ATOM     65  H   UNL A   1      45.078  25.240  31.704  1.00  0.00     0.167 HD
ATOM     66  C   UNL A   1      45.313  24.682  29.024  1.00  0.00     0.074 A 
ATOM     67  C   UNL A   1      44.639  23.806  29.969  1.00  0.00     0.031 C 
ATOM     68  C   UNL A   1      46.048  25.816  29.206  1.00  0.00     0.037 A 
BRANCH  55  69
ATOM     69  C   UNL A   1      43.936  25.996  34.280  1.00  0.00     0.064 A 
ATOM     70  C   UNL A   1      44.351  26.270  35.598  1.00  0.00     0.173 A 
ATOM     71  C   UNL A   1      43.777  24.625  33.967  1.00  0.00     0.173 A 
ATOM     72  F   UNL A   1      44.551  27.534  36.003  1.00  0.00    -0.203 F 
ATOM     73  C   UNL A   1      44.673  25.249  36.498  1.00  0.00     0.198 A 
ATOM     74  C   UNL A   1      44.050  23.613  34.885  1.00  0.00     0.198 A 
ATOM     75  F   UNL A   1      43.469  24.198  32.738  1.00  0.00    -0.203 F 
ATOM     76  F   UNL A   1      45.194  25.556  37.694  1.00  0.00    -0.200 F 
ATOM     77  C   UNL A   1      44.532  23.922  36.138  1.00  0.00     0.200 A 
ATOM     78  F   UNL A   1      43.928  22.332  34.506  1.00  0.00    -0.200 F 
ATOM     79  F   UNL A   1      44.906  22.944  36.970  1.00  0.00    -0.200 F 
ENDBRANCH  55  69
BRANCH  56  80
ATOM     80  C   UNL A   1      41.666  22.823  26.714  1.00  0.00     0.064 A 
ATOM     81  C   UNL A   1      42.404  21.704  26.294  1.00  0.00     0.173 A 
ATOM     82  C   UNL A   1      40.267  22.665  26.763  1.00  0.00     0.173 A 
ATOM     83  F   UNL A   1      43.743  21.752  26.259  1.00  0.00    -0.203 F 
ATOM     84  C   UNL A   1      41.783  20.495  25.969  1.00  0.00     0.198 A 
ATOM     85  C   UNL A   1      39.646  21.465  26.418  1.00  0.00     0.198 A 
ATOM     86  F   UNL A   1      39.476  23.639  27.234  1.00  0.00    -0.203 F 
ATOM     87  F   UNL A   1      42.527  19.430  25.641  1.00  0.00    -0.200 F 
ATOM     88  C   UNL A   1      40.405  20.374  26.037  1.00  0.00     0.200 A 
ATOM     89  F   UNL A   1      38.314  21.353  26.517  1.00  0.00    -0.200 F 
ATOM     90  F   UNL A   1      39.813  19.201  25.777  1.00  0.00    -0.200 F 
ENDBRANCH  56  80
BRANCH  68  91
ATOM     91  C   UNL A   1      46.659  26.434  27.988  1.00  0.00     0.064 A 
ATOM     92  C   UNL A   1      46.172  27.584  27.346  1.00  0.00     0.173 A 
ATOM     93  C   UNL A   1      47.829  25.852  27.480  1.00  0.00     0.173 A 
ATOM     94  F   UNL A   1      45.114  28.250  27.829  1.00  0.00    -0.203 F 
ATOM     95  C   UNL A   1      46.798  28.088  26.208  1.00  0.00     0.198 A 
ATOM     96  C   UNL A   1      48.476  26.384  26.371  1.00  0.00     0.198 A 
ATOM     97  F   UNL A   1      48.364  24.777  28.083  1.00  0.00    -0.203 F 
ATOM     98  F   UNL A   1      46.295  29.165  25.587  1.00  0.00    -0.200 F 
ATOM     99  C   UNL A   1      47.951  27.490  25.724  1.00  0.00     0.200 A 
ATOM    100  F   UNL A   1      49.616  25.829  25.936  1.00  0.00    -0.200 F 
ATOM    101  F   UNL A   1      48.568  27.990  24.646  1.00  0.00    -0.200 F 
ENDBRANCH  68  91
ENDBRANCH  42  43
ENDBRANCH  35  37
ENDBRANCH  34  35
ENDBRANCH  33  34
ENDBRANCH   1  33
TORSDOF 17
ENDMDL
MODEL 3
REMARK VINA RESULT:     -12.5      5.715     10.651
REMARK SMILES COC(=O)c1c(NC(=O)[C@@H]2C[C@@H]2C(=O)OCCOC(=O)c2ccc(-c3c4nc(c(-c5c(F)c(F)c(F)c(F)c5F)c5ccc([nH]5)c(-c5c(F)c(F)c(F)c(F)c5F)c5nc(c(-c6c(F)c(F)c(F)c(F)c6F)c6ccc3[nH]6)C=C5)C=C4)cc2)sc2c1CC[N@@H+](Cc1ccccc1)C2
REMARK SMILES IDX 16 1 15 2 13 3 14 4 12 5 10 6 11 7 8 8 7 9 9 11 6 12 5 13
REMARK SMILES IDX 86 14 84 15 85 16 87 17 97 18 88 19 89 20 3 22 4 23 2 24
REMARK SMILES IDX 1 25 90 26 91 27 92 28 96 29 93 30 95 31 94 32 17 33 18 34
REMARK SMILES IDX 19 35 20 36 21 37 22 38 83 39 23 40 82 41 24 42 25 43 26 44
REMARK SMILES IDX 76 45 27 46 81 47 75 48 77 49 28 50 80 51 74 52 73 53 29 55
REMARK SMILES IDX 61 56 41 57 60 58 42 59 45 60 59 61 78 62 43 63 44 64 58 66
REMARK SMILES IDX 79 67 46 68 30 69 31 70 39 71 32 72 33 73 37 74 40 75 34 76
REMARK SMILES IDX 35 77 38 78 36 79 62 80 63 81 71 82 64 83 65 84 69 85 72 86
REMARK SMILES IDX 66 87 67 88 70 89 68 90 47 91 48 92 56 93 49 94 50 95 54 96
REMARK SMILES IDX 57 97 51 98 52 99 55 100 53 101
REMARK H PARENT 7 10 89 21 77 54 45 65
REMARK Flexibility Score: inf
ROOT
ATOM      1  C   UNL A   1      38.024  22.429  26.028  1.00  0.00     0.274 C 
ENDROOT
BRANCH   1   2
ATOM      2  O   UNL A   1      36.959  22.177  25.088  1.00  0.00    -0.462 OA
BRANCH   2   3
ATOM      3  C   UNL A   1      36.583  20.875  24.946  1.00  0.00     0.309 C 
ATOM      4  O   UNL A   1      37.344  19.916  24.951  1.00  0.00    -0.252 OA
BRANCH   3   5
ATOM      5  C   UNL A   1      35.141  20.736  24.607  1.00  0.00     0.112 C 
ATOM      6  C   UNL A   1      33.942  21.338  25.317  1.00  0.00     0.094 C 
ATOM      7  C   UNL A   1      34.318  19.895  25.558  1.00  0.00     0.030 C 
BRANCH   6   8
ATOM      8  C   UNL A   1      33.989  22.296  26.426  1.00  0.00     0.229 C 
ATOM      9  N   UNL A   1      33.690  23.621  26.278  1.00  0.00    -0.317 N 
ATOM     10  H   UNL A   1      34.099  24.189  26.971  1.00  0.00     0.170 HD
ATOM     11  O   UNL A   1      34.240  21.868  27.552  1.00  0.00    -0.274 OA
BRANCH   9  12
ATOM     12  C   UNL A   1      32.943  24.333  25.369  1.00  0.00     0.110 A 
ATOM     13  C   UNL A   1      31.755  25.035  25.291  1.00  0.00     0.098 A 
ATOM     14  C   UNL A   1      31.741  25.872  24.107  1.00  0.00    -0.006 A 
ATOM     15  S   UNL A   1      33.856  24.458  23.913  1.00  0.00    -0.116 S 
ATOM     16  C   UNL A   1      32.885  25.721  23.350  1.00  0.00     0.065 A 
ATOM     17  C   UNL A   1      30.747  26.948  23.771  1.00  0.00     0.099 C 
ATOM     18  C   UNL A   1      33.283  26.611  22.213  1.00  0.00     0.310 C 
ATOM     19  C   UNL A   1      31.200  27.827  22.574  1.00  0.00     0.267 C 
ATOM     20  N   UNL A   1      32.646  27.937  22.316  1.00  0.00    -0.326 N 
ATOM     21  H   UNL A   1      32.725  28.362  21.392  1.00  0.00     0.348 HD
BRANCH  13  22
ATOM     22  C   UNL A   1      30.696  25.064  26.287  1.00  0.00     0.341 C 
ATOM     23  O   UNL A   1      29.838  25.910  26.329  1.00  0.00    -0.246 OA
BRANCH  22  24
ATOM     24  O   UNL A   1      30.822  24.023  27.169  1.00  0.00    -0.465 OA
ATOM     25  C   UNL A   1      30.012  22.871  26.908  1.00  0.00     0.282 C 
ENDBRANCH  22  24
ENDBRANCH  13  22
BRANCH  20  26
ATOM     26  C   UNL A   1      33.375  28.926  23.129  1.00  0.00     0.299 C 
BRANCH  26  27
ATOM     27  C   UNL A   1      33.074  29.004  24.611  1.00  0.00     0.006 A 
ATOM     28  C   UNL A   1      33.830  28.269  25.536  1.00  0.00     0.009 A 
ATOM     29  C   UNL A   1      32.045  29.828  25.095  1.00  0.00     0.009 A 
ATOM     30  C   UNL A   1      33.612  28.411  26.908  1.00  0.00     0.001 A 
ATOM     31  C   UNL A   1      31.841  29.986  26.467  1.00  0.00     0.001 A 
ATOM     32  C   UNL A   1      32.630  29.284  27.374  1.00  0.00     0.000 A 
ENDBRANCH  26  27
ENDBRANCH  20  26
ENDBRANCH   9  12
ENDBRANCH   6   8
ENDBRANCH   3   5
ENDBRANCH   2   3
ENDBRANCH   1   2
BRANCH   1  33
ATOM     33  C   UNL A   1      38.495  23.883  26.089  1.00  0.00     0.275 C 
BRANCH  33  34
ATOM     34  O   UNL A   1      38.591  24.402  27.417  1.00  0.00    -0.458 OA
BRANCH  34  35
ATOM     35  C   UNL A   1      39.869  24.600  27.792  1.00  0.00     0.338 C 
ATOM     36  O   UNL A   1      40.702  23.751  28.072  1.00  0.00    -0.246 OA
BRANCH  35  37
ATOM     37  C   UNL A   1      40.142  26.006  28.044  1.00  0.00     0.060 A 
ATOM     38  C   UNL A   1      40.962  26.278  29.134  1.00  0.00     0.016 A 
ATOM     39  C   UNL A   1      39.326  26.982  27.480  1.00  0.00     0.016 A 
ATOM     40  C   UNL A   1      40.820  27.458  29.816  1.00  0.00     0.010 A 
ATOM     41  C   UNL A   1      39.242  28.207  28.113  1.00  0.00     0.010 A 
ATOM     42  C   UNL A   1      39.927  28.406  29.320  1.00  0.00    -0.014 A 
BRANCH  42  43
ATOM     43  C   UNL A   1      39.903  29.694  30.002  1.00  0.00     0.031 A 
ATOM     44  C   UNL A   1      41.214  30.404  29.965  1.00  0.00     0.074 A 
ATOM     45  C   UNL A   1      38.754  30.225  30.463  1.00  0.00     0.049 A 
ATOM     46  N   UNL A   1      41.817  31.035  30.918  1.00  0.00    -0.248 NA
ATOM     47  C   UNL A   1      42.013  30.295  28.724  1.00  0.00     0.031 C 
ATOM     48  C   UNL A   1      37.413  29.647  30.326  1.00  0.00     0.029 A 
ATOM     49  N   UNL A   1      38.509  31.459  30.991  1.00  0.00    -0.354 N 
ATOM     50  C   UNL A   1      42.987  31.541  30.350  1.00  0.00     0.074 A 
ATOM     51  C   UNL A   1      43.132  30.932  29.060  1.00  0.00     0.031 C 
ATOM     52  C   UNL A   1      36.498  30.623  30.486  1.00  0.00     0.029 A 
ATOM     53  C   UNL A   1      37.186  31.854  30.841  1.00  0.00     0.049 A 
ATOM     54  H   UNL A   1      39.197  32.011  31.431  1.00  0.00     0.167 HD
ATOM     55  C   UNL A   1      43.585  32.648  30.860  1.00  0.00     0.037 A 
ATOM     56  C   UNL A   1      36.699  33.115  30.891  1.00  0.00     0.037 A 
ATOM     57  C   UNL A   1      43.226  32.849  32.235  1.00  0.00     0.049 A 
ATOM     58  C   UNL A   1      37.693  33.967  31.581  1.00  0.00     0.074 A 
ATOM     59  C   UNL A   1      43.531  32.260  33.440  1.00  0.00     0.029 A 
ATOM     60  N   UNL A   1      42.119  33.626  32.429  1.00  0.00    -0.354 N 
ATOM     61  N   UNL A   1      37.964  33.896  32.854  1.00  0.00    -0.248 NA
ATOM     62  C   UNL A   1      38.638  34.749  30.787  1.00  0.00     0.031 C 
ATOM     63  C   UNL A   1      42.442  32.555  34.312  1.00  0.00     0.029 A 
ATOM     64  C   UNL A   1      41.511  33.323  33.615  1.00  0.00     0.049 A 
ATOM     65  H   UNL A   1      41.801  34.313  31.798  1.00  0.00     0.167 HD
ATOM     66  C   UNL A   1      39.302  34.229  32.935  1.00  0.00     0.074 A 
ATOM     67  C   UNL A   1      39.596  34.933  31.697  1.00  0.00     0.031 C 
ATOM     68  C   UNL A   1      40.112  33.610  33.840  1.00  0.00     0.037 A 
BRANCH  55  69
ATOM     69  C   UNL A   1      44.033  33.808  29.989  1.00  0.00     0.064 A 
ATOM     70  C   UNL A   1      43.089  34.417  29.138  1.00  0.00     0.173 A 
ATOM     71  C   UNL A   1      45.386  34.101  29.700  1.00  0.00     0.173 A 
ATOM     72  F   UNL A   1      41.776  34.198  29.307  1.00  0.00    -0.203 F 
ATOM     73  C   UNL A   1      43.476  35.177  28.030  1.00  0.00     0.198 A 
ATOM     74  C   UNL A   1      45.765  34.902  28.624  1.00  0.00     0.198 A 
ATOM     75  F   UNL A   1      46.403  33.537  30.362  1.00  0.00    -0.203 F 
ATOM     76  F   UNL A   1      42.548  35.621  27.171  1.00  0.00    -0.200 F 
ATOM     77  C   UNL A   1      44.813  35.410  27.768  1.00  0.00     0.200 A 
ATOM     78  F   UNL A   1      47.068  35.096  28.376  1.00  0.00    -0.200 F 
ATOM     79  F   UNL A   1      45.189  36.076  26.670  1.00  0.00    -0.200 F 
ENDBRANCH  55  69
BRANCH  56  80
ATOM     80  C   UNL A   1      35.523  33.687  30.191  1.00  0.00     0.064 A 
ATOM     81  C   UNL A   1      34.429  34.182  30.921  1.00  0.00     0.173 A 
ATOM     82  C   UNL A   1      35.543  33.986  28.815  1.00  0.00     0.173 A 
ATOM     83  F   UNL A   1      34.352  33.980  32.243  1.00  0.00    -0.203 F 
ATOM     84  C   UNL A   1      33.432  34.950  30.315  1.00  0.00     0.198 A 
ATOM     85  C   UNL A   1      34.536  34.736  28.208  1.00  0.00     0.198 A 
ATOM     86  F   UNL A   1      36.584  33.639  28.045  1.00  0.00    -0.203 F 
ATOM     87  F   UNL A   1      32.443  35.464  31.059  1.00  0.00    -0.200 F 
ATOM     88  C   UNL A   1      33.488  35.232  28.961  1.00  0.00     0.200 A 
ATOM     89  F   UNL A   1      34.619  35.026  26.901  1.00  0.00    -0.200 F 
ATOM     90  F   UNL A   1      32.561  36.013  28.390  1.00  0.00    -0.200 F 
ENDBRANCH  56  80
BRANCH  68  91
ATOM     91  C   UNL A   1      39.460  33.034  35.057  1.00  0.00     0.064 A 
ATOM     92  C   UNL A   1      38.999  31.712  35.166  1.00  0.00     0.173 A 
ATOM     93  C   UNL A   1      39.346  33.858  36.185  1.00  0.00     0.173 A 
ATOM     94  F   UNL A   1      39.158  30.839  34.163  1.00  0.00    -0.203 F 
ATOM     95  C   UNL A   1      38.392  31.261  36.336  1.00  0.00     0.198 A 
ATOM     96  C   UNL A   1      38.781  33.390  37.366  1.00  0.00     0.198 A 
ATOM     97  F   UNL A   1      39.812  35.117  36.150  1.00  0.00    -0.203 F 
ATOM     98  F   UNL A   1      37.923  30.006  36.408  1.00  0.00    -0.200 F 
ATOM     99  C   UNL A   1      38.288  32.098  37.435  1.00  0.00     0.200 A 
ATOM    100  F   UNL A   1      38.725  34.190  38.439  1.00  0.00    -0.200 F 
ATOM    101  F   UNL A   1      37.729  31.655  38.569  1.00  0.00    -0.200 F 
ENDBRANCH  68  91
ENDBRANCH  42  43
ENDBRANCH  35  37
ENDBRANCH  34  35
ENDBRANCH  33  34
ENDBRANCH   1  33
TORSDOF 17
ENDMDL
