MODEL 1
REMARK VINA RESULT:     -12.3      0.000      0.000
REMARK SMILES Cc1ccc(Cl)c(Nc2ccccc2C(=O)OCCOC(=O)c2ccc(-c3c4nc(c(-c5c(F)c(F)c(F)c(F)c5F)c5ccc([nH]5)c(-c5c(F)c(F)c(F)c(F)c5F)c5nc(c(-c6c(F)c(F)c(F)c(F)c6F)c6ccc3[nH]6)C=C5)C=C4)cc2)c1Cl
REMARK SMILES IDX 18 1 17 2 15 3 16 4 14 5 9 6 10 7 11 8 13 9 12 10 8 11 7 13
REMARK SMILES IDX 1 14 2 15 3 16 86 17 4 18 87 19 5 20 6 21 19 22 20 23 21 24
REMARK SMILES IDX 22 25 23 26 24 27 85 28 25 29 84 30 26 31 27 32 28 33 78 34
REMARK SMILES IDX 29 35 83 36 77 37 79 38 30 39 82 40 76 41 75 42 31 44 63 45
REMARK SMILES IDX 43 46 62 47 44 48 47 49 61 50 80 51 45 52 46 53 60 55 81 56
REMARK SMILES IDX 48 57 32 58 33 59 41 60 34 61 35 62 39 63 42 64 36 65 37 66
REMARK SMILES IDX 40 67 38 68 64 69 65 70 73 71 66 72 67 73 71 74 74 75 68 76
REMARK SMILES IDX 69 77 72 78 70 79 49 80 50 81 58 82 51 83 52 84 56 85 59 86
REMARK SMILES IDX 53 87 54 88 57 89 55 90
REMARK H PARENT 8 12 79 43 47 54
REMARK Flexibility Score: inf
ROOT
ATOM      1  C   UNL A   1      31.753  28.865  27.248  1.00  0.00     0.275 C 
ENDROOT
BRANCH   1   2
ATOM      2  O   UNL A   1      32.679  27.874  26.752  1.00  0.00    -0.458 OA
BRANCH   2   3
ATOM      3  C   UNL A   1      32.123  26.713  26.318  1.00  0.00     0.340 C 
ATOM      4  O   UNL A   1      31.238  26.083  26.876  1.00  0.00    -0.246 OA
BRANCH   3   5
ATOM      5  C   UNL A   1      32.680  26.313  25.003  1.00  0.00     0.083 A 
ATOM      6  C   UNL A   1      33.461  25.158  24.809  1.00  0.00     0.053 A 
ATOM      7  C   UNL A   1      33.953  24.915  23.511  1.00  0.00     0.027 A 
ATOM      8  C   UNL A   1      33.653  25.760  22.437  1.00  0.00     0.002 A 
ATOM      9  C   UNL A   1      32.355  27.138  23.911  1.00  0.00     0.018 A 
ATOM     10  C   UNL A   1      32.843  26.867  22.635  1.00  0.00     0.001 A 
BRANCH   6  11
ATOM     11  N   UNL A   1      33.699  24.152  25.771  1.00  0.00    -0.352 N 
ATOM     12  H   UNL A   1      33.470  24.413  26.692  1.00  0.00     0.167 HD
BRANCH  11  13
ATOM     13  C   UNL A   1      34.210  22.835  25.650  1.00  0.00     0.077 A 
ATOM     14  C   UNL A   1      37.496  20.936  25.009  1.00  0.00     0.046 C 
ATOM     15  C   UNL A   1      36.037  21.237  25.233  1.00  0.00    -0.030 A 
ATOM     16  C   UNL A   1      35.093  20.228  25.000  1.00  0.00     0.006 A 
ATOM     17  C   UNL A   1      35.590  22.525  25.604  1.00  0.00     0.069 A 
ATOM     18  C   UNL A   1      33.732  20.489  25.135  1.00  0.00     0.023 A 
ATOM     19  Cl  UNL A   1      36.775  23.703  26.100  1.00  0.00    -0.082 Cl
ATOM     20  C   UNL A   1      33.299  21.779  25.441  1.00  0.00     0.066 A 
ATOM     21  Cl  UNL A   1      31.588  22.056  25.513  1.00  0.00    -0.082 Cl
ENDBRANCH  11  13
ENDBRANCH   6  11
ENDBRANCH   3   5
ENDBRANCH   2   3
ENDBRANCH   1   2
BRANCH   1  22
ATOM     22  C   UNL A   1      31.779  30.135  26.406  1.00  0.00     0.275 C 
BRANCH  22  23
ATOM     23  O   UNL A   1      33.133  30.595  26.278  1.00  0.00    -0.458 OA
BRANCH  23  24
ATOM     24  C   UNL A   1      33.512  31.542  27.158  1.00  0.00     0.338 C 
ATOM     25  O   UNL A   1      32.884  32.526  27.524  1.00  0.00    -0.246 OA
BRANCH  24  26
ATOM     26  C   UNL A   1      34.841  31.212  27.685  1.00  0.00     0.060 A 
ATOM     27  C   UNL A   1      35.130  29.889  28.003  1.00  0.00     0.016 A 
ATOM     28  C   UNL A   1      35.743  32.223  28.001  1.00  0.00     0.016 A 
ATOM     29  C   UNL A   1      36.264  29.577  28.742  1.00  0.00     0.010 A 
ATOM     30  C   UNL A   1      36.940  31.895  28.644  1.00  0.00     0.010 A 
ATOM     31  C   UNL A   1      37.192  30.575  29.064  1.00  0.00    -0.014 A 
BRANCH  31  32
ATOM     32  C   UNL A   1      38.393  30.253  29.883  1.00  0.00     0.031 A 
ATOM     33  C   UNL A   1      39.468  29.365  29.318  1.00  0.00     0.074 A 
ATOM     34  C   UNL A   1      38.532  30.757  31.125  1.00  0.00     0.049 A 
ATOM     35  N   UNL A   1      40.473  28.785  29.926  1.00  0.00    -0.248 NA
ATOM     36  C   UNL A   1      39.392  29.071  27.877  1.00  0.00     0.031 C 
ATOM     37  C   UNL A   1      37.596  31.672  31.780  1.00  0.00     0.029 A 
ATOM     38  N   UNL A   1      39.518  30.569  32.061  1.00  0.00    -0.354 N 
ATOM     39  C   UNL A   1      41.096  28.001  28.964  1.00  0.00     0.074 A 
ATOM     40  C   UNL A   1      40.366  28.186  27.729  1.00  0.00     0.031 C 
ATOM     41  C   UNL A   1      38.067  31.991  32.993  1.00  0.00     0.029 A 
ATOM     42  C   UNL A   1      39.285  31.229  33.244  1.00  0.00     0.049 A 
ATOM     43  H   UNL A   1      40.317  30.014  31.902  1.00  0.00     0.167 HD
ATOM     44  C   UNL A   1      42.176  27.196  29.107  1.00  0.00     0.037 A 
ATOM     45  C   UNL A   1      39.943  31.186  34.416  1.00  0.00     0.037 A 
ATOM     46  C   UNL A   1      42.942  27.078  30.320  1.00  0.00     0.049 A 
ATOM     47  C   UNL A   1      41.139  30.288  34.551  1.00  0.00     0.074 A 
ATOM     48  C   UNL A   1      44.074  26.319  30.558  1.00  0.00     0.029 A 
ATOM     49  N   UNL A   1      42.662  27.757  31.497  1.00  0.00    -0.354 N 
ATOM     50  N   UNL A   1      41.685  29.501  33.657  1.00  0.00    -0.248 NA
ATOM     51  C   UNL A   1      41.798  30.256  35.864  1.00  0.00     0.031 C 
ATOM     52  C   UNL A   1      44.460  26.512  31.889  1.00  0.00     0.029 A 
ATOM     53  C   UNL A   1      43.592  27.424  32.468  1.00  0.00     0.049 A 
ATOM     54  H   UNL A   1      41.912  28.383  31.623  1.00  0.00     0.167 HD
ATOM     55  C   UNL A   1      42.749  28.879  34.294  1.00  0.00     0.074 A 
ATOM     56  C   UNL A   1      42.789  29.403  35.644  1.00  0.00     0.031 C 
ATOM     57  C   UNL A   1      43.610  27.953  33.808  1.00  0.00     0.037 A 
BRANCH  44  58
ATOM     58  C   UNL A   1      42.568  26.343  27.934  1.00  0.00     0.064 A 
ATOM     59  C   UNL A   1      42.013  25.074  27.712  1.00  0.00     0.173 A 
ATOM     60  C   UNL A   1      43.500  26.823  27.000  1.00  0.00     0.173 A 
ATOM     61  F   UNL A   1      41.129  24.563  28.582  1.00  0.00    -0.203 F 
ATOM     62  C   UNL A   1      42.396  24.308  26.614  1.00  0.00     0.198 A 
ATOM     63  C   UNL A   1      43.859  26.067  25.889  1.00  0.00     0.198 A 
ATOM     64  F   UNL A   1      44.058  28.033  27.163  1.00  0.00    -0.203 F 
ATOM     65  F   UNL A   1      41.888  23.079  26.446  1.00  0.00    -0.200 F 
ATOM     66  C   UNL A   1      43.313  24.807  25.700  1.00  0.00     0.200 A 
ATOM     67  F   UNL A   1      44.737  26.556  25.001  1.00  0.00    -0.200 F 
ATOM     68  F   UNL A   1      43.676  24.070  24.640  1.00  0.00    -0.200 F 
ENDBRANCH  44  58
BRANCH  45  69
ATOM     69  C   UNL A   1      39.443  31.983  35.566  1.00  0.00     0.064 A 
ATOM     70  C   UNL A   1      38.544  31.435  36.490  1.00  0.00     0.173 A 
ATOM     71  C   UNL A   1      39.880  33.300  35.782  1.00  0.00     0.173 A 
ATOM     72  F   UNL A   1      38.077  30.191  36.312  1.00  0.00    -0.203 F 
ATOM     73  C   UNL A   1      38.100  32.173  37.585  1.00  0.00     0.198 A 
ATOM     74  C   UNL A   1      39.460  34.025  36.893  1.00  0.00     0.198 A 
ATOM     75  F   UNL A   1      40.740  33.871  34.925  1.00  0.00    -0.203 F 
ATOM     76  F   UNL A   1      37.215  31.638  38.437  1.00  0.00    -0.200 F 
ATOM     77  C   UNL A   1      38.567  33.463  37.792  1.00  0.00     0.200 A 
ATOM     78  F   UNL A   1      39.926  35.265  37.097  1.00  0.00    -0.200 F 
ATOM     79  F   UNL A   1      38.152  34.166  38.855  1.00  0.00    -0.200 F 
ENDBRANCH  45  69
BRANCH  57  80
ATOM     80  C   UNL A   1      44.675  27.460  34.741  1.00  0.00     0.064 A 
ATOM     81  C   UNL A   1      45.906  28.123  34.860  1.00  0.00     0.173 A 
ATOM     82  C   UNL A   1      44.452  26.332  35.543  1.00  0.00     0.173 A 
ATOM     83  F   UNL A   1      46.171  29.197  34.100  1.00  0.00    -0.203 F 
ATOM     84  C   UNL A   1      46.885  27.658  35.733  1.00  0.00     0.198 A 
ATOM     85  C   UNL A   1      45.424  25.885  36.433  1.00  0.00     0.198 A 
ATOM     86  F   UNL A   1      43.289  25.668  35.467  1.00  0.00    -0.203 F 
ATOM     87  F   UNL A   1      48.070  28.280  35.800  1.00  0.00    -0.200 F 
ATOM     88  C   UNL A   1      46.641  26.545  36.523  1.00  0.00     0.200 A 
ATOM     89  F   UNL A   1      45.184  24.813  37.202  1.00  0.00    -0.200 F 
ATOM     90  F   UNL A   1      47.584  26.099  37.364  1.00  0.00    -0.200 F 
ENDBRANCH  57  80
ENDBRANCH  31  32
ENDBRANCH  24  26
ENDBRANCH  23  24
ENDBRANCH  22  23
ENDBRANCH   1  22
TORSDOF 13
ENDMDL
MODEL 2
REMARK VINA RESULT:     -12.2      0.334      1.644
REMARK SMILES Cc1ccc(Cl)c(Nc2ccccc2C(=O)OCCOC(=O)c2ccc(-c3c4nc(c(-c5c(F)c(F)c(F)c(F)c5F)c5ccc([nH]5)c(-c5c(F)c(F)c(F)c(F)c5F)c5nc(c(-c6c(F)c(F)c(F)c(F)c6F)c6ccc3[nH]6)C=C5)C=C4)cc2)c1Cl
REMARK SMILES IDX 18 1 17 2 15 3 16 4 14 5 9 6 10 7 11 8 13 9 12 10 8 11 7 13
REMARK SMILES IDX 1 14 2 15 3 16 86 17 4 18 87 19 5 20 6 21 19 22 20 23 21 24
REMARK SMILES IDX 22 25 23 26 24 27 85 28 25 29 84 30 26 31 27 32 28 33 78 34
REMARK SMILES IDX 29 35 83 36 77 37 79 38 30 39 82 40 76 41 75 42 31 44 63 45
REMARK SMILES IDX 43 46 62 47 44 48 47 49 61 50 80 51 45 52 46 53 60 55 81 56
REMARK SMILES IDX 48 57 32 58 33 59 41 60 34 61 35 62 39 63 42 64 36 65 37 66
REMARK SMILES IDX 40 67 38 68 64 69 65 70 73 71 66 72 67 73 71 74 74 75 68 76
REMARK SMILES IDX 69 77 72 78 70 79 49 80 50 81 58 82 51 83 52 84 56 85 59 86
REMARK SMILES IDX 53 87 54 88 57 89 55 90
REMARK H PARENT 8 12 79 43 47 54
REMARK Flexibility Score: inf
ROOT
ATOM      1  C   UNL A   1      31.900  28.385  27.055  1.00  0.00     0.275 C 
ENDROOT
BRANCH   1   2
ATOM      2  O   UNL A   1      31.043  27.543  26.255  1.00  0.00    -0.458 OA
BRANCH   2   3
ATOM      3  C   UNL A   1      31.444  26.252  26.118  1.00  0.00     0.340 C 
ATOM      4  O   UNL A   1      31.183  25.331  26.876  1.00  0.00    -0.246 OA
BRANCH   3   5
ATOM      5  C   UNL A   1      32.207  26.060  24.861  1.00  0.00     0.083 A 
ATOM      6  C   UNL A   1      33.295  25.176  24.741  1.00  0.00     0.053 A 
ATOM      7  C   UNL A   1      33.950  25.115  23.494  1.00  0.00     0.027 A 
ATOM      8  C   UNL A   1      33.522  25.871  22.398  1.00  0.00     0.002 A 
ATOM      9  C   UNL A   1      31.763  26.790  23.744  1.00  0.00     0.018 A 
ATOM     10  C   UNL A   1      32.419  26.701  22.519  1.00  0.00     0.001 A 
BRANCH   6  11
ATOM     11  N   UNL A   1      33.719  24.251  25.720  1.00  0.00    -0.352 N 
ATOM     12  H   UNL A   1      33.686  24.596  26.641  1.00  0.00     0.167 HD
BRANCH  11  13
ATOM     13  C   UNL A   1      34.186  22.917  25.616  1.00  0.00     0.077 A 
ATOM     14  C   UNL A   1      37.406  20.901  25.001  1.00  0.00     0.046 C 
ATOM     15  C   UNL A   1      35.958  21.253  25.221  1.00  0.00    -0.030 A 
ATOM     16  C   UNL A   1      34.981  20.273  25.001  1.00  0.00     0.006 A 
ATOM     17  C   UNL A   1      35.555  22.560  25.575  1.00  0.00     0.069 A 
ATOM     18  C   UNL A   1      33.630  20.581  25.132  1.00  0.00     0.023 A 
ATOM     19  Cl  UNL A   1      36.779  23.704  26.056  1.00  0.00    -0.082 Cl
ATOM     20  C   UNL A   1      33.240  21.889  25.421  1.00  0.00     0.066 A 
ATOM     21  Cl  UNL A   1      31.540  22.224  25.488  1.00  0.00    -0.082 Cl
ENDBRANCH  11  13
ENDBRANCH   6  11
ENDBRANCH   3   5
ENDBRANCH   2   3
ENDBRANCH   1   2
BRANCH   1  22
ATOM     22  C   UNL A   1      31.778  29.852  26.664  1.00  0.00     0.275 C 
BRANCH  22  23
ATOM     23  O   UNL A   1      33.082  30.381  26.385  1.00  0.00    -0.458 OA
BRANCH  23  24
ATOM     24  C   UNL A   1      33.504  31.360  27.211  1.00  0.00     0.338 C 
ATOM     25  O   UNL A   1      32.903  32.371  27.550  1.00  0.00    -0.246 OA
BRANCH  24  26
ATOM     26  C   UNL A   1      34.842  31.031  27.712  1.00  0.00     0.060 A 
ATOM     27  C   UNL A   1      35.135  29.709  28.035  1.00  0.00     0.016 A 
ATOM     28  C   UNL A   1      35.753  32.042  28.001  1.00  0.00     0.016 A 
ATOM     29  C   UNL A   1      36.283  29.400  28.753  1.00  0.00     0.010 A 
ATOM     30  C   UNL A   1      36.962  31.715  28.622  1.00  0.00     0.010 A 
ATOM     31  C   UNL A   1      37.220  30.398  29.048  1.00  0.00    -0.014 A 
BRANCH  31  32
ATOM     32  C   UNL A   1      38.436  30.080  29.844  1.00  0.00     0.031 A 
ATOM     33  C   UNL A   1      39.501  29.190  29.262  1.00  0.00     0.074 A 
ATOM     34  C   UNL A   1      38.598  30.587  31.082  1.00  0.00     0.049 A 
ATOM     35  N   UNL A   1      40.518  28.613  29.852  1.00  0.00    -0.248 NA
ATOM     36  C   UNL A   1      39.397  28.892  27.824  1.00  0.00     0.031 C 
ATOM     37  C   UNL A   1      37.675  31.504  31.752  1.00  0.00     0.029 A 
ATOM     38  N   UNL A   1      39.603  30.403  32.000  1.00  0.00    -0.354 N 
ATOM     39  C   UNL A   1      41.123  27.826  28.880  1.00  0.00     0.074 A 
ATOM     40  C   UNL A   1      40.369  28.007  27.659  1.00  0.00     0.031 C 
ATOM     41  C   UNL A   1      38.169  31.826  32.955  1.00  0.00     0.029 A 
ATOM     42  C   UNL A   1      39.392  31.066  33.184  1.00  0.00     0.049 A 
ATOM     43  H   UNL A   1      40.399  29.848  31.827  1.00  0.00     0.167 HD
ATOM     44  C   UNL A   1      42.206  27.022  29.005  1.00  0.00     0.037 A 
ATOM     45  C   UNL A   1      40.072  31.027  34.344  1.00  0.00     0.037 A 
ATOM     46  C   UNL A   1      42.995  26.909  30.204  1.00  0.00     0.049 A 
ATOM     47  C   UNL A   1      41.271  30.131  34.458  1.00  0.00     0.074 A 
ATOM     48  C   UNL A   1      44.132  26.151  30.422  1.00  0.00     0.029 A 
ATOM     49  N   UNL A   1      42.737  27.591  31.384  1.00  0.00    -0.354 N 
ATOM     50  N   UNL A   1      41.801  29.341  33.556  1.00  0.00    -0.248 NA
ATOM     51  C   UNL A   1      41.956  30.103  35.759  1.00  0.00     0.031 C 
ATOM     52  C   UNL A   1      44.543  26.348  31.745  1.00  0.00     0.029 A 
ATOM     53  C   UNL A   1      43.686  27.262  32.338  1.00  0.00     0.049 A 
ATOM     54  H   UNL A   1      41.989  28.217  31.522  1.00  0.00     0.167 HD
ATOM     55  C   UNL A   1      42.877  28.722  34.175  1.00  0.00     0.074 A 
ATOM     56  C   UNL A   1      42.943  29.250  35.523  1.00  0.00     0.031 C 
ATOM     57  C   UNL A   1      43.729  27.795  33.676  1.00  0.00     0.037 A 
BRANCH  44  58
ATOM     58  C   UNL A   1      42.576  26.166  27.828  1.00  0.00     0.064 A 
ATOM     59  C   UNL A   1      43.536  26.562  26.885  1.00  0.00     0.173 A 
ATOM     60  C   UNL A   1      41.974  24.908  27.662  1.00  0.00     0.173 A 
ATOM     61  F   UNL A   1      44.131  27.760  26.990  1.00  0.00    -0.203 F 
ATOM     62  C   UNL A   1      43.858  25.743  25.806  1.00  0.00     0.198 A 
ATOM     63  C   UNL A   1      42.320  24.081  26.598  1.00  0.00     0.198 A 
ATOM     64  F   UNL A   1      41.053  24.478  28.538  1.00  0.00    -0.203 F 
ATOM     65  F   UNL A   1      44.744  26.162  24.891  1.00  0.00    -0.200 F 
ATOM     66  C   UNL A   1      43.255  24.501  25.666  1.00  0.00     0.200 A 
ATOM     67  F   UNL A   1      41.744  22.876  26.472  1.00  0.00    -0.200 F 
ATOM     68  F   UNL A   1      43.572  23.713  24.630  1.00  0.00    -0.200 F 
ENDBRANCH  44  58
BRANCH  45  69
ATOM     69  C   UNL A   1      39.595  31.828  35.501  1.00  0.00     0.064 A 
ATOM     70  C   UNL A   1      40.065  33.128  35.725  1.00  0.00     0.173 A 
ATOM     71  C   UNL A   1      38.633  31.319  36.389  1.00  0.00     0.173 A 
ATOM     72  F   UNL A   1      41.003  33.648  34.920  1.00  0.00    -0.203 F 
ATOM     73  C   UNL A   1      39.593  33.889  36.792  1.00  0.00     0.198 A 
ATOM     74  C   UNL A   1      38.140  32.091  37.437  1.00  0.00     0.198 A 
ATOM     75  F   UNL A   1      38.152  30.078  36.219  1.00  0.00    -0.203 F 
ATOM     76  F   UNL A   1      40.082  35.118  37.004  1.00  0.00    -0.200 F 
ATOM     77  C   UNL A   1      38.623  33.374  37.640  1.00  0.00     0.200 A 
ATOM     78  F   UNL A   1      37.192  31.596  38.244  1.00  0.00    -0.200 F 
ATOM     79  F   UNL A   1      38.158  34.113  38.657  1.00  0.00    -0.200 F 
ENDBRANCH  45  69
BRANCH  57  80
ATOM     80  C   UNL A   1      44.813  27.306  34.589  1.00  0.00     0.064 A 
ATOM     81  C   UNL A   1      46.045  27.970  34.683  1.00  0.00     0.173 A 
ATOM     82  C   UNL A   1      44.607  26.179  35.398  1.00  0.00     0.173 A 
ATOM     83  F   UNL A   1      46.294  29.043  33.915  1.00  0.00    -0.203 F 
ATOM     84  C   UNL A   1      47.040  27.508  35.539  1.00  0.00     0.198 A 
ATOM     85  C   UNL A   1      45.595  25.736  36.271  1.00  0.00     0.198 A 
ATOM     86  F   UNL A   1      43.443  25.513  35.346  1.00  0.00    -0.203 F 
ATOM     87  F   UNL A   1      48.226  28.132  35.581  1.00  0.00    -0.200 F 
ATOM     88  C   UNL A   1      46.813  26.397  36.336  1.00  0.00     0.200 A 
ATOM     89  F   UNL A   1      45.372  24.666  37.046  1.00  0.00    -0.200 F 
ATOM     90  F   UNL A   1      47.772  25.954  37.160  1.00  0.00    -0.200 F 
ENDBRANCH  57  80
ENDBRANCH  31  32
ENDBRANCH  24  26
ENDBRANCH  23  24
ENDBRANCH  22  23
ENDBRANCH   1  22
TORSDOF 13
ENDMDL
MODEL 3
REMARK VINA RESULT:     -12.2      0.296      1.613
REMARK SMILES Cc1ccc(Cl)c(Nc2ccccc2C(=O)OCCOC(=O)c2ccc(-c3c4nc(c(-c5c(F)c(F)c(F)c(F)c5F)c5ccc([nH]5)c(-c5c(F)c(F)c(F)c(F)c5F)c5nc(c(-c6c(F)c(F)c(F)c(F)c6F)c6ccc3[nH]6)C=C5)C=C4)cc2)c1Cl
REMARK SMILES IDX 18 1 17 2 15 3 16 4 14 5 9 6 10 7 11 8 13 9 12 10 8 11 7 13
REMARK SMILES IDX 1 14 2 15 3 16 86 17 4 18 87 19 5 20 6 21 19 22 20 23 21 24
REMARK SMILES IDX 22 25 23 26 24 27 85 28 25 29 84 30 26 31 27 32 28 33 78 34
REMARK SMILES IDX 29 35 83 36 77 37 79 38 30 39 82 40 76 41 75 42 31 44 63 45
REMARK SMILES IDX 43 46 62 47 44 48 47 49 61 50 80 51 45 52 46 53 60 55 81 56
REMARK SMILES IDX 48 57 32 58 33 59 41 60 34 61 35 62 39 63 42 64 36 65 37 66
REMARK SMILES IDX 40 67 38 68 64 69 65 70 73 71 66 72 67 73 71 74 74 75 68 76
REMARK SMILES IDX 69 77 72 78 70 79 49 80 50 81 58 82 51 83 52 84 56 85 59 86
REMARK SMILES IDX 53 87 54 88 57 89 55 90
REMARK H PARENT 8 12 79 43 47 54
REMARK Flexibility Score: inf
ROOT
ATOM      1  C   UNL A   1      31.752  28.728  27.301  1.00  0.00     0.275 C 
ENDROOT
BRANCH   1   2
ATOM      2  O   UNL A   1      32.703  27.777  26.776  1.00  0.00    -0.458 OA
BRANCH   2   3
ATOM      3  C   UNL A   1      32.176  26.623  26.290  1.00  0.00     0.340 C 
ATOM      4  O   UNL A   1      31.403  25.880  26.874  1.00  0.00    -0.246 OA
BRANCH   3   5
ATOM      5  C   UNL A   1      32.604  26.390  24.890  1.00  0.00     0.083 A 
ATOM      6  C   UNL A   1      33.488  25.363  24.509  1.00  0.00     0.053 A 
ATOM      7  C   UNL A   1      33.835  25.274  23.146  1.00  0.00     0.027 A 
ATOM      8  C   UNL A   1      33.299  26.143  22.189  1.00  0.00     0.002 A 
ATOM      9  C   UNL A   1      32.044  27.236  23.916  1.00  0.00     0.018 A 
ATOM     10  C   UNL A   1      32.392  27.118  22.574  1.00  0.00     0.001 A 
BRANCH   6  11
ATOM     11  N   UNL A   1      33.970  24.335  25.348  1.00  0.00    -0.352 N 
ATOM     12  H   UNL A   1      34.119  24.612  26.281  1.00  0.00     0.167 HD
BRANCH  11  13
ATOM     13  C   UNL A   1      34.278  22.975  25.091  1.00  0.00     0.077 A 
ATOM     14  C   UNL A   1      32.585  19.555  24.590  1.00  0.00     0.046 C 
ATOM     15  C   UNL A   1      33.636  20.620  24.764  1.00  0.00    -0.030 A 
ATOM     16  C   UNL A   1      34.961  20.232  25.001  1.00  0.00     0.006 A 
ATOM     17  C   UNL A   1      33.311  21.994  24.763  1.00  0.00     0.069 A 
ATOM     18  C   UNL A   1      35.947  21.188  25.230  1.00  0.00     0.023 A 
ATOM     19  Cl  UNL A   1      31.713  22.469  24.253  1.00  0.00    -0.082 Cl
ATOM     20  C   UNL A   1      35.605  22.539  25.288  1.00  0.00     0.066 A 
ATOM     21  Cl  UNL A   1      36.864  23.672  25.660  1.00  0.00    -0.082 Cl
ENDBRANCH  11  13
ENDBRANCH   6  11
ENDBRANCH   3   5
ENDBRANCH   2   3
ENDBRANCH   1   2
BRANCH   1  22
ATOM     22  C   UNL A   1      31.762  30.032  26.513  1.00  0.00     0.275 C 
BRANCH  22  23
ATOM     23  O   UNL A   1      33.116  30.478  26.345  1.00  0.00    -0.458 OA
BRANCH  23  24
ATOM     24  C   UNL A   1      33.517  31.455  27.181  1.00  0.00     0.338 C 
ATOM     25  O   UNL A   1      32.904  32.461  27.514  1.00  0.00    -0.246 OA
BRANCH  24  26
ATOM     26  C   UNL A   1      34.848  31.133  27.705  1.00  0.00     0.060 A 
ATOM     27  C   UNL A   1      35.139  29.813  28.040  1.00  0.00     0.016 A 
ATOM     28  C   UNL A   1      35.753  32.147  28.001  1.00  0.00     0.016 A 
ATOM     29  C   UNL A   1      36.276  29.511  28.777  1.00  0.00     0.010 A 
ATOM     30  C   UNL A   1      36.953  31.827  28.641  1.00  0.00     0.010 A 
ATOM     31  C   UNL A   1      37.207  30.513  29.079  1.00  0.00    -0.014 A 
BRANCH  31  32
ATOM     32  C   UNL A   1      38.412  30.202  29.896  1.00  0.00     0.031 A 
ATOM     33  C   UNL A   1      39.493  29.322  29.330  1.00  0.00     0.074 A 
ATOM     34  C   UNL A   1      38.549  30.708  31.137  1.00  0.00     0.049 A 
ATOM     35  N   UNL A   1      40.504  28.752  29.935  1.00  0.00    -0.248 NA
ATOM     36  C   UNL A   1      39.416  29.027  27.889  1.00  0.00     0.031 C 
ATOM     37  C   UNL A   1      37.607  31.616  31.793  1.00  0.00     0.029 A 
ATOM     38  N   UNL A   1      39.539  30.529  32.072  1.00  0.00    -0.354 N 
ATOM     39  C   UNL A   1      41.132  27.972  28.973  1.00  0.00     0.074 A 
ATOM     40  C   UNL A   1      40.398  28.150  27.739  1.00  0.00     0.031 C 
ATOM     41  C   UNL A   1      38.078  31.940  33.005  1.00  0.00     0.029 A 
ATOM     42  C   UNL A   1      39.303  31.188  33.254  1.00  0.00     0.049 A 
ATOM     43  H   UNL A   1      40.342  29.982  31.911  1.00  0.00     0.167 HD
ATOM     44  C   UNL A   1      42.219  27.176  29.114  1.00  0.00     0.037 A 
ATOM     45  C   UNL A   1      39.964  31.152  34.425  1.00  0.00     0.037 A 
ATOM     46  C   UNL A   1      42.989  27.066  30.326  1.00  0.00     0.049 A 
ATOM     47  C   UNL A   1      41.168  30.265  34.558  1.00  0.00     0.074 A 
ATOM     48  C   UNL A   1      44.127  26.317  30.562  1.00  0.00     0.029 A 
ATOM     49  N   UNL A   1      42.706  27.744  31.503  1.00  0.00    -0.354 N 
ATOM     50  N   UNL A   1      41.719  29.481  33.663  1.00  0.00    -0.248 NA
ATOM     51  C   UNL A   1      41.830  30.239  35.869  1.00  0.00     0.031 C 
ATOM     52  C   UNL A   1      44.514  26.514  31.892  1.00  0.00     0.029 A 
ATOM     53  C   UNL A   1      43.641  27.420  32.472  1.00  0.00     0.049 A 
ATOM     54  H   UNL A   1      41.950  28.364  31.630  1.00  0.00     0.167 HD
ATOM     55  C   UNL A   1      42.789  28.869  34.299  1.00  0.00     0.074 A 
ATOM     56  C   UNL A   1      42.828  29.394  35.648  1.00  0.00     0.031 C 
ATOM     57  C   UNL A   1      43.657  27.950  33.812  1.00  0.00     0.037 A 
BRANCH  44  58
ATOM     58  C   UNL A   1      42.616  26.325  27.942  1.00  0.00     0.064 A 
ATOM     59  C   UNL A   1      43.563  26.746  26.997  1.00  0.00     0.173 A 
ATOM     60  C   UNL A   1      42.054  25.049  27.782  1.00  0.00     0.173 A 
ATOM     61  F   UNL A   1      44.120  27.963  27.095  1.00  0.00    -0.203 F 
ATOM     62  C   UNL A   1      43.911  25.932  25.922  1.00  0.00     0.198 A 
ATOM     63  C   UNL A   1      42.425  24.227  26.723  1.00  0.00     0.198 A 
ATOM     64  F   UNL A   1      41.147  24.595  28.661  1.00  0.00    -0.203 F 
ATOM     65  F   UNL A   1      44.783  26.373  25.004  1.00  0.00    -0.200 F 
ATOM     66  C   UNL A   1      43.347  24.671  25.789  1.00  0.00     0.200 A 
ATOM     67  F   UNL A   1      41.888  23.004  26.604  1.00  0.00    -0.200 F 
ATOM     68  F   UNL A   1      43.689  23.887  24.756  1.00  0.00    -0.200 F 
ENDBRANCH  44  58
BRANCH  45  69
ATOM     69  C   UNL A   1      39.460  31.946  35.575  1.00  0.00     0.064 A 
ATOM     70  C   UNL A   1      38.522  31.412  36.467  1.00  0.00     0.173 A 
ATOM     71  C   UNL A   1      39.931  33.245  35.823  1.00  0.00     0.173 A 
ATOM     72  F   UNL A   1      38.022  30.185  36.258  1.00  0.00    -0.203 F 
ATOM     73  C   UNL A   1      38.073  32.146  37.564  1.00  0.00     0.198 A 
ATOM     74  C   UNL A   1      39.505  33.966  36.935  1.00  0.00     0.198 A 
ATOM     75  F   UNL A   1      40.829  33.803  34.997  1.00  0.00    -0.203 F 
ATOM     76  F   UNL A   1      37.151  31.625  38.384  1.00  0.00    -0.200 F 
ATOM     77  C   UNL A   1      38.573  33.418  37.802  1.00  0.00     0.200 A 
ATOM     78  F   UNL A   1      40.003  35.188  37.171  1.00  0.00    -0.200 F 
ATOM     79  F   UNL A   1      38.154  34.116  38.867  1.00  0.00    -0.200 F 
ENDBRANCH  45  69
BRANCH  57  80
ATOM     80  C   UNL A   1      44.728  27.467  34.742  1.00  0.00     0.064 A 
ATOM     81  C   UNL A   1      45.953  28.141  34.859  1.00  0.00     0.173 A 
ATOM     82  C   UNL A   1      44.517  26.336  35.545  1.00  0.00     0.173 A 
ATOM     83  F   UNL A   1      46.206  29.218  34.099  1.00  0.00    -0.203 F 
ATOM     84  C   UNL A   1      46.937  27.685  35.731  1.00  0.00     0.198 A 
ATOM     85  C   UNL A   1      45.494  25.899  36.433  1.00  0.00     0.198 A 
ATOM     86  F   UNL A   1      43.360  25.661  35.470  1.00  0.00    -0.203 F 
ATOM     87  F   UNL A   1      48.117  28.319  35.796  1.00  0.00    -0.200 F 
ATOM     88  C   UNL A   1      46.705  26.569  36.521  1.00  0.00     0.200 A 
ATOM     89  F   UNL A   1      45.266  24.825  37.202  1.00  0.00    -0.200 F 
ATOM     90  F   UNL A   1      47.654  26.133  37.361  1.00  0.00    -0.200 F 
ENDBRANCH  57  80
ENDBRANCH  31  32
ENDBRANCH  24  26
ENDBRANCH  23  24
ENDBRANCH  22  23
ENDBRANCH   1  22
TORSDOF 13
ENDMDL
