MODEL 1
REMARK VINA RESULT:     -12.2      0.000      0.000
REMARK SMILES C#CCNC(=O)N[C@@]1(C(=O)OCCOC(=O)c2ccc(-c3c4nc(c(-c5c(F)c(F)c(F)c(F)c5F)c5ccc([nH]5)c(-c5c(F)c(F)c(F)c(F)c5F)c5nc(c(-c6c(F)c(F)c(F)c(F)c6F)c6ccc3[nH]6)C=C5)C=C4)cc2)CCc2ccccc21
REMARK SMILES IDX 12 1 11 2 9 3 10 4 8 5 80 6 87 7 81 8 82 9 86 10 83 11 85 12
REMARK SMILES IDX 84 13 7 14 4 15 5 16 6 18 3 20 2 21 1 22 13 23 14 24 15 25
REMARK SMILES IDX 16 26 17 27 18 28 79 29 19 30 78 31 20 32 21 33 22 34 72 35
REMARK SMILES IDX 23 36 77 37 71 38 73 39 24 40 76 41 70 42 69 43 25 45 57 46
REMARK SMILES IDX 37 47 56 48 38 49 41 50 55 51 74 52 39 53 40 54 54 56 75 57
REMARK SMILES IDX 42 58 26 59 27 60 35 61 28 62 29 63 33 64 36 65 30 66 31 67
REMARK SMILES IDX 34 68 32 69 58 70 59 71 67 72 60 73 61 74 65 75 68 76 62 77
REMARK SMILES IDX 63 78 66 79 64 80 43 81 44 82 52 83 45 84 46 85 50 86 53 87
REMARK SMILES IDX 47 88 48 89 51 90 49 91
REMARK H PARENT 4 17 7 19 73 44 41 55
REMARK Flexibility Score: inf
ROOT
ATOM      1  C   UNL A   1      32.956  29.328  24.687  1.00  0.00     0.274 C 
ENDROOT
BRANCH   1   2
ATOM      2  O   UNL A   1      33.781  28.128  24.745  1.00  0.00    -0.460 OA
BRANCH   2   3
ATOM      3  C   UNL A   1      33.637  27.258  23.710  1.00  0.00     0.336 C 
ATOM      4  O   UNL A   1      34.032  27.564  22.584  1.00  0.00    -0.249 OA
BRANCH   3   5
ATOM      5  C   UNL A   1      32.684  26.004  23.986  1.00  0.00     0.165 C 
ATOM      6  C   UNL A   1      31.317  25.941  24.715  1.00  0.00     0.050 C 
ATOM      7  C   UNL A   1      33.422  24.971  24.834  1.00  0.00    -0.008 A 
ATOM      8  C   UNL A   1      31.122  24.464  25.122  1.00  0.00     0.039 C 
ATOM      9  C   UNL A   1      32.521  24.114  25.481  1.00  0.00    -0.042 A 
ATOM     10  C   UNL A   1      34.787  24.817  25.030  1.00  0.00     0.007 A 
ATOM     11  C   UNL A   1      32.957  23.099  26.310  1.00  0.00     0.004 A 
ATOM     12  C   UNL A   1      35.236  23.831  25.902  1.00  0.00     0.000 A 
ATOM     13  C   UNL A   1      34.327  22.976  26.536  1.00  0.00     0.000 A 
BRANCH   5  14
ATOM     14  N   UNL A   1      32.453  25.477  22.661  1.00  0.00    -0.318 N 
ATOM     15  N   UNL A   1      31.118  27.267  21.999  1.00  0.00    -0.327 N 
ATOM     16  C   UNL A   1      31.772  26.123  21.710  1.00  0.00     0.316 C 
ATOM     17  H   UNL A   1      31.506  28.017  21.495  1.00  0.00     0.166 HD
ATOM     18  O   UNL A   1      32.062  25.812  20.557  1.00  0.00    -0.249 OA
ATOM     19  H   UNL A   1      32.818  24.588  22.447  1.00  0.00     0.166 HD
BRANCH  15  20
ATOM     20  C   UNL A   1      30.006  27.735  22.835  1.00  0.00     0.207 C 
BRANCH  20  21
ATOM     21  C   UNL A   1      29.764  29.177  22.589  1.00  0.00    -0.085 C 
ATOM     22  C   UNL A   1      29.521  30.347  22.517  1.00  0.00     0.006 C 
ENDBRANCH  20  21
ENDBRANCH  15  20
ENDBRANCH   5  14
ENDBRANCH   3   5
ENDBRANCH   2   3
ENDBRANCH   1   2
BRANCH   1  23
ATOM     23  C   UNL A   1      32.009  29.672  25.894  1.00  0.00     0.275 C 
BRANCH  23  24
ATOM     24  O   UNL A   1      32.630  29.811  27.208  1.00  0.00    -0.458 OA
BRANCH  24  25
ATOM     25  C   UNL A   1      33.347  30.972  27.396  1.00  0.00     0.338 C 
ATOM     26  O   UNL A   1      32.837  32.081  27.484  1.00  0.00    -0.246 OA
BRANCH  25  27
ATOM     27  C   UNL A   1      34.830  30.782  27.614  1.00  0.00     0.060 A 
ATOM     28  C   UNL A   1      35.387  29.548  27.877  1.00  0.00     0.016 A 
ATOM     29  C   UNL A   1      35.672  31.881  27.788  1.00  0.00     0.016 A 
ATOM     30  C   UNL A   1      36.472  29.440  28.733  1.00  0.00     0.010 A 
ATOM     31  C   UNL A   1      36.966  31.714  28.328  1.00  0.00     0.010 A 
ATOM     32  C   UNL A   1      37.348  30.491  28.907  1.00  0.00    -0.014 A 
BRANCH  32  33
ATOM     33  C   UNL A   1      38.602  30.299  29.696  1.00  0.00     0.031 A 
ATOM     34  C   UNL A   1      39.695  29.454  29.105  1.00  0.00     0.074 A 
ATOM     35  C   UNL A   1      38.791  30.870  30.911  1.00  0.00     0.049 A 
ATOM     36  N   UNL A   1      40.625  28.759  29.702  1.00  0.00    -0.248 NA
ATOM     37  C   UNL A   1      39.716  29.351  27.636  1.00  0.00     0.031 C 
ATOM     38  C   UNL A   1      37.925  31.866  31.554  1.00  0.00     0.029 A 
ATOM     39  N   UNL A   1      39.786  30.684  31.846  1.00  0.00    -0.354 N 
ATOM     40  C   UNL A   1      41.264  28.048  28.693  1.00  0.00     0.074 A 
ATOM     41  C   UNL A   1      40.632  28.411  27.445  1.00  0.00     0.031 C 
ATOM     42  C   UNL A   1      38.434  32.225  32.737  1.00  0.00     0.029 A 
ATOM     43  C   UNL A   1      39.552  31.352  33.029  1.00  0.00     0.049 A 
ATOM     44  H   UNL A   1      40.585  30.129  31.685  1.00  0.00     0.167 HD
ATOM     45  C   UNL A   1      42.268  27.149  28.830  1.00  0.00     0.037 A 
ATOM     46  C   UNL A   1      40.088  31.197  34.253  1.00  0.00     0.037 A 
ATOM     47  C   UNL A   1      42.894  26.876  30.098  1.00  0.00     0.049 A 
ATOM     48  C   UNL A   1      41.122  30.122  34.415  1.00  0.00     0.074 A 
ATOM     49  C   UNL A   1      43.888  25.966  30.403  1.00  0.00     0.029 A 
ATOM     50  N   UNL A   1      42.585  27.544  31.280  1.00  0.00    -0.354 N 
ATOM     51  N   UNL A   1      41.623  29.317  33.508  1.00  0.00    -0.248 NA
ATOM     52  C   UNL A   1      41.647  29.910  35.767  1.00  0.00     0.031 C 
ATOM     53  C   UNL A   1      44.137  26.044  31.778  1.00  0.00     0.029 A 
ATOM     54  C   UNL A   1      43.358  27.058  32.317  1.00  0.00     0.049 A 
ATOM     55  H   UNL A   1      41.913  28.259  31.363  1.00  0.00     0.167 HD
ATOM     56  C   UNL A   1      42.549  28.528  34.168  1.00  0.00     0.074 A 
ATOM     57  C   UNL A   1      42.543  28.957  35.554  1.00  0.00     0.031 C 
ATOM     58  C   UNL A   1      43.336  27.540  33.677  1.00  0.00     0.037 A 
BRANCH  45  59
ATOM     59  C   UNL A   1      42.663  26.351  27.619  1.00  0.00     0.064 A 
ATOM     60  C   UNL A   1      42.055  25.135  27.277  1.00  0.00     0.173 A 
ATOM     61  C   UNL A   1      43.704  26.808  26.793  1.00  0.00     0.173 A 
ATOM     62  F   UNL A   1      41.066  24.638  28.036  1.00  0.00    -0.203 F 
ATOM     63  C   UNL A   1      42.501  24.386  26.189  1.00  0.00     0.198 A 
ATOM     64  C   UNL A   1      44.123  26.078  25.683  1.00  0.00     0.198 A 
ATOM     65  F   UNL A   1      44.327  27.966  27.066  1.00  0.00    -0.203 F 
ATOM     66  F   UNL A   1      41.953  23.191  25.929  1.00  0.00    -0.200 F 
ATOM     67  C   UNL A   1      43.530  24.860  25.390  1.00  0.00     0.200 A 
ATOM     68  F   UNL A   1      45.109  26.547  24.907  1.00  0.00    -0.200 F 
ATOM     69  F   UNL A   1      43.961  24.139  24.346  1.00  0.00    -0.200 F 
ENDBRANCH  45  59
BRANCH  46  70
ATOM     70  C   UNL A   1      39.592  31.993  35.415  1.00  0.00     0.064 A 
ATOM     71  C   UNL A   1      40.130  33.255  35.706  1.00  0.00     0.173 A 
ATOM     72  C   UNL A   1      38.579  31.517  36.264  1.00  0.00     0.173 A 
ATOM     73  F   UNL A   1      41.113  33.755  34.942  1.00  0.00    -0.203 F 
ATOM     74  C   UNL A   1      39.692  33.994  36.805  1.00  0.00     0.198 A 
ATOM     75  C   UNL A   1      38.112  32.274  37.338  1.00  0.00     0.198 A 
ATOM     76  F   UNL A   1      38.018  30.319  36.041  1.00  0.00    -0.203 F 
ATOM     77  F   UNL A   1      40.265  35.172  37.087  1.00  0.00    -0.200 F 
ATOM     78  C   UNL A   1      38.678  33.507  37.616  1.00  0.00     0.200 A 
ATOM     79  F   UNL A   1      37.115  31.809  38.103  1.00  0.00    -0.200 F 
ATOM     80  F   UNL A   1      38.255  34.222  38.667  1.00  0.00    -0.200 F 
ENDBRANCH  46  70
BRANCH  58  81
ATOM     81  C   UNL A   1      44.316  26.926  34.629  1.00  0.00     0.064 A 
ATOM     82  C   UNL A   1      44.020  25.767  35.359  1.00  0.00     0.173 A 
ATOM     83  C   UNL A   1      45.594  27.490  34.767  1.00  0.00     0.173 A 
ATOM     84  F   UNL A   1      42.804  25.206  35.276  1.00  0.00    -0.203 F 
ATOM     85  C   UNL A   1      44.965  25.208  36.213  1.00  0.00     0.198 A 
ATOM     86  C   UNL A   1      46.547  26.904  35.588  1.00  0.00     0.198 A 
ATOM     87  F   UNL A   1      45.922  28.599  34.085  1.00  0.00    -0.203 F 
ATOM     88  F   UNL A   1      44.647  24.131  36.945  1.00  0.00    -0.200 F 
ATOM     89  C   UNL A   1      46.230  25.768  36.317  1.00  0.00     0.200 A 
ATOM     90  F   UNL A   1      47.775  27.436  35.671  1.00  0.00    -0.200 F 
ATOM     91  F   UNL A   1      47.143  25.216  37.127  1.00  0.00    -0.200 F 
ENDBRANCH  58  81
ENDBRANCH  32  33
ENDBRANCH  25  27
ENDBRANCH  24  25
ENDBRANCH  23  24
ENDBRANCH   1  23
TORSDOF 14
ENDMDL
MODEL 2
REMARK VINA RESULT:     -12.1      0.985      1.725
REMARK SMILES C#CCNC(=O)N[C@@]1(C(=O)OCCOC(=O)c2ccc(-c3c4nc(c(-c5c(F)c(F)c(F)c(F)c5F)c5ccc([nH]5)c(-c5c(F)c(F)c(F)c(F)c5F)c5nc(c(-c6c(F)c(F)c(F)c(F)c6F)c6ccc3[nH]6)C=C5)C=C4)cc2)CCc2ccccc21
REMARK SMILES IDX 12 1 11 2 9 3 10 4 8 5 80 6 87 7 81 8 82 9 86 10 83 11 85 12
REMARK SMILES IDX 84 13 7 14 4 15 5 16 6 18 3 20 2 21 1 22 13 23 14 24 15 25
REMARK SMILES IDX 16 26 17 27 18 28 79 29 19 30 78 31 20 32 21 33 22 34 72 35
REMARK SMILES IDX 23 36 77 37 71 38 73 39 24 40 76 41 70 42 69 43 25 45 57 46
REMARK SMILES IDX 37 47 56 48 38 49 41 50 55 51 74 52 39 53 40 54 54 56 75 57
REMARK SMILES IDX 42 58 26 59 27 60 35 61 28 62 29 63 33 64 36 65 30 66 31 67
REMARK SMILES IDX 34 68 32 69 58 70 59 71 67 72 60 73 61 74 65 75 68 76 62 77
REMARK SMILES IDX 63 78 66 79 64 80 43 81 44 82 52 83 45 84 46 85 50 86 53 87
REMARK SMILES IDX 47 88 48 89 51 90 49 91
REMARK H PARENT 4 17 7 19 73 44 41 55
REMARK Flexibility Score: inf
ROOT
ATOM      1  C   UNL A   1      32.140  27.879  27.452  1.00  0.00     0.274 C 
ENDROOT
BRANCH   1   2
ATOM      2  O   UNL A   1      32.790  27.051  26.444  1.00  0.00    -0.460 OA
BRANCH   2   3
ATOM      3  C   UNL A   1      31.972  26.227  25.737  1.00  0.00     0.336 C 
ATOM      4  O   UNL A   1      31.023  25.671  26.291  1.00  0.00    -0.249 OA
BRANCH   3   5
ATOM      5  C   UNL A   1      32.494  25.813  24.283  1.00  0.00     0.165 C 
ATOM      6  C   UNL A   1      31.783  25.003  23.169  1.00  0.00     0.050 C 
ATOM      7  C   UNL A   1      33.742  24.943  24.411  1.00  0.00    -0.008 A 
ATOM      8  C   UNL A   1      32.903  24.489  22.238  1.00  0.00     0.039 C 
ATOM      9  C   UNL A   1      33.952  24.190  23.248  1.00  0.00    -0.042 A 
ATOM     10  C   UNL A   1      34.613  24.817  25.484  1.00  0.00     0.007 A 
ATOM     11  C   UNL A   1      35.020  23.322  23.131  1.00  0.00     0.004 A 
ATOM     12  C   UNL A   1      35.662  23.909  25.398  1.00  0.00     0.000 A 
ATOM     13  C   UNL A   1      35.866  23.169  24.228  1.00  0.00     0.000 A 
BRANCH   5  14
ATOM     14  N   UNL A   1      32.841  27.085  23.691  1.00  0.00    -0.318 N 
ATOM     15  N   UNL A   1      30.703  27.973  23.941  1.00  0.00    -0.327 N 
ATOM     16  C   UNL A   1      32.001  28.121  23.606  1.00  0.00     0.316 C 
ATOM     17  H   UNL A   1      30.486  28.538  24.717  1.00  0.00     0.166 HD
ATOM     18  O   UNL A   1      32.537  29.224  23.547  1.00  0.00    -0.249 OA
ATOM     19  H   UNL A   1      33.750  27.194  23.328  1.00  0.00     0.166 HD
BRANCH  15  20
ATOM     20  C   UNL A   1      29.516  27.231  23.503  1.00  0.00     0.207 C 
BRANCH  20  21
ATOM     21  C   UNL A   1      28.438  28.178  23.131  1.00  0.00    -0.085 C 
ATOM     22  C   UNL A   1      27.559  28.973  22.961  1.00  0.00     0.006 C 
ENDBRANCH  20  21
ENDBRANCH  15  20
ENDBRANCH   5  14
ENDBRANCH   3   5
ENDBRANCH   2   3
ENDBRANCH   1   2
BRANCH   1  23
ATOM     23  C   UNL A   1      31.847  29.392  27.136  1.00  0.00     0.275 C 
BRANCH  23  24
ATOM     24  O   UNL A   1      32.928  30.167  26.531  1.00  0.00    -0.458 OA
BRANCH  24  25
ATOM     25  C   UNL A   1      33.518  31.094  27.361  1.00  0.00     0.338 C 
ATOM     26  O   UNL A   1      32.899  31.963  27.961  1.00  0.00    -0.246 OA
BRANCH  25  27
ATOM     27  C   UNL A   1      34.999  30.900  27.589  1.00  0.00     0.060 A 
ATOM     28  C   UNL A   1      35.559  29.658  27.800  1.00  0.00     0.016 A 
ATOM     29  C   UNL A   1      35.833  31.993  27.827  1.00  0.00     0.016 A 
ATOM     30  C   UNL A   1      36.633  29.514  28.665  1.00  0.00     0.010 A 
ATOM     31  C   UNL A   1      37.120  31.807  28.376  1.00  0.00     0.010 A 
ATOM     32  C   UNL A   1      37.501  30.559  28.901  1.00  0.00    -0.014 A 
BRANCH  32  33
ATOM     33  C   UNL A   1      38.745  30.334  29.697  1.00  0.00     0.031 A 
ATOM     34  C   UNL A   1      39.821  29.465  29.110  1.00  0.00     0.074 A 
ATOM     35  C   UNL A   1      38.940  30.897  30.914  1.00  0.00     0.049 A 
ATOM     36  N   UNL A   1      40.731  28.747  29.710  1.00  0.00    -0.248 NA
ATOM     37  C   UNL A   1      39.849  29.366  27.641  1.00  0.00     0.031 C 
ATOM     38  C   UNL A   1      38.094  31.912  31.556  1.00  0.00     0.029 A 
ATOM     39  N   UNL A   1      39.925  30.685  31.855  1.00  0.00    -0.354 N 
ATOM     40  C   UNL A   1      41.359  28.023  28.703  1.00  0.00     0.074 A 
ATOM     41  C   UNL A   1      40.743  28.405  27.452  1.00  0.00     0.031 C 
ATOM     42  C   UNL A   1      38.605  32.255  32.743  1.00  0.00     0.029 A 
ATOM     43  C   UNL A   1      39.700  31.355  33.038  1.00  0.00     0.049 A 
ATOM     44  H   UNL A   1      40.711  30.112  31.697  1.00  0.00     0.167 HD
ATOM     45  C   UNL A   1      42.340  27.100  28.844  1.00  0.00     0.037 A 
ATOM     46  C   UNL A   1      40.225  31.185  34.266  1.00  0.00     0.037 A 
ATOM     47  C   UNL A   1      42.952  26.809  30.115  1.00  0.00     0.049 A 
ATOM     48  C   UNL A   1      41.232  30.084  34.431  1.00  0.00     0.074 A 
ATOM     49  C   UNL A   1      43.922  25.874  30.423  1.00  0.00     0.029 A 
ATOM     50  N   UNL A   1      42.651  27.480  31.296  1.00  0.00    -0.354 N 
ATOM     51  N   UNL A   1      41.718  29.270  33.524  1.00  0.00    -0.248 NA
ATOM     52  C   UNL A   1      41.743  29.856  35.785  1.00  0.00     0.031 C 
ATOM     53  C   UNL A   1      44.164  25.943  31.800  1.00  0.00     0.029 A 
ATOM     54  C   UNL A   1      43.406  26.973  32.336  1.00  0.00     0.049 A 
ATOM     55  H   UNL A   1      41.996  28.211  31.378  1.00  0.00     0.167 HD
ATOM     56  C   UNL A   1      42.621  28.457  34.187  1.00  0.00     0.074 A 
ATOM     57  C   UNL A   1      42.618  28.883  35.574  1.00  0.00     0.031 C 
ATOM     58  C   UNL A   1      43.387  27.452  33.698  1.00  0.00     0.037 A 
BRANCH  45  59
ATOM     59  C   UNL A   1      42.723  26.296  27.632  1.00  0.00     0.064 A 
ATOM     60  C   UNL A   1      42.089  25.095  27.285  1.00  0.00     0.173 A 
ATOM     61  C   UNL A   1      43.779  26.732  26.813  1.00  0.00     0.173 A 
ATOM     62  F   UNL A   1      41.084  24.620  28.037  1.00  0.00    -0.203 F 
ATOM     63  C   UNL A   1      42.524  24.340  26.197  1.00  0.00     0.198 A 
ATOM     64  C   UNL A   1      44.187  25.995  25.704  1.00  0.00     0.198 A 
ATOM     65  F   UNL A   1      44.427  27.874  27.093  1.00  0.00    -0.203 F 
ATOM     66  F   UNL A   1      41.949  23.158  25.930  1.00  0.00    -0.200 F 
ATOM     67  C   UNL A   1      43.568  24.792  25.405  1.00  0.00     0.200 A 
ATOM     68  F   UNL A   1      45.188  26.442  24.935  1.00  0.00    -0.200 F 
ATOM     69  F   UNL A   1      43.987  24.063  24.360  1.00  0.00    -0.200 F 
ENDBRANCH  45  59
BRANCH  46  70
ATOM     70  C   UNL A   1      39.741  31.989  35.427  1.00  0.00     0.064 A 
ATOM     71  C   UNL A   1      40.312  33.232  35.729  1.00  0.00     0.173 A 
ATOM     72  C   UNL A   1      38.706  31.538  36.264  1.00  0.00     0.173 A 
ATOM     73  F   UNL A   1      41.317  33.707  34.978  1.00  0.00    -0.203 F 
ATOM     74  C   UNL A   1      39.886  33.979  36.828  1.00  0.00     0.198 A 
ATOM     75  C   UNL A   1      38.251  32.303  37.337  1.00  0.00     0.198 A 
ATOM     76  F   UNL A   1      38.112  30.358  36.029  1.00  0.00    -0.203 F 
ATOM     77  F   UNL A   1      40.490  35.138  37.122  1.00  0.00    -0.200 F 
ATOM     78  C   UNL A   1      38.850  33.518  37.627  1.00  0.00     0.200 A 
ATOM     79  F   UNL A   1      37.233  31.863  38.089  1.00  0.00    -0.200 F 
ATOM     80  F   UNL A   1      38.437  34.239  38.677  1.00  0.00    -0.200 F 
ENDBRANCH  46  70
BRANCH  58  81
ATOM     81  C   UNL A   1      44.347  26.812  34.654  1.00  0.00     0.064 A 
ATOM     82  C   UNL A   1      45.628  27.330  34.881  1.00  0.00     0.173 A 
ATOM     83  C   UNL A   1      43.946  25.685  35.388  1.00  0.00     0.173 A 
ATOM     84  F   UNL A   1      46.063  28.392  34.186  1.00  0.00    -0.203 F 
ATOM     85  C   UNL A   1      46.485  26.727  35.797  1.00  0.00     0.198 A 
ATOM     86  C   UNL A   1      44.788  25.112  36.331  1.00  0.00     0.198 A 
ATOM     87  F   UNL A   1      42.727  25.156  35.204  1.00  0.00    -0.203 F 
ATOM     88  F   UNL A   1      47.727  27.203  35.962  1.00  0.00    -0.200 F 
ATOM     89  C   UNL A   1      46.060  25.627  36.529  1.00  0.00     0.200 A 
ATOM     90  F   UNL A   1      44.368  24.062  37.051  1.00  0.00    -0.200 F 
ATOM     91  F   UNL A   1      46.880  25.060  37.423  1.00  0.00    -0.200 F 
ENDBRANCH  58  81
ENDBRANCH  32  33
ENDBRANCH  25  27
ENDBRANCH  24  25
ENDBRANCH  23  24
ENDBRANCH   1  23
TORSDOF 14
ENDMDL
MODEL 3
REMARK VINA RESULT:     -12.1      0.352      1.648
REMARK SMILES C#CCNC(=O)N[C@@]1(C(=O)OCCOC(=O)c2ccc(-c3c4nc(c(-c5c(F)c(F)c(F)c(F)c5F)c5ccc([nH]5)c(-c5c(F)c(F)c(F)c(F)c5F)c5nc(c(-c6c(F)c(F)c(F)c(F)c6F)c6ccc3[nH]6)C=C5)C=C4)cc2)CCc2ccccc21
REMARK SMILES IDX 12 1 11 2 9 3 10 4 8 5 80 6 87 7 81 8 82 9 86 10 83 11 85 12
REMARK SMILES IDX 84 13 7 14 4 15 5 16 6 18 3 20 2 21 1 22 13 23 14 24 15 25
REMARK SMILES IDX 16 26 17 27 18 28 79 29 19 30 78 31 20 32 21 33 22 34 72 35
REMARK SMILES IDX 23 36 77 37 71 38 73 39 24 40 76 41 70 42 69 43 25 45 57 46
REMARK SMILES IDX 37 47 56 48 38 49 41 50 55 51 74 52 39 53 40 54 54 56 75 57
REMARK SMILES IDX 42 58 26 59 27 60 35 61 28 62 29 63 33 64 36 65 30 66 31 67
REMARK SMILES IDX 34 68 32 69 58 70 59 71 67 72 60 73 61 74 65 75 68 76 62 77
REMARK SMILES IDX 63 78 66 79 64 80 43 81 44 82 52 83 45 84 46 85 50 86 53 87
REMARK SMILES IDX 47 88 48 89 51 90 49 91
REMARK H PARENT 4 17 7 19 73 44 41 55
REMARK Flexibility Score: inf
ROOT
ATOM      1  C   UNL A   1      33.089  29.424  24.851  1.00  0.00     0.274 C 
ENDROOT
BRANCH   1   2
ATOM      2  O   UNL A   1      33.785  28.150  24.976  1.00  0.00    -0.460 OA
BRANCH   2   3
ATOM      3  C   UNL A   1      33.503  27.224  24.021  1.00  0.00     0.336 C 
ATOM      4  O   UNL A   1      33.891  27.390  22.864  1.00  0.00    -0.249 OA
BRANCH   3   5
ATOM      5  C   UNL A   1      32.422  26.118  24.426  1.00  0.00     0.165 C 
ATOM      6  C   UNL A   1      31.143  26.254  25.292  1.00  0.00     0.050 C 
ATOM      7  C   UNL A   1      33.096  25.003  25.222  1.00  0.00    -0.008 A 
ATOM      8  C   UNL A   1      30.791  24.823  25.756  1.00  0.00     0.039 C 
ATOM      9  C   UNL A   1      32.159  24.287  25.980  1.00  0.00    -0.042 A 
ATOM     10  C   UNL A   1      34.440  24.664  25.282  1.00  0.00     0.007 A 
ATOM     11  C   UNL A   1      32.536  23.232  26.787  1.00  0.00     0.004 A 
ATOM     12  C   UNL A   1      34.839  23.636  26.130  1.00  0.00     0.000 A 
ATOM     13  C   UNL A   1      33.893  22.923  26.875  1.00  0.00     0.000 A 
BRANCH   5  14
ATOM     14  N   UNL A   1      31.984  25.612  23.146  1.00  0.00    -0.318 N 
ATOM     15  N   UNL A   1      30.855  27.565  22.571  1.00  0.00    -0.327 N 
ATOM     16  C   UNL A   1      31.308  26.336  22.250  1.00  0.00     0.316 C 
ATOM     17  H   UNL A   1      31.291  28.245  22.010  1.00  0.00     0.166 HD
ATOM     18  O   UNL A   1      31.431  25.972  21.083  1.00  0.00    -0.249 OA
ATOM     19  H   UNL A   1      32.196  24.677  22.921  1.00  0.00     0.166 HD
BRANCH  15  20
ATOM     20  C   UNL A   1      29.912  28.199  23.500  1.00  0.00     0.207 C 
BRANCH  20  21
ATOM     21  C   UNL A   1      28.987  29.085  22.753  1.00  0.00    -0.085 C 
ATOM     22  C   UNL A   1      28.173  29.689  22.115  1.00  0.00     0.006 C 
ENDBRANCH  20  21
ENDBRANCH  15  20
ENDBRANCH   5  14
ENDBRANCH   3   5
ENDBRANCH   2   3
ENDBRANCH   1   2
BRANCH   1  23
ATOM     23  C   UNL A   1      32.082  29.868  25.975  1.00  0.00     0.275 C 
BRANCH  23  24
ATOM     24  O   UNL A   1      32.620  30.032  27.323  1.00  0.00    -0.458 OA
BRANCH  24  25
ATOM     25  C   UNL A   1      33.371  31.171  27.517  1.00  0.00     0.338 C 
ATOM     26  O   UNL A   1      32.892  32.293  27.624  1.00  0.00    -0.246 OA
BRANCH  25  27
ATOM     27  C   UNL A   1      34.851  30.938  27.715  1.00  0.00     0.060 A 
ATOM     28  C   UNL A   1      35.372  29.693  27.998  1.00  0.00     0.016 A 
ATOM     29  C   UNL A   1      35.730  32.013  27.852  1.00  0.00     0.016 A 
ATOM     30  C   UNL A   1      36.467  29.569  28.839  1.00  0.00     0.010 A 
ATOM     31  C   UNL A   1      37.026  31.816  28.375  1.00  0.00     0.010 A 
ATOM     32  C   UNL A   1      37.379  30.595  28.975  1.00  0.00    -0.014 A 
BRANCH  32  33
ATOM     33  C   UNL A   1      38.639  30.379  29.749  1.00  0.00     0.031 A 
ATOM     34  C   UNL A   1      39.709  29.514  29.144  1.00  0.00     0.074 A 
ATOM     35  C   UNL A   1      38.853  30.946  30.961  1.00  0.00     0.049 A 
ATOM     36  N   UNL A   1      40.634  28.803  29.729  1.00  0.00    -0.248 NA
ATOM     37  C   UNL A   1      39.710  29.411  27.675  1.00  0.00     0.031 C 
ATOM     38  C   UNL A   1      38.014  31.957  31.615  1.00  0.00     0.029 A 
ATOM     39  N   UNL A   1      39.857  30.742  31.883  1.00  0.00    -0.354 N 
ATOM     40  C   UNL A   1      41.247  28.080  28.713  1.00  0.00     0.074 A 
ATOM     41  C   UNL A   1      40.606  28.455  27.472  1.00  0.00     0.031 C 
ATOM     42  C   UNL A   1      38.544  32.307  32.792  1.00  0.00     0.029 A 
ATOM     43  C   UNL A   1      39.650  31.414  33.069  1.00  0.00     0.049 A 
ATOM     44  H   UNL A   1      40.643  30.173  31.713  1.00  0.00     0.167 HD
ATOM     45  C   UNL A   1      42.235  27.163  28.837  1.00  0.00     0.037 A 
ATOM     46  C   UNL A   1      40.198  31.249  34.287  1.00  0.00     0.037 A 
ATOM     47  C   UNL A   1      42.872  26.878  30.098  1.00  0.00     0.049 A 
ATOM     48  C   UNL A   1      41.214  30.155  34.436  1.00  0.00     0.074 A 
ATOM     49  C   UNL A   1      43.853  25.950  30.390  1.00  0.00     0.029 A 
ATOM     50  N   UNL A   1      42.590  27.551  31.283  1.00  0.00    -0.354 N 
ATOM     51  N   UNL A   1      41.688  29.341  33.522  1.00  0.00    -0.248 NA
ATOM     52  C   UNL A   1      41.751  29.933  35.782  1.00  0.00     0.031 C 
ATOM     53  C   UNL A   1      44.120  26.023  31.762  1.00  0.00     0.029 A 
ATOM     54  C   UNL A   1      43.367  27.051  32.310  1.00  0.00     0.049 A 
ATOM     55  H   UNL A   1      41.932  28.278  31.374  1.00  0.00     0.167 HD
ATOM     56  C   UNL A   1      42.608  28.536  34.171  1.00  0.00     0.074 A 
ATOM     57  C   UNL A   1      42.627  28.964  35.557  1.00  0.00     0.031 C 
ATOM     58  C   UNL A   1      43.371  27.533  33.670  1.00  0.00     0.037 A 
BRANCH  45  59
ATOM     59  C   UNL A   1      42.600  26.358  27.621  1.00  0.00     0.064 A 
ATOM     60  C   UNL A   1      41.974  25.147  27.294  1.00  0.00     0.173 A 
ATOM     61  C   UNL A   1      43.631  26.803  26.775  1.00  0.00     0.173 A 
ATOM     62  F   UNL A   1      40.994  24.662  28.072  1.00  0.00    -0.203 F 
ATOM     63  C   UNL A   1      42.393  24.391  26.200  1.00  0.00     0.198 A 
ATOM     64  C   UNL A   1      44.023  26.066  25.660  1.00  0.00     0.198 A 
ATOM     65  F   UNL A   1      44.270  27.955  27.034  1.00  0.00    -0.203 F 
ATOM     66  F   UNL A   1      41.829  23.201  25.952  1.00  0.00    -0.200 F 
ATOM     67  C   UNL A   1      43.413  24.853  25.381  1.00  0.00     0.200 A 
ATOM     68  F   UNL A   1      44.999  26.522  24.865  1.00  0.00    -0.200 F 
ATOM     69  F   UNL A   1      43.817  24.125  24.331  1.00  0.00    -0.200 F 
ENDBRANCH  45  59
BRANCH  46  70
ATOM     70  C   UNL A   1      39.731  32.054  35.455  1.00  0.00     0.064 A 
ATOM     71  C   UNL A   1      38.731  31.570  36.309  1.00  0.00     0.173 A 
ATOM     72  C   UNL A   1      40.264  33.323  35.744  1.00  0.00     0.173 A 
ATOM     73  F   UNL A   1      38.171  30.374  36.072  1.00  0.00    -0.203 F 
ATOM     74  C   UNL A   1      38.268  32.326  37.386  1.00  0.00     0.198 A 
ATOM     75  C   UNL A   1      39.831  34.060  36.845  1.00  0.00     0.198 A 
ATOM     76  F   UNL A   1      41.227  33.844  34.969  1.00  0.00    -0.203 F 
ATOM     77  F   UNL A   1      37.273  31.858  38.151  1.00  0.00    -0.200 F 
ATOM     78  C   UNL A   1      38.824  33.567  37.659  1.00  0.00     0.200 A 
ATOM     79  F   UNL A   1      40.390  35.247  37.118  1.00  0.00    -0.200 F 
ATOM     80  F   UNL A   1      38.384  34.289  38.698  1.00  0.00    -0.200 F 
ENDBRANCH  46  70
BRANCH  58  81
ATOM     81  C   UNL A   1      44.352  26.901  34.610  1.00  0.00     0.064 A 
ATOM     82  C   UNL A   1      45.617  27.453  34.848  1.00  0.00     0.173 A 
ATOM     83  C   UNL A   1      43.987  25.745  35.318  1.00  0.00     0.173 A 
ATOM     84  F   UNL A   1      46.017  28.544  34.177  1.00  0.00    -0.203 F 
ATOM     85  C   UNL A   1      46.493  26.855  35.748  1.00  0.00     0.198 A 
ATOM     86  C   UNL A   1      44.848  25.177  36.246  1.00  0.00     0.198 A 
ATOM     87  F   UNL A   1      42.784  25.183  35.123  1.00  0.00    -0.203 F 
ATOM     88  F   UNL A   1      47.720  27.366  35.923  1.00  0.00    -0.200 F 
ATOM     89  C   UNL A   1      46.103  25.727  36.455  1.00  0.00     0.200 A 
ATOM     90  F   UNL A   1      44.462  24.098  36.942  1.00  0.00    -0.200 F 
ATOM     91  F   UNL A   1      46.943  25.164  37.335  1.00  0.00    -0.200 F 
ENDBRANCH  58  81
ENDBRANCH  32  33
ENDBRANCH  25  27
ENDBRANCH  24  25
ENDBRANCH  23  24
ENDBRANCH   1  23
TORSDOF 14
ENDMDL
