MODEL 1
REMARK VINA RESULT:     -12.5      0.000      0.000
REMARK SMILES O=C(CN1C(=O)N/C(=C/c2cc3c(cc2Cl)OCO3)C1=O)OCCOC(=O)c1ccc(-c2c3nc(c(-c4c(F)c(F)c(F)c(F)c4F)c4ccc([nH]4)c(-c4c(F)c(F)c(F)c(F)c4F)c4nc(c(-c5c(F)c(F)c(F)c(F)c5F)c5ccc2[nH]5)C=C4)C=C3)cc1
REMARK SMILES IDX 23 1 22 2 2 3 1 4 3 5 4 6 5 7 20 8 6 9 7 10 8 11 21 12 9 14
REMARK SMILES IDX 10 15 11 16 15 17 12 18 14 19 16 20 13 21 19 22 17 23 18 24
REMARK SMILES IDX 24 25 25 26 26 27 27 28 28 29 29 30 90 31 30 32 89 33 31 34
REMARK SMILES IDX 32 35 33 36 83 37 34 38 88 39 82 40 84 41 35 42 87 43 81 44
REMARK SMILES IDX 80 45 36 47 68 48 48 49 67 50 49 51 52 52 66 53 85 54 50 55
REMARK SMILES IDX 51 56 65 58 86 59 53 60 37 61 38 62 46 63 39 64 40 65 44 66
REMARK SMILES IDX 47 67 41 68 42 69 45 70 43 71 69 72 70 73 78 74 71 75 72 76
REMARK SMILES IDX 76 77 79 78 73 79 74 80 77 81 75 82 54 83 55 84 63 85 56 86
REMARK SMILES IDX 57 87 61 88 64 89 58 90 59 91 62 92 60 93
REMARK H PARENT 7 13 84 46 52 57
REMARK Flexibility Score: inf
ROOT
ATOM      1  C   UNL A   1      35.915  34.594  33.717  1.00  0.00     0.274 C 
ENDROOT
BRANCH   1   2
ATOM      2  O   UNL A   1      34.922  35.521  34.205  1.00  0.00    -0.461 OA
BRANCH   2   3
ATOM      3  C   UNL A   1      34.046  36.201  33.432  1.00  0.00     0.326 C 
ATOM      4  O   UNL A   1      33.963  37.426  33.539  1.00  0.00    -0.250 OA
BRANCH   3   5
ATOM      5  C   UNL A   1      33.093  35.458  32.500  1.00  0.00     0.253 C 
BRANCH   5   6
ATOM      6  N   UNL A   1      33.353  35.579  31.096  1.00  0.00    -0.247 N 
ATOM      7  C   UNL A   1      33.297  36.748  30.372  1.00  0.00     0.329 C 
ATOM      8  C   UNL A   1      34.033  34.617  30.413  1.00  0.00     0.279 C 
ATOM      9  O   UNL A   1      32.903  37.836  30.758  1.00  0.00    -0.248 OA
ATOM     10  N   UNL A   1      33.798  36.481  29.103  1.00  0.00    -0.303 N 
ATOM     11  C   UNL A   1      34.176  35.173  29.030  1.00  0.00     0.109 C 
ATOM     12  O   UNL A   1      34.480  33.576  30.855  1.00  0.00    -0.267 OA
ATOM     13  H   UNL A   1      33.869  37.135  28.371  1.00  0.00     0.172 HD
ATOM     14  C   UNL A   1      34.499  34.485  27.932  1.00  0.00     0.042 C 
BRANCH  14  15
ATOM     15  C   UNL A   1      34.582  33.018  28.026  1.00  0.00    -0.001 A 
ATOM     16  C   UNL A   1      33.436  32.262  27.741  1.00  0.00     0.060 A 
ATOM     17  C   UNL A   1      35.841  32.365  28.176  1.00  0.00     0.052 A 
ATOM     18  C   UNL A   1      33.594  30.902  27.569  1.00  0.00     0.166 A 
ATOM     19  C   UNL A   1      35.963  30.986  28.000  1.00  0.00     0.071 A 
ATOM     20  Cl  UNL A   1      37.291  33.260  28.502  1.00  0.00    -0.084 Cl
ATOM     21  C   UNL A   1      34.821  30.287  27.684  1.00  0.00     0.167 A 
ATOM     22  O   UNL A   1      32.609  30.029  27.228  1.00  0.00    -0.454 OA
ATOM     23  O   UNL A   1      34.760  28.953  27.428  1.00  0.00    -0.454 OA
ATOM     24  C   UNL A   1      33.361  28.803  27.105  1.00  0.00     0.468 C 
ENDBRANCH  14  15
ENDBRANCH   5   6
ENDBRANCH   3   5
ENDBRANCH   2   3
ENDBRANCH   1   2
BRANCH   1  25
ATOM     25  C   UNL A   1      35.543  33.142  34.025  1.00  0.00     0.275 C 
BRANCH  25  26
ATOM     26  O   UNL A   1      36.378  32.259  33.258  1.00  0.00    -0.458 OA
BRANCH  26  27
ATOM     27  C   UNL A   1      37.399  31.653  33.912  1.00  0.00     0.338 C 
ATOM     28  O   UNL A   1      37.434  31.311  35.080  1.00  0.00    -0.246 OA
BRANCH  27  29
ATOM     29  C   UNL A   1      38.397  31.270  32.890  1.00  0.00     0.060 A 
ATOM     30  C   UNL A   1      39.532  30.546  33.283  1.00  0.00     0.016 A 
ATOM     31  C   UNL A   1      38.151  31.521  31.538  1.00  0.00     0.016 A 
ATOM     32  C   UNL A   1      40.420  30.061  32.319  1.00  0.00     0.010 A 
ATOM     33  C   UNL A   1      39.050  31.059  30.580  1.00  0.00     0.010 A 
ATOM     34  C   UNL A   1      40.196  30.341  30.965  1.00  0.00    -0.014 A 
BRANCH  34  35
ATOM     35  C   UNL A   1      41.245  30.096  29.948  1.00  0.00     0.031 A 
ATOM     36  C   UNL A   1      41.293  28.736  29.316  1.00  0.00     0.074 A 
ATOM     37  C   UNL A   1      42.179  31.014  29.651  1.00  0.00     0.049 A 
ATOM     38  N   UNL A   1      42.199  28.208  28.534  1.00  0.00    -0.248 NA
ATOM     39  C   UNL A   1      40.170  27.840  29.634  1.00  0.00     0.031 C 
ATOM     40  C   UNL A   1      42.230  32.373  30.180  1.00  0.00     0.029 A 
ATOM     41  N   UNL A   1      43.291  30.918  28.849  1.00  0.00    -0.354 N 
ATOM     42  C   UNL A   1      41.764  26.914  28.284  1.00  0.00     0.074 A 
ATOM     43  C   UNL A   1      40.534  26.727  29.022  1.00  0.00     0.031 C 
ATOM     44  C   UNL A   1      43.334  32.979  29.710  1.00  0.00     0.029 A 
ATOM     45  C   UNL A   1      44.088  32.034  28.883  1.00  0.00     0.049 A 
ATOM     46  H   UNL A   1      43.496  30.125  28.303  1.00  0.00     0.167 HD
ATOM     47  C   UNL A   1      42.340  25.966  27.509  1.00  0.00     0.037 A 
ATOM     48  C   UNL A   1      45.304  32.252  28.340  1.00  0.00     0.037 A 
ATOM     49  C   UNL A   1      43.574  26.152  26.793  1.00  0.00     0.049 A 
ATOM     50  C   UNL A   1      45.965  31.162  27.532  1.00  0.00     0.074 A 
ATOM     51  C   UNL A   1      44.228  25.264  25.960  1.00  0.00     0.029 A 
ATOM     52  N   UNL A   1      44.351  27.301  26.847  1.00  0.00    -0.354 N 
ATOM     53  N   UNL A   1      45.536  29.951  27.264  1.00  0.00    -0.248 NA
ATOM     54  C   UNL A   1      47.281  31.469  26.950  1.00  0.00     0.031 C 
ATOM     55  C   UNL A   1      45.435  25.848  25.564  1.00  0.00     0.029 A 
ATOM     56  C   UNL A   1      45.496  27.132  26.086  1.00  0.00     0.049 A 
ATOM     57  H   UNL A   1      44.122  28.114  27.351  1.00  0.00     0.167 HD
ATOM     58  C   UNL A   1      46.506  29.367  26.457  1.00  0.00     0.074 A 
ATOM     59  C   UNL A   1      47.549  30.356  26.280  1.00  0.00     0.031 C 
ATOM     60  C   UNL A   1      46.523  28.129  25.906  1.00  0.00     0.037 A 
BRANCH  47  61
ATOM     61  C   UNL A   1      41.659  24.629  27.448  1.00  0.00     0.064 A 
ATOM     62  C   UNL A   1      42.159  23.509  28.132  1.00  0.00     0.173 A 
ATOM     63  C   UNL A   1      40.503  24.461  26.673  1.00  0.00     0.173 A 
ATOM     64  F   UNL A   1      43.271  23.612  28.876  1.00  0.00    -0.203 F 
ATOM     65  C   UNL A   1      41.555  22.262  28.000  1.00  0.00     0.198 A 
ATOM     66  C   UNL A   1      39.879  23.221  26.575  1.00  0.00     0.198 A 
ATOM     67  F   UNL A   1      39.981  25.497  26.000  1.00  0.00    -0.203 F 
ATOM     68  F   UNL A   1      42.095  21.192  28.599  1.00  0.00    -0.200 F 
ATOM     69  C   UNL A   1      40.414  22.120  27.226  1.00  0.00     0.200 A 
ATOM     70  F   UNL A   1      38.769  23.088  25.837  1.00  0.00    -0.200 F 
ATOM     71  F   UNL A   1      39.838  20.917  27.094  1.00  0.00    -0.200 F 
ENDBRANCH  47  61
BRANCH  48  72
ATOM     72  C   UNL A   1      45.981  33.557  28.557  1.00  0.00     0.064 A 
ATOM     73  C   UNL A   1      46.892  33.733  29.608  1.00  0.00     0.173 A 
ATOM     74  C   UNL A   1      45.741  34.651  27.713  1.00  0.00     0.173 A 
ATOM     75  F   UNL A   1      47.133  32.727  30.460  1.00  0.00    -0.203 F 
ATOM     76  C   UNL A   1      47.532  34.955  29.809  1.00  0.00     0.198 A 
ATOM     77  C   UNL A   1      46.404  35.864  27.897  1.00  0.00     0.198 A 
ATOM     78  F   UNL A   1      44.874  34.538  26.696  1.00  0.00    -0.203 F 
ATOM     79  F   UNL A   1      48.371  35.107  30.842  1.00  0.00    -0.200 F 
ATOM     80  C   UNL A   1      47.296  36.016  28.947  1.00  0.00     0.200 A 
ATOM     81  F   UNL A   1      46.181  36.882  27.055  1.00  0.00    -0.200 F 
ATOM     82  F   UNL A   1      47.923  37.185  29.133  1.00  0.00    -0.200 F 
ENDBRANCH  48  72
BRANCH  60  83
ATOM     83  C   UNL A   1      47.672  27.772  25.004  1.00  0.00     0.064 A 
ATOM     84  C   UNL A   1      48.874  27.247  25.499  1.00  0.00     0.173 A 
ATOM     85  C   UNL A   1      47.529  27.878  23.611  1.00  0.00     0.173 A 
ATOM     86  F   UNL A   1      49.069  27.136  26.822  1.00  0.00    -0.203 F 
ATOM     87  C   UNL A   1      49.895  26.854  24.634  1.00  0.00     0.198 A 
ATOM     88  C   UNL A   1      48.537  27.453  22.748  1.00  0.00     0.198 A 
ATOM     89  F   UNL A   1      46.396  28.365  23.082  1.00  0.00    -0.203 F 
ATOM     90  F   UNL A   1      51.048  26.387  25.131  1.00  0.00    -0.200 F 
ATOM     91  C   UNL A   1      49.720  26.946  23.261  1.00  0.00     0.200 A 
ATOM     92  F   UNL A   1      48.357  27.526  21.422  1.00  0.00    -0.200 F 
ATOM     93  F   UNL A   1      50.694  26.547  22.431  1.00  0.00    -0.200 F 
ENDBRANCH  60  83
ENDBRANCH  34  35
ENDBRANCH  27  29
ENDBRANCH  26  27
ENDBRANCH  25  26
ENDBRANCH   1  25
TORSDOF 13
ENDMDL
MODEL 2
REMARK VINA RESULT:     -12.4      6.227     12.818
REMARK SMILES O=C(CN1C(=O)N/C(=C/c2cc3c(cc2Cl)OCO3)C1=O)OCCOC(=O)c1ccc(-c2c3nc(c(-c4c(F)c(F)c(F)c(F)c4F)c4ccc([nH]4)c(-c4c(F)c(F)c(F)c(F)c4F)c4nc(c(-c5c(F)c(F)c(F)c(F)c5F)c5ccc2[nH]5)C=C4)C=C3)cc1
REMARK SMILES IDX 23 1 22 2 2 3 1 4 3 5 4 6 5 7 20 8 6 9 7 10 8 11 21 12 9 14
REMARK SMILES IDX 10 15 11 16 15 17 12 18 14 19 16 20 13 21 19 22 17 23 18 24
REMARK SMILES IDX 24 25 25 26 26 27 27 28 28 29 29 30 90 31 30 32 89 33 31 34
REMARK SMILES IDX 32 35 33 36 83 37 34 38 88 39 82 40 84 41 35 42 87 43 81 44
REMARK SMILES IDX 80 45 36 47 68 48 48 49 67 50 49 51 52 52 66 53 85 54 50 55
REMARK SMILES IDX 51 56 65 58 86 59 53 60 37 61 38 62 46 63 39 64 40 65 44 66
REMARK SMILES IDX 47 67 41 68 42 69 45 70 43 71 69 72 70 73 78 74 71 75 72 76
REMARK SMILES IDX 76 77 79 78 73 79 74 80 77 81 75 82 54 83 55 84 63 85 56 86
REMARK SMILES IDX 57 87 61 88 64 89 58 90 59 91 62 92 60 93
REMARK H PARENT 7 13 84 46 52 57
REMARK Flexibility Score: inf
ROOT
ATOM      1  C   UNL A   1      46.272  22.956  25.510  1.00  0.00     0.274 C 
ENDROOT
BRANCH   1   2
ATOM      2  O   UNL A   1      46.360  22.011  24.423  1.00  0.00    -0.461 OA
BRANCH   2   3
ATOM      3  C   UNL A   1      46.092  20.689  24.519  1.00  0.00     0.326 C 
ATOM      4  O   UNL A   1      46.980  19.913  24.879  1.00  0.00    -0.250 OA
BRANCH   3   5
ATOM      5  C   UNL A   1      44.734  20.138  24.096  1.00  0.00     0.253 C 
BRANCH   5   6
ATOM      6  N   UNL A   1      43.844  19.759  25.153  1.00  0.00    -0.247 N 
ATOM      7  C   UNL A   1      43.958  18.624  25.923  1.00  0.00     0.329 C 
ATOM      8  C   UNL A   1      43.010  20.662  25.739  1.00  0.00     0.279 C 
ATOM      9  O   UNL A   1      44.739  17.701  25.765  1.00  0.00    -0.248 OA
ATOM     10  N   UNL A   1      43.026  18.718  26.951  1.00  0.00    -0.303 N 
ATOM     11  C   UNL A   1      42.347  19.895  26.841  1.00  0.00     0.109 C 
ATOM     12  O   UNL A   1      42.891  21.841  25.465  1.00  0.00    -0.267 OA
ATOM     13  H   UNL A   1      42.881  18.040  27.649  1.00  0.00     0.172 HD
ATOM     14  C   UNL A   1      41.240  20.254  27.497  1.00  0.00     0.042 C 
BRANCH  14  15
ATOM     15  C   UNL A   1      40.494  21.430  27.019  1.00  0.00    -0.001 A 
ATOM     16  C   UNL A   1      39.432  21.232  26.125  1.00  0.00     0.060 A 
ATOM     17  C   UNL A   1      40.687  22.710  27.616  1.00  0.00     0.052 A 
ATOM     18  C   UNL A   1      38.581  22.294  25.898  1.00  0.00     0.166 A 
ATOM     19  C   UNL A   1      39.808  23.764  27.361  1.00  0.00     0.071 A 
ATOM     20  Cl  UNL A   1      41.969  22.998  28.749  1.00  0.00    -0.084 Cl
ATOM     21  C   UNL A   1      38.758  23.517  26.506  1.00  0.00     0.167 A 
ATOM     22  O   UNL A   1      37.470  22.263  25.115  1.00  0.00    -0.454 OA
ATOM     23  O   UNL A   1      37.780  24.404  26.183  1.00  0.00    -0.454 OA
ATOM     24  C   UNL A   1      36.948  23.592  25.330  1.00  0.00     0.468 C 
ENDBRANCH  14  15
ENDBRANCH   5   6
ENDBRANCH   3   5
ENDBRANCH   2   3
ENDBRANCH   1   2
BRANCH   1  25
ATOM     25  C   UNL A   1      46.561  24.387  25.049  1.00  0.00     0.275 C 
BRANCH  25  26
ATOM     26  O   UNL A   1      45.353  25.164  25.104  1.00  0.00    -0.458 OA
BRANCH  26  27
ATOM     27  C   UNL A   1      45.489  26.513  25.131  1.00  0.00     0.338 C 
ATOM     28  O   UNL A   1      45.974  27.228  24.275  1.00  0.00    -0.246 OA
BRANCH  27  29
ATOM     29  C   UNL A   1      44.730  26.996  26.305  1.00  0.00     0.060 A 
ATOM     30  C   UNL A   1      44.746  28.365  26.610  1.00  0.00     0.016 A 
ATOM     31  C   UNL A   1      43.913  26.121  27.024  1.00  0.00     0.016 A 
ATOM     32  C   UNL A   1      43.933  28.863  27.633  1.00  0.00     0.010 A 
ATOM     33  C   UNL A   1      43.122  26.614  28.059  1.00  0.00     0.010 A 
ATOM     34  C   UNL A   1      43.139  27.983  28.379  1.00  0.00    -0.014 A 
BRANCH  34  35
ATOM     35  C   UNL A   1      42.490  28.417  29.638  1.00  0.00     0.031 A 
ATOM     36  C   UNL A   1      41.123  29.028  29.537  1.00  0.00     0.074 A 
ATOM     37  C   UNL A   1      43.117  28.354  30.823  1.00  0.00     0.049 A 
ATOM     38  N   UNL A   1      40.410  29.639  30.448  1.00  0.00    -0.248 NA
ATOM     39  C   UNL A   1      40.486  28.961  28.212  1.00  0.00     0.031 C 
ATOM     40  C   UNL A   1      44.433  27.767  31.056  1.00  0.00     0.029 A 
ATOM     41  N   UNL A   1      42.733  28.828  32.055  1.00  0.00    -0.354 N 
ATOM     42  C   UNL A   1      39.251  30.043  29.801  1.00  0.00     0.074 A 
ATOM     43  C   UNL A   1      39.370  29.639  28.417  1.00  0.00     0.031 C 
ATOM     44  C   UNL A   1      44.761  27.939  32.348  1.00  0.00     0.029 A 
ATOM     45  C   UNL A   1      43.697  28.687  33.021  1.00  0.00     0.049 A 
ATOM     46  H   UNL A   1      41.850  29.230  32.227  1.00  0.00     0.167 HD
ATOM     47  C   UNL A   1      38.181  30.694  30.316  1.00  0.00     0.037 A 
ATOM     48  C   UNL A   1      43.729  29.143  34.290  1.00  0.00     0.037 A 
ATOM     49  C   UNL A   1      38.077  31.112  31.688  1.00  0.00     0.049 A 
ATOM     50  C   UNL A   1      42.558  29.925  34.831  1.00  0.00     0.074 A 
ATOM     51  C   UNL A   1      37.026  31.754  32.315  1.00  0.00     0.029 A 
ATOM     52  N   UNL A   1      39.073  30.945  32.640  1.00  0.00    -0.354 N 
ATOM     53  N   UNL A   1      41.445  30.275  34.231  1.00  0.00    -0.248 NA
ATOM     54  C   UNL A   1      42.646  30.378  36.228  1.00  0.00     0.031 C 
ATOM     55  C   UNL A   1      37.412  32.039  33.628  1.00  0.00     0.029 A 
ATOM     56  C   UNL A   1      38.674  31.503  33.843  1.00  0.00     0.049 A 
ATOM     57  H   UNL A   1      39.935  30.497  32.483  1.00  0.00     0.167 HD
ATOM     58  C   UNL A   1      40.689  30.953  35.181  1.00  0.00     0.074 A 
ATOM     59  C   UNL A   1      41.471  30.968  36.400  1.00  0.00     0.031 C 
ATOM     60  C   UNL A   1      39.455  31.501  35.056  1.00  0.00     0.037 A 
BRANCH  47  61
ATOM     61  C   UNL A   1      37.071  31.038  29.365  1.00  0.00     0.064 A 
ATOM     62  C   UNL A   1      36.907  32.335  28.852  1.00  0.00     0.173 A 
ATOM     63  C   UNL A   1      36.142  30.061  28.982  1.00  0.00     0.173 A 
ATOM     64  F   UNL A   1      37.759  33.312  29.199  1.00  0.00    -0.203 F 
ATOM     65  C   UNL A   1      35.826  32.649  28.034  1.00  0.00     0.198 A 
ATOM     66  C   UNL A   1      35.085  30.369  28.131  1.00  0.00     0.198 A 
ATOM     67  F   UNL A   1      36.252  28.804  29.441  1.00  0.00    -0.203 F 
ATOM     68  F   UNL A   1      35.647  33.912  27.620  1.00  0.00    -0.200 F 
ATOM     69  C   UNL A   1      34.919  31.666  27.671  1.00  0.00     0.200 A 
ATOM     70  F   UNL A   1      34.217  29.415  27.771  1.00  0.00    -0.200 F 
ATOM     71  F   UNL A   1      33.874  31.972  26.888  1.00  0.00    -0.200 F 
ENDBRANCH  47  61
BRANCH  48  72
ATOM     72  C   UNL A   1      44.925  28.881  35.133  1.00  0.00     0.064 A 
ATOM     73  C   UNL A   1      45.008  27.733  35.934  1.00  0.00     0.173 A 
ATOM     74  C   UNL A   1      46.015  29.764  35.146  1.00  0.00     0.173 A 
ATOM     75  F   UNL A   1      43.981  26.873  35.979  1.00  0.00    -0.203 F 
ATOM     76  C   UNL A   1      46.133  27.483  36.720  1.00  0.00     0.198 A 
ATOM     77  C   UNL A   1      47.151  29.498  35.909  1.00  0.00     0.198 A 
ATOM     78  F   UNL A   1      45.984  30.880  34.401  1.00  0.00    -0.203 F 
ATOM     79  F   UNL A   1      46.171  26.397  37.503  1.00  0.00    -0.200 F 
ATOM     80  C   UNL A   1      47.207  28.360  36.698  1.00  0.00     0.200 A 
ATOM     81  F   UNL A   1      48.191  30.342  35.876  1.00  0.00    -0.200 F 
ATOM     82  F   UNL A   1      48.293  28.111  37.442  1.00  0.00    -0.200 F 
ENDBRANCH  48  72
BRANCH  60  83
ATOM     83  C   UNL A   1      38.829  32.119  36.275  1.00  0.00     0.064 A 
ATOM     84  C   UNL A   1      38.053  31.373  37.174  1.00  0.00     0.173 A 
ATOM     85  C   UNL A   1      39.087  33.462  36.592  1.00  0.00     0.173 A 
ATOM     86  F   UNL A   1      37.766  30.089  36.914  1.00  0.00    -0.203 F 
ATOM     87  C   UNL A   1      37.547  31.953  38.336  1.00  0.00     0.198 A 
ATOM     88  C   UNL A   1      38.609  34.030  37.770  1.00  0.00     0.198 A 
ATOM     89  F   UNL A   1      39.831  34.219  35.772  1.00  0.00    -0.203 F 
ATOM     90  F   UNL A   1      36.779  31.232  39.164  1.00  0.00    -0.200 F 
ATOM     91  C   UNL A   1      37.836  33.276  38.638  1.00  0.00     0.200 A 
ATOM     92  F   UNL A   1      38.905  35.303  38.068  1.00  0.00    -0.200 F 
ATOM     93  F   UNL A   1      37.367  33.825  39.768  1.00  0.00    -0.200 F 
ENDBRANCH  60  83
ENDBRANCH  34  35
ENDBRANCH  27  29
ENDBRANCH  26  27
ENDBRANCH  25  26
ENDBRANCH   1  25
TORSDOF 13
ENDMDL
MODEL 3
REMARK VINA RESULT:     -12.4      5.637      9.415
REMARK SMILES O=C(CN1C(=O)N/C(=C/c2cc3c(cc2Cl)OCO3)C1=O)OCCOC(=O)c1ccc(-c2c3nc(c(-c4c(F)c(F)c(F)c(F)c4F)c4ccc([nH]4)c(-c4c(F)c(F)c(F)c(F)c4F)c4nc(c(-c5c(F)c(F)c(F)c(F)c5F)c5ccc2[nH]5)C=C4)C=C3)cc1
REMARK SMILES IDX 23 1 22 2 2 3 1 4 3 5 4 6 5 7 20 8 6 9 7 10 8 11 21 12 9 14
REMARK SMILES IDX 10 15 11 16 15 17 12 18 14 19 16 20 13 21 19 22 17 23 18 24
REMARK SMILES IDX 24 25 25 26 26 27 27 28 28 29 29 30 90 31 30 32 89 33 31 34
REMARK SMILES IDX 32 35 33 36 83 37 34 38 88 39 82 40 84 41 35 42 87 43 81 44
REMARK SMILES IDX 80 45 36 47 68 48 48 49 67 50 49 51 52 52 66 53 85 54 50 55
REMARK SMILES IDX 51 56 65 58 86 59 53 60 37 61 38 62 46 63 39 64 40 65 44 66
REMARK SMILES IDX 47 67 41 68 42 69 45 70 43 71 69 72 70 73 78 74 71 75 72 76
REMARK SMILES IDX 76 77 79 78 73 79 74 80 77 81 75 82 54 83 55 84 63 85 56 86
REMARK SMILES IDX 57 87 61 88 64 89 58 90 59 91 62 92 60 93
REMARK H PARENT 7 13 84 46 52 57
REMARK Flexibility Score: inf
ROOT
ATOM      1  C   UNL A   1      31.494  29.320  24.805  1.00  0.00     0.274 C 
ENDROOT
BRANCH   1   2
ATOM      2  O   UNL A   1      31.919  28.062  25.372  1.00  0.00    -0.461 OA
BRANCH   2   3
ATOM      3  C   UNL A   1      31.091  27.086  25.806  1.00  0.00     0.326 C 
ATOM      4  O   UNL A   1      31.057  26.807  27.006  1.00  0.00    -0.250 OA
BRANCH   3   5
ATOM      5  C   UNL A   1      30.274  26.263  24.816  1.00  0.00     0.253 C 
BRANCH   5   6
ATOM      6  N   UNL A   1      31.002  25.649  23.745  1.00  0.00    -0.247 N 
ATOM      7  C   UNL A   1      31.172  26.182  22.487  1.00  0.00     0.329 C 
ATOM      8  C   UNL A   1      31.901  24.653  23.975  1.00  0.00     0.279 C 
ATOM      9  O   UNL A   1      30.641  27.181  22.032  1.00  0.00    -0.248 OA
ATOM     10  N   UNL A   1      32.089  25.384  21.813  1.00  0.00    -0.303 N 
ATOM     11  C   UNL A   1      32.501  24.375  22.632  1.00  0.00     0.109 C 
ATOM     12  O   UNL A   1      32.193  24.156  25.047  1.00  0.00    -0.267 OA
ATOM     13  H   UNL A   1      32.393  25.526  20.888  1.00  0.00     0.172 HD
ATOM     14  C   UNL A   1      33.202  23.291  22.289  1.00  0.00     0.042 C 
BRANCH  14  15
ATOM     15  C   UNL A   1      33.285  22.180  23.251  1.00  0.00    -0.001 A 
ATOM     16  C   UNL A   1      32.335  21.152  23.170  1.00  0.00     0.060 A 
ATOM     17  C   UNL A   1      34.424  22.024  24.094  1.00  0.00     0.052 A 
ATOM     18  C   UNL A   1      32.578  19.998  23.887  1.00  0.00     0.166 A 
ATOM     19  C   UNL A   1      34.637  20.845  24.809  1.00  0.00     0.071 A 
ATOM     20  Cl  UNL A   1      35.642  23.256  24.206  1.00  0.00    -0.084 Cl
ATOM     21  C   UNL A   1      33.699  19.847  24.672  1.00  0.00     0.167 A 
ATOM     22  O   UNL A   1      31.801  18.882  23.877  1.00  0.00    -0.454 OA
ATOM     23  O   UNL A   1      33.767  18.618  25.250  1.00  0.00    -0.454 OA
ATOM     24  C   UNL A   1      32.579  18.000  24.713  1.00  0.00     0.468 C 
ENDBRANCH  14  15
ENDBRANCH   5   6
ENDBRANCH   3   5
ENDBRANCH   2   3
ENDBRANCH   1   2
BRANCH   1  25
ATOM     25  C   UNL A   1      31.588  30.465  25.816  1.00  0.00     0.275 C 
BRANCH  25  26
ATOM     26  O   UNL A   1      32.909  30.501  26.381  1.00  0.00    -0.458 OA
BRANCH  26  27
ATOM     27  C   UNL A   1      33.241  31.600  27.103  1.00  0.00     0.338 C 
ATOM     28  O   UNL A   1      32.559  32.587  27.309  1.00  0.00    -0.246 OA
BRANCH  27  29
ATOM     29  C   UNL A   1      34.512  31.293  27.793  1.00  0.00     0.060 A 
ATOM     30  C   UNL A   1      34.788  29.966  28.154  1.00  0.00     0.016 A 
ATOM     31  C   UNL A   1      35.474  32.289  27.973  1.00  0.00     0.016 A 
ATOM     32  C   UNL A   1      36.036  29.631  28.688  1.00  0.00     0.010 A 
ATOM     33  C   UNL A   1      36.708  31.959  28.528  1.00  0.00     0.010 A 
ATOM     34  C   UNL A   1      36.990  30.634  28.902  1.00  0.00    -0.014 A 
BRANCH  34  35
ATOM     35  C   UNL A   1      38.201  30.378  29.717  1.00  0.00     0.031 A 
ATOM     36  C   UNL A   1      39.207  29.404  29.176  1.00  0.00     0.074 A 
ATOM     37  C   UNL A   1      38.369  30.919  30.935  1.00  0.00     0.049 A 
ATOM     38  N   UNL A   1      40.255  28.877  29.753  1.00  0.00    -0.248 NA
ATOM     39  C   UNL A   1      38.978  28.945  27.797  1.00  0.00     0.031 C 
ATOM     40  C   UNL A   1      37.477  31.889  31.562  1.00  0.00     0.029 A 
ATOM     41  N   UNL A   1      39.345  30.693  31.876  1.00  0.00    -0.354 N 
ATOM     42  C   UNL A   1      40.798  28.011  28.815  1.00  0.00     0.074 A 
ATOM     43  C   UNL A   1      39.947  28.060  27.646  1.00  0.00     0.031 C 
ATOM     44  C   UNL A   1      37.931  32.157  32.798  1.00  0.00     0.029 A 
ATOM     45  C   UNL A   1      39.120  31.344  33.063  1.00  0.00     0.049 A 
ATOM     46  H   UNL A   1      40.128  30.120  31.715  1.00  0.00     0.167 HD
ATOM     47  C   UNL A   1      41.909  27.244  28.918  1.00  0.00     0.037 A 
ATOM     48  C   UNL A   1      39.777  31.260  34.239  1.00  0.00     0.037 A 
ATOM     49  C   UNL A   1      42.740  27.185  30.090  1.00  0.00     0.049 A 
ATOM     50  C   UNL A   1      40.975  30.350  34.360  1.00  0.00     0.074 A 
ATOM     51  C   UNL A   1      43.900  26.461  30.288  1.00  0.00     0.029 A 
ATOM     52  N   UNL A   1      42.483  27.865  31.273  1.00  0.00    -0.354 N 
ATOM     53  N   UNL A   1      41.511  29.560  33.461  1.00  0.00    -0.248 NA
ATOM     54  C   UNL A   1      41.659  30.319  35.662  1.00  0.00     0.031 C 
ATOM     55  C   UNL A   1      44.309  26.646  31.612  1.00  0.00     0.029 A 
ATOM     56  C   UNL A   1      43.447  27.550  32.217  1.00  0.00     0.049 A 
ATOM     57  H   UNL A   1      41.729  28.479  31.419  1.00  0.00     0.167 HD
ATOM     58  C   UNL A   1      42.611  28.969  34.072  1.00  0.00     0.074 A 
ATOM     59  C   UNL A   1      42.666  29.489  35.422  1.00  0.00     0.031 C 
ATOM     60  C   UNL A   1      43.500  28.084  33.556  1.00  0.00     0.037 A 
BRANCH  47  61
ATOM     61  C   UNL A   1      42.244  26.369  27.745  1.00  0.00     0.064 A 
ATOM     62  C   UNL A   1      41.646  25.112  27.561  1.00  0.00     0.173 A 
ATOM     63  C   UNL A   1      43.197  26.785  26.805  1.00  0.00     0.173 A 
ATOM     64  F   UNL A   1      40.739  24.659  28.440  1.00  0.00    -0.203 F 
ATOM     65  C   UNL A   1      42.029  24.285  26.508  1.00  0.00     0.198 A 
ATOM     66  C   UNL A   1      43.548  25.972  25.731  1.00  0.00     0.198 A 
ATOM     67  F   UNL A   1      43.798  27.978  26.930  1.00  0.00    -0.203 F 
ATOM     68  F   UNL A   1      41.502  23.058  26.398  1.00  0.00    -0.200 F 
ATOM     69  C   UNL A   1      42.975  24.717  25.593  1.00  0.00     0.200 A 
ATOM     70  F   UNL A   1      44.453  26.397  24.839  1.00  0.00    -0.200 F 
ATOM     71  F   UNL A   1      43.348  23.917  24.583  1.00  0.00    -0.200 F 
ENDBRANCH  47  61
BRANCH  48  72
ATOM     72  C   UNL A   1      39.303  32.055  35.401  1.00  0.00     0.064 A 
ATOM     73  C   UNL A   1      38.473  31.486  36.377  1.00  0.00     0.173 A 
ATOM     74  C   UNL A   1      39.679  33.397  35.568  1.00  0.00     0.173 A 
ATOM     75  F   UNL A   1      38.061  30.217  36.248  1.00  0.00    -0.203 F 
ATOM     76  C   UNL A   1      38.033  32.229  37.471  1.00  0.00     0.198 A 
ATOM     77  C   UNL A   1      39.262  34.130  36.678  1.00  0.00     0.198 A 
ATOM     78  F   UNL A   1      40.467  33.991  34.661  1.00  0.00    -0.203 F 
ATOM     79  F   UNL A   1      37.211  31.671  38.371  1.00  0.00    -0.200 F 
ATOM     80  C   UNL A   1      38.436  33.547  37.627  1.00  0.00     0.200 A 
ATOM     81  F   UNL A   1      39.664  35.399  36.830  1.00  0.00    -0.200 F 
ATOM     82  F   UNL A   1      38.025  34.256  38.686  1.00  0.00    -0.200 F 
ENDBRANCH  48  72
BRANCH  60  83
ATOM     83  C   UNL A   1      44.653  27.655  34.420  1.00  0.00     0.064 A 
ATOM     84  C   UNL A   1      45.846  28.387  34.489  1.00  0.00     0.173 A 
ATOM     85  C   UNL A   1      44.522  26.536  35.258  1.00  0.00     0.173 A 
ATOM     86  F   UNL A   1      46.029  29.457  33.701  1.00  0.00    -0.203 F 
ATOM     87  C   UNL A   1      46.870  28.008  35.356  1.00  0.00     0.198 A 
ATOM     88  C   UNL A   1      45.533  26.179  36.147  1.00  0.00     0.198 A 
ATOM     89  F   UNL A   1      43.398  25.804  35.239  1.00  0.00    -0.203 F 
ATOM     90  F   UNL A   1      48.016  28.703  35.381  1.00  0.00    -0.200 F 
ATOM     91  C   UNL A   1      46.707  26.913  36.191  1.00  0.00     0.200 A 
ATOM     92  F   UNL A   1      45.365  25.132  36.966  1.00  0.00    -0.200 F 
ATOM     93  F   UNL A   1      47.685  26.563  37.040  1.00  0.00    -0.200 F 
ENDBRANCH  60  83
ENDBRANCH  34  35
ENDBRANCH  27  29
ENDBRANCH  26  27
ENDBRANCH  25  26
ENDBRANCH   1  25
TORSDOF 13
ENDMDL
