MODEL 1
REMARK VINA RESULT:     -13.0      0.000      0.000
REMARK SMILES COc1ccc2c(c1)c(CC(=O)OCCOC(=O)c1ccc(-c3c4nc(c(-c5c(F)c(F)c(F)c(F)c5F)c5ccc([nH]5)c(-c5c(F)c(F)c(F)c(F)c5F)c5nc(c(-c6c(F)c(F)c(F)c(F)c6F)c6ccc3[nH]6)C=C5)C=C4)cc1)c(C)n2Cc1ccc(Br)cc1
REMARK SMILES IDX 14 1 13 2 11 3 12 4 10 5 9 6 3 7 4 8 8 9 5 10 7 11 6 12
REMARK SMILES IDX 84 13 82 14 83 15 2 16 1 17 85 18 86 19 87 20 92 21 88 22
REMARK SMILES IDX 91 23 89 24 90 25 15 26 16 27 17 28 18 29 19 30 20 31 81 32
REMARK SMILES IDX 21 33 80 34 22 35 23 36 24 37 74 38 25 39 79 40 73 41 75 42
REMARK SMILES IDX 26 43 78 44 72 45 71 46 27 48 59 49 39 50 58 51 40 52 43 53
REMARK SMILES IDX 57 54 76 55 41 56 42 57 56 59 77 60 44 61 28 62 29 63 37 64
REMARK SMILES IDX 30 65 31 66 35 67 38 68 32 69 33 70 36 71 34 72 60 73 61 74
REMARK SMILES IDX 69 75 62 76 63 77 67 78 70 79 64 80 65 81 68 82 66 83 45 84
REMARK SMILES IDX 46 85 54 86 47 87 48 88 52 89 55 90 49 91 50 92 53 93 51 94
REMARK H PARENT 75 47 43 58
REMARK Flexibility Score: inf
ROOT
ATOM      1  C   UNL A   1      38.314  21.585  25.440  1.00  0.00     0.274 C 
ENDROOT
BRANCH   1   2
ATOM      2  O   UNL A   1      37.638  22.792  25.880  1.00  0.00    -0.462 OA
BRANCH   2   3
ATOM      3  C   UNL A   1      36.834  23.345  24.945  1.00  0.00     0.310 C 
ATOM      4  O   UNL A   1      36.993  23.148  23.740  1.00  0.00    -0.252 OA
BRANCH   3   5
ATOM      5  C   UNL A   1      35.818  24.351  25.422  1.00  0.00     0.160 C 
BRANCH   5   6
ATOM      6  C   UNL A   1      34.339  24.192  25.226  1.00  0.00    -0.008 A 
ATOM      7  C   UNL A   1      32.097  26.480  23.031  1.00  0.00     0.119 A 
ATOM      8  C   UNL A   1      30.995  25.655  23.029  1.00  0.00     0.048 A 
ATOM      9  C   UNL A   1      33.241  26.089  23.724  1.00  0.00     0.057 A 
ATOM     10  C   UNL A   1      31.007  24.473  23.788  1.00  0.00     0.031 A 
ATOM     11  C   UNL A   1      33.330  24.900  24.476  1.00  0.00     0.007 A 
ATOM     12  C   UNL A   1      32.158  24.135  24.537  1.00  0.00     0.049 A 
ATOM     13  N   UNL A   1      32.422  23.086  25.399  1.00  0.00    -0.340 N 
ATOM     14  C   UNL A   1      33.621  23.316  26.035  1.00  0.00     0.020 A 
ATOM     15  C   UNL A   1      34.071  22.658  27.300  1.00  0.00     0.065 C 
BRANCH   7  16
ATOM     16  O   UNL A   1      32.223  27.613  22.274  1.00  0.00    -0.497 OA
ATOM     17  C   UNL A   1      32.358  28.819  23.015  1.00  0.00     0.278 C 
ENDBRANCH   7  16
BRANCH  13  18
ATOM     18  C   UNL A   1      31.581  21.909  25.593  1.00  0.00     0.157 C 
BRANCH  18  19
ATOM     19  C   UNL A   1      32.245  20.684  24.999  1.00  0.00    -0.028 A 
ATOM     20  C   UNL A   1      32.230  20.451  23.613  1.00  0.00     0.007 A 
ATOM     21  C   UNL A   1      32.823  19.716  25.831  1.00  0.00     0.007 A 
ATOM     22  C   UNL A   1      32.720  19.262  23.074  1.00  0.00     0.016 A 
ATOM     23  C   UNL A   1      33.351  18.539  25.290  1.00  0.00     0.016 A 
ATOM     24  C   UNL A   1      33.281  18.310  23.918  1.00  0.00     0.017 A 
ATOM     25  Br  UNL A   1      33.940  16.695  23.193  1.00  0.00    -0.051 Br
ENDBRANCH  18  19
ENDBRANCH  13  18
ENDBRANCH   5   6
ENDBRANCH   3   5
ENDBRANCH   2   3
ENDBRANCH   1   2
BRANCH   1  26
ATOM     26  C   UNL A   1      39.638  21.369  26.182  1.00  0.00     0.275 C 
BRANCH  26  27
ATOM     27  O   UNL A   1      39.884  22.476  27.068  1.00  0.00    -0.458 OA
BRANCH  27  28
ATOM     28  C   UNL A   1      41.108  22.529  27.644  1.00  0.00     0.338 C 
ATOM     29  O   UNL A   1      41.914  21.619  27.761  1.00  0.00    -0.246 OA
BRANCH  28  30
ATOM     30  C   UNL A   1      41.464  23.958  27.688  1.00  0.00     0.060 A 
ATOM     31  C   UNL A   1      42.426  24.508  28.522  1.00  0.00     0.016 A 
ATOM     32  C   UNL A   1      40.549  24.789  27.057  1.00  0.00     0.016 A 
ATOM     33  C   UNL A   1      42.324  25.864  28.847  1.00  0.00     0.010 A 
ATOM     34  C   UNL A   1      40.437  26.121  27.365  1.00  0.00     0.010 A 
ATOM     35  C   UNL A   1      41.260  26.632  28.347  1.00  0.00    -0.014 A 
BRANCH  35  36
ATOM     36  C   UNL A   1      41.033  28.006  28.755  1.00  0.00     0.031 A 
ATOM     37  C   UNL A   1      42.045  28.952  28.245  1.00  0.00     0.074 A 
ATOM     38  C   UNL A   1      39.935  28.503  29.361  1.00  0.00     0.049 A 
ATOM     39  N   UNL A   1      43.000  29.486  28.927  1.00  0.00    -0.248 NA
ATOM     40  C   UNL A   1      42.073  29.259  26.808  1.00  0.00     0.031 C 
ATOM     41  C   UNL A   1      38.651  27.882  29.662  1.00  0.00     0.029 A 
ATOM     42  N   UNL A   1      39.762  29.777  29.818  1.00  0.00    -0.354 N 
ATOM     43  C   UNL A   1      43.684  30.300  28.042  1.00  0.00     0.074 A 
ATOM     44  C   UNL A   1      43.168  30.014  26.727  1.00  0.00     0.031 C 
ATOM     45  C   UNL A   1      37.771  28.817  30.094  1.00  0.00     0.029 A 
ATOM     46  C   UNL A   1      38.486  30.066  30.271  1.00  0.00     0.049 A 
ATOM     47  H   UNL A   1      40.490  30.439  29.827  1.00  0.00     0.167 HD
ATOM     48  C   UNL A   1      44.506  31.289  28.479  1.00  0.00     0.037 A 
ATOM     49  C   UNL A   1      38.062  31.250  30.774  1.00  0.00     0.037 A 
ATOM     50  C   UNL A   1      44.800  31.169  29.882  1.00  0.00     0.049 A 
ATOM     51  C   UNL A   1      39.269  31.979  31.240  1.00  0.00     0.074 A 
ATOM     52  C   UNL A   1      45.417  30.202  30.654  1.00  0.00     0.029 A 
ATOM     53  N   UNL A   1      44.080  31.935  30.766  1.00  0.00    -0.354 N 
ATOM     54  N   UNL A   1      39.991  31.615  32.262  1.00  0.00    -0.248 NA
ATOM     55  C   UNL A   1      39.914  32.890  30.309  1.00  0.00     0.031 C 
ATOM     56  C   UNL A   1      44.654  30.142  31.860  1.00  0.00     0.029 A 
ATOM     57  C   UNL A   1      43.642  31.098  31.765  1.00  0.00     0.049 A 
ATOM     58  H   UNL A   1      43.909  32.902  30.698  1.00  0.00     0.167 HD
ATOM     59  C   UNL A   1      41.296  31.910  31.895  1.00  0.00     0.074 A 
ATOM     60  C   UNL A   1      41.175  32.780  30.730  1.00  0.00     0.031 C 
ATOM     61  C   UNL A   1      42.349  31.205  32.402  1.00  0.00     0.037 A 
BRANCH  48  62
ATOM     62  C   UNL A   1      44.816  32.510  27.674  1.00  0.00     0.064 A 
ATOM     63  C   UNL A   1      46.034  32.607  26.983  1.00  0.00     0.173 A 
ATOM     64  C   UNL A   1      44.039  33.687  27.734  1.00  0.00     0.173 A 
ATOM     65  F   UNL A   1      46.866  31.557  26.919  1.00  0.00    -0.203 F 
ATOM     66  C   UNL A   1      46.447  33.805  26.398  1.00  0.00     0.198 A 
ATOM     67  C   UNL A   1      44.423  34.862  27.097  1.00  0.00     0.198 A 
ATOM     68  F   UNL A   1      42.934  33.761  28.490  1.00  0.00    -0.203 F 
ATOM     69  F   UNL A   1      47.655  33.882  25.824  1.00  0.00    -0.200 F 
ATOM     70  C   UNL A   1      45.637  34.927  26.445  1.00  0.00     0.200 A 
ATOM     71  F   UNL A   1      43.637  35.944  27.176  1.00  0.00    -0.200 F 
ATOM     72  F   UNL A   1      46.045  36.084  25.906  1.00  0.00    -0.200 F 
ENDBRANCH  48  62
BRANCH  49  73
ATOM     73  C   UNL A   1      36.746  31.913  30.647  1.00  0.00     0.064 A 
ATOM     74  C   UNL A   1      35.876  31.998  31.748  1.00  0.00     0.173 A 
ATOM     75  C   UNL A   1      36.457  32.747  29.552  1.00  0.00     0.173 A 
ATOM     76  F   UNL A   1      36.096  31.254  32.842  1.00  0.00    -0.203 F 
ATOM     77  C   UNL A   1      34.815  32.907  31.776  1.00  0.00     0.198 A 
ATOM     78  C   UNL A   1      35.394  33.652  29.579  1.00  0.00     0.198 A 
ATOM     79  F   UNL A   1      37.259  32.773  28.477  1.00  0.00    -0.203 F 
ATOM     80  F   UNL A   1      34.056  33.016  32.874  1.00  0.00    -0.200 F 
ATOM     81  C   UNL A   1      34.587  33.748  30.698  1.00  0.00     0.200 A 
ATOM     82  F   UNL A   1      35.202  34.482  28.542  1.00  0.00    -0.200 F 
ATOM     83  F   UNL A   1      33.621  34.675  30.754  1.00  0.00    -0.200 F 
ENDBRANCH  49  73
BRANCH  61  84
ATOM     84  C   UNL A   1      42.076  30.275  33.554  1.00  0.00     0.064 A 
ATOM     85  C   UNL A   1      41.690  28.932  33.401  1.00  0.00     0.173 A 
ATOM     86  C   UNL A   1      42.350  30.718  34.855  1.00  0.00     0.173 A 
ATOM     87  F   UNL A   1      41.497  28.405  32.186  1.00  0.00    -0.203 F 
ATOM     88  C   UNL A   1      41.551  28.085  34.502  1.00  0.00     0.198 A 
ATOM     89  C   UNL A   1      42.244  29.862  35.949  1.00  0.00     0.198 A 
ATOM     90  F   UNL A   1      42.770  31.976  35.061  1.00  0.00    -0.203 F 
ATOM     91  F   UNL A   1      41.174  26.809  34.327  1.00  0.00    -0.200 F 
ATOM     92  C   UNL A   1      41.837  28.550  35.774  1.00  0.00     0.200 A 
ATOM     93  F   UNL A   1      42.566  30.303  37.174  1.00  0.00    -0.200 F 
ATOM     94  F   UNL A   1      41.747  27.726  36.828  1.00  0.00    -0.200 F 
ENDBRANCH  61  84
ENDBRANCH  35  36
ENDBRANCH  28  30
ENDBRANCH  27  28
ENDBRANCH  26  27
ENDBRANCH   1  26
TORSDOF 15
ENDMDL
MODEL 2
REMARK VINA RESULT:     -13.0      3.806      8.442
REMARK SMILES COc1ccc2c(c1)c(CC(=O)OCCOC(=O)c1ccc(-c3c4nc(c(-c5c(F)c(F)c(F)c(F)c5F)c5ccc([nH]5)c(-c5c(F)c(F)c(F)c(F)c5F)c5nc(c(-c6c(F)c(F)c(F)c(F)c6F)c6ccc3[nH]6)C=C5)C=C4)cc1)c(C)n2Cc1ccc(Br)cc1
REMARK SMILES IDX 14 1 13 2 11 3 12 4 10 5 9 6 3 7 4 8 8 9 5 10 7 11 6 12
REMARK SMILES IDX 84 13 82 14 83 15 2 16 1 17 85 18 86 19 87 20 92 21 88 22
REMARK SMILES IDX 91 23 89 24 90 25 15 26 16 27 17 28 18 29 19 30 20 31 81 32
REMARK SMILES IDX 21 33 80 34 22 35 23 36 24 37 74 38 25 39 79 40 73 41 75 42
REMARK SMILES IDX 26 43 78 44 72 45 71 46 27 48 59 49 39 50 58 51 40 52 43 53
REMARK SMILES IDX 57 54 76 55 41 56 42 57 56 59 77 60 44 61 28 62 29 63 37 64
REMARK SMILES IDX 30 65 31 66 35 67 38 68 32 69 33 70 36 71 34 72 60 73 61 74
REMARK SMILES IDX 69 75 62 76 63 77 67 78 70 79 64 80 65 81 68 82 66 83 45 84
REMARK SMILES IDX 46 85 54 86 47 87 48 88 52 89 55 90 49 91 50 92 53 93 51 94
REMARK H PARENT 75 47 43 58
REMARK Flexibility Score: inf
ROOT
ATOM      1  C   UNL A   1      34.116  22.264  25.203  1.00  0.00     0.274 C 
ENDROOT
BRANCH   1   2
ATOM      2  O   UNL A   1      34.801  23.510  24.916  1.00  0.00    -0.462 OA
BRANCH   2   3
ATOM      3  C   UNL A   1      34.848  23.824  23.602  1.00  0.00     0.310 C 
ATOM      4  O   UNL A   1      35.647  23.298  22.828  1.00  0.00    -0.252 OA
BRANCH   3   5
ATOM      5  C   UNL A   1      33.985  24.970  23.139  1.00  0.00     0.160 C 
BRANCH   5   6
ATOM      6  C   UNL A   1      32.932  25.612  23.995  1.00  0.00    -0.008 A 
ATOM      7  C   UNL A   1      33.579  28.257  26.763  1.00  0.00     0.119 A 
ATOM      8  C   UNL A   1      32.265  28.635  26.921  1.00  0.00     0.048 A 
ATOM      9  C   UNL A   1      33.899  27.272  25.829  1.00  0.00     0.057 A 
ATOM     10  C   UNL A   1      31.257  27.972  26.202  1.00  0.00     0.031 A 
ATOM     11  C   UNL A   1      32.939  26.593  25.052  1.00  0.00     0.007 A 
ATOM     12  C   UNL A   1      31.603  26.929  25.312  1.00  0.00     0.049 A 
ATOM     13  N   UNL A   1      30.831  26.085  24.536  1.00  0.00    -0.340 N 
ATOM     14  C   UNL A   1      31.635  25.104  23.998  1.00  0.00     0.020 A 
ATOM     15  C   UNL A   1      31.159  23.800  23.445  1.00  0.00     0.065 C 
BRANCH   7  16
ATOM     16  O   UNL A   1      34.645  28.879  27.353  1.00  0.00    -0.497 OA
ATOM     17  C   UNL A   1      34.416  30.229  27.737  1.00  0.00     0.278 C 
ENDBRANCH   7  16
BRANCH  13  18
ATOM     18  C   UNL A   1      29.397  26.216  24.300  1.00  0.00     0.157 C 
BRANCH  18  19
ATOM     19  C   UNL A   1      29.112  27.447  23.464  1.00  0.00    -0.028 A 
ATOM     20  C   UNL A   1      30.129  28.073  22.725  1.00  0.00     0.007 A 
ATOM     21  C   UNL A   1      27.837  28.031  23.472  1.00  0.00     0.007 A 
ATOM     22  C   UNL A   1      29.904  29.280  22.064  1.00  0.00     0.016 A 
ATOM     23  C   UNL A   1      27.598  29.220  22.777  1.00  0.00     0.016 A 
ATOM     24  C   UNL A   1      28.635  29.849  22.092  1.00  0.00     0.017 A 
ATOM     25  Br  UNL A   1      28.327  31.486  21.202  1.00  0.00    -0.051 Br
ENDBRANCH  18  19
ENDBRANCH  13  18
ENDBRANCH   5   6
ENDBRANCH   3   5
ENDBRANCH   2   3
ENDBRANCH   1   2
BRANCH   1  26
ATOM     26  C   UNL A   1      35.093  21.089  25.327  1.00  0.00     0.275 C 
BRANCH  26  27
ATOM     27  O   UNL A   1      36.376  21.570  25.766  1.00  0.00    -0.458 OA
BRANCH  27  28
ATOM     28  C   UNL A   1      37.454  20.834  25.406  1.00  0.00     0.338 C 
ATOM     29  O   UNL A   1      37.477  19.870  24.657  1.00  0.00    -0.246 OA
BRANCH  28  30
ATOM     30  C   UNL A   1      38.626  21.672  25.714  1.00  0.00     0.060 A 
ATOM     31  C   UNL A   1      39.847  21.189  26.161  1.00  0.00     0.016 A 
ATOM     32  C   UNL A   1      38.342  23.025  25.829  1.00  0.00     0.016 A 
ATOM     33  C   UNL A   1      40.675  22.052  26.885  1.00  0.00     0.010 A 
ATOM     34  C   UNL A   1      39.144  23.884  26.536  1.00  0.00     0.010 A 
ATOM     35  C   UNL A   1      40.260  23.365  27.158  1.00  0.00    -0.014 A 
BRANCH  35  36
ATOM     36  C   UNL A   1      41.019  24.259  28.014  1.00  0.00     0.031 A 
ATOM     37  C   UNL A   1      40.378  25.572  28.219  1.00  0.00     0.074 A 
ATOM     38  C   UNL A   1      42.101  23.948  28.758  1.00  0.00     0.049 A 
ATOM     39  N   UNL A   1      40.732  26.685  27.672  1.00  0.00    -0.248 NA
ATOM     40  C   UNL A   1      39.153  25.649  29.026  1.00  0.00     0.031 C 
ATOM     41  C   UNL A   1      42.734  22.661  29.025  1.00  0.00     0.029 A 
ATOM     42  N   UNL A   1      42.860  24.810  29.493  1.00  0.00    -0.354 N 
ATOM     43  C   UNL A   1      39.855  27.638  28.158  1.00  0.00     0.074 A 
ATOM     44  C   UNL A   1      38.820  26.930  28.867  1.00  0.00     0.031 C 
ATOM     45  C   UNL A   1      43.672  22.796  29.993  1.00  0.00     0.029 A 
ATOM     46  C   UNL A   1      43.828  24.209  30.281  1.00  0.00     0.049 A 
ATOM     47  H   UNL A   1      42.730  25.785  29.465  1.00  0.00     0.167 HD
ATOM     48  C   UNL A   1      40.143  28.964  28.097  1.00  0.00     0.037 A 
ATOM     49  C   UNL A   1      44.707  24.843  31.094  1.00  0.00     0.037 A 
ATOM     50  C   UNL A   1      41.254  29.237  27.224  1.00  0.00     0.049 A 
ATOM     51  C   UNL A   1      44.813  26.242  30.611  1.00  0.00     0.074 A 
ATOM     52  C   UNL A   1      41.487  29.040  25.876  1.00  0.00     0.029 A 
ATOM     53  N   UNL A   1      42.496  29.410  27.786  1.00  0.00    -0.354 N 
ATOM     54  N   UNL A   1      45.362  26.584  29.478  1.00  0.00    -0.248 NA
ATOM     55  C   UNL A   1      43.932  27.234  31.205  1.00  0.00     0.031 C 
ATOM     56  C   UNL A   1      42.849  28.618  25.788  1.00  0.00     0.029 A 
ATOM     57  C   UNL A   1      43.373  28.619  27.081  1.00  0.00     0.049 A 
ATOM     58  H   UNL A   1      42.717  29.989  28.550  1.00  0.00     0.167 HD
ATOM     59  C   UNL A   1      44.589  27.638  29.016  1.00  0.00     0.074 A 
ATOM     60  C   UNL A   1      43.789  28.055  30.163  1.00  0.00     0.031 C 
ATOM     61  C   UNL A   1      44.472  27.896  27.681  1.00  0.00     0.037 A 
BRANCH  48  62
ATOM     62  C   UNL A   1      39.575  29.970  29.046  1.00  0.00     0.064 A 
ATOM     63  C   UNL A   1      40.105  30.093  30.340  1.00  0.00     0.173 A 
ATOM     64  C   UNL A   1      38.378  30.674  28.793  1.00  0.00     0.173 A 
ATOM     65  F   UNL A   1      41.210  29.419  30.691  1.00  0.00    -0.203 F 
ATOM     66  C   UNL A   1      39.473  30.866  31.316  1.00  0.00     0.198 A 
ATOM     67  C   UNL A   1      37.785  31.492  29.748  1.00  0.00     0.198 A 
ATOM     68  F   UNL A   1      37.698  30.514  27.649  1.00  0.00    -0.203 F 
ATOM     69  F   UNL A   1      39.960  30.889  32.564  1.00  0.00    -0.200 F 
ATOM     70  C   UNL A   1      38.321  31.574  31.016  1.00  0.00     0.200 A 
ATOM     71  F   UNL A   1      36.655  32.148  29.446  1.00  0.00    -0.200 F 
ATOM     72  F   UNL A   1      37.700  32.293  31.960  1.00  0.00    -0.200 F 
ENDBRANCH  48  62
BRANCH  49  73
ATOM     73  C   UNL A   1      45.257  24.420  32.400  1.00  0.00     0.064 A 
ATOM     74  C   UNL A   1      46.456  24.969  32.887  1.00  0.00     0.173 A 
ATOM     75  C   UNL A   1      44.462  23.723  33.329  1.00  0.00     0.173 A 
ATOM     76  F   UNL A   1      47.257  25.670  32.071  1.00  0.00    -0.203 F 
ATOM     77  C   UNL A   1      46.810  24.878  34.236  1.00  0.00     0.198 A 
ATOM     78  C   UNL A   1      44.819  23.628  34.675  1.00  0.00     0.198 A 
ATOM     79  F   UNL A   1      43.277  23.207  32.971  1.00  0.00    -0.203 F 
ATOM     80  F   UNL A   1      47.920  25.483  34.678  1.00  0.00    -0.200 F 
ATOM     81  C   UNL A   1      45.980  24.224  35.133  1.00  0.00     0.200 A 
ATOM     82  F   UNL A   1      43.994  23.019  35.540  1.00  0.00    -0.200 F 
ATOM     83  F   UNL A   1      46.278  24.205  36.439  1.00  0.00    -0.200 F 
ENDBRANCH  49  73
BRANCH  61  84
ATOM     84  C   UNL A   1      45.401  27.167  26.746  1.00  0.00     0.064 A 
ATOM     85  C   UNL A   1      45.101  25.928  26.153  1.00  0.00     0.173 A 
ATOM     86  C   UNL A   1      46.572  27.810  26.326  1.00  0.00     0.173 A 
ATOM     87  F   UNL A   1      43.957  25.291  26.431  1.00  0.00    -0.203 F 
ATOM     88  C   UNL A   1      45.952  25.346  25.213  1.00  0.00     0.198 A 
ATOM     89  C   UNL A   1      47.404  27.245  25.362  1.00  0.00     0.198 A 
ATOM     90  F   UNL A   1      46.888  29.018  26.819  1.00  0.00    -0.203 F 
ATOM     91  F   UNL A   1      45.644  24.159  24.668  1.00  0.00    -0.200 F 
ATOM     92  C   UNL A   1      47.098  26.010  24.812  1.00  0.00     0.200 A 
ATOM     93  F   UNL A   1      48.489  27.911  24.944  1.00  0.00    -0.200 F 
ATOM     94  F   UNL A   1      47.896  25.474  23.877  1.00  0.00    -0.200 F 
ENDBRANCH  61  84
ENDBRANCH  35  36
ENDBRANCH  28  30
ENDBRANCH  27  28
ENDBRANCH  26  27
ENDBRANCH   1  26
TORSDOF 15
ENDMDL
MODEL 3
REMARK VINA RESULT:     -13.0      1.858      3.368
REMARK SMILES COc1ccc2c(c1)c(CC(=O)OCCOC(=O)c1ccc(-c3c4nc(c(-c5c(F)c(F)c(F)c(F)c5F)c5ccc([nH]5)c(-c5c(F)c(F)c(F)c(F)c5F)c5nc(c(-c6c(F)c(F)c(F)c(F)c6F)c6ccc3[nH]6)C=C5)C=C4)cc1)c(C)n2Cc1ccc(Br)cc1
REMARK SMILES IDX 14 1 13 2 11 3 12 4 10 5 9 6 3 7 4 8 8 9 5 10 7 11 6 12
REMARK SMILES IDX 84 13 82 14 83 15 2 16 1 17 85 18 86 19 87 20 92 21 88 22
REMARK SMILES IDX 91 23 89 24 90 25 15 26 16 27 17 28 18 29 19 30 20 31 81 32
REMARK SMILES IDX 21 33 80 34 22 35 23 36 24 37 74 38 25 39 79 40 73 41 75 42
REMARK SMILES IDX 26 43 78 44 72 45 71 46 27 48 59 49 39 50 58 51 40 52 43 53
REMARK SMILES IDX 57 54 76 55 41 56 42 57 56 59 77 60 44 61 28 62 29 63 37 64
REMARK SMILES IDX 30 65 31 66 35 67 38 68 32 69 33 70 36 71 34 72 60 73 61 74
REMARK SMILES IDX 69 75 62 76 63 77 67 78 70 79 64 80 65 81 68 82 66 83 45 84
REMARK SMILES IDX 46 85 54 86 47 87 48 88 52 89 55 90 49 91 50 92 53 93 51 94
REMARK H PARENT 75 47 43 58
REMARK Flexibility Score: inf
ROOT
ATOM      1  C   UNL A   1      37.933  21.430  25.295  1.00  0.00     0.274 C 
ENDROOT
BRANCH   1   2
ATOM      2  O   UNL A   1      37.116  22.528  25.778  1.00  0.00    -0.462 OA
BRANCH   2   3
ATOM      3  C   UNL A   1      36.445  23.186  24.806  1.00  0.00     0.310 C 
ATOM      4  O   UNL A   1      36.523  22.865  23.621  1.00  0.00    -0.252 OA
BRANCH   3   5
ATOM      5  C   UNL A   1      35.713  24.440  25.208  1.00  0.00     0.160 C 
BRANCH   5   6
ATOM      6  C   UNL A   1      34.218  24.525  25.327  1.00  0.00    -0.008 A 
ATOM      7  C   UNL A   1      31.784  21.501  25.373  1.00  0.00     0.119 A 
ATOM      8  C   UNL A   1      30.678  22.203  25.797  1.00  0.00     0.048 A 
ATOM      9  C   UNL A   1      32.991  22.173  25.188  1.00  0.00     0.057 A 
ATOM     10  C   UNL A   1      30.757  23.596  25.959  1.00  0.00     0.031 A 
ATOM     11  C   UNL A   1      33.145  23.563  25.368  1.00  0.00     0.007 A 
ATOM     12  C   UNL A   1      31.976  24.263  25.698  1.00  0.00     0.049 A 
ATOM     13  N   UNL A   1      32.318  25.602  25.719  1.00  0.00    -0.340 N 
ATOM     14  C   UNL A   1      33.580  25.755  25.191  1.00  0.00     0.020 A 
ATOM     15  C   UNL A   1      34.153  27.034  24.672  1.00  0.00     0.065 C 
BRANCH   7  16
ATOM     16  O   UNL A   1      31.843  20.139  25.253  1.00  0.00    -0.497 OA
ATOM     17  C   UNL A   1      33.132  19.617  24.955  1.00  0.00     0.278 C 
ENDBRANCH   7  16
BRANCH  13  18
ATOM     18  C   UNL A   1      31.488  26.686  26.236  1.00  0.00     0.157 C 
BRANCH  18  19
ATOM     19  C   UNL A   1      30.951  27.527  25.096  1.00  0.00    -0.028 A 
ATOM     20  C   UNL A   1      31.237  28.900  25.011  1.00  0.00     0.007 A 
ATOM     21  C   UNL A   1      30.093  26.965  24.142  1.00  0.00     0.007 A 
ATOM     22  C   UNL A   1      30.637  29.705  24.043  1.00  0.00     0.016 A 
ATOM     23  C   UNL A   1      29.521  27.761  23.144  1.00  0.00     0.016 A 
ATOM     24  C   UNL A   1      29.781  29.129  23.111  1.00  0.00     0.017 A 
ATOM     25  Br  UNL A   1      28.963  30.217  21.801  1.00  0.00    -0.051 Br
ENDBRANCH  18  19
ENDBRANCH  13  18
ENDBRANCH   5   6
ENDBRANCH   3   5
ENDBRANCH   2   3
ENDBRANCH   1   2
BRANCH   1  26
ATOM     26  C   UNL A   1      39.252  21.315  26.067  1.00  0.00     0.275 C 
BRANCH  26  27
ATOM     27  O   UNL A   1      39.656  22.616  26.533  1.00  0.00    -0.458 OA
BRANCH  27  28
ATOM     28  C   UNL A   1      40.673  22.649  27.426  1.00  0.00     0.338 C 
ATOM     29  O   UNL A   1      41.358  21.713  27.807  1.00  0.00    -0.246 OA
BRANCH  28  30
ATOM     30  C   UNL A   1      41.087  24.061  27.502  1.00  0.00     0.060 A 
ATOM     31  C   UNL A   1      42.046  24.558  28.372  1.00  0.00     0.016 A 
ATOM     32  C   UNL A   1      40.228  24.939  26.857  1.00  0.00     0.016 A 
ATOM     33  C   UNL A   1      41.991  25.912  28.715  1.00  0.00     0.010 A 
ATOM     34  C   UNL A   1      40.163  26.271  27.181  1.00  0.00     0.010 A 
ATOM     35  C   UNL A   1      40.976  26.732  28.195  1.00  0.00    -0.014 A 
BRANCH  35  36
ATOM     36  C   UNL A   1      40.796  28.109  28.617  1.00  0.00     0.031 A 
ATOM     37  C   UNL A   1      41.834  29.027  28.109  1.00  0.00     0.074 A 
ATOM     38  C   UNL A   1      39.717  28.635  29.233  1.00  0.00     0.049 A 
ATOM     39  N   UNL A   1      42.809  29.524  28.790  1.00  0.00    -0.248 NA
ATOM     40  C   UNL A   1      41.864  29.346  26.675  1.00  0.00     0.031 C 
ATOM     41  C   UNL A   1      38.415  28.052  29.536  1.00  0.00     0.029 A 
ATOM     42  N   UNL A   1      39.588  29.909  29.703  1.00  0.00    -0.354 N 
ATOM     43  C   UNL A   1      43.514  30.324  27.909  1.00  0.00     0.074 A 
ATOM     44  C   UNL A   1      42.982  30.066  26.595  1.00  0.00     0.031 C 
ATOM     45  C   UNL A   1      37.568  29.010  29.981  1.00  0.00     0.029 A 
ATOM     46  C   UNL A   1      38.323  30.235  30.165  1.00  0.00     0.049 A 
ATOM     47  H   UNL A   1      40.336  30.548  29.713  1.00  0.00     0.167 HD
ATOM     48  C   UNL A   1      44.370  31.283  28.350  1.00  0.00     0.037 A 
ATOM     49  C   UNL A   1      37.940  31.427  30.682  1.00  0.00     0.037 A 
ATOM     50  C   UNL A   1      44.667  31.140  29.750  1.00  0.00     0.049 A 
ATOM     51  C   UNL A   1      39.172  32.112  31.147  1.00  0.00     0.074 A 
ATOM     52  C   UNL A   1      45.258  30.147  30.510  1.00  0.00     0.029 A 
ATOM     53  N   UNL A   1      43.977  31.921  30.646  1.00  0.00    -0.354 N 
ATOM     54  N   UNL A   1      39.888  31.716  32.162  1.00  0.00    -0.248 NA
ATOM     55  C   UNL A   1      39.840  33.011  30.221  1.00  0.00     0.031 C 
ATOM     56  C   UNL A   1      44.499  30.100  31.720  1.00  0.00     0.029 A 
ATOM     57  C   UNL A   1      43.518  31.088  31.639  1.00  0.00     0.049 A 
ATOM     58  H   UNL A   1      43.836  32.893  30.587  1.00  0.00     0.167 HD
ATOM     59  C   UNL A   1      41.199  31.973  31.790  1.00  0.00     0.074 A 
ATOM     60  C   UNL A   1      41.100  32.858  30.633  1.00  0.00     0.031 C 
ATOM     61  C   UNL A   1      42.232  31.231  32.284  1.00  0.00     0.037 A 
BRANCH  48  62
ATOM     62  C   UNL A   1      44.714  32.500  27.555  1.00  0.00     0.064 A 
ATOM     63  C   UNL A   1      45.944  32.577  26.883  1.00  0.00     0.173 A 
ATOM     64  C   UNL A   1      43.957  33.691  27.607  1.00  0.00     0.173 A 
ATOM     65  F   UNL A   1      46.758  31.512  26.827  1.00  0.00    -0.203 F 
ATOM     66  C   UNL A   1      46.387  33.770  26.308  1.00  0.00     0.198 A 
ATOM     67  C   UNL A   1      44.372  34.860  26.980  1.00  0.00     0.198 A 
ATOM     68  F   UNL A   1      42.842  33.782  28.346  1.00  0.00    -0.203 F 
ATOM     69  F   UNL A   1      47.605  33.827  25.752  1.00  0.00    -0.200 F 
ATOM     70  C   UNL A   1      45.596  34.906  26.346  1.00  0.00     0.200 A 
ATOM     71  F   UNL A   1      43.604  35.957  27.051  1.00  0.00    -0.200 F 
ATOM     72  F   UNL A   1      46.034  36.057  25.818  1.00  0.00    -0.200 F 
ENDBRANCH  48  62
BRANCH  49  73
ATOM     73  C   UNL A   1      36.645  32.132  30.569  1.00  0.00     0.064 A 
ATOM     74  C   UNL A   1      35.799  32.264  31.684  1.00  0.00     0.173 A 
ATOM     75  C   UNL A   1      36.365  32.959  29.466  1.00  0.00     0.173 A 
ATOM     76  F   UNL A   1      36.015  31.529  32.785  1.00  0.00    -0.203 F 
ATOM     77  C   UNL A   1      34.770  33.209  31.716  1.00  0.00     0.198 A 
ATOM     78  C   UNL A   1      35.333  33.900  29.498  1.00  0.00     0.198 A 
ATOM     79  F   UNL A   1      37.146  32.942  28.376  1.00  0.00    -0.203 F 
ATOM     80  F   UNL A   1      34.036  33.360  32.827  1.00  0.00    -0.200 F 
ATOM     81  C   UNL A   1      34.551  34.040  30.630  1.00  0.00     0.200 A 
ATOM     82  F   UNL A   1      35.150  34.720  28.452  1.00  0.00    -0.200 F 
ATOM     83  F   UNL A   1      33.619  35.001  30.690  1.00  0.00    -0.200 F 
ENDBRANCH  49  73
BRANCH  61  84
ATOM     84  C   UNL A   1      41.936  30.300  33.430  1.00  0.00     0.064 A 
ATOM     85  C   UNL A   1      41.582  28.948  33.269  1.00  0.00     0.173 A 
ATOM     86  C   UNL A   1      42.155  30.751  34.737  1.00  0.00     0.173 A 
ATOM     87  F   UNL A   1      41.443  28.414  32.050  1.00  0.00    -0.203 F 
ATOM     88  C   UNL A   1      41.421  28.103  34.366  1.00  0.00     0.198 A 
ATOM     89  C   UNL A   1      42.027  29.898  35.831  1.00  0.00     0.198 A 
ATOM     90  F   UNL A   1      42.543  32.018  34.954  1.00  0.00    -0.203 F 
ATOM     91  F   UNL A   1      41.075  26.819  34.184  1.00  0.00    -0.200 F 
ATOM     92  C   UNL A   1      41.652  28.577  35.646  1.00  0.00     0.200 A 
ATOM     93  F   UNL A   1      42.296  30.349  37.064  1.00  0.00    -0.200 F 
ATOM     94  F   UNL A   1      41.540  27.755  36.700  1.00  0.00    -0.200 F 
ENDBRANCH  61  84
ENDBRANCH  35  36
ENDBRANCH  28  30
ENDBRANCH  27  28
ENDBRANCH  26  27
ENDBRANCH   1  26
TORSDOF 15
ENDMDL
