MODEL 1
REMARK VINA RESULT:     -11.8      0.000      0.000
REMARK SMILES C[C@@H]1[C@@H](C(=O)OCCOC(=O)c2ccc(-c3c4nc(c(-c5c(F)c(F)c(F)c(F)c5F)c5ccc([nH]5)c(-c5c(F)c(F)c(F)c(F)c5F)c5nc(c(-c6c(F)c(F)c(F)c(F)c6F)c6ccc3[nH]6)C=C5)C=C4)cc2)CCN1C(=O)[C@]1([NH3+])CCOC1
REMARK SMILES IDX 7 1 6 2 4 3 5 4 3 5 1 6 2 7 77 8 75 9 76 10 78 11 79 12
REMARK SMILES IDX 80 13 82 14 85 15 83 16 84 17 81 18 8 22 9 23 10 24 11 25
REMARK SMILES IDX 12 26 13 27 74 28 14 29 73 30 15 31 16 32 17 33 67 34 18 35
REMARK SMILES IDX 72 36 66 37 68 38 19 39 71 40 65 41 64 42 20 44 52 45 32 46
REMARK SMILES IDX 51 47 33 48 36 49 50 50 69 51 34 52 35 53 49 55 70 56 37 57
REMARK SMILES IDX 21 58 22 59 30 60 23 61 24 62 28 63 31 64 25 65 26 66 29 67
REMARK SMILES IDX 27 68 53 69 54 70 62 71 55 72 56 73 60 74 63 75 57 76 58 77
REMARK SMILES IDX 61 78 59 79 38 80 39 81 47 82 40 83 41 84 45 85 48 86 42 87
REMARK SMILES IDX 43 88 46 89 44 90
REMARK H PARENT 81 19 81 20 81 21 68 43 36 54
REMARK Flexibility Score: inf
ROOT
ATOM      1  C   UNL A   1      32.138  27.959  27.124  1.00  0.00     0.274 C 
ENDROOT
BRANCH   1   2
ATOM      2  O   UNL A   1      31.011  27.057  27.203  1.00  0.00    -0.462 OA
BRANCH   2   3
ATOM      3  C   UNL A   1      30.850  26.226  26.140  1.00  0.00     0.311 C 
ATOM      4  O   UNL A   1      29.916  26.292  25.347  1.00  0.00    -0.252 OA
BRANCH   3   5
ATOM      5  C   UNL A   1      31.859  25.093  26.119  1.00  0.00     0.123 C 
ATOM      6  C   UNL A   1      34.232  24.464  25.703  1.00  0.00     0.032 C 
ATOM      7  C   UNL A   1      33.031  25.230  25.130  1.00  0.00     0.096 C 
ATOM      8  N   UNL A   1      32.544  24.590  23.904  1.00  0.00    -0.334 N 
ATOM      9  C   UNL A   1      31.207  23.764  25.708  1.00  0.00     0.039 C 
ATOM     10  C   UNL A   1      31.554  23.579  24.237  1.00  0.00     0.121 C 
BRANCH   8  11
ATOM     11  C   UNL A   1      32.840  24.796  22.571  1.00  0.00     0.286 C 
ATOM     12  O   UNL A   1      33.419  23.886  21.949  1.00  0.00    -0.267 OA
BRANCH  11  13
ATOM     13  C   UNL A   1      32.522  26.120  21.783  1.00  0.00     0.199 C 
ATOM     14  C   UNL A   1      33.588  27.188  21.928  1.00  0.00     0.110 C 
ATOM     15  C   UNL A   1      31.226  26.807  22.192  1.00  0.00     0.239 C 
ATOM     16  C   UNL A   1      32.927  28.327  22.676  1.00  0.00     0.167 C 
ATOM     17  O   UNL A   1      31.561  27.997  22.919  1.00  0.00    -0.374 OA
BRANCH  13  18
ATOM     18  N   UNL A   1      32.462  25.750  20.329  1.00  0.00    -0.343 N 
ATOM     19  H   UNL A   1      32.822  24.804  20.204  1.00  0.00     0.345 HD
ATOM     20  H   UNL A   1      33.028  26.404  19.789  1.00  0.00     0.345 HD
ATOM     21  H   UNL A   1      31.495  25.791  20.007  1.00  0.00     0.345 HD
ENDBRANCH  13  18
ENDBRANCH  11  13
ENDBRANCH   8  11
ENDBRANCH   3   5
ENDBRANCH   2   3
ENDBRANCH   1   2
BRANCH   1  22
ATOM     22  C   UNL A   1      31.762  29.254  26.409  1.00  0.00     0.275 C 
BRANCH  22  23
ATOM     23  O   UNL A   1      32.956  29.978  26.070  1.00  0.00    -0.458 OA
BRANCH  23  24
ATOM     24  C   UNL A   1      33.299  30.984  26.908  1.00  0.00     0.338 C 
ATOM     25  O   UNL A   1      32.612  31.941  27.222  1.00  0.00    -0.246 OA
BRANCH  24  26
ATOM     26  C   UNL A   1      34.654  30.753  27.458  1.00  0.00     0.060 A 
ATOM     27  C   UNL A   1      35.165  29.465  27.606  1.00  0.00     0.016 A 
ATOM     28  C   UNL A   1      35.382  31.841  27.945  1.00  0.00     0.016 A 
ATOM     29  C   UNL A   1      36.342  29.256  28.327  1.00  0.00     0.010 A 
ATOM     30  C   UNL A   1      36.607  31.633  28.590  1.00  0.00     0.010 A 
ATOM     31  C   UNL A   1      37.082  30.333  28.832  1.00  0.00    -0.014 A 
BRANCH  31  32
ATOM     32  C   UNL A   1      38.303  30.112  29.662  1.00  0.00     0.031 A 
ATOM     33  C   UNL A   1      39.452  29.305  29.111  1.00  0.00     0.074 A 
ATOM     34  C   UNL A   1      38.417  30.633  30.900  1.00  0.00     0.049 A 
ATOM     35  N   UNL A   1      40.454  28.749  29.745  1.00  0.00    -0.248 NA
ATOM     36  C   UNL A   1      39.464  29.075  27.658  1.00  0.00     0.031 C 
ATOM     37  C   UNL A   1      37.434  31.495  31.557  1.00  0.00     0.029 A 
ATOM     38  N   UNL A   1      39.426  30.521  31.828  1.00  0.00    -0.354 N 
ATOM     39  C   UNL A   1      41.157  28.029  28.788  1.00  0.00     0.074 A 
ATOM     40  C   UNL A   1      40.484  28.239  27.523  1.00  0.00     0.031 C 
ATOM     41  C   UNL A   1      37.913  31.882  32.749  1.00  0.00     0.029 A 
ATOM     42  C   UNL A   1      39.183  31.207  32.992  1.00  0.00     0.049 A 
ATOM     43  H   UNL A   1      40.245  29.998  31.671  1.00  0.00     0.167 HD
ATOM     44  C   UNL A   1      42.258  27.257  28.955  1.00  0.00     0.037 A 
ATOM     45  C   UNL A   1      39.873  31.250  34.148  1.00  0.00     0.037 A 
ATOM     46  C   UNL A   1      42.986  27.134  30.191  1.00  0.00     0.049 A 
ATOM     47  C   UNL A   1      41.100  30.400  34.310  1.00  0.00     0.074 A 
ATOM     48  C   UNL A   1      44.110  26.372  30.463  1.00  0.00     0.029 A 
ATOM     49  N   UNL A   1      42.688  27.830  31.353  1.00  0.00    -0.354 N 
ATOM     50  N   UNL A   1      41.670  29.600  33.444  1.00  0.00    -0.248 NA
ATOM     51  C   UNL A   1      41.754  30.427  35.625  1.00  0.00     0.031 C 
ATOM     52  C   UNL A   1      44.487  26.599  31.792  1.00  0.00     0.029 A 
ATOM     53  C   UNL A   1      43.612  27.523  32.338  1.00  0.00     0.049 A 
ATOM     54  H   UNL A   1      41.931  28.450  31.460  1.00  0.00     0.167 HD
ATOM     55  C   UNL A   1      42.740  29.021  34.109  1.00  0.00     0.074 A 
ATOM     56  C   UNL A   1      42.762  29.585  35.442  1.00  0.00     0.031 C 
ATOM     57  C   UNL A   1      43.617  28.090  33.660  1.00  0.00     0.037 A 
BRANCH  44  58
ATOM     58  C   UNL A   1      42.731  26.447  27.784  1.00  0.00     0.064 A 
ATOM     59  C   UNL A   1      42.196  25.189  27.483  1.00  0.00     0.173 A 
ATOM     60  C   UNL A   1      43.694  26.979  26.911  1.00  0.00     0.173 A 
ATOM     61  F   UNL A   1      41.281  24.633  28.291  1.00  0.00    -0.203 F 
ATOM     62  C   UNL A   1      42.617  24.485  26.356  1.00  0.00     0.198 A 
ATOM     63  C   UNL A   1      44.095  26.285  25.773  1.00  0.00     0.198 A 
ATOM     64  F   UNL A   1      44.231  28.186  27.151  1.00  0.00    -0.203 F 
ATOM     65  F   UNL A   1      42.113  23.270  26.099  1.00  0.00    -0.200 F 
ATOM     66  C   UNL A   1      43.558  25.037  25.499  1.00  0.00     0.200 A 
ATOM     67  F   UNL A   1      44.993  26.827  24.940  1.00  0.00    -0.200 F 
ATOM     68  F   UNL A   1      43.949  24.365  24.407  1.00  0.00    -0.200 F 
ENDBRANCH  44  58
BRANCH  45  69
ATOM     69  C   UNL A   1      39.378  32.094  35.267  1.00  0.00     0.064 A 
ATOM     70  C   UNL A   1      38.534  31.559  36.248  1.00  0.00     0.173 A 
ATOM     71  C   UNL A   1      39.755  33.439  35.388  1.00  0.00     0.173 A 
ATOM     72  F   UNL A   1      38.121  30.286  36.156  1.00  0.00    -0.203 F 
ATOM     73  C   UNL A   1      38.086  32.339  37.312  1.00  0.00     0.198 A 
ATOM     74  C   UNL A   1      39.330  34.210  36.468  1.00  0.00     0.198 A 
ATOM     75  F   UNL A   1      40.558  33.998  34.470  1.00  0.00    -0.203 F 
ATOM     76  F   UNL A   1      37.255  31.814  38.222  1.00  0.00    -0.200 F 
ATOM     77  C   UNL A   1      38.494  33.660  37.427  1.00  0.00     0.200 A 
ATOM     78  F   UNL A   1      39.738  35.481  36.582  1.00  0.00    -0.200 F 
ATOM     79  F   UNL A   1      38.077  34.405  38.460  1.00  0.00    -0.200 F 
ENDBRANCH  45  69
BRANCH  57  80
ATOM     80  C   UNL A   1      44.674  27.635  34.619  1.00  0.00     0.064 A 
ATOM     81  C   UNL A   1      45.900  28.307  34.720  1.00  0.00     0.173 A 
ATOM     82  C   UNL A   1      44.451  26.531  35.454  1.00  0.00     0.173 A 
ATOM     83  F   UNL A   1      46.163  29.357  33.928  1.00  0.00    -0.203 F 
ATOM     84  C   UNL A   1      46.878  27.876  35.612  1.00  0.00     0.198 A 
ATOM     85  C   UNL A   1      45.425  26.114  36.358  1.00  0.00     0.198 A 
ATOM     86  F   UNL A   1      43.293  25.860  35.392  1.00  0.00    -0.203 F 
ATOM     87  F   UNL A   1      48.059  28.507  35.667  1.00  0.00    -0.200 F 
ATOM     88  C   UNL A   1      46.638  26.782  36.432  1.00  0.00     0.200 A 
ATOM     89  F   UNL A   1      45.191  25.060  37.152  1.00  0.00    -0.200 F 
ATOM     90  F   UNL A   1      47.581  26.366  37.288  1.00  0.00    -0.200 F 
ENDBRANCH  57  80
ENDBRANCH  31  32
ENDBRANCH  24  26
ENDBRANCH  23  24
ENDBRANCH  22  23
ENDBRANCH   1  22
TORSDOF 14
ENDMDL
MODEL 2
REMARK VINA RESULT:     -11.8      0.945      2.321
REMARK SMILES C[C@@H]1[C@@H](C(=O)OCCOC(=O)c2ccc(-c3c4nc(c(-c5c(F)c(F)c(F)c(F)c5F)c5ccc([nH]5)c(-c5c(F)c(F)c(F)c(F)c5F)c5nc(c(-c6c(F)c(F)c(F)c(F)c6F)c6ccc3[nH]6)C=C5)C=C4)cc2)CCN1C(=O)[C@]1([NH3+])CCOC1
REMARK SMILES IDX 7 1 6 2 4 3 5 4 3 5 1 6 2 7 77 8 75 9 76 10 78 11 79 12
REMARK SMILES IDX 80 13 82 14 85 15 83 16 84 17 81 18 8 22 9 23 10 24 11 25
REMARK SMILES IDX 12 26 13 27 74 28 14 29 73 30 15 31 16 32 17 33 67 34 18 35
REMARK SMILES IDX 72 36 66 37 68 38 19 39 71 40 65 41 64 42 20 44 52 45 32 46
REMARK SMILES IDX 51 47 33 48 36 49 50 50 69 51 34 52 35 53 49 55 70 56 37 57
REMARK SMILES IDX 21 58 22 59 30 60 23 61 24 62 28 63 31 64 25 65 26 66 29 67
REMARK SMILES IDX 27 68 53 69 54 70 62 71 55 72 56 73 60 74 63 75 57 76 58 77
REMARK SMILES IDX 61 78 59 79 38 80 39 81 47 82 40 83 41 84 45 85 48 86 42 87
REMARK SMILES IDX 43 88 46 89 44 90
REMARK H PARENT 81 19 81 20 81 21 68 43 36 54
REMARK Flexibility Score: inf
ROOT
ATOM      1  C   UNL A   1      31.733  28.537  27.179  1.00  0.00     0.274 C 
ENDROOT
BRANCH   1   2
ATOM      2  O   UNL A   1      32.284  27.298  26.677  1.00  0.00    -0.462 OA
BRANCH   2   3
ATOM      3  C   UNL A   1      31.627  26.750  25.621  1.00  0.00     0.311 C 
ATOM      4  O   UNL A   1      30.446  26.421  25.639  1.00  0.00    -0.252 OA
BRANCH   3   5
ATOM      5  C   UNL A   1      32.545  26.430  24.456  1.00  0.00     0.123 C 
ATOM      6  C   UNL A   1      32.802  25.155  22.333  1.00  0.00     0.032 C 
ATOM      7  C   UNL A   1      32.379  25.045  23.806  1.00  0.00     0.096 C 
ATOM      8  N   UNL A   1      33.305  24.185  24.548  1.00  0.00    -0.334 N 
ATOM      9  C   UNL A   1      34.022  26.443  24.882  1.00  0.00     0.039 C 
ATOM     10  C   UNL A   1      34.401  24.981  25.075  1.00  0.00     0.121 C 
BRANCH   8  11
ATOM     11  C   UNL A   1      33.291  22.833  24.829  1.00  0.00     0.286 C 
ATOM     12  O   UNL A   1      33.993  22.079  24.130  1.00  0.00    -0.267 OA
BRANCH  11  13
ATOM     13  C   UNL A   1      32.421  22.166  25.958  1.00  0.00     0.199 C 
ATOM     14  C   UNL A   1      30.931  22.193  25.676  1.00  0.00     0.110 C 
ATOM     15  C   UNL A   1      32.568  22.805  27.333  1.00  0.00     0.239 C 
ATOM     16  C   UNL A   1      30.329  23.087  26.740  1.00  0.00     0.167 C 
ATOM     17  O   UNL A   1      31.361  23.526  27.622  1.00  0.00    -0.374 OA
BRANCH  13  18
ATOM     18  N   UNL A   1      32.833  20.725  26.023  1.00  0.00    -0.343 N 
ATOM     19  H   UNL A   1      32.011  20.131  25.919  1.00  0.00     0.345 HD
ATOM     20  H   UNL A   1      33.276  20.538  26.923  1.00  0.00     0.345 HD
ATOM     21  H   UNL A   1      33.494  20.526  25.272  1.00  0.00     0.345 HD
ENDBRANCH  13  18
ENDBRANCH  11  13
ENDBRANCH   8  11
ENDBRANCH   3   5
ENDBRANCH   2   3
ENDBRANCH   1   2
BRANCH   1  22
ATOM     22  C   UNL A   1      31.720  29.615  26.099  1.00  0.00     0.275 C 
BRANCH  22  23
ATOM     23  O   UNL A   1      33.029  30.197  25.987  1.00  0.00    -0.458 OA
BRANCH  23  24
ATOM     24  C   UNL A   1      33.347  31.128  26.917  1.00  0.00     0.338 C 
ATOM     25  O   UNL A   1      32.645  32.049  27.299  1.00  0.00    -0.246 OA
BRANCH  24  26
ATOM     26  C   UNL A   1      34.692  30.860  27.472  1.00  0.00     0.060 A 
ATOM     27  C   UNL A   1      35.150  29.557  27.663  1.00  0.00     0.016 A 
ATOM     28  C   UNL A   1      35.466  31.933  27.921  1.00  0.00     0.016 A 
ATOM     29  C   UNL A   1      36.319  29.324  28.389  1.00  0.00     0.010 A 
ATOM     30  C   UNL A   1      36.683  31.696  28.571  1.00  0.00     0.010 A 
ATOM     31  C   UNL A   1      37.104  30.387  28.856  1.00  0.00    -0.014 A 
BRANCH  31  32
ATOM     32  C   UNL A   1      38.317  30.143  29.692  1.00  0.00     0.031 A 
ATOM     33  C   UNL A   1      39.460  29.327  29.140  1.00  0.00     0.074 A 
ATOM     34  C   UNL A   1      38.430  30.652  30.935  1.00  0.00     0.049 A 
ATOM     35  N   UNL A   1      40.451  28.753  29.776  1.00  0.00    -0.248 NA
ATOM     36  C   UNL A   1      39.477  29.110  27.685  1.00  0.00     0.031 C 
ATOM     37  C   UNL A   1      37.454  31.519  31.593  1.00  0.00     0.029 A 
ATOM     38  N   UNL A   1      39.432  30.519  31.868  1.00  0.00    -0.354 N 
ATOM     39  C   UNL A   1      41.152  28.033  28.816  1.00  0.00     0.074 A 
ATOM     40  C   UNL A   1      40.488  28.262  27.549  1.00  0.00     0.031 C 
ATOM     41  C   UNL A   1      37.930  31.890  32.792  1.00  0.00     0.029 A 
ATOM     42  C   UNL A   1      39.190  31.198  33.036  1.00  0.00     0.049 A 
ATOM     43  H   UNL A   1      40.246  29.987  31.711  1.00  0.00     0.167 HD
ATOM     44  C   UNL A   1      42.241  27.245  28.983  1.00  0.00     0.037 A 
ATOM     45  C   UNL A   1      39.874  31.222  34.197  1.00  0.00     0.037 A 
ATOM     46  C   UNL A   1      42.961  27.103  30.222  1.00  0.00     0.049 A 
ATOM     47  C   UNL A   1      41.089  30.355  34.358  1.00  0.00     0.074 A 
ATOM     48  C   UNL A   1      44.074  26.324  30.494  1.00  0.00     0.029 A 
ATOM     49  N   UNL A   1      42.663  27.792  31.388  1.00  0.00    -0.354 N 
ATOM     50  N   UNL A   1      41.655  29.556  33.489  1.00  0.00    -0.248 NA
ATOM     51  C   UNL A   1      41.736  30.363  35.678  1.00  0.00     0.031 C 
ATOM     52  C   UNL A   1      44.445  26.535  31.827  1.00  0.00     0.029 A 
ATOM     53  C   UNL A   1      43.578  27.465  32.376  1.00  0.00     0.049 A 
ATOM     54  H   UNL A   1      41.914  28.420  31.496  1.00  0.00     0.167 HD
ATOM     55  C   UNL A   1      42.714  28.958  34.155  1.00  0.00     0.074 A 
ATOM     56  C   UNL A   1      42.734  29.510  35.493  1.00  0.00     0.031 C 
ATOM     57  C   UNL A   1      43.581  28.021  33.703  1.00  0.00     0.037 A 
BRANCH  44  58
ATOM     58  C   UNL A   1      42.712  26.441  27.807  1.00  0.00     0.064 A 
ATOM     59  C   UNL A   1      42.175  25.183  27.503  1.00  0.00     0.173 A 
ATOM     60  C   UNL A   1      43.673  26.976  26.935  1.00  0.00     0.173 A 
ATOM     61  F   UNL A   1      41.262  24.624  28.310  1.00  0.00    -0.203 F 
ATOM     62  C   UNL A   1      42.593  24.484  26.372  1.00  0.00     0.198 A 
ATOM     63  C   UNL A   1      44.071  26.286  25.793  1.00  0.00     0.198 A 
ATOM     64  F   UNL A   1      44.211  28.182  27.178  1.00  0.00    -0.203 F 
ATOM     65  F   UNL A   1      42.089  23.270  26.112  1.00  0.00    -0.200 F 
ATOM     66  C   UNL A   1      43.533  25.039  25.515  1.00  0.00     0.200 A 
ATOM     67  F   UNL A   1      44.967  26.831  24.960  1.00  0.00    -0.200 F 
ATOM     68  F   UNL A   1      43.922  24.371  24.420  1.00  0.00    -0.200 F 
ENDBRANCH  44  58
BRANCH  45  69
ATOM     69  C   UNL A   1      39.383  32.062  35.320  1.00  0.00     0.064 A 
ATOM     70  C   UNL A   1      38.546  31.522  36.305  1.00  0.00     0.173 A 
ATOM     71  C   UNL A   1      39.756  33.408  35.441  1.00  0.00     0.173 A 
ATOM     72  F   UNL A   1      38.138  30.248  36.213  1.00  0.00    -0.203 F 
ATOM     73  C   UNL A   1      38.102  32.299  37.373  1.00  0.00     0.198 A 
ATOM     74  C   UNL A   1      39.335  34.175  36.525  1.00  0.00     0.198 A 
ATOM     75  F   UNL A   1      40.551  33.972  34.520  1.00  0.00    -0.203 F 
ATOM     76  F   UNL A   1      37.278  31.769  38.287  1.00  0.00    -0.200 F 
ATOM     77  C   UNL A   1      38.506  33.621  37.488  1.00  0.00     0.200 A 
ATOM     78  F   UNL A   1      39.738  35.447  36.639  1.00  0.00    -0.200 F 
ATOM     79  F   UNL A   1      38.092  34.363  38.524  1.00  0.00    -0.200 F 
ENDBRANCH  45  69
BRANCH  57  80
ATOM     80  C   UNL A   1      44.627  27.544  34.664  1.00  0.00     0.064 A 
ATOM     81  C   UNL A   1      44.408  26.424  35.478  1.00  0.00     0.173 A 
ATOM     82  C   UNL A   1      45.862  28.200  34.757  1.00  0.00     0.173 A 
ATOM     83  F   UNL A   1      43.235  25.776  35.435  1.00  0.00    -0.203 F 
ATOM     84  C   UNL A   1      45.385  25.989  36.370  1.00  0.00     0.198 A 
ATOM     85  C   UNL A   1      46.843  27.751  35.637  1.00  0.00     0.198 A 
ATOM     86  F   UNL A   1      46.116  29.275  33.996  1.00  0.00    -0.203 F 
ATOM     87  F   UNL A   1      45.142  24.940  37.168  1.00  0.00    -0.200 F 
ATOM     88  C   UNL A   1      46.602  26.651  36.446  1.00  0.00     0.200 A 
ATOM     89  F   UNL A   1      48.020  28.389  35.708  1.00  0.00    -0.200 F 
ATOM     90  F   UNL A   1      47.539  26.234  37.307  1.00  0.00    -0.200 F 
ENDBRANCH  57  80
ENDBRANCH  31  32
ENDBRANCH  24  26
ENDBRANCH  23  24
ENDBRANCH  22  23
ENDBRANCH   1  22
TORSDOF 14
ENDMDL
MODEL 3
REMARK VINA RESULT:     -11.8      4.882     10.052
REMARK SMILES C[C@@H]1[C@@H](C(=O)OCCOC(=O)c2ccc(-c3c4nc(c(-c5c(F)c(F)c(F)c(F)c5F)c5ccc([nH]5)c(-c5c(F)c(F)c(F)c(F)c5F)c5nc(c(-c6c(F)c(F)c(F)c(F)c6F)c6ccc3[nH]6)C=C5)C=C4)cc2)CCN1C(=O)[C@]1([NH3+])CCOC1
REMARK SMILES IDX 7 1 6 2 4 3 5 4 3 5 1 6 2 7 77 8 75 9 76 10 78 11 79 12
REMARK SMILES IDX 80 13 82 14 85 15 83 16 84 17 81 18 8 22 9 23 10 24 11 25
REMARK SMILES IDX 12 26 13 27 74 28 14 29 73 30 15 31 16 32 17 33 67 34 18 35
REMARK SMILES IDX 72 36 66 37 68 38 19 39 71 40 65 41 64 42 20 44 52 45 32 46
REMARK SMILES IDX 51 47 33 48 36 49 50 50 69 51 34 52 35 53 49 55 70 56 37 57
REMARK SMILES IDX 21 58 22 59 30 60 23 61 24 62 28 63 31 64 25 65 26 66 29 67
REMARK SMILES IDX 27 68 53 69 54 70 62 71 55 72 56 73 60 74 63 75 57 76 58 77
REMARK SMILES IDX 61 78 59 79 38 80 39 81 47 82 40 83 41 84 45 85 48 86 42 87
REMARK SMILES IDX 43 88 46 89 44 90
REMARK H PARENT 81 19 81 20 81 21 68 43 36 54
REMARK Flexibility Score: inf
ROOT
ATOM      1  C   UNL A   1      36.804  22.125  23.923  1.00  0.00     0.274 C 
ENDROOT
BRANCH   1   2
ATOM      2  O   UNL A   1      35.406  22.100  24.296  1.00  0.00    -0.462 OA
BRANCH   2   3
ATOM      3  C   UNL A   1      34.591  22.907  23.567  1.00  0.00     0.311 C 
ATOM      4  O   UNL A   1      34.986  23.807  22.835  1.00  0.00    -0.252 OA
BRANCH   3   5
ATOM      5  C   UNL A   1      33.121  22.690  23.873  1.00  0.00     0.123 C 
ATOM      6  C   UNL A   1      31.478  21.657  25.434  1.00  0.00     0.032 C 
ATOM      7  C   UNL A   1      32.754  21.395  24.620  1.00  0.00     0.096 C 
ATOM      8  N   UNL A   1      32.498  20.424  23.552  1.00  0.00    -0.334 N 
ATOM      9  C   UNL A   1      32.284  22.603  22.587  1.00  0.00     0.039 C 
ATOM     10  C   UNL A   1      32.052  21.116  22.354  1.00  0.00     0.121 C 
BRANCH   8  11
ATOM     11  C   UNL A   1      32.626  19.050  23.499  1.00  0.00     0.286 C 
ATOM     12  O   UNL A   1      32.012  18.435  22.607  1.00  0.00    -0.267 OA
BRANCH  11  13
ATOM     13  C   UNL A   1      33.475  18.195  24.511  1.00  0.00     0.199 C 
ATOM     14  C   UNL A   1      33.933  16.863  23.949  1.00  0.00     0.110 C 
ATOM     15  C   UNL A   1      32.756  17.844  25.807  1.00  0.00     0.239 C 
ATOM     16  C   UNL A   1      33.222  15.807  24.770  1.00  0.00     0.167 C 
ATOM     17  O   UNL A   1      32.437  16.445  25.777  1.00  0.00    -0.374 OA
BRANCH  13  18
ATOM     18  N   UNL A   1      34.709  18.993  24.817  1.00  0.00    -0.343 N 
ATOM     19  H   UNL A   1      35.244  18.524  25.548  1.00  0.00     0.345 HD
ATOM     20  H   UNL A   1      34.441  19.924  25.136  1.00  0.00     0.345 HD
ATOM     21  H   UNL A   1      35.280  19.073  23.976  1.00  0.00     0.345 HD
ENDBRANCH  13  18
ENDBRANCH  11  13
ENDBRANCH   8  11
ENDBRANCH   3   5
ENDBRANCH   2   3
ENDBRANCH   1   2
BRANCH   1  22
ATOM     22  C   UNL A   1      37.592  21.045  24.658  1.00  0.00     0.275 C 
BRANCH  22  23
ATOM     23  O   UNL A   1      37.965  21.527  25.959  1.00  0.00    -0.458 OA
BRANCH  23  24
ATOM     24  C   UNL A   1      39.268  21.376  26.297  1.00  0.00     0.338 C 
ATOM     25  O   UNL A   1      39.944  20.369  26.174  1.00  0.00    -0.246 OA
BRANCH  24  26
ATOM     26  C   UNL A   1      39.812  22.649  26.821  1.00  0.00     0.060 A 
ATOM     27  C   UNL A   1      39.347  23.879  26.360  1.00  0.00     0.016 A 
ATOM     28  C   UNL A   1      40.893  22.611  27.705  1.00  0.00     0.016 A 
ATOM     29  C   UNL A   1      40.021  25.055  26.696  1.00  0.00     0.010 A 
ATOM     30  C   UNL A   1      41.510  23.800  28.110  1.00  0.00     0.010 A 
ATOM     31  C   UNL A   1      41.112  25.036  27.574  1.00  0.00    -0.014 A 
BRANCH  31  32
ATOM     32  C   UNL A   1      41.878  26.280  27.881  1.00  0.00     0.031 A 
ATOM     33  C   UNL A   1      41.268  27.342  28.762  1.00  0.00     0.074 A 
ATOM     34  C   UNL A   1      43.123  26.477  27.403  1.00  0.00     0.049 A 
ATOM     35  N   UNL A   1      41.618  28.596  28.913  1.00  0.00    -0.248 NA
ATOM     36  C   UNL A   1      40.098  26.948  29.561  1.00  0.00     0.031 C 
ATOM     37  C   UNL A   1      43.888  25.525  26.598  1.00  0.00     0.029 A 
ATOM     38  N   UNL A   1      43.973  27.551  27.537  1.00  0.00    -0.354 N 
ATOM     39  C   UNL A   1      40.659  29.160  29.745  1.00  0.00     0.074 A 
ATOM     40  C   UNL A   1      39.726  28.107  30.089  1.00  0.00     0.031 C 
ATOM     41  C   UNL A   1      45.111  26.028  26.363  1.00  0.00     0.029 A 
ATOM     42  C   UNL A   1      45.178  27.381  26.901  1.00  0.00     0.049 A 
ATOM     43  H   UNL A   1      43.738  28.363  28.041  1.00  0.00     0.167 HD
ATOM     44  C   UNL A   1      40.564  30.443  30.171  1.00  0.00     0.037 A 
ATOM     45  C   UNL A   1      46.205  28.234  26.721  1.00  0.00     0.037 A 
ATOM     46  C   UNL A   1      41.548  31.461  29.914  1.00  0.00     0.049 A 
ATOM     47  C   UNL A   1      46.089  29.647  27.216  1.00  0.00     0.074 A 
ATOM     48  C   UNL A   1      41.540  32.792  30.299  1.00  0.00     0.029 A 
ATOM     49  N   UNL A   1      42.743  31.249  29.244  1.00  0.00    -0.354 N 
ATOM     50  N   UNL A   1      45.107  30.215  27.869  1.00  0.00    -0.248 NA
ATOM     51  C   UNL A   1      47.208  30.549  26.910  1.00  0.00     0.031 C 
ATOM     52  C   UNL A   1      42.725  33.388  29.853  1.00  0.00     0.029 A 
ATOM     53  C   UNL A   1      43.483  32.420  29.215  1.00  0.00     0.049 A 
ATOM     54  H   UNL A   1      43.024  30.393  28.848  1.00  0.00     0.167 HD
ATOM     55  C   UNL A   1      45.480  31.539  28.043  1.00  0.00     0.074 A 
ATOM     56  C   UNL A   1      46.796  31.685  27.455  1.00  0.00     0.031 C 
ATOM     57  C   UNL A   1      44.788  32.549  28.622  1.00  0.00     0.037 A 
BRANCH  44  58
ATOM     58  C   UNL A   1      39.334  30.838  30.934  1.00  0.00     0.064 A 
ATOM     59  C   UNL A   1      38.183  31.315  30.296  1.00  0.00     0.173 A 
ATOM     60  C   UNL A   1      39.293  30.670  32.328  1.00  0.00     0.173 A 
ATOM     61  F   UNL A   1      38.174  31.503  28.968  1.00  0.00    -0.203 F 
ATOM     62  C   UNL A   1      37.037  31.622  31.027  1.00  0.00     0.198 A 
ATOM     63  C   UNL A   1      38.139  30.954  33.053  1.00  0.00     0.198 A 
ATOM     64  F   UNL A   1      40.368  30.207  32.985  1.00  0.00    -0.203 F 
ATOM     65  F   UNL A   1      35.953  32.103  30.402  1.00  0.00    -0.200 F 
ATOM     66  C   UNL A   1      37.013  31.433  32.402  1.00  0.00     0.200 A 
ATOM     67  F   UNL A   1      38.115  30.757  34.377  1.00  0.00    -0.200 F 
ATOM     68  F   UNL A   1      35.905  31.714  33.101  1.00  0.00    -0.200 F 
ENDBRANCH  44  58
BRANCH  45  69
ATOM     69  C   UNL A   1      47.415  27.782  25.987  1.00  0.00     0.064 A 
ATOM     70  C   UNL A   1      47.442  27.779  24.586  1.00  0.00     0.173 A 
ATOM     71  C   UNL A   1      48.569  27.366  26.667  1.00  0.00     0.173 A 
ATOM     72  F   UNL A   1      46.351  28.138  23.894  1.00  0.00    -0.203 F 
ATOM     73  C   UNL A   1      48.582  27.378  23.892  1.00  0.00     0.198 A 
ATOM     74  C   UNL A   1      49.717  26.994  25.972  1.00  0.00     0.198 A 
ATOM     75  F   UNL A   1      48.589  27.347  28.007  1.00  0.00    -0.203 F 
ATOM     76  F   UNL A   1      48.575  27.355  22.553  1.00  0.00    -0.200 F 
ATOM     77  C   UNL A   1      49.722  26.997  24.585  1.00  0.00     0.200 A 
ATOM     78  F   UNL A   1      50.819  26.640  26.646  1.00  0.00    -0.200 F 
ATOM     79  F   UNL A   1      50.823  26.628  23.918  1.00  0.00    -0.200 F 
ENDBRANCH  45  69
BRANCH  57  80
ATOM     80  C   UNL A   1      45.446  33.894  28.654  1.00  0.00     0.064 A 
ATOM     81  C   UNL A   1      45.235  34.830  27.631  1.00  0.00     0.173 A 
ATOM     82  C   UNL A   1      46.279  34.256  29.722  1.00  0.00     0.173 A 
ATOM     83  F   UNL A   1      44.460  34.520  26.581  1.00  0.00    -0.203 F 
ATOM     84  C   UNL A   1      45.853  36.077  27.667  1.00  0.00     0.198 A 
ATOM     85  C   UNL A   1      46.880  35.510  29.763  1.00  0.00     0.198 A 
ATOM     86  F   UNL A   1      46.508  33.393  30.722  1.00  0.00    -0.203 F 
ATOM     87  F   UNL A   1      45.670  36.943  26.661  1.00  0.00    -0.200 F 
ATOM     88  C   UNL A   1      46.672  36.417  28.734  1.00  0.00     0.200 A 
ATOM     89  F   UNL A   1      47.669  35.840  30.796  1.00  0.00    -0.200 F 
ATOM     90  F   UNL A   1      47.269  37.616  28.766  1.00  0.00    -0.200 F 
ENDBRANCH  57  80
ENDBRANCH  31  32
ENDBRANCH  24  26
ENDBRANCH  23  24
ENDBRANCH  22  23
ENDBRANCH   1  22
TORSDOF 14
ENDMDL
