MODEL 1
REMARK VINA RESULT:     -12.1      0.000      0.000
REMARK SMILES CN1C(=O)[C@H](CC(=O)OCCOC(=O)c2ccc(-c3c4nc(c(-c5c(F)c(F)c(F)c(F)c5F)c5ccc([nH]5)c(-c5c(F)c(F)c(F)c(F)c5F)c5nc(c(-c6c(F)c(F)c(F)c(F)c6F)c6ccc3[nH]6)C=C5)C=C4)cc2)S/C1=[NH+]\N=C\c1ccc(O)cc1O
REMARK SMILES IDX 10 1 9 2 7 3 8 4 6 5 5 6 1 7 2 8 3 9 79 10 4 11 78 12 80 13
REMARK SMILES IDX 81 15 82 16 83 17 84 18 89 19 85 20 88 21 86 22 90 23 87 25
REMARK SMILES IDX 11 27 12 28 13 29 14 30 15 31 16 32 77 33 17 34 76 35 18 36
REMARK SMILES IDX 19 37 20 38 70 39 21 40 75 41 69 42 71 43 22 44 74 45 68 46
REMARK SMILES IDX 67 47 23 49 55 50 35 51 54 52 36 53 39 54 53 55 72 56 37 57
REMARK SMILES IDX 38 58 52 60 73 61 40 62 24 63 25 64 33 65 26 66 27 67 31 68
REMARK SMILES IDX 34 69 28 70 29 71 32 72 30 73 56 74 57 75 65 76 58 77 59 78
REMARK SMILES IDX 63 79 66 80 60 81 61 82 64 83 62 84 41 85 42 86 50 87 43 88
REMARK SMILES IDX 44 89 48 90 51 91 45 92 46 93 49 94 47 95
REMARK H PARENT 80 14 90 24 87 26 71 48 39 59
REMARK Flexibility Score: inf
ROOT
ATOM      1  C   UNL A   1      32.200  30.823  26.894  1.00  0.00     0.274 C 
ENDROOT
BRANCH   1   2
ATOM      2  O   UNL A   1      33.602  30.662  26.600  1.00  0.00    -0.462 OA
BRANCH   2   3
ATOM      3  C   UNL A   1      34.148  29.472  26.947  1.00  0.00     0.307 C 
ATOM      4  O   UNL A   1      35.154  29.337  27.636  1.00  0.00    -0.252 OA
BRANCH   3   5
ATOM      5  C   UNL A   1      33.442  28.287  26.344  1.00  0.00     0.150 C 
BRANCH   5   6
ATOM      6  C   UNL A   1      33.818  27.957  24.896  1.00  0.00     0.185 C 
ATOM      7  C   UNL A   1      31.670  24.991  24.076  1.00  0.00     0.301 C 
ATOM      8  N   UNL A   1      32.292  26.296  24.103  1.00  0.00    -0.191 N 
ATOM      9  C   UNL A   1      33.516  26.487  24.705  1.00  0.00     0.324 C 
ATOM     10  C   UNL A   1      31.730  27.376  23.477  1.00  0.00     0.339 C 
ATOM     11  O   UNL A   1      34.241  25.598  25.139  1.00  0.00    -0.245 OA
ATOM     12  S   UNL A   1      32.731  28.791  23.686  1.00  0.00    -0.020 SA
ATOM     13  N   UNL A   1      30.610  27.302  22.828  1.00  0.00    -0.142 N 
ATOM     14  H   UNL A   1      30.053  26.491  22.829  1.00  0.00     0.343 HD
BRANCH  13  15
ATOM     15  N   UNL A   1      30.254  28.453  22.131  1.00  0.00    -0.093 NA
ATOM     16  C   UNL A   1      29.524  29.243  22.854  1.00  0.00     0.170 C 
BRANCH  16  17
ATOM     17  C   UNL A   1      28.931  30.470  22.286  1.00  0.00     0.039 A 
ATOM     18  C   UNL A   1      28.338  30.394  21.020  1.00  0.00     0.017 A 
ATOM     19  C   UNL A   1      28.984  31.700  22.955  1.00  0.00     0.128 A 
ATOM     20  C   UNL A   1      27.798  31.543  20.438  1.00  0.00     0.047 A 
ATOM     21  C   UNL A   1      28.455  32.849  22.368  1.00  0.00     0.093 A 
ATOM     22  C   UNL A   1      27.862  32.758  21.113  1.00  0.00     0.119 A 
BRANCH  19  23
ATOM     23  O   UNL A   1      29.560  31.859  24.187  1.00  0.00    -0.507 OA
ATOM     24  H   UNL A   1      30.202  31.246  24.487  1.00  0.00     0.293 HD
ENDBRANCH  19  23
BRANCH  22  25
ATOM     25  O   UNL A   1      27.327  33.852  20.500  1.00  0.00    -0.508 OA
ATOM     26  H   UNL A   1      27.562  34.056  19.616  1.00  0.00     0.293 HD
ENDBRANCH  22  25
ENDBRANCH  16  17
ENDBRANCH  13  15
ENDBRANCH   5   6
ENDBRANCH   3   5
ENDBRANCH   2   3
ENDBRANCH   1   2
BRANCH   1  27
ATOM     27  C   UNL A   1      31.801  32.299  27.022  1.00  0.00     0.275 C 
BRANCH  27  28
ATOM     28  O   UNL A   1      32.921  33.190  26.860  1.00  0.00    -0.458 OA
BRANCH  28  29
ATOM     29  C   UNL A   1      33.298  33.845  27.983  1.00  0.00     0.338 C 
ATOM     30  O   UNL A   1      32.695  34.744  28.544  1.00  0.00    -0.246 OA
BRANCH  29  31
ATOM     31  C   UNL A   1      34.496  33.212  28.561  1.00  0.00     0.060 A 
ATOM     32  C   UNL A   1      34.317  32.341  29.639  1.00  0.00     0.016 A 
ATOM     33  C   UNL A   1      35.780  33.525  28.113  1.00  0.00     0.016 A 
ATOM     34  C   UNL A   1      35.417  31.777  30.278  1.00  0.00     0.010 A 
ATOM     35  C   UNL A   1      36.887  32.960  28.756  1.00  0.00     0.010 A 
ATOM     36  C   UNL A   1      36.710  32.090  29.847  1.00  0.00    -0.014 A 
BRANCH  36  37
ATOM     37  C   UNL A   1      37.872  31.535  30.579  1.00  0.00     0.031 A 
ATOM     38  C   UNL A   1      38.763  30.528  29.915  1.00  0.00     0.074 A 
ATOM     39  C   UNL A   1      38.146  31.965  31.824  1.00  0.00     0.049 A 
ATOM     40  N   UNL A   1      39.780  29.869  30.406  1.00  0.00    -0.248 NA
ATOM     41  C   UNL A   1      38.467  30.220  28.506  1.00  0.00     0.031 C 
ATOM     42  C   UNL A   1      37.384  32.980  32.550  1.00  0.00     0.029 A 
ATOM     43  N   UNL A   1      39.140  31.600  32.697  1.00  0.00    -0.354 N 
ATOM     44  C   UNL A   1      40.237  29.058  29.377  1.00  0.00     0.074 A 
ATOM     45  C   UNL A   1      39.377  29.296  28.236  1.00  0.00     0.031 C 
ATOM     46  C   UNL A   1      37.934  33.153  33.763  1.00  0.00     0.029 A 
ATOM     47  C   UNL A   1      39.058  32.233  33.913  1.00  0.00     0.049 A 
ATOM     48  H   UNL A   1      39.842  30.948  32.474  1.00  0.00     0.167 HD
ATOM     49  C   UNL A   1      41.284  28.199  29.384  1.00  0.00     0.037 A 
ATOM     50  C   UNL A   1      39.792  32.066  35.029  1.00  0.00     0.037 A 
ATOM     51  C   UNL A   1      42.144  27.976  30.518  1.00  0.00     0.049 A 
ATOM     52  C   UNL A   1      40.913  31.063  35.029  1.00  0.00     0.074 A 
ATOM     53  C   UNL A   1      43.231  27.124  30.625  1.00  0.00     0.029 A 
ATOM     54  N   UNL A   1      42.015  28.615  31.742  1.00  0.00    -0.354 N 
ATOM     55  N   UNL A   1      41.329  30.287  34.059  1.00  0.00    -0.248 NA
ATOM     56  C   UNL A   1      41.664  30.910  36.284  1.00  0.00     0.031 C 
ATOM     57  C   UNL A   1      43.737  27.222  31.926  1.00  0.00     0.029 A 
ATOM     58  C   UNL A   1      42.992  28.165  32.616  1.00  0.00     0.049 A 
ATOM     59  H   UNL A   1      41.331  29.289  31.959  1.00  0.00     0.167 HD
ATOM     60  C   UNL A   1      42.396  29.566  34.575  1.00  0.00     0.074 A 
ATOM     61  C   UNL A   1      42.576  30.010  35.943  1.00  0.00     0.031 C 
ATOM     62  C   UNL A   1      43.156  28.619  33.973  1.00  0.00     0.037 A 
BRANCH  49  63
ATOM     63  C   UNL A   1      41.538  27.409  28.136  1.00  0.00     0.064 A 
ATOM     64  C   UNL A   1      42.405  27.872  27.135  1.00  0.00     0.173 A 
ATOM     65  C   UNL A   1      40.933  26.158  27.953  1.00  0.00     0.173 A 
ATOM     66  F   UNL A   1      42.999  29.070  27.255  1.00  0.00    -0.203 F 
ATOM     67  C   UNL A   1      42.639  27.120  25.987  1.00  0.00     0.198 A 
ATOM     68  C   UNL A   1      41.187  25.397  26.815  1.00  0.00     0.198 A 
ATOM     69  F   UNL A   1      40.098  25.668  28.882  1.00  0.00    -0.203 F 
ATOM     70  F   UNL A   1      43.440  27.600  25.024  1.00  0.00    -0.200 F 
ATOM     71  C   UNL A   1      42.035  25.881  25.831  1.00  0.00     0.200 A 
ATOM     72  F   UNL A   1      40.611  24.196  26.671  1.00  0.00    -0.200 F 
ATOM     73  F   UNL A   1      42.266  25.156  24.728  1.00  0.00    -0.200 F 
ENDBRANCH  49  63
BRANCH  50  74
ATOM     74  C   UNL A   1      39.467  32.849  36.248  1.00  0.00     0.064 A 
ATOM     75  C   UNL A   1      38.513  32.394  37.168  1.00  0.00     0.173 A 
ATOM     76  C   UNL A   1      40.104  34.070  36.515  1.00  0.00     0.173 A 
ATOM     77  F   UNL A   1      37.858  31.246  36.941  1.00  0.00    -0.203 F 
ATOM     78  C   UNL A   1      38.201  33.137  38.306  1.00  0.00     0.198 A 
ATOM     79  C   UNL A   1      39.810  34.798  37.665  1.00  0.00     0.198 A 
ATOM     80  F   UNL A   1      41.021  34.551  35.664  1.00  0.00    -0.203 F 
ATOM     81  F   UNL A   1      37.257  32.699  39.150  1.00  0.00    -0.200 F 
ATOM     82  C   UNL A   1      38.855  34.334  38.557  1.00  0.00     0.200 A 
ATOM     83  F   UNL A   1      40.451  35.949  37.910  1.00  0.00    -0.200 F 
ATOM     84  F   UNL A   1      38.558  35.044  39.653  1.00  0.00    -0.200 F 
ENDBRANCH  50  74
BRANCH  62  85
ATOM     85  C   UNL A   1      44.265  28.017  34.783  1.00  0.00     0.064 A 
ATOM     86  C   UNL A   1      44.075  26.844  35.528  1.00  0.00     0.173 A 
ATOM     87  C   UNL A   1      45.541  28.599  34.784  1.00  0.00     0.173 A 
ATOM     88  F   UNL A   1      42.868  26.260  35.571  1.00  0.00    -0.203 F 
ATOM     89  C   UNL A   1      45.118  26.288  36.263  1.00  0.00     0.198 A 
ATOM     90  C   UNL A   1      46.588  28.027  35.501  1.00  0.00     0.198 A 
ATOM     91  F   UNL A   1      45.774  29.719  34.083  1.00  0.00    -0.203 F 
ATOM     92  F   UNL A   1      44.904  25.190  37.001  1.00  0.00    -0.200 F 
ATOM     93  C   UNL A   1      46.375  26.875  36.243  1.00  0.00     0.200 A 
ATOM     94  F   UNL A   1      47.804  28.590  35.474  1.00  0.00    -0.200 F 
ATOM     95  F   UNL A   1      47.379  26.336  36.948  1.00  0.00    -0.200 F 
ENDBRANCH  62  85
ENDBRANCH  36  37
ENDBRANCH  29  31
ENDBRANCH  28  29
ENDBRANCH  27  28
ENDBRANCH   1  27
TORSDOF 16
ENDMDL
MODEL 2
REMARK VINA RESULT:     -12.1      3.041      5.558
REMARK SMILES CN1C(=O)[C@H](CC(=O)OCCOC(=O)c2ccc(-c3c4nc(c(-c5c(F)c(F)c(F)c(F)c5F)c5ccc([nH]5)c(-c5c(F)c(F)c(F)c(F)c5F)c5nc(c(-c6c(F)c(F)c(F)c(F)c6F)c6ccc3[nH]6)C=C5)C=C4)cc2)S/C1=[NH+]\N=C\c1ccc(O)cc1O
REMARK SMILES IDX 10 1 9 2 7 3 8 4 6 5 5 6 1 7 2 8 3 9 79 10 4 11 78 12 80 13
REMARK SMILES IDX 81 15 82 16 83 17 84 18 89 19 85 20 88 21 86 22 90 23 87 25
REMARK SMILES IDX 11 27 12 28 13 29 14 30 15 31 16 32 77 33 17 34 76 35 18 36
REMARK SMILES IDX 19 37 20 38 70 39 21 40 75 41 69 42 71 43 22 44 74 45 68 46
REMARK SMILES IDX 67 47 23 49 55 50 35 51 54 52 36 53 39 54 53 55 72 56 37 57
REMARK SMILES IDX 38 58 52 60 73 61 40 62 24 63 25 64 33 65 26 66 27 67 31 68
REMARK SMILES IDX 34 69 28 70 29 71 32 72 30 73 56 74 57 75 65 76 58 77 59 78
REMARK SMILES IDX 63 79 66 80 60 81 61 82 64 83 62 84 41 85 42 86 50 87 43 88
REMARK SMILES IDX 44 89 48 90 51 91 45 92 46 93 49 94 47 95
REMARK H PARENT 80 14 90 24 87 26 71 48 39 59
REMARK Flexibility Score: inf
ROOT
ATOM      1  C   UNL A   1      31.486  29.022  25.418  1.00  0.00     0.274 C 
ENDROOT
BRANCH   1   2
ATOM      2  O   UNL A   1      32.476  28.049  25.806  1.00  0.00    -0.462 OA
BRANCH   2   3
ATOM      3  C   UNL A   1      32.108  27.186  26.783  1.00  0.00     0.307 C 
ATOM      4  O   UNL A   1      31.530  27.505  27.817  1.00  0.00    -0.252 OA
BRANCH   3   5
ATOM      5  C   UNL A   1      32.539  25.766  26.528  1.00  0.00     0.150 C 
BRANCH   5   6
ATOM      6  C   UNL A   1      31.425  24.716  26.581  1.00  0.00     0.185 C 
ATOM      7  C   UNL A   1      30.458  24.270  22.982  1.00  0.00     0.301 C 
ATOM      8  N   UNL A   1      30.925  24.065  24.335  1.00  0.00    -0.191 N 
ATOM      9  C   UNL A   1      30.579  24.935  25.346  1.00  0.00     0.324 C 
ATOM     10  C   UNL A   1      31.669  22.970  24.682  1.00  0.00     0.339 C 
ATOM     11  O   UNL A   1      29.769  25.850  25.249  1.00  0.00    -0.245 OA
ATOM     12  S   UNL A   1      32.061  23.014  26.383  1.00  0.00    -0.020 SA
ATOM     13  N   UNL A   1      32.004  22.055  23.828  1.00  0.00    -0.142 N 
ATOM     14  H   UNL A   1      31.826  22.142  22.864  1.00  0.00     0.343 HD
BRANCH  13  15
ATOM     15  N   UNL A   1      32.635  20.940  24.374  1.00  0.00    -0.093 NA
ATOM     16  C   UNL A   1      32.405  19.872  23.676  1.00  0.00     0.170 C 
BRANCH  16  17
ATOM     17  C   UNL A   1      32.875  18.547  24.128  1.00  0.00     0.039 A 
ATOM     18  C   UNL A   1      33.198  17.592  23.157  1.00  0.00     0.017 A 
ATOM     19  C   UNL A   1      32.967  18.214  25.487  1.00  0.00     0.128 A 
ATOM     20  C   UNL A   1      33.614  16.318  23.550  1.00  0.00     0.047 A 
ATOM     21  C   UNL A   1      33.371  16.938  25.877  1.00  0.00     0.093 A 
ATOM     22  C   UNL A   1      33.695  16.001  24.902  1.00  0.00     0.119 A 
BRANCH  19  23
ATOM     23  O   UNL A   1      32.654  19.087  26.495  1.00  0.00    -0.507 OA
ATOM     24  H   UNL A   1      32.535  18.771  27.368  1.00  0.00     0.293 HD
ENDBRANCH  19  23
BRANCH  22  25
ATOM     25  O   UNL A   1      34.100  14.742  25.234  1.00  0.00    -0.508 OA
ATOM     26  H   UNL A   1      35.013  14.542  25.285  1.00  0.00     0.293 HD
ENDBRANCH  22  25
ENDBRANCH  16  17
ENDBRANCH  13  15
ENDBRANCH   5   6
ENDBRANCH   3   5
ENDBRANCH   2   3
ENDBRANCH   1   2
BRANCH   1  27
ATOM     27  C   UNL A   1      31.785  30.413  25.991  1.00  0.00     0.275 C 
BRANCH  27  28
ATOM     28  O   UNL A   1      33.196  30.644  26.171  1.00  0.00    -0.458 OA
BRANCH  28  29
ATOM     29  C   UNL A   1      33.508  31.589  27.089  1.00  0.00     0.338 C 
ATOM     30  O   UNL A   1      32.807  32.520  27.448  1.00  0.00    -0.246 OA
BRANCH  29  31
ATOM     31  C   UNL A   1      34.784  31.258  27.745  1.00  0.00     0.060 A 
ATOM     32  C   UNL A   1      34.949  29.959  28.232  1.00  0.00     0.016 A 
ATOM     33  C   UNL A   1      35.774  32.220  27.953  1.00  0.00     0.016 A 
ATOM     34  C   UNL A   1      36.100  29.610  28.932  1.00  0.00     0.010 A 
ATOM     35  C   UNL A   1      36.931  31.871  28.659  1.00  0.00     0.010 A 
ATOM     36  C   UNL A   1      37.095  30.566  29.158  1.00  0.00    -0.014 A 
BRANCH  36  37
ATOM     37  C   UNL A   1      38.284  30.199  29.962  1.00  0.00     0.031 A 
ATOM     38  C   UNL A   1      39.317  29.276  29.390  1.00  0.00     0.074 A 
ATOM     39  C   UNL A   1      38.449  30.725  31.189  1.00  0.00     0.049 A 
ATOM     40  N   UNL A   1      40.386  28.775  29.955  1.00  0.00    -0.248 NA
ATOM     41  C   UNL A   1      39.122  28.860  27.992  1.00  0.00     0.031 C 
ATOM     42  C   UNL A   1      37.539  31.674  31.828  1.00  0.00     0.029 A 
ATOM     43  N   UNL A   1      39.441  30.532  32.117  1.00  0.00    -0.354 N 
ATOM     44  C   UNL A   1      40.982  27.974  28.991  1.00  0.00     0.074 A 
ATOM     45  C   UNL A   1      40.149  28.043  27.808  1.00  0.00     0.031 C 
ATOM     46  C   UNL A   1      38.011  31.978  33.048  1.00  0.00     0.029 A 
ATOM     47  C   UNL A   1      39.231  31.213  33.291  1.00  0.00     0.049 A 
ATOM     48  H   UNL A   1      40.227  29.961  31.958  1.00  0.00     0.167 HD
ATOM     49  C   UNL A   1      42.124  27.252  29.086  1.00  0.00     0.037 A 
ATOM     50  C   UNL A   1      39.932  31.197  34.441  1.00  0.00     0.037 A 
ATOM     51  C   UNL A   1      42.956  27.198  30.261  1.00  0.00     0.049 A 
ATOM     52  C   UNL A   1      41.166  30.343  34.539  1.00  0.00     0.074 A 
ATOM     53  C   UNL A   1      44.132  26.494  30.456  1.00  0.00     0.029 A 
ATOM     54  N   UNL A   1      42.697  27.880  31.441  1.00  0.00    -0.354 N 
ATOM     55  N   UNL A   1      41.714  29.574  33.631  1.00  0.00    -0.248 NA
ATOM     56  C   UNL A   1      41.875  30.351  35.827  1.00  0.00     0.031 C 
ATOM     57  C   UNL A   1      44.566  26.723  31.767  1.00  0.00     0.029 A 
ATOM     58  C   UNL A   1      43.683  27.601  32.374  1.00  0.00     0.049 A 
ATOM     59  H   UNL A   1      41.927  28.475  31.593  1.00  0.00     0.167 HD
ATOM     60  C   UNL A   1      42.837  29.019  34.226  1.00  0.00     0.074 A 
ATOM     61  C   UNL A   1      42.903  29.554  35.571  1.00  0.00     0.031 C 
ATOM     62  C   UNL A   1      43.732  28.143  33.708  1.00  0.00     0.037 A 
BRANCH  49  63
ATOM     63  C   UNL A   1      42.526  26.436  27.895  1.00  0.00     0.064 A 
ATOM     64  C   UNL A   1      42.005  25.153  27.671  1.00  0.00     0.173 A 
ATOM     65  C   UNL A   1      43.418  26.957  26.947  1.00  0.00     0.173 A 
ATOM     66  F   UNL A   1      41.158  24.603  28.555  1.00  0.00    -0.203 F 
ATOM     67  C   UNL A   1      42.380  24.414  26.552  1.00  0.00     0.198 A 
ATOM     68  C   UNL A   1      43.773  26.226  25.817  1.00  0.00     0.198 A 
ATOM     69  F   UNL A   1      43.942  28.182  27.113  1.00  0.00    -0.203 F 
ATOM     70  F   UNL A   1      41.901  23.173  26.378  1.00  0.00    -0.200 F 
ATOM     71  C   UNL A   1      43.258  24.954  25.623  1.00  0.00     0.200 A 
ATOM     72  F   UNL A   1      44.614  26.753  24.916  1.00  0.00    -0.200 F 
ATOM     73  F   UNL A   1      43.614  24.243  24.544  1.00  0.00    -0.200 F 
ENDBRANCH  49  63
BRANCH  50  74
ATOM     74  C   UNL A   1      39.461  31.998  35.600  1.00  0.00     0.064 A 
ATOM     75  C   UNL A   1      39.954  33.289  35.836  1.00  0.00     0.173 A 
ATOM     76  C   UNL A   1      38.510  31.486  36.495  1.00  0.00     0.173 A 
ATOM     77  F   UNL A   1      40.884  33.809  35.023  1.00  0.00    -0.203 F 
ATOM     78  C   UNL A   1      39.519  34.034  36.931  1.00  0.00     0.198 A 
ATOM     79  C   UNL A   1      38.058  32.242  37.574  1.00  0.00     0.198 A 
ATOM     80  F   UNL A   1      38.011  30.255  36.315  1.00  0.00    -0.203 F 
ATOM     81  F   UNL A   1      40.034  35.250  37.156  1.00  0.00    -0.200 F 
ATOM     82  C   UNL A   1      38.566  33.512  37.794  1.00  0.00     0.200 A 
ATOM     83  F   UNL A   1      37.130  31.739  38.400  1.00  0.00    -0.200 F 
ATOM     84  F   UNL A   1      38.146  34.232  38.843  1.00  0.00    -0.200 F 
ENDBRANCH  50  74
BRANCH  62  85
ATOM     85  C   UNL A   1      44.870  27.727  34.590  1.00  0.00     0.064 A 
ATOM     86  C   UNL A   1      44.792  26.581  35.396  1.00  0.00     0.173 A 
ATOM     87  C   UNL A   1      46.066  28.461  34.602  1.00  0.00     0.173 A 
ATOM     88  F   UNL A   1      43.663  25.856  35.430  1.00  0.00    -0.203 F 
ATOM     89  C   UNL A   1      45.863  26.199  36.199  1.00  0.00     0.198 A 
ATOM     90  C   UNL A   1      47.143  28.061  35.388  1.00  0.00     0.198 A 
ATOM     91  F   UNL A   1      46.192  29.561  33.845  1.00  0.00    -0.203 F 
ATOM     92  F   UNL A   1      45.752  25.124  36.992  1.00  0.00    -0.200 F 
ATOM     93  C   UNL A   1      47.039  26.933  36.189  1.00  0.00     0.200 A 
ATOM     94  F   UNL A   1      48.283  28.766  35.371  1.00  0.00    -0.200 F 
ATOM     95  F   UNL A   1      48.070  26.561  36.960  1.00  0.00    -0.200 F 
ENDBRANCH  62  85
ENDBRANCH  36  37
ENDBRANCH  29  31
ENDBRANCH  28  29
ENDBRANCH  27  28
ENDBRANCH   1  27
TORSDOF 16
ENDMDL
MODEL 3
REMARK VINA RESULT:     -12.0      0.453      7.367
REMARK SMILES CN1C(=O)[C@H](CC(=O)OCCOC(=O)c2ccc(-c3c4nc(c(-c5c(F)c(F)c(F)c(F)c5F)c5ccc([nH]5)c(-c5c(F)c(F)c(F)c(F)c5F)c5nc(c(-c6c(F)c(F)c(F)c(F)c6F)c6ccc3[nH]6)C=C5)C=C4)cc2)S/C1=[NH+]\N=C\c1ccc(O)cc1O
REMARK SMILES IDX 10 1 9 2 7 3 8 4 6 5 5 6 1 7 2 8 3 9 79 10 4 11 78 12 80 13
REMARK SMILES IDX 81 15 82 16 83 17 84 18 89 19 85 20 88 21 86 22 90 23 87 25
REMARK SMILES IDX 11 27 12 28 13 29 14 30 15 31 16 32 77 33 17 34 76 35 18 36
REMARK SMILES IDX 19 37 20 38 70 39 21 40 75 41 69 42 71 43 22 44 74 45 68 46
REMARK SMILES IDX 67 47 23 49 55 50 35 51 54 52 36 53 39 54 53 55 72 56 37 57
REMARK SMILES IDX 38 58 52 60 73 61 40 62 24 63 25 64 33 65 26 66 27 67 31 68
REMARK SMILES IDX 34 69 28 70 29 71 32 72 30 73 56 74 57 75 65 76 58 77 59 78
REMARK SMILES IDX 63 79 66 80 60 81 61 82 64 83 62 84 41 85 42 86 50 87 43 88
REMARK SMILES IDX 44 89 48 90 51 91 45 92 46 93 49 94 47 95
REMARK H PARENT 80 14 90 24 87 26 71 48 39 59
REMARK Flexibility Score: inf
ROOT
ATOM      1  C   UNL A   1      31.979  31.038  26.502  1.00  0.00     0.274 C 
ENDROOT
BRANCH   1   2
ATOM      2  O   UNL A   1      32.556  30.108  27.441  1.00  0.00    -0.462 OA
BRANCH   2   3
ATOM      3  C   UNL A   1      33.653  29.438  27.014  1.00  0.00     0.307 C 
ATOM      4  O   UNL A   1      34.784  29.910  26.963  1.00  0.00    -0.252 OA
BRANCH   3   5
ATOM      5  C   UNL A   1      33.357  28.046  26.525  1.00  0.00     0.150 C 
BRANCH   5   6
ATOM      6  C   UNL A   1      33.750  27.756  25.073  1.00  0.00     0.185 C 
ATOM      7  C   UNL A   1      31.503  24.912  24.099  1.00  0.00     0.301 C 
ATOM      8  N   UNL A   1      32.176  26.189  24.187  1.00  0.00    -0.191 N 
ATOM      9  C   UNL A   1      33.394  26.308  24.820  1.00  0.00     0.324 C 
ATOM     10  C   UNL A   1      31.670  27.313  23.593  1.00  0.00     0.339 C 
ATOM     11  O   UNL A   1      34.074  25.375  25.233  1.00  0.00    -0.245 OA
ATOM     12  S   UNL A   1      32.722  28.678  23.875  1.00  0.00    -0.020 SA
ATOM     13  N   UNL A   1      30.562  27.308  22.920  1.00  0.00    -0.142 N 
ATOM     14  H   UNL A   1      29.973  26.521  22.880  1.00  0.00     0.343 HD
BRANCH  13  15
ATOM     15  N   UNL A   1      30.266  28.499  22.261  1.00  0.00    -0.093 NA
ATOM     16  C   UNL A   1      29.351  29.174  22.883  1.00  0.00     0.170 C 
BRANCH  16  17
ATOM     17  C   UNL A   1      28.793  30.414  22.308  1.00  0.00     0.039 A 
ATOM     18  C   UNL A   1      28.162  30.340  21.060  1.00  0.00     0.017 A 
ATOM     19  C   UNL A   1      28.915  31.654  22.952  1.00  0.00     0.128 A 
ATOM     20  C   UNL A   1      27.654  31.500  20.471  1.00  0.00     0.047 A 
ATOM     21  C   UNL A   1      28.416  32.812  22.357  1.00  0.00     0.093 A 
ATOM     22  C   UNL A   1      27.786  32.723  21.121  1.00  0.00     0.119 A 
BRANCH  19  23
ATOM     23  O   UNL A   1      29.531  31.811  24.165  1.00  0.00    -0.507 OA
ATOM     24  H   UNL A   1      29.103  31.526  24.948  1.00  0.00     0.293 HD
ENDBRANCH  19  23
BRANCH  22  25
ATOM     25  O   UNL A   1      27.278  33.827  20.502  1.00  0.00    -0.508 OA
ATOM     26  H   UNL A   1      27.798  34.603  20.427  1.00  0.00     0.293 HD
ENDBRANCH  22  25
ENDBRANCH  16  17
ENDBRANCH  13  15
ENDBRANCH   5   6
ENDBRANCH   3   5
ENDBRANCH   2   3
ENDBRANCH   1   2
BRANCH   1  27
ATOM     27  C   UNL A   1      31.813  32.440  27.101  1.00  0.00     0.275 C 
BRANCH  27  28
ATOM     28  O   UNL A   1      32.971  33.272  26.889  1.00  0.00    -0.458 OA
BRANCH  28  29
ATOM     29  C   UNL A   1      33.441  33.889  27.999  1.00  0.00     0.338 C 
ATOM     30  O   UNL A   1      32.936  34.833  28.581  1.00  0.00    -0.246 OA
BRANCH  29  31
ATOM     31  C   UNL A   1      34.601  33.156  28.533  1.00  0.00     0.060 A 
ATOM     32  C   UNL A   1      34.366  32.183  29.508  1.00  0.00     0.016 A 
ATOM     33  C   UNL A   1      35.907  33.469  28.150  1.00  0.00     0.016 A 
ATOM     34  C   UNL A   1      35.429  31.515  30.108  1.00  0.00     0.010 A 
ATOM     35  C   UNL A   1      36.977  32.799  28.755  1.00  0.00     0.010 A 
ATOM     36  C   UNL A   1      36.742  31.825  29.742  1.00  0.00    -0.014 A 
BRANCH  36  37
ATOM     37  C   UNL A   1      37.866  31.155  30.437  1.00  0.00     0.031 A 
ATOM     38  C   UNL A   1      38.167  31.491  31.867  1.00  0.00     0.074 A 
ATOM     39  C   UNL A   1      38.588  30.221  29.793  1.00  0.00     0.049 A 
ATOM     40  N   UNL A   1      39.147  31.075  32.628  1.00  0.00    -0.248 NA
ATOM     41  C   UNL A   1      37.240  32.422  32.531  1.00  0.00     0.031 C 
ATOM     42  C   UNL A   1      38.354  29.773  28.421  1.00  0.00     0.029 A 
ATOM     43  N   UNL A   1      39.667  29.482  30.210  1.00  0.00    -0.354 N 
ATOM     44  C   UNL A   1      38.966  31.703  33.852  1.00  0.00     0.074 A 
ATOM     45  C   UNL A   1      37.791  32.540  33.731  1.00  0.00     0.031 C 
ATOM     46  C   UNL A   1      39.266  28.840  28.105  1.00  0.00     0.029 A 
ATOM     47  C   UNL A   1      40.172  28.657  29.236  1.00  0.00     0.049 A 
ATOM     48  H   UNL A   1      40.043  29.539  31.118  1.00  0.00     0.167 HD
ATOM     49  C   UNL A   1      39.713  31.584  34.976  1.00  0.00     0.037 A 
ATOM     50  C   UNL A   1      41.261  27.864  29.249  1.00  0.00     0.037 A 
ATOM     51  C   UNL A   1      40.873  30.740  35.096  1.00  0.00     0.049 A 
ATOM     52  C   UNL A   1      42.105  27.794  30.491  1.00  0.00     0.074 A 
ATOM     53  C   UNL A   1      41.697  30.552  36.193  1.00  0.00     0.029 A 
ATOM     54  N   UNL A   1      41.372  29.938  34.080  1.00  0.00    -0.354 N 
ATOM     55  N   UNL A   1      41.939  28.403  31.639  1.00  0.00    -0.248 NA
ATOM     56  C   UNL A   1      43.292  26.928  30.437  1.00  0.00     0.031 C 
ATOM     57  C   UNL A   1      42.715  29.663  35.829  1.00  0.00     0.029 A 
ATOM     58  C   UNL A   1      42.501  29.265  34.519  1.00  0.00     0.049 A 
ATOM     59  H   UNL A   1      40.980  29.857  33.180  1.00  0.00     0.167 HD
ATOM     60  C   UNL A   1      42.987  27.987  32.449  1.00  0.00     0.074 A 
ATOM     61  C   UNL A   1      43.775  27.057  31.665  1.00  0.00     0.031 C 
ATOM     62  C   UNL A   1      43.272  28.344  33.725  1.00  0.00     0.037 A 
BRANCH  49  63
ATOM     63  C   UNL A   1      39.314  32.413  36.160  1.00  0.00     0.064 A 
ATOM     64  C   UNL A   1      38.379  31.954  37.100  1.00  0.00     0.173 A 
ATOM     65  C   UNL A   1      39.899  33.669  36.376  1.00  0.00     0.173 A 
ATOM     66  F   UNL A   1      37.780  30.765  36.933  1.00  0.00    -0.203 F 
ATOM     67  C   UNL A   1      38.030  32.732  38.201  1.00  0.00     0.198 A 
ATOM     68  C   UNL A   1      39.566  34.434  37.489  1.00  0.00     0.198 A 
ATOM     69  F   UNL A   1      40.801  34.152  35.507  1.00  0.00    -0.203 F 
ATOM     70  F   UNL A   1      37.105  32.291  39.065  1.00  0.00    -0.200 F 
ATOM     71  C   UNL A   1      38.628  33.968  38.398  1.00  0.00     0.200 A 
ATOM     72  F   UNL A   1      40.151  35.624  37.683  1.00  0.00    -0.200 F 
ATOM     73  F   UNL A   1      38.295  34.713  39.461  1.00  0.00    -0.200 F 
ENDBRANCH  49  63
BRANCH  50  74
ATOM     74  C   UNL A   1      41.627  27.097  28.031  1.00  0.00     0.064 A 
ATOM     75  C   UNL A   1      41.115  25.812  27.804  1.00  0.00     0.173 A 
ATOM     76  C   UNL A   1      42.496  27.635  27.071  1.00  0.00     0.173 A 
ATOM     77  F   UNL A   1      40.302  25.246  28.707  1.00  0.00    -0.203 F 
ATOM     78  C   UNL A   1      41.469  25.090  26.665  1.00  0.00     0.198 A 
ATOM     79  C   UNL A   1      42.829  26.922  25.921  1.00  0.00     0.198 A 
ATOM     80  F   UNL A   1      43.016  28.859  27.244  1.00  0.00    -0.203 F 
ATOM     81  F   UNL A   1      40.997  23.848  26.491  1.00  0.00    -0.200 F 
ATOM     82  C   UNL A   1      42.319  25.648  25.722  1.00  0.00     0.200 A 
ATOM     83  F   UNL A   1      43.642  27.468  25.007  1.00  0.00    -0.200 F 
ATOM     84  F   UNL A   1      42.654  24.954  24.627  1.00  0.00    -0.200 F 
ENDBRANCH  50  74
BRANCH  62  85
ATOM     85  C   UNL A   1      44.474  27.710  34.359  1.00  0.00     0.064 A 
ATOM     86  C   UNL A   1      45.732  28.329  34.327  1.00  0.00     0.173 A 
ATOM     87  C   UNL A   1      44.358  26.487  35.037  1.00  0.00     0.173 A 
ATOM     88  F   UNL A   1      45.895  29.491  33.676  1.00  0.00    -0.203 F 
ATOM     89  C   UNL A   1      46.835  27.736  34.933  1.00  0.00     0.198 A 
ATOM     90  C   UNL A   1      45.459  25.909  35.663  1.00  0.00     0.198 A 
ATOM     91  F   UNL A   1      43.175  25.858  35.100  1.00  0.00    -0.203 F 
ATOM     92  F   UNL A   1      48.037  28.325  34.855  1.00  0.00    -0.200 F 
ATOM     93  C   UNL A   1      46.697  26.531  35.606  1.00  0.00     0.200 A 
ATOM     94  F   UNL A   1      45.322  24.750  36.321  1.00  0.00    -0.200 F 
ATOM     95  F   UNL A   1      47.760  25.964  36.192  1.00  0.00    -0.200 F 
ENDBRANCH  62  85
ENDBRANCH  36  37
ENDBRANCH  29  31
ENDBRANCH  28  29
ENDBRANCH  27  28
ENDBRANCH   1  27
TORSDOF 16
ENDMDL
