MODEL 1
REMARK VINA RESULT:     -11.7      0.000      0.000
REMARK SMILES O=C(OCCOC(=O)c1cn(-c2cc(Cl)ncn2)cn1)c1ccc(-c2c3nc(c(-c4c(F)c(F)c(F)c(F)c4F)c4ccc([nH]4)c(-c4c(F)c(F)c(F)c(F)c4F)c4nc(c(-c5c(F)c(F)c(F)c(F)c5F)c5ccc2[nH]5)C=C4)C=C3)cc1
REMARK SMILES IDX 4 1 3 2 2 3 1 4 21 5 22 6 83 7 23 8 82 9 24 10 25 11 26 12
REMARK SMILES IDX 76 13 27 14 81 15 75 16 77 17 28 18 80 19 74 20 73 21 29 23
REMARK SMILES IDX 61 24 41 25 60 26 42 27 45 28 59 29 78 30 43 31 44 32 58 34
REMARK SMILES IDX 79 35 46 36 30 37 31 38 39 39 32 40 33 41 37 42 40 43 34 44
REMARK SMILES IDX 35 45 38 46 36 47 62 48 63 49 71 50 64 51 65 52 69 53 72 54
REMARK SMILES IDX 66 55 67 56 70 57 68 58 47 59 48 60 56 61 49 62 50 63 54 64
REMARK SMILES IDX 57 65 51 66 52 67 55 68 53 69 5 70 6 71 7 72 8 73 9 74 10 75
REMARK SMILES IDX 20 76 11 77 19 78 12 79 13 80 18 81 14 82 17 83 15 84 16 85
REMARK H PARENT 77 22 45 33
REMARK Flexibility Score: inf
ROOT
ATOM      1  C   UNL A   1      42.186  19.528  25.786  1.00  0.00     0.275 C 
ENDROOT
BRANCH   1   2
ATOM      2  O   UNL A   1      42.288  20.795  26.476  1.00  0.00    -0.458 OA
BRANCH   2   3
ATOM      3  C   UNL A   1      41.390  21.089  27.447  1.00  0.00     0.338 C 
ATOM      4  O   UNL A   1      40.754  20.260  28.074  1.00  0.00    -0.246 OA
BRANCH   3   5
ATOM      5  C   UNL A   1      41.402  22.542  27.748  1.00  0.00     0.060 A 
ATOM      6  C   UNL A   1      42.437  23.113  28.496  1.00  0.00     0.016 A 
ATOM      7  C   UNL A   1      40.368  23.350  27.256  1.00  0.00     0.016 A 
ATOM      8  C   UNL A   1      42.405  24.465  28.802  1.00  0.00     0.010 A 
ATOM      9  C   UNL A   1      40.337  24.710  27.563  1.00  0.00     0.010 A 
ATOM     10  C   UNL A   1      41.343  25.261  28.359  1.00  0.00    -0.014 A 
BRANCH  10  11
ATOM     11  C   UNL A   1      41.394  26.677  28.716  1.00  0.00     0.031 A 
ATOM     12  C   UNL A   1      42.536  27.455  28.158  1.00  0.00     0.074 A 
ATOM     13  C   UNL A   1      40.476  27.310  29.472  1.00  0.00     0.049 A 
ATOM     14  N   UNL A   1      43.502  28.026  28.803  1.00  0.00    -0.248 NA
ATOM     15  C   UNL A   1      42.637  27.574  26.698  1.00  0.00     0.031 C 
ATOM     16  C   UNL A   1      39.157  26.840  29.888  1.00  0.00     0.029 A 
ATOM     17  N   UNL A   1      40.531  28.581  29.972  1.00  0.00    -0.354 N 
ATOM     18  C   UNL A   1      44.268  28.698  27.852  1.00  0.00     0.074 A 
ATOM     19  C   UNL A   1      43.740  28.314  26.565  1.00  0.00     0.031 C 
ATOM     20  C   UNL A   1      38.460  27.879  30.404  1.00  0.00     0.029 A 
ATOM     21  C   UNL A   1      39.330  29.042  30.484  1.00  0.00     0.049 A 
ATOM     22  H   UNL A   1      41.354  29.121  29.968  1.00  0.00     0.167 HD
ATOM     23  C   UNL A   1      45.176  29.651  28.204  1.00  0.00     0.037 A 
ATOM     24  C   UNL A   1      39.058  30.302  30.899  1.00  0.00     0.037 A 
ATOM     25  C   UNL A   1      45.546  29.547  29.591  1.00  0.00     0.049 A 
ATOM     26  C   UNL A   1      40.342  30.978  31.204  1.00  0.00     0.074 A 
ATOM     27  C   UNL A   1      46.118  28.562  30.374  1.00  0.00     0.029 A 
ATOM     28  N   UNL A   1      45.053  30.470  30.479  1.00  0.00    -0.354 N 
ATOM     29  N   UNL A   1      41.091  30.704  32.233  1.00  0.00    -0.248 NA
ATOM     30  C   UNL A   1      40.995  31.725  30.139  1.00  0.00     0.031 C 
ATOM     31  C   UNL A   1      45.487  28.687  31.646  1.00  0.00     0.029 A 
ATOM     32  C   UNL A   1      44.605  29.764  31.565  1.00  0.00     0.049 A 
ATOM     33  H   UNL A   1      45.026  31.446  30.360  1.00  0.00     0.167 HD
ATOM     34  C   UNL A   1      42.388  30.842  31.766  1.00  0.00     0.074 A 
ATOM     35  C   UNL A   1      42.266  31.585  30.517  1.00  0.00     0.031 C 
ATOM     36  C   UNL A   1      43.407  30.101  32.292  1.00  0.00     0.037 A 
BRANCH  23  37
ATOM     37  C   UNL A   1      45.503  30.877  27.386  1.00  0.00     0.064 A 
ATOM     38  C   UNL A   1      46.849  31.154  27.061  1.00  0.00     0.173 A 
ATOM     39  C   UNL A   1      44.599  31.940  27.184  1.00  0.00     0.173 A 
ATOM     40  F   UNL A   1      47.799  30.219  27.223  1.00  0.00    -0.203 F 
ATOM     41  C   UNL A   1      47.266  32.425  26.657  1.00  0.00     0.198 A 
ATOM     42  C   UNL A   1      45.013  33.193  26.731  1.00  0.00     0.198 A 
ATOM     43  F   UNL A   1      43.307  31.844  27.519  1.00  0.00    -0.203 F 
ATOM     44  F   UNL A   1      48.573  32.675  26.489  1.00  0.00    -0.200 F 
ATOM     45  C   UNL A   1      46.349  33.446  26.502  1.00  0.00     0.200 A 
ATOM     46  F   UNL A   1      44.110  34.176  26.598  1.00  0.00    -0.200 F 
ATOM     47  F   UNL A   1      46.754  34.682  26.181  1.00  0.00    -0.200 F 
ENDBRANCH  23  37
BRANCH  24  48
ATOM     48  C   UNL A   1      37.781  31.046  30.829  1.00  0.00     0.064 A 
ATOM     49  C   UNL A   1      37.054  31.353  31.990  1.00  0.00     0.173 A 
ATOM     50  C   UNL A   1      37.400  31.716  29.651  1.00  0.00     0.173 A 
ATOM     51  F   UNL A   1      37.381  30.792  33.163  1.00  0.00    -0.203 F 
ATOM     52  C   UNL A   1      36.024  32.299  31.979  1.00  0.00     0.198 A 
ATOM     53  C   UNL A   1      36.367  32.652  29.639  1.00  0.00     0.198 A 
ATOM     54  F   UNL A   1      38.087  31.549  28.512  1.00  0.00    -0.203 F 
ATOM     55  F   UNL A   1      35.396  32.618  33.120  1.00  0.00    -0.200 F 
ATOM     56  C   UNL A   1      35.689  32.956  30.806  1.00  0.00     0.200 A 
ATOM     57  F   UNL A   1      36.077  33.306  28.506  1.00  0.00    -0.200 F 
ATOM     58  F   UNL A   1      34.748  33.909  30.808  1.00  0.00    -0.200 F 
ENDBRANCH  24  48
BRANCH  36  59
ATOM     59  C   UNL A   1      43.160  29.376  33.582  1.00  0.00     0.064 A 
ATOM     60  C   UNL A   1      43.415  29.917  34.854  1.00  0.00     0.173 A 
ATOM     61  C   UNL A   1      42.527  28.125  33.529  1.00  0.00     0.173 A 
ATOM     62  F   UNL A   1      43.910  31.154  34.993  1.00  0.00    -0.203 F 
ATOM     63  C   UNL A   1      43.110  29.207  36.014  1.00  0.00     0.198 A 
ATOM     64  C   UNL A   1      42.185  27.438  34.689  1.00  0.00     0.198 A 
ATOM     65  F   UNL A   1      42.203  27.585  32.343  1.00  0.00    -0.203 F 
ATOM     66  F   UNL A   1      43.388  29.732  37.216  1.00  0.00    -0.200 F 
ATOM     67  C   UNL A   1      42.491  27.970  35.930  1.00  0.00     0.200 A 
ATOM     68  F   UNL A   1      41.538  26.267  34.604  1.00  0.00    -0.200 F 
ATOM     69  F   UNL A   1      42.164  27.304  37.046  1.00  0.00    -0.200 F 
ENDBRANCH  36  59
ENDBRANCH  10  11
ENDBRANCH   3   5
ENDBRANCH   2   3
ENDBRANCH   1   2
BRANCH   1  70
ATOM     70  C   UNL A   1      43.316  18.525  26.000  1.00  0.00     0.275 C 
BRANCH  70  71
ATOM     71  O   UNL A   1      44.020  18.391  24.762  1.00  0.00    -0.457 OA
BRANCH  71  72
ATOM     72  C   UNL A   1      45.302  18.852  24.753  1.00  0.00     0.358 C 
ATOM     73  O   UNL A   1      46.297  18.190  25.020  1.00  0.00    -0.244 OA
BRANCH  72  74
ATOM     74  C   UNL A   1      45.319  20.288  24.535  1.00  0.00     0.166 A 
ATOM     75  C   UNL A   1      45.957  21.200  25.350  1.00  0.00     0.130 A 
ATOM     76  N   UNL A   1      44.598  20.950  23.559  1.00  0.00    -0.229 NA
ATOM     77  N   UNL A   1      45.595  22.438  24.883  1.00  0.00    -0.289 N 
ATOM     78  C   UNL A   1      44.792  22.229  23.790  1.00  0.00     0.206 A 
BRANCH  77  79
ATOM     79  C   UNL A   1      45.932  23.693  25.441  1.00  0.00     0.142 A 
ATOM     80  C   UNL A   1      45.702  23.909  26.781  1.00  0.00     0.088 A 
ATOM     81  N   UNL A   1      46.451  24.630  24.617  1.00  0.00    -0.219 NA
ATOM     82  C   UNL A   1      46.043  25.159  27.226  1.00  0.00     0.134 A 
ATOM     83  C   UNL A   1      46.683  25.831  25.166  1.00  0.00     0.226 A 
ATOM     84  Cl  UNL A   1      45.914  25.551  28.891  1.00  0.00    -0.062 Cl
ATOM     85  N   UNL A   1      46.511  26.148  26.452  1.00  0.00    -0.224 NA
ENDBRANCH  77  79
ENDBRANCH  72  74
ENDBRANCH  71  72
ENDBRANCH  70  71
ENDBRANCH   1  70
TORSDOF 12
ENDMDL
MODEL 2
REMARK VINA RESULT:     -11.5      0.991      1.684
REMARK SMILES O=C(OCCOC(=O)c1cn(-c2cc(Cl)ncn2)cn1)c1ccc(-c2c3nc(c(-c4c(F)c(F)c(F)c(F)c4F)c4ccc([nH]4)c(-c4c(F)c(F)c(F)c(F)c4F)c4nc(c(-c5c(F)c(F)c(F)c(F)c5F)c5ccc2[nH]5)C=C4)C=C3)cc1
REMARK SMILES IDX 4 1 3 2 2 3 1 4 21 5 22 6 83 7 23 8 82 9 24 10 25 11 26 12
REMARK SMILES IDX 76 13 27 14 81 15 75 16 77 17 28 18 80 19 74 20 73 21 29 23
REMARK SMILES IDX 61 24 41 25 60 26 42 27 45 28 59 29 78 30 43 31 44 32 58 34
REMARK SMILES IDX 79 35 46 36 30 37 31 38 39 39 32 40 33 41 37 42 40 43 34 44
REMARK SMILES IDX 35 45 38 46 36 47 62 48 63 49 71 50 64 51 65 52 69 53 72 54
REMARK SMILES IDX 66 55 67 56 70 57 68 58 47 59 48 60 56 61 49 62 50 63 54 64
REMARK SMILES IDX 57 65 51 66 52 67 55 68 53 69 5 70 6 71 7 72 8 73 9 74 10 75
REMARK SMILES IDX 20 76 11 77 19 78 12 79 13 80 18 81 14 82 17 83 15 84 16 85
REMARK H PARENT 77 22 45 33
REMARK Flexibility Score: inf
ROOT
ATOM      1  C   UNL A   1      41.344  20.248  27.306  1.00  0.00     0.275 C 
ENDROOT
BRANCH   1   2
ATOM      2  O   UNL A   1      41.305  21.500  26.582  1.00  0.00    -0.458 OA
BRANCH   2   3
ATOM      3  C   UNL A   1      40.133  22.175  26.498  1.00  0.00     0.338 C 
ATOM      4  O   UNL A   1      39.080  21.688  26.122  1.00  0.00    -0.246 OA
BRANCH   3   5
ATOM      5  C   UNL A   1      40.272  23.537  27.070  1.00  0.00     0.060 A 
ATOM      6  C   UNL A   1      39.303  24.518  26.834  1.00  0.00     0.016 A 
ATOM      7  C   UNL A   1      41.383  23.831  27.871  1.00  0.00     0.016 A 
ATOM      8  C   UNL A   1      39.475  25.796  27.342  1.00  0.00     0.010 A 
ATOM      9  C   UNL A   1      41.556  25.117  28.382  1.00  0.00     0.010 A 
ATOM     10  C   UNL A   1      40.613  26.106  28.094  1.00  0.00    -0.014 A 
BRANCH  10  11
ATOM     11  C   UNL A   1      40.710  27.473  28.601  1.00  0.00     0.031 A 
ATOM     12  C   UNL A   1      41.847  28.287  28.086  1.00  0.00     0.074 A 
ATOM     13  C   UNL A   1      39.837  28.036  29.459  1.00  0.00     0.049 A 
ATOM     14  N   UNL A   1      42.851  28.766  28.750  1.00  0.00    -0.248 NA
ATOM     15  C   UNL A   1      41.895  28.564  26.645  1.00  0.00     0.031 C 
ATOM     16  C   UNL A   1      38.524  27.547  29.875  1.00  0.00     0.029 A 
ATOM     17  N   UNL A   1      39.940  29.243  30.092  1.00  0.00    -0.354 N 
ATOM     18  C   UNL A   1      43.594  29.524  27.847  1.00  0.00     0.074 A 
ATOM     19  C   UNL A   1      43.009  29.293  26.549  1.00  0.00     0.031 C 
ATOM     20  C   UNL A   1      37.871  28.535  30.529  1.00  0.00     0.029 A 
ATOM     21  C   UNL A   1      38.770  29.666  30.700  1.00  0.00     0.049 A 
ATOM     22  H   UNL A   1      40.774  29.765  30.114  1.00  0.00     0.167 HD
ATOM     23  C   UNL A   1      44.536  30.416  28.265  1.00  0.00     0.037 A 
ATOM     24  C   UNL A   1      38.543  30.878  31.261  1.00  0.00     0.037 A 
ATOM     25  C   UNL A   1      44.957  30.153  29.615  1.00  0.00     0.049 A 
ATOM     26  C   UNL A   1      39.852  31.493  31.585  1.00  0.00     0.074 A 
ATOM     27  C   UNL A   1      45.536  29.078  30.262  1.00  0.00     0.029 A 
ATOM     28  N   UNL A   1      44.519  30.981  30.618  1.00  0.00    -0.354 N 
ATOM     29  N   UNL A   1      40.634  31.093  32.547  1.00  0.00    -0.248 NA
ATOM     30  C   UNL A   1      40.480  32.340  30.583  1.00  0.00     0.031 C 
ATOM     31  C   UNL A   1      44.957  29.073  31.565  1.00  0.00     0.029 A 
ATOM     32  C   UNL A   1      44.098  30.169  31.637  1.00  0.00     0.049 A 
ATOM     33  H   UNL A   1      44.510  31.965  30.607  1.00  0.00     0.167 HD
ATOM     34  C   UNL A   1      41.915  31.258  32.046  1.00  0.00     0.074 A 
ATOM     35  C   UNL A   1      41.762  32.136  30.891  1.00  0.00     0.031 C 
ATOM     36  C   UNL A   1      42.937  30.446  32.445  1.00  0.00     0.037 A 
BRANCH  23  37
ATOM     37  C   UNL A   1      44.859  31.718  27.572  1.00  0.00     0.064 A 
ATOM     38  C   UNL A   1      46.110  31.871  26.934  1.00  0.00     0.173 A 
ATOM     39  C   UNL A   1      44.134  32.909  27.781  1.00  0.00     0.173 A 
ATOM     40  F   UNL A   1      46.891  30.807  26.693  1.00  0.00    -0.203 F 
ATOM     41  C   UNL A   1      46.630  33.130  26.618  1.00  0.00     0.198 A 
ATOM     42  C   UNL A   1      44.635  34.160  27.416  1.00  0.00     0.198 A 
ATOM     43  F   UNL A   1      42.970  32.923  28.440  1.00  0.00    -0.203 F 
ATOM     44  F   UNL A   1      47.876  33.233  26.135  1.00  0.00    -0.200 F 
ATOM     45  C   UNL A   1      45.896  34.273  26.868  1.00  0.00     0.200 A 
ATOM     46  F   UNL A   1      43.915  35.259  27.678  1.00  0.00    -0.200 F 
ATOM     47  F   UNL A   1      46.419  35.483  26.630  1.00  0.00    -0.200 F 
ENDBRANCH  23  37
BRANCH  24  48
ATOM     48  C   UNL A   1      37.282  31.649  31.325  1.00  0.00     0.064 A 
ATOM     49  C   UNL A   1      36.625  31.870  32.546  1.00  0.00     0.173 A 
ATOM     50  C   UNL A   1      36.852  32.422  30.230  1.00  0.00     0.173 A 
ATOM     51  F   UNL A   1      37.003  31.205  33.648  1.00  0.00    -0.203 F 
ATOM     52  C   UNL A   1      35.618  32.832  32.671  1.00  0.00     0.198 A 
ATOM     53  C   UNL A   1      35.842  33.375  30.354  1.00  0.00     0.198 A 
ATOM     54  F   UNL A   1      37.472  32.340  29.044  1.00  0.00    -0.203 F 
ATOM     55  F   UNL A   1      35.061  33.064  33.868  1.00  0.00    -0.200 F 
ATOM     56  C   UNL A   1      35.236  33.591  31.578  1.00  0.00     0.200 A 
ATOM     57  F   UNL A   1      35.506  34.128  29.297  1.00  0.00    -0.200 F 
ATOM     58  F   UNL A   1      34.317  34.557  31.712  1.00  0.00    -0.200 F 
ENDBRANCH  24  48
BRANCH  36  59
ATOM     59  C   UNL A   1      42.723  29.588  33.658  1.00  0.00     0.064 A 
ATOM     60  C   UNL A   1      42.071  28.342  33.640  1.00  0.00     0.173 A 
ATOM     61  C   UNL A   1      43.307  29.991  34.867  1.00  0.00     0.173 A 
ATOM     62  F   UNL A   1      41.586  27.832  32.499  1.00  0.00    -0.203 F 
ATOM     63  C   UNL A   1      41.954  27.572  34.795  1.00  0.00     0.198 A 
ATOM     64  C   UNL A   1      43.227  29.199  36.009  1.00  0.00     0.198 A 
ATOM     65  F   UNL A   1      43.996  31.142  34.932  1.00  0.00    -0.203 F 
ATOM     66  F   UNL A   1      41.303  26.401  34.759  1.00  0.00    -0.200 F 
ATOM     67  C   UNL A   1      42.537  28.000  35.977  1.00  0.00     0.200 A 
ATOM     68  F   UNL A   1      43.837  29.591  37.136  1.00  0.00    -0.200 F 
ATOM     69  F   UNL A   1      42.457  27.241  37.079  1.00  0.00    -0.200 F 
ENDBRANCH  36  59
ENDBRANCH  10  11
ENDBRANCH   3   5
ENDBRANCH   2   3
ENDBRANCH   1   2
BRANCH   1  70
ATOM     70  C   UNL A   1      42.182  19.123  26.708  1.00  0.00     0.275 C 
BRANCH  70  71
ATOM     71  O   UNL A   1      42.512  19.491  25.365  1.00  0.00    -0.457 OA
BRANCH  71  72
ATOM     72  C   UNL A   1      43.834  19.440  25.042  1.00  0.00     0.358 C 
ATOM     73  O   UNL A   1      44.538  18.438  25.083  1.00  0.00    -0.244 OA
BRANCH  72  74
ATOM     74  C   UNL A   1      44.343  20.777  24.789  1.00  0.00     0.166 A 
ATOM     75  C   UNL A   1      44.592  21.722  25.762  1.00  0.00     0.130 A 
ATOM     76  N   UNL A   1      44.528  21.330  23.535  1.00  0.00    -0.229 NA
ATOM     77  N   UNL A   1      44.904  22.878  25.092  1.00  0.00    -0.289 N 
ATOM     78  C   UNL A   1      44.871  22.580  23.754  1.00  0.00     0.206 A 
BRANCH  77  79
ATOM     79  C   UNL A   1      45.159  24.149  25.657  1.00  0.00     0.142 A 
ATOM     80  C   UNL A   1      44.886  24.353  26.990  1.00  0.00     0.088 A 
ATOM     81  N   UNL A   1      45.647  25.113  24.844  1.00  0.00    -0.219 NA
ATOM     82  C   UNL A   1      45.148  25.619  27.442  1.00  0.00     0.134 A 
ATOM     83  C   UNL A   1      45.800  26.324  25.397  1.00  0.00     0.226 A 
ATOM     84  Cl  UNL A   1      44.958  26.003  29.103  1.00  0.00    -0.062 Cl
ATOM     85  N   UNL A   1      45.581  26.632  26.678  1.00  0.00    -0.224 NA
ENDBRANCH  77  79
ENDBRANCH  72  74
ENDBRANCH  71  72
ENDBRANCH  70  71
ENDBRANCH   1  70
TORSDOF 12
ENDMDL
MODEL 3
REMARK VINA RESULT:     -11.4      4.804     11.553
REMARK SMILES O=C(OCCOC(=O)c1cn(-c2cc(Cl)ncn2)cn1)c1ccc(-c2c3nc(c(-c4c(F)c(F)c(F)c(F)c4F)c4ccc([nH]4)c(-c4c(F)c(F)c(F)c(F)c4F)c4nc(c(-c5c(F)c(F)c(F)c(F)c5F)c5ccc2[nH]5)C=C4)C=C3)cc1
REMARK SMILES IDX 4 1 3 2 2 3 1 4 21 5 22 6 83 7 23 8 82 9 24 10 25 11 26 12
REMARK SMILES IDX 76 13 27 14 81 15 75 16 77 17 28 18 80 19 74 20 73 21 29 23
REMARK SMILES IDX 61 24 41 25 60 26 42 27 45 28 59 29 78 30 43 31 44 32 58 34
REMARK SMILES IDX 79 35 46 36 30 37 31 38 39 39 32 40 33 41 37 42 40 43 34 44
REMARK SMILES IDX 35 45 38 46 36 47 62 48 63 49 71 50 64 51 65 52 69 53 72 54
REMARK SMILES IDX 66 55 67 56 70 57 68 58 47 59 48 60 56 61 49 62 50 63 54 64
REMARK SMILES IDX 57 65 51 66 52 67 55 68 53 69 5 70 6 71 7 72 8 73 9 74 10 75
REMARK SMILES IDX 20 76 11 77 19 78 12 79 13 80 18 81 14 82 17 83 15 84 16 85
REMARK H PARENT 77 22 45 33
REMARK Flexibility Score: inf
ROOT
ATOM      1  C   UNL A   1      34.443  34.762  28.847  1.00  0.00     0.275 C 
ENDROOT
BRANCH   1   2
ATOM      2  O   UNL A   1      35.033  33.531  29.326  1.00  0.00    -0.458 OA
BRANCH   2   3
ATOM      3  C   UNL A   1      34.946  32.418  28.558  1.00  0.00     0.338 C 
ATOM      4  O   UNL A   1      34.086  32.223  27.717  1.00  0.00    -0.246 OA
BRANCH   3   5
ATOM      5  C   UNL A   1      36.125  31.542  28.772  1.00  0.00     0.060 A 
ATOM      6  C   UNL A   1      37.339  32.068  29.227  1.00  0.00     0.016 A 
ATOM      7  C   UNL A   1      36.008  30.168  28.528  1.00  0.00     0.016 A 
ATOM      8  C   UNL A   1      38.439  31.239  29.378  1.00  0.00     0.010 A 
ATOM      9  C   UNL A   1      37.115  29.333  28.680  1.00  0.00     0.010 A 
ATOM     10  C   UNL A   1      38.337  29.876  29.080  1.00  0.00    -0.014 A 
BRANCH  10  11
ATOM     11  C   UNL A   1      39.542  29.072  29.278  1.00  0.00     0.031 A 
ATOM     12  C   UNL A   1      39.958  28.847  30.691  1.00  0.00     0.074 A 
ATOM     13  C   UNL A   1      40.260  28.511  28.286  1.00  0.00     0.049 A 
ATOM     14  N   UNL A   1      41.037  29.254  31.279  1.00  0.00    -0.248 NA
ATOM     15  C   UNL A   1      39.037  28.115  31.569  1.00  0.00     0.031 C 
ATOM     16  C   UNL A   1      39.904  28.359  26.877  1.00  0.00     0.029 A 
ATOM     17  N   UNL A   1      41.469  27.881  28.376  1.00  0.00    -0.354 N 
ATOM     18  C   UNL A   1      41.010  28.720  32.566  1.00  0.00     0.074 A 
ATOM     19  C   UNL A   1      39.716  28.100  32.718  1.00  0.00     0.031 C 
ATOM     20  C   UNL A   1      40.779  27.510  26.289  1.00  0.00     0.029 A 
ATOM     21  C   UNL A   1      41.830  27.177  27.239  1.00  0.00     0.049 A 
ATOM     22  H   UNL A   1      42.035  27.924  29.180  1.00  0.00     0.167 HD
ATOM     23  C   UNL A   1      42.122  28.686  33.353  1.00  0.00     0.037 A 
ATOM     24  C   UNL A   1      42.889  26.345  27.105  1.00  0.00     0.037 A 
ATOM     25  C   UNL A   1      43.122  29.618  32.902  1.00  0.00     0.049 A 
ATOM     26  C   UNL A   1      43.879  26.679  28.156  1.00  0.00     0.074 A 
ATOM     27  C   UNL A   1      43.163  30.987  32.719  1.00  0.00     0.029 A 
ATOM     28  N   UNL A   1      44.233  29.136  32.257  1.00  0.00    -0.354 N 
ATOM     29  N   UNL A   1      44.611  27.756  28.160  1.00  0.00    -0.248 NA
ATOM     30  C   UNL A   1      43.793  25.978  29.429  1.00  0.00     0.031 C 
ATOM     31  C   UNL A   1      43.979  31.182  31.566  1.00  0.00     0.029 A 
ATOM     32  C   UNL A   1      44.413  29.923  31.151  1.00  0.00     0.049 A 
ATOM     33  H   UNL A   1      44.791  28.374  32.534  1.00  0.00     0.167 HD
ATOM     34  C   UNL A   1      44.705  28.107  29.497  1.00  0.00     0.074 A 
ATOM     35  C   UNL A   1      44.290  26.919  30.234  1.00  0.00     0.031 C 
ATOM     36  C   UNL A   1      44.843  29.412  29.873  1.00  0.00     0.037 A 
BRANCH  23  37
ATOM     37  C   UNL A   1      42.444  27.597  34.347  1.00  0.00     0.064 A 
ATOM     38  C   UNL A   1      43.047  26.402  33.895  1.00  0.00     0.173 A 
ATOM     39  C   UNL A   1      41.903  27.549  35.648  1.00  0.00     0.173 A 
ATOM     40  F   UNL A   1      43.586  26.329  32.668  1.00  0.00    -0.203 F 
ATOM     41  C   UNL A   1      43.024  25.228  34.653  1.00  0.00     0.198 A 
ATOM     42  C   UNL A   1      41.927  26.388  36.422  1.00  0.00     0.198 A 
ATOM     43  F   UNL A   1      41.236  28.581  36.177  1.00  0.00    -0.203 F 
ATOM     44  F   UNL A   1      43.491  24.087  34.127  1.00  0.00    -0.200 F 
ATOM     45  C   UNL A   1      42.454  25.220  35.912  1.00  0.00     0.200 A 
ATOM     46  F   UNL A   1      41.359  26.394  37.637  1.00  0.00    -0.200 F 
ATOM     47  F   UNL A   1      42.369  24.081  36.613  1.00  0.00    -0.200 F 
ENDBRANCH  23  37
BRANCH  24  48
ATOM     48  C   UNL A   1      43.009  25.122  26.280  1.00  0.00     0.064 A 
ATOM     49  C   UNL A   1      44.056  24.966  25.359  1.00  0.00     0.173 A 
ATOM     50  C   UNL A   1      42.263  23.968  26.587  1.00  0.00     0.173 A 
ATOM     51  F   UNL A   1      44.842  26.005  25.044  1.00  0.00    -0.203 F 
ATOM     52  C   UNL A   1      44.359  23.720  24.800  1.00  0.00     0.198 A 
ATOM     53  C   UNL A   1      42.560  22.728  26.023  1.00  0.00     0.198 A 
ATOM     54  F   UNL A   1      41.296  24.001  27.516  1.00  0.00    -0.203 F 
ATOM     55  F   UNL A   1      45.410  23.594  23.977  1.00  0.00    -0.200 F 
ATOM     56  C   UNL A   1      43.618  22.601  25.142  1.00  0.00     0.200 A 
ATOM     57  F   UNL A   1      41.859  21.647  26.390  1.00  0.00    -0.200 F 
ATOM     58  F   UNL A   1      43.948  21.396  24.659  1.00  0.00    -0.200 F 
ENDBRANCH  24  48
BRANCH  36  59
ATOM     59  C   UNL A   1      45.205  30.416  28.818  1.00  0.00     0.064 A 
ATOM     60  C   UNL A   1      44.288  30.973  27.909  1.00  0.00     0.173 A 
ATOM     61  C   UNL A   1      46.513  30.922  28.805  1.00  0.00     0.173 A 
ATOM     62  F   UNL A   1      42.994  30.628  27.934  1.00  0.00    -0.203 F 
ATOM     63  C   UNL A   1      44.683  31.942  26.989  1.00  0.00     0.198 A 
ATOM     64  C   UNL A   1      46.893  31.921  27.915  1.00  0.00     0.198 A 
ATOM     65  F   UNL A   1      47.417  30.474  29.690  1.00  0.00    -0.203 F 
ATOM     66  F   UNL A   1      43.797  32.438  26.113  1.00  0.00    -0.200 F 
ATOM     67  C   UNL A   1      45.984  32.418  26.996  1.00  0.00     0.200 A 
ATOM     68  F   UNL A   1      48.137  32.417  27.960  1.00  0.00    -0.200 F 
ATOM     69  F   UNL A   1      46.354  33.378  26.136  1.00  0.00    -0.200 F 
ENDBRANCH  36  59
ENDBRANCH  10  11
ENDBRANCH   3   5
ENDBRANCH   2   3
ENDBRANCH   1   2
BRANCH   1  70
ATOM     70  C   UNL A   1      33.218  35.283  29.592  1.00  0.00     0.275 C 
BRANCH  70  71
ATOM     71  O   UNL A   1      33.633  36.399  30.387  1.00  0.00    -0.457 OA
BRANCH  71  72
ATOM     72  C   UNL A   1      33.214  36.395  31.683  1.00  0.00     0.358 C 
ATOM     73  O   UNL A   1      32.527  37.261  32.210  1.00  0.00    -0.244 OA
BRANCH  72  74
ATOM     74  C   UNL A   1      33.824  35.293  32.407  1.00  0.00     0.166 A 
ATOM     75  C   UNL A   1      35.176  35.162  32.646  1.00  0.00     0.130 A 
ATOM     76  N   UNL A   1      33.154  34.166  32.844  1.00  0.00    -0.229 NA
ATOM     77  N   UNL A   1      35.338  33.922  33.211  1.00  0.00    -0.289 N 
ATOM     78  C   UNL A   1      34.086  33.373  33.326  1.00  0.00     0.206 A 
BRANCH  77  79
ATOM     79  C   UNL A   1      36.557  33.296  33.561  1.00  0.00     0.142 A 
ATOM     80  C   UNL A   1      37.592  33.302  32.655  1.00  0.00     0.088 A 
ATOM     81  N   UNL A   1      36.635  32.703  34.774  1.00  0.00    -0.219 NA
ATOM     82  C   UNL A   1      38.726  32.657  33.075  1.00  0.00     0.134 A 
ATOM     83  C   UNL A   1      37.778  32.053  35.036  1.00  0.00     0.226 A 
ATOM     84  Cl  UNL A   1      40.139  32.665  32.103  1.00  0.00    -0.062 Cl
ATOM     85  N   UNL A   1      38.850  32.005  34.240  1.00  0.00    -0.224 NA
ENDBRANCH  77  79
ENDBRANCH  72  74
ENDBRANCH  71  72
ENDBRANCH  70  71
ENDBRANCH   1  70
TORSDOF 12
ENDMDL
