MODEL 1
REMARK VINA RESULT:     -12.2      0.000      0.000
REMARK SMILES C[C@@H]1[C@H](C(=O)OCCOC(=O)c2ccc(-c3c4nc(c(-c5c(F)c(F)c(F)c(F)c5F)c5ccc([nH]5)c(-c5c(F)c(F)c(F)c(F)c5F)c5nc(c(-c6c(F)c(F)c(F)c(F)c6F)c6ccc3[nH]6)C=C5)C=C4)cc2)CC[N@@H+]1Cc1ccc2c(c1)CCN2C
REMARK SMILES IDX 7 1 6 2 4 3 5 4 3 5 1 6 2 7 77 8 75 9 76 10 78 12 79 13
REMARK SMILES IDX 80 14 84 15 81 16 83 17 82 18 85 19 87 20 86 21 88 22 8 23
REMARK SMILES IDX 9 24 10 25 11 26 12 27 13 28 74 29 14 30 73 31 15 32 16 33
REMARK SMILES IDX 17 34 67 35 18 36 72 37 66 38 68 39 19 40 71 41 65 42 64 43
REMARK SMILES IDX 20 45 52 46 32 47 51 48 33 49 36 50 50 51 69 52 34 53 35 54
REMARK SMILES IDX 49 56 70 57 37 58 21 59 22 60 30 61 23 62 24 63 28 64 31 65
REMARK SMILES IDX 25 66 26 67 29 68 27 69 53 70 54 71 62 72 55 73 56 74 60 75
REMARK SMILES IDX 63 76 57 77 58 78 61 79 59 80 38 81 39 82 47 83 40 84 41 85
REMARK SMILES IDX 45 86 48 87 42 88 43 89 46 90 44 91
REMARK H PARENT 77 11 68 44 36 55
REMARK Flexibility Score: inf
ROOT
ATOM      1  C   UNL A   1      31.343  29.329  24.358  1.00  0.00     0.274 C 
ENDROOT
BRANCH   1   2
ATOM      2  O   UNL A   1      30.423  28.228  24.246  1.00  0.00    -0.462 OA
BRANCH   2   3
ATOM      3  C   UNL A   1      30.524  27.442  23.156  1.00  0.00     0.315 C 
ATOM      4  O   UNL A   1      30.382  27.844  22.004  1.00  0.00    -0.252 OA
BRANCH   3   5
ATOM      5  C   UNL A   1      30.940  26.012  23.441  1.00  0.00     0.162 C 
ATOM      6  C   UNL A   1      33.521  26.528  23.537  1.00  0.00     0.076 C 
ATOM      7  C   UNL A   1      32.395  25.506  23.527  1.00  0.00     0.195 C 
ATOM      8  N   UNL A   1      32.371  24.471  24.585  1.00  0.00    -0.328 N 
ATOM      9  C   UNL A   1      30.271  25.508  24.710  1.00  0.00     0.083 C 
ATOM     10  C   UNL A   1      30.986  24.197  24.950  1.00  0.00     0.263 C 
ATOM     11  H   UNL A   1      32.799  23.660  24.137  1.00  0.00     0.348 HD
BRANCH   8  12
ATOM     12  C   UNL A   1      33.339  24.474  25.679  1.00  0.00     0.299 C 
BRANCH  12  13
ATOM     13  C   UNL A   1      34.630  23.701  25.490  1.00  0.00     0.007 A 
ATOM     14  C   UNL A   1      35.870  24.376  25.553  1.00  0.00     0.012 A 
ATOM     15  C   UNL A   1      34.630  22.324  25.232  1.00  0.00     0.015 A 
ATOM     16  C   UNL A   1      37.084  23.689  25.442  1.00  0.00     0.026 A 
ATOM     17  C   UNL A   1      35.841  21.660  25.125  1.00  0.00    -0.022 A 
ATOM     18  C   UNL A   1      37.062  22.324  25.239  1.00  0.00     0.040 A 
ATOM     19  C   UNL A   1      36.081  20.192  25.015  1.00  0.00     0.059 C 
ATOM     20  N   UNL A   1      38.150  21.457  25.129  1.00  0.00    -0.374 N 
ATOM     21  C   UNL A   1      37.588  20.167  24.706  1.00  0.00     0.121 C 
ATOM     22  C   UNL A   1      39.197  21.517  26.124  1.00  0.00     0.143 C 
ENDBRANCH  12  13
ENDBRANCH   8  12
ENDBRANCH   3   5
ENDBRANCH   2   3
ENDBRANCH   1   2
BRANCH   1  23
ATOM     23  C   UNL A   1      31.980  29.324  25.748  1.00  0.00     0.275 C 
BRANCH  23  24
ATOM     24  O   UNL A   1      33.221  30.057  25.743  1.00  0.00    -0.458 OA
BRANCH  24  25
ATOM     25  C   UNL A   1      33.402  30.894  26.787  1.00  0.00     0.338 C 
ATOM     26  O   UNL A   1      32.610  31.705  27.248  1.00  0.00    -0.246 OA
BRANCH  25  27
ATOM     27  C   UNL A   1      34.711  30.645  27.399  1.00  0.00     0.060 A 
ATOM     28  C   UNL A   1      35.004  29.353  27.833  1.00  0.00     0.016 A 
ATOM     29  C   UNL A   1      35.586  31.697  27.661  1.00  0.00     0.016 A 
ATOM     30  C   UNL A   1      36.141  29.113  28.594  1.00  0.00     0.010 A 
ATOM     31  C   UNL A   1      36.766  31.442  28.368  1.00  0.00     0.010 A 
ATOM     32  C   UNL A   1      37.039  30.153  28.860  1.00  0.00    -0.014 A 
BRANCH  32  33
ATOM     33  C   UNL A   1      38.253  29.885  29.670  1.00  0.00     0.031 A 
ATOM     34  C   UNL A   1      39.356  29.032  29.115  1.00  0.00     0.074 A 
ATOM     35  C   UNL A   1      38.375  30.436  30.893  1.00  0.00     0.049 A 
ATOM     36  N   UNL A   1      40.422  28.566  29.714  1.00  0.00    -0.248 NA
ATOM     37  C   UNL A   1      39.244  28.649  27.699  1.00  0.00     0.031 C 
ATOM     38  C   UNL A   1      37.403  31.335  31.515  1.00  0.00     0.029 A 
ATOM     39  N   UNL A   1      39.374  30.328  31.827  1.00  0.00    -0.354 N 
ATOM     40  C   UNL A   1      41.087  27.804  28.762  1.00  0.00     0.074 A 
ATOM     41  C   UNL A   1      40.306  27.870  27.545  1.00  0.00     0.031 C 
ATOM     42  C   UNL A   1      37.863  31.716  32.717  1.00  0.00     0.029 A 
ATOM     43  C   UNL A   1      39.125  31.032  32.979  1.00  0.00     0.049 A 
ATOM     44  H   UNL A   1      40.190  29.796  31.686  1.00  0.00     0.167 HD
ATOM     45  C   UNL A   1      42.243  27.111  28.898  1.00  0.00     0.037 A 
ATOM     46  C   UNL A   1      39.818  31.090  34.131  1.00  0.00     0.037 A 
ATOM     47  C   UNL A   1      43.031  27.078  30.102  1.00  0.00     0.049 A 
ATOM     48  C   UNL A   1      41.074  30.278  34.270  1.00  0.00     0.074 A 
ATOM     49  C   UNL A   1      44.207  26.389  30.348  1.00  0.00     0.029 A 
ATOM     50  N   UNL A   1      42.728  27.779  31.260  1.00  0.00    -0.354 N 
ATOM     51  N   UNL A   1      41.658  29.503  33.389  1.00  0.00    -0.248 NA
ATOM     52  C   UNL A   1      41.754  30.331  35.571  1.00  0.00     0.031 C 
ATOM     53  C   UNL A   1      44.604  26.658  31.663  1.00  0.00     0.029 A 
ATOM     54  C   UNL A   1      43.692  27.536  32.225  1.00  0.00     0.049 A 
ATOM     55  H   UNL A   1      41.944  28.362  31.378  1.00  0.00     0.167 HD
ATOM     56  C   UNL A   1      42.776  28.982  34.023  1.00  0.00     0.074 A 
ATOM     57  C   UNL A   1      42.799  29.544  35.358  1.00  0.00     0.031 C 
ATOM     58  C   UNL A   1      43.696  28.110  33.545  1.00  0.00     0.037 A 
BRANCH  45  59
ATOM     59  C   UNL A   1      42.707  26.306  27.723  1.00  0.00     0.064 A 
ATOM     60  C   UNL A   1      43.638  26.810  26.805  1.00  0.00     0.173 A 
ATOM     61  C   UNL A   1      42.237  24.998  27.535  1.00  0.00     0.173 A 
ATOM     62  F   UNL A   1      44.104  28.062  26.935  1.00  0.00    -0.203 F 
ATOM     63  C   UNL A   1      44.070  26.039  25.729  1.00  0.00     0.198 A 
ATOM     64  C   UNL A   1      42.686  24.222  26.470  1.00  0.00     0.198 A 
ATOM     65  F   UNL A   1      41.346  24.470  28.387  1.00  0.00    -0.203 F 
ATOM     66  F   UNL A   1      44.935  26.552  24.843  1.00  0.00    -0.200 F 
ATOM     67  C   UNL A   1      43.598  24.744  25.566  1.00  0.00     0.200 A 
ATOM     68  F   UNL A   1      42.235  22.969  26.317  1.00  0.00    -0.200 F 
ATOM     69  F   UNL A   1      44.019  24.001  24.532  1.00  0.00    -0.200 F 
ENDBRANCH  45  59
BRANCH  46  70
ATOM     70  C   UNL A   1      39.317  31.923  35.252  1.00  0.00     0.064 A 
ATOM     71  C   UNL A   1      39.633  33.286  35.333  1.00  0.00     0.173 A 
ATOM     72  C   UNL A   1      38.506  31.376  36.258  1.00  0.00     0.173 A 
ATOM     73  F   UNL A   1      40.425  33.845  34.408  1.00  0.00    -0.203 F 
ATOM     74  C   UNL A   1      39.160  34.070  36.384  1.00  0.00     0.198 A 
ATOM     75  C   UNL A   1      38.014  32.168  37.293  1.00  0.00     0.198 A 
ATOM     76  F   UNL A   1      38.178  30.077  36.224  1.00  0.00    -0.203 F 
ATOM     77  F   UNL A   1      39.503  35.363  36.458  1.00  0.00    -0.200 F 
ATOM     78  C   UNL A   1      38.345  33.512  37.358  1.00  0.00     0.200 A 
ATOM     79  F   UNL A   1      37.218  31.628  38.226  1.00  0.00    -0.200 F 
ATOM     80  F   UNL A   1      37.885  34.269  38.363  1.00  0.00    -0.200 F 
ENDBRANCH  46  70
BRANCH  58  81
ATOM     81  C   UNL A   1      44.812  27.731  34.467  1.00  0.00     0.064 A 
ATOM     82  C   UNL A   1      44.724  26.600  35.291  1.00  0.00     0.173 A 
ATOM     83  C   UNL A   1      45.991  28.488  34.505  1.00  0.00     0.173 A 
ATOM     84  F   UNL A   1      43.608  25.856  35.299  1.00  0.00    -0.203 F 
ATOM     85  C   UNL A   1      45.773  26.250  36.136  1.00  0.00     0.198 A 
ATOM     86  C   UNL A   1      47.045  28.126  35.338  1.00  0.00     0.198 A 
ATOM     87  F   UNL A   1      46.119  29.578  33.733  1.00  0.00    -0.203 F 
ATOM     88  F   UNL A   1      45.656  25.187  36.942  1.00  0.00    -0.200 F 
ATOM     89  C   UNL A   1      46.934  27.010  36.155  1.00  0.00     0.200 A 
ATOM     90  F   UNL A   1      48.169  28.856  35.352  1.00  0.00    -0.200 F 
ATOM     91  F   UNL A   1      47.944  26.672  36.968  1.00  0.00    -0.200 F 
ENDBRANCH  58  81
ENDBRANCH  32  33
ENDBRANCH  25  27
ENDBRANCH  24  25
ENDBRANCH  23  24
ENDBRANCH   1  23
TORSDOF 13
ENDMDL
MODEL 2
REMARK VINA RESULT:     -12.2      0.832      2.049
REMARK SMILES C[C@@H]1[C@H](C(=O)OCCOC(=O)c2ccc(-c3c4nc(c(-c5c(F)c(F)c(F)c(F)c5F)c5ccc([nH]5)c(-c5c(F)c(F)c(F)c(F)c5F)c5nc(c(-c6c(F)c(F)c(F)c(F)c6F)c6ccc3[nH]6)C=C5)C=C4)cc2)CC[N@@H+]1Cc1ccc2c(c1)CCN2C
REMARK SMILES IDX 7 1 6 2 4 3 5 4 3 5 1 6 2 7 77 8 75 9 76 10 78 12 79 13
REMARK SMILES IDX 80 14 84 15 81 16 83 17 82 18 85 19 87 20 86 21 88 22 8 23
REMARK SMILES IDX 9 24 10 25 11 26 12 27 13 28 74 29 14 30 73 31 15 32 16 33
REMARK SMILES IDX 17 34 67 35 18 36 72 37 66 38 68 39 19 40 71 41 65 42 64 43
REMARK SMILES IDX 20 45 52 46 32 47 51 48 33 49 36 50 50 51 69 52 34 53 35 54
REMARK SMILES IDX 49 56 70 57 37 58 21 59 22 60 30 61 23 62 24 63 28 64 31 65
REMARK SMILES IDX 25 66 26 67 29 68 27 69 53 70 54 71 62 72 55 73 56 74 60 75
REMARK SMILES IDX 63 76 57 77 58 78 61 79 59 80 38 81 39 82 47 83 40 84 41 85
REMARK SMILES IDX 45 86 48 87 42 88 43 89 46 90 44 91
REMARK H PARENT 77 11 68 44 36 55
REMARK Flexibility Score: inf
ROOT
ATOM      1  C   UNL A   1      31.541  29.220  24.593  1.00  0.00     0.274 C 
ENDROOT
BRANCH   1   2
ATOM      2  O   UNL A   1      30.988  28.008  25.140  1.00  0.00    -0.462 OA
BRANCH   2   3
ATOM      3  C   UNL A   1      31.772  26.912  25.143  1.00  0.00     0.315 C 
ATOM      4  O   UNL A   1      32.973  26.928  25.400  1.00  0.00    -0.252 OA
BRANCH   3   5
ATOM      5  C   UNL A   1      31.039  25.607  24.905  1.00  0.00     0.162 C 
ATOM      6  C   UNL A   1      31.653  25.451  22.349  1.00  0.00     0.076 C 
ATOM      7  C   UNL A   1      30.866  24.917  23.536  1.00  0.00     0.195 C 
ATOM      8  N   UNL A   1      30.932  23.468  23.833  1.00  0.00    -0.328 N 
ATOM      9  C   UNL A   1      31.571  24.522  25.829  1.00  0.00     0.083 C 
ATOM     10  C   UNL A   1      30.907  23.279  25.279  1.00  0.00     0.263 C 
ATOM     11  H   UNL A   1      30.086  23.096  23.402  1.00  0.00     0.348 HD
BRANCH   8  12
ATOM     12  C   UNL A   1      31.804  22.572  23.079  1.00  0.00     0.299 C 
BRANCH  12  13
ATOM     13  C   UNL A   1      33.130  22.179  23.699  1.00  0.00     0.007 A 
ATOM     14  C   UNL A   1      33.270  20.918  24.323  1.00  0.00     0.012 A 
ATOM     15  C   UNL A   1      34.229  23.047  23.692  1.00  0.00     0.015 A 
ATOM     16  C   UNL A   1      34.493  20.495  24.855  1.00  0.00     0.026 A 
ATOM     17  C   UNL A   1      35.433  22.612  24.223  1.00  0.00    -0.022 A 
ATOM     18  C   UNL A   1      35.578  21.347  24.791  1.00  0.00     0.040 A 
ATOM     19  C   UNL A   1      36.759  23.294  24.180  1.00  0.00     0.059 C 
ATOM     20  N   UNL A   1      36.880  21.110  25.235  1.00  0.00    -0.374 N 
ATOM     21  C   UNL A   1      37.575  22.400  25.131  1.00  0.00     0.121 C 
ATOM     22  C   UNL A   1      37.538  19.881  24.850  1.00  0.00     0.143 C 
ENDBRANCH  12  13
ENDBRANCH   8  12
ENDBRANCH   3   5
ENDBRANCH   2   3
ENDBRANCH   1   2
BRANCH   1  23
ATOM     23  C   UNL A   1      31.724  30.248  25.709  1.00  0.00     0.275 C 
BRANCH  23  24
ATOM     24  O   UNL A   1      33.054  30.171  26.261  1.00  0.00    -0.458 OA
BRANCH  24  25
ATOM     25  C   UNL A   1      33.431  31.229  27.009  1.00  0.00     0.338 C 
ATOM     26  O   UNL A   1      32.798  32.250  27.243  1.00  0.00    -0.246 OA
BRANCH  25  27
ATOM     27  C   UNL A   1      34.738  30.963  27.617  1.00  0.00     0.060 A 
ATOM     28  C   UNL A   1      35.047  29.652  27.977  1.00  0.00     0.016 A 
ATOM     29  C   UNL A   1      35.595  32.009  27.950  1.00  0.00     0.016 A 
ATOM     30  C   UNL A   1      36.180  29.383  28.734  1.00  0.00     0.010 A 
ATOM     31  C   UNL A   1      36.773  31.730  28.652  1.00  0.00     0.010 A 
ATOM     32  C   UNL A   1      37.060  30.418  29.070  1.00  0.00    -0.014 A 
BRANCH  32  33
ATOM     33  C   UNL A   1      38.270  30.120  29.874  1.00  0.00     0.031 A 
ATOM     34  C   UNL A   1      39.363  29.265  29.303  1.00  0.00     0.074 A 
ATOM     35  C   UNL A   1      38.398  30.645  31.108  1.00  0.00     0.049 A 
ATOM     36  N   UNL A   1      40.424  28.774  29.892  1.00  0.00    -0.248 NA
ATOM     37  C   UNL A   1      39.248  28.911  27.879  1.00  0.00     0.031 C 
ATOM     38  C   UNL A   1      37.437  31.543  31.748  1.00  0.00     0.029 A 
ATOM     39  N   UNL A   1      39.396  30.506  32.040  1.00  0.00    -0.354 N 
ATOM     40  C   UNL A   1      41.080  28.024  28.926  1.00  0.00     0.074 A 
ATOM     41  C   UNL A   1      40.300  28.123  27.710  1.00  0.00     0.031 C 
ATOM     42  C   UNL A   1      37.901  31.894  32.957  1.00  0.00     0.029 A 
ATOM     43  C   UNL A   1      39.155  31.190  33.206  1.00  0.00     0.049 A 
ATOM     44  H   UNL A   1      40.206  29.967  31.888  1.00  0.00     0.167 HD
ATOM     45  C   UNL A   1      42.227  27.314  29.049  1.00  0.00     0.037 A 
ATOM     46  C   UNL A   1      39.848  31.218  34.359  1.00  0.00     0.037 A 
ATOM     47  C   UNL A   1      43.015  27.247  30.252  1.00  0.00     0.049 A 
ATOM     48  C   UNL A   1      41.094  30.387  34.482  1.00  0.00     0.074 A 
ATOM     49  C   UNL A   1      44.182  26.540  30.484  1.00  0.00     0.029 A 
ATOM     50  N   UNL A   1      42.719  27.929  31.423  1.00  0.00    -0.354 N 
ATOM     51  N   UNL A   1      41.669  29.623  33.585  1.00  0.00    -0.248 NA
ATOM     52  C   UNL A   1      41.774  30.407  35.784  1.00  0.00     0.031 C 
ATOM     53  C   UNL A   1      44.581  26.778  31.805  1.00  0.00     0.029 A 
ATOM     54  C   UNL A   1      43.680  27.656  32.383  1.00  0.00     0.049 A 
ATOM     55  H   UNL A   1      41.942  28.519  31.553  1.00  0.00     0.167 HD
ATOM     56  C   UNL A   1      42.780  29.077  34.209  1.00  0.00     0.074 A 
ATOM     57  C   UNL A   1      42.810  29.612  35.555  1.00  0.00     0.031 C 
ATOM     58  C   UNL A   1      43.690  28.203  33.714  1.00  0.00     0.037 A 
BRANCH  45  59
ATOM     59  C   UNL A   1      42.683  26.527  27.858  1.00  0.00     0.064 A 
ATOM     60  C   UNL A   1      42.253  25.212  27.635  1.00  0.00     0.173 A 
ATOM     61  C   UNL A   1      43.536  27.112  26.910  1.00  0.00     0.173 A 
ATOM     62  F   UNL A   1      41.449  24.605  28.522  1.00  0.00    -0.203 F 
ATOM     63  C   UNL A   1      42.675  24.503  26.513  1.00  0.00     0.198 A 
ATOM     64  C   UNL A   1      43.939  26.408  25.779  1.00  0.00     0.198 A 
ATOM     65  F   UNL A   1      43.973  28.368  27.078  1.00  0.00    -0.203 F 
ATOM     66  F   UNL A   1      42.279  23.235  26.335  1.00  0.00    -0.200 F 
ATOM     67  C   UNL A   1      43.512  25.103  25.583  1.00  0.00     0.200 A 
ATOM     68  F   UNL A   1      44.742  26.991  24.878  1.00  0.00    -0.200 F 
ATOM     69  F   UNL A   1      43.913  24.421  24.501  1.00  0.00    -0.200 F 
ENDBRANCH  45  59
BRANCH  46  70
ATOM     70  C   UNL A   1      39.356  32.034  35.496  1.00  0.00     0.064 A 
ATOM     71  C   UNL A   1      39.724  33.380  35.628  1.00  0.00     0.173 A 
ATOM     72  C   UNL A   1      38.503  31.489  36.467  1.00  0.00     0.173 A 
ATOM     73  F   UNL A   1      40.557  33.935  34.737  1.00  0.00    -0.203 F 
ATOM     74  C   UNL A   1      39.261  34.148  36.693  1.00  0.00     0.198 A 
ATOM     75  C   UNL A   1      38.021  32.266  37.517  1.00  0.00     0.198 A 
ATOM     76  F   UNL A   1      38.125  30.206  36.385  1.00  0.00    -0.203 F 
ATOM     77  F   UNL A   1      39.653  35.424  36.816  1.00  0.00    -0.200 F 
ATOM     78  C   UNL A   1      38.404  33.594  37.632  1.00  0.00     0.200 A 
ATOM     79  F   UNL A   1      37.185  31.729  38.416  1.00  0.00    -0.200 F 
ATOM     80  F   UNL A   1      37.953  34.336  38.652  1.00  0.00    -0.200 F 
ENDBRANCH  46  70
BRANCH  58  81
ATOM     81  C   UNL A   1      44.802  27.792  34.629  1.00  0.00     0.064 A 
ATOM     82  C   UNL A   1      45.989  28.534  34.711  1.00  0.00     0.173 A 
ATOM     83  C   UNL A   1      44.666  26.665  35.451  1.00  0.00     0.173 A 
ATOM     84  F   UNL A   1      46.168  29.610  33.930  1.00  0.00    -0.203 F 
ATOM     85  C   UNL A   1      47.011  28.149  35.574  1.00  0.00     0.198 A 
ATOM     86  C   UNL A   1      45.682  26.295  36.326  1.00  0.00     0.198 A 
ATOM     87  F   UNL A   1      43.547  25.927  35.407  1.00  0.00    -0.203 F 
ATOM     88  F   UNL A   1      48.152  28.850  35.612  1.00  0.00    -0.200 F 
ATOM     89  C   UNL A   1      46.855  27.034  36.384  1.00  0.00     0.200 A 
ATOM     90  F   UNL A   1      45.530  25.220  37.113  1.00  0.00    -0.200 F 
ATOM     91  F   UNL A   1      47.839  26.666  37.215  1.00  0.00    -0.200 F 
ENDBRANCH  58  81
ENDBRANCH  32  33
ENDBRANCH  25  27
ENDBRANCH  24  25
ENDBRANCH  23  24
ENDBRANCH   1  23
TORSDOF 13
ENDMDL
MODEL 3
REMARK VINA RESULT:     -12.1      1.514      2.568
REMARK SMILES C[C@@H]1[C@H](C(=O)OCCOC(=O)c2ccc(-c3c4nc(c(-c5c(F)c(F)c(F)c(F)c5F)c5ccc([nH]5)c(-c5c(F)c(F)c(F)c(F)c5F)c5nc(c(-c6c(F)c(F)c(F)c(F)c6F)c6ccc3[nH]6)C=C5)C=C4)cc2)CC[N@@H+]1Cc1ccc2c(c1)CCN2C
REMARK SMILES IDX 7 1 6 2 4 3 5 4 3 5 1 6 2 7 77 8 75 9 76 10 78 12 79 13
REMARK SMILES IDX 80 14 84 15 81 16 83 17 82 18 85 19 87 20 86 21 88 22 8 23
REMARK SMILES IDX 9 24 10 25 11 26 12 27 13 28 74 29 14 30 73 31 15 32 16 33
REMARK SMILES IDX 17 34 67 35 18 36 72 37 66 38 68 39 19 40 71 41 65 42 64 43
REMARK SMILES IDX 20 45 52 46 32 47 51 48 33 49 36 50 50 51 69 52 34 53 35 54
REMARK SMILES IDX 49 56 70 57 37 58 21 59 22 60 30 61 23 62 24 63 28 64 31 65
REMARK SMILES IDX 25 66 26 67 29 68 27 69 53 70 54 71 62 72 55 73 56 74 60 75
REMARK SMILES IDX 63 76 57 77 58 78 61 79 59 80 38 81 39 82 47 83 40 84 41 85
REMARK SMILES IDX 45 86 48 87 42 88 43 89 46 90 44 91
REMARK H PARENT 77 11 68 44 36 55
REMARK Flexibility Score: inf
ROOT
ATOM      1  C   UNL A   1      31.342  29.485  24.609  1.00  0.00     0.274 C 
ENDROOT
BRANCH   1   2
ATOM      2  O   UNL A   1      32.524  28.707  24.341  1.00  0.00    -0.462 OA
BRANCH   2   3
ATOM      3  C   UNL A   1      32.389  27.624  23.550  1.00  0.00     0.315 C 
ATOM      4  O   UNL A   1      31.989  27.668  22.389  1.00  0.00    -0.252 OA
BRANCH   3   5
ATOM      5  C   UNL A   1      32.874  26.326  24.164  1.00  0.00     0.162 C 
ATOM      6  C   UNL A   1      30.479  25.481  24.861  1.00  0.00     0.076 C 
ATOM      7  C   UNL A   1      31.989  25.304  24.908  1.00  0.00     0.195 C 
ATOM      8  N   UNL A   1      32.557  23.984  24.553  1.00  0.00    -0.328 N 
ATOM      9  C   UNL A   1      33.642  25.507  23.138  1.00  0.00     0.083 C 
ATOM     10  C   UNL A   1      33.818  24.185  23.850  1.00  0.00     0.263 C 
ATOM     11  H   UNL A   1      32.709  23.538  25.458  1.00  0.00     0.348 HD
BRANCH   8  12
ATOM     12  C   UNL A   1      31.713  22.894  24.071  1.00  0.00     0.299 C 
BRANCH  12  13
ATOM     13  C   UNL A   1      32.214  21.474  24.246  1.00  0.00     0.007 A 
ATOM     14  C   UNL A   1      32.737  21.060  25.492  1.00  0.00     0.012 A 
ATOM     15  C   UNL A   1      32.194  20.553  23.191  1.00  0.00     0.015 A 
ATOM     16  C   UNL A   1      33.155  19.743  25.712  1.00  0.00     0.026 A 
ATOM     17  C   UNL A   1      32.611  19.253  23.425  1.00  0.00    -0.022 A 
ATOM     18  C   UNL A   1      33.078  18.838  24.672  1.00  0.00     0.040 A 
ATOM     19  C   UNL A   1      32.527  18.079  22.509  1.00  0.00     0.059 C 
ATOM     20  N   UNL A   1      33.416  17.484  24.689  1.00  0.00    -0.374 N 
ATOM     21  C   UNL A   1      33.356  17.043  23.289  1.00  0.00     0.121 C 
ATOM     22  C   UNL A   1      32.903  16.648  25.751  1.00  0.00     0.143 C 
ENDBRANCH  12  13
ENDBRANCH   8  12
ENDBRANCH   3   5
ENDBRANCH   2   3
ENDBRANCH   1   2
BRANCH   1  23
ATOM     23  C   UNL A   1      31.575  30.362  25.839  1.00  0.00     0.275 C 
BRANCH  23  24
ATOM     24  O   UNL A   1      32.981  30.447  26.146  1.00  0.00    -0.458 OA
BRANCH  24  25
ATOM     25  C   UNL A   1      33.325  31.423  27.012  1.00  0.00     0.338 C 
ATOM     26  O   UNL A   1      32.676  32.410  27.332  1.00  0.00    -0.246 OA
BRANCH  25  27
ATOM     27  C   UNL A   1      34.615  31.102  27.631  1.00  0.00     0.060 A 
ATOM     28  C   UNL A   1      34.856  29.783  28.013  1.00  0.00     0.016 A 
ATOM     29  C   UNL A   1      35.522  32.110  27.951  1.00  0.00     0.016 A 
ATOM     30  C   UNL A   1      35.972  29.471  28.780  1.00  0.00     0.010 A 
ATOM     31  C   UNL A   1      36.681  31.784  28.663  1.00  0.00     0.010 A 
ATOM     32  C   UNL A   1      36.901  30.466  29.103  1.00  0.00    -0.014 A 
BRANCH  32  33
ATOM     33  C   UNL A   1      38.092  30.121  29.918  1.00  0.00     0.031 A 
ATOM     34  C   UNL A   1      39.167  29.244  29.347  1.00  0.00     0.074 A 
ATOM     35  C   UNL A   1      38.219  30.623  31.161  1.00  0.00     0.049 A 
ATOM     36  N   UNL A   1      40.206  28.714  29.942  1.00  0.00    -0.248 NA
ATOM     37  C   UNL A   1      39.061  28.916  27.917  1.00  0.00     0.031 C 
ATOM     38  C   UNL A   1      37.275  31.538  31.803  1.00  0.00     0.029 A 
ATOM     39  N   UNL A   1      39.199  30.441  32.103  1.00  0.00    -0.354 N 
ATOM     40  C   UNL A   1      40.853  27.961  28.972  1.00  0.00     0.074 A 
ATOM     41  C   UNL A   1      40.092  28.101  27.748  1.00  0.00     0.031 C 
ATOM     42  C   UNL A   1      37.733  31.857  33.024  1.00  0.00     0.029 A 
ATOM     43  C   UNL A   1      38.963  31.114  33.277  1.00  0.00     0.049 A 
ATOM     44  H   UNL A   1      39.996  29.882  31.953  1.00  0.00     0.167 HD
ATOM     45  C   UNL A   1      41.978  27.217  29.098  1.00  0.00     0.037 A 
ATOM     46  C   UNL A   1      39.642  31.104  34.439  1.00  0.00     0.037 A 
ATOM     47  C   UNL A   1      42.748  27.109  30.309  1.00  0.00     0.049 A 
ATOM     48  C   UNL A   1      40.862  30.237  34.564  1.00  0.00     0.074 A 
ATOM     49  C   UNL A   1      43.891  26.366  30.545  1.00  0.00     0.029 A 
ATOM     50  N   UNL A   1      42.456  27.780  31.487  1.00  0.00    -0.354 N 
ATOM     51  N   UNL A   1      41.427  29.470  33.663  1.00  0.00    -0.248 NA
ATOM     52  C   UNL A   1      41.525  30.217  35.875  1.00  0.00     0.031 C 
ATOM     53  C   UNL A   1      44.280  26.571  31.874  1.00  0.00     0.029 A 
ATOM     54  C   UNL A   1      43.396  27.465  32.455  1.00  0.00     0.049 A 
ATOM     55  H   UNL A   1      41.695  28.390  31.617  1.00  0.00     0.167 HD
ATOM     56  C   UNL A   1      42.514  28.883  34.292  1.00  0.00     0.074 A 
ATOM     57  C   UNL A   1      42.541  29.396  35.647  1.00  0.00     0.031 C 
ATOM     58  C   UNL A   1      43.405  27.991  33.795  1.00  0.00     0.037 A 
BRANCH  45  59
ATOM     59  C   UNL A   1      42.426  26.435  27.900  1.00  0.00     0.064 A 
ATOM     60  C   UNL A   1      41.929  25.154  27.627  1.00  0.00     0.173 A 
ATOM     61  C   UNL A   1      43.343  26.993  26.997  1.00  0.00     0.173 A 
ATOM     62  F   UNL A   1      41.062  24.573  28.471  1.00  0.00    -0.203 F 
ATOM     63  C   UNL A   1      42.346  24.452  26.500  1.00  0.00     0.198 A 
ATOM     64  C   UNL A   1      43.742  26.297  25.860  1.00  0.00     0.198 A 
ATOM     65  F   UNL A   1      43.847  28.218  27.214  1.00  0.00    -0.203 F 
ATOM     66  F   UNL A   1      41.883  23.214  26.274  1.00  0.00    -0.200 F 
ATOM     67  C   UNL A   1      43.247  25.025  25.614  1.00  0.00     0.200 A 
ATOM     68  F   UNL A   1      44.608  26.855  25.002  1.00  0.00    -0.200 F 
ATOM     69  F   UNL A   1      43.643  24.349  24.527  1.00  0.00    -0.200 F 
ENDBRANCH  45  59
BRANCH  46  70
ATOM     70  C   UNL A   1      39.158  31.916  35.582  1.00  0.00     0.064 A 
ATOM     71  C   UNL A   1      39.518  33.264  35.710  1.00  0.00     0.173 A 
ATOM     72  C   UNL A   1      38.322  31.364  36.565  1.00  0.00     0.173 A 
ATOM     73  F   UNL A   1      40.335  33.827  34.808  1.00  0.00    -0.203 F 
ATOM     74  C   UNL A   1      39.062  34.029  36.781  1.00  0.00     0.198 A 
ATOM     75  C   UNL A   1      37.848  32.137  37.621  1.00  0.00     0.198 A 
ATOM     76  F   UNL A   1      37.953  30.078  36.487  1.00  0.00    -0.203 F 
ATOM     77  F   UNL A   1      39.446  35.308  36.900  1.00  0.00    -0.200 F 
ATOM     78  C   UNL A   1      38.222  33.468  37.732  1.00  0.00     0.200 A 
ATOM     79  F   UNL A   1      37.028  31.594  38.531  1.00  0.00    -0.200 F 
ATOM     80  F   UNL A   1      37.779  34.207  38.758  1.00  0.00    -0.200 F 
ENDBRANCH  46  70
BRANCH  58  81
ATOM     81  C   UNL A   1      44.493  27.535  34.717  1.00  0.00     0.064 A 
ATOM     82  C   UNL A   1      45.702  28.236  34.819  1.00  0.00     0.173 A 
ATOM     83  C   UNL A   1      44.311  26.405  35.526  1.00  0.00     0.173 A 
ATOM     84  F   UNL A   1      45.925  29.314  34.051  1.00  0.00    -0.203 F 
ATOM     85  C   UNL A   1      46.702  27.810  35.689  1.00  0.00     0.198 A 
ATOM     86  C   UNL A   1      45.305  25.992  36.407  1.00  0.00     0.198 A 
ATOM     87  F   UNL A   1      43.169  25.704  35.462  1.00  0.00    -0.203 F 
ATOM     88  F   UNL A   1      47.865  28.472  35.746  1.00  0.00    -0.200 F 
ATOM     89  C   UNL A   1      46.501  26.692  36.485  1.00  0.00     0.200 A 
ATOM     90  F   UNL A   1      45.109  24.915  37.181  1.00  0.00    -0.200 F 
ATOM     91  F   UNL A   1      47.463  26.283  37.323  1.00  0.00    -0.200 F 
ENDBRANCH  58  81
ENDBRANCH  32  33
ENDBRANCH  25  27
ENDBRANCH  24  25
ENDBRANCH  23  24
ENDBRANCH   1  23
TORSDOF 13
ENDMDL
