MODEL 1
REMARK VINA RESULT:     -13.3      0.000      0.000
REMARK SMILES CN1C(=O)/C(=N\Nc2cccc(C(=O)OCCOC(=O)c3ccc(-c4c5nc(c(-c6c(F)c(F)c(F)c(F)c6F)c6ccc([nH]6)c(-c6c(F)c(F)c(F)c(F)c6F)c6nc(c(-c7c(F)c(F)c(F)c(F)c7F)c7ccc4[nH]7)C=C6)C=C5)cc3)c2)c2ccccc21
REMARK SMILES IDX 16 1 15 2 13 3 14 4 12 5 8 6 9 7 84 8 10 9 11 10 7 11 6 13
REMARK SMILES IDX 1 14 2 15 3 16 90 17 4 18 5 19 85 20 89 21 86 22 88 23 87 24
REMARK SMILES IDX 17 25 18 26 19 27 20 28 21 29 22 30 83 31 23 32 82 33 24 34
REMARK SMILES IDX 25 35 26 36 76 37 27 38 81 39 75 40 77 41 28 42 80 43 74 44
REMARK SMILES IDX 73 45 29 47 61 48 41 49 60 50 42 51 45 52 59 53 78 54 43 55
REMARK SMILES IDX 44 56 58 58 79 59 46 60 30 61 31 62 39 63 32 64 33 65 37 66
REMARK SMILES IDX 40 67 34 68 35 69 38 70 36 71 62 72 63 73 71 74 64 75 65 76
REMARK SMILES IDX 69 77 72 78 66 79 67 80 70 81 68 82 47 83 48 84 56 85 49 86
REMARK SMILES IDX 50 87 54 88 57 89 51 90 52 91 55 92 53 93
REMARK H PARENT 7 12 77 46 45 57
REMARK Flexibility Score: inf
ROOT
ATOM      1  C   UNL A   1      31.002  29.964  24.734  1.00  0.00     0.275 C 
ENDROOT
BRANCH   1   2
ATOM      2  O   UNL A   1      31.622  29.385  23.568  1.00  0.00    -0.458 OA
BRANCH   2   3
ATOM      3  C   UNL A   1      30.769  28.895  22.636  1.00  0.00     0.338 C 
ATOM      4  O   UNL A   1      30.213  29.525  21.751  1.00  0.00    -0.246 OA
BRANCH   3   5
ATOM      5  C   UNL A   1      30.607  27.434  22.802  1.00  0.00     0.062 A 
ATOM      6  C   UNL A   1      31.398  25.210  22.277  1.00  0.00     0.057 A 
ATOM      7  C   UNL A   1      30.679  24.714  23.376  1.00  0.00     0.028 A 
ATOM      8  C   UNL A   1      31.264  26.562  21.934  1.00  0.00     0.043 A 
ATOM      9  C   UNL A   1      29.954  25.572  24.201  1.00  0.00     0.003 A 
ATOM     10  C   UNL A   1      29.969  26.940  23.944  1.00  0.00     0.016 A 
BRANCH   6  11
ATOM     11  N   UNL A   1      32.415  24.396  21.735  1.00  0.00    -0.278 N 
ATOM     12  H   UNL A   1      32.256  23.997  20.849  1.00  0.00     0.190 HD
BRANCH  11  13
ATOM     13  N   UNL A   1      33.595  24.122  22.343  1.00  0.00    -0.169 NA
ATOM     14  C   UNL A   1      32.711  20.039  24.937  1.00  0.00     0.153 C 
ATOM     15  N   UNL A   1      33.378  21.105  24.238  1.00  0.00    -0.309 N 
ATOM     16  C   UNL A   1      32.884  21.740  23.109  1.00  0.00     0.279 C 
ATOM     17  C   UNL A   1      34.636  21.621  24.576  1.00  0.00     0.053 A 
ATOM     18  O   UNL A   1      31.971  21.386  22.392  1.00  0.00    -0.267 OA
ATOM     19  C   UNL A   1      33.791  22.978  22.929  1.00  0.00     0.158 C 
ATOM     20  C   UNL A   1      34.961  22.704  23.759  1.00  0.00     0.031 A 
ATOM     21  C   UNL A   1      35.527  21.170  25.530  1.00  0.00     0.027 A 
ATOM     22  C   UNL A   1      36.168  23.369  23.839  1.00  0.00     0.013 A 
ATOM     23  C   UNL A   1      36.770  21.811  25.615  1.00  0.00     0.002 A 
ATOM     24  C   UNL A   1      37.089  22.896  24.773  1.00  0.00     0.001 A 
ENDBRANCH  11  13
ENDBRANCH   6  11
ENDBRANCH   3   5
ENDBRANCH   2   3
ENDBRANCH   1   2
BRANCH   1  25
ATOM     25  C   UNL A   1      31.803  29.611  25.986  1.00  0.00     0.275 C 
BRANCH  25  26
ATOM     26  O   UNL A   1      33.055  30.315  25.949  1.00  0.00    -0.458 OA
BRANCH  26  27
ATOM     27  C   UNL A   1      33.250  31.252  26.904  1.00  0.00     0.338 C 
ATOM     28  O   UNL A   1      32.516  32.188  27.179  1.00  0.00    -0.246 OA
BRANCH  27  29
ATOM     29  C   UNL A   1      34.532  30.989  27.593  1.00  0.00     0.060 A 
ATOM     30  C   UNL A   1      34.882  29.693  27.974  1.00  0.00     0.016 A 
ATOM     31  C   UNL A   1      35.374  32.051  27.918  1.00  0.00     0.016 A 
ATOM     32  C   UNL A   1      36.031  29.455  28.725  1.00  0.00     0.010 A 
ATOM     33  C   UNL A   1      36.574  31.803  28.594  1.00  0.00     0.010 A 
ATOM     34  C   UNL A   1      36.908  30.505  29.025  1.00  0.00    -0.014 A 
BRANCH  34  35
ATOM     35  C   UNL A   1      38.148  30.263  29.811  1.00  0.00     0.031 A 
ATOM     36  C   UNL A   1      39.257  29.435  29.222  1.00  0.00     0.074 A 
ATOM     37  C   UNL A   1      38.292  30.770  31.051  1.00  0.00     0.049 A 
ATOM     38  N   UNL A   1      40.298  28.904  29.809  1.00  0.00    -0.248 NA
ATOM     39  C   UNL A   1      39.174  29.157  27.780  1.00  0.00     0.031 C 
ATOM     40  C   UNL A   1      37.330  31.636  31.734  1.00  0.00     0.029 A 
ATOM     41  N   UNL A   1      39.313  30.629  31.961  1.00  0.00    -0.354 N 
ATOM     42  C   UNL A   1      40.954  28.173  28.828  1.00  0.00     0.074 A 
ATOM     43  C   UNL A   1      40.202  28.340  27.602  1.00  0.00     0.031 C 
ATOM     44  C   UNL A   1      37.818  31.974  32.937  1.00  0.00     0.029 A 
ATOM     45  C   UNL A   1      39.085  31.282  33.147  1.00  0.00     0.049 A 
ATOM     46  H   UNL A   1      40.129  30.110  31.779  1.00  0.00     0.167 HD
ATOM     47  C   UNL A   1      42.075  27.423  28.945  1.00  0.00     0.037 A 
ATOM     48  C   UNL A   1      39.791  31.287  34.294  1.00  0.00     0.037 A 
ATOM     49  C   UNL A   1      42.858  27.308  30.146  1.00  0.00     0.049 A 
ATOM     50  C   UNL A   1      41.032  30.448  34.402  1.00  0.00     0.074 A 
ATOM     51  C   UNL A   1      44.008  26.570  30.365  1.00  0.00     0.029 A 
ATOM     52  N   UNL A   1      42.582  27.977  31.330  1.00  0.00    -0.354 N 
ATOM     53  N   UNL A   1      41.589  29.678  33.499  1.00  0.00    -0.248 NA
ATOM     54  C   UNL A   1      41.727  30.456  35.697  1.00  0.00     0.031 C 
ATOM     55  C   UNL A   1      44.420  26.780  31.686  1.00  0.00     0.029 A 
ATOM     56  C   UNL A   1      43.540  27.669  32.281  1.00  0.00     0.049 A 
ATOM     57  H   UNL A   1      41.817  28.581  31.473  1.00  0.00     0.167 HD
ATOM     58  C   UNL A   1      42.690  29.102  34.117  1.00  0.00     0.074 A 
ATOM     59  C   UNL A   1      42.741  29.634  35.463  1.00  0.00     0.031 C 
ATOM     60  C   UNL A   1      43.569  28.202  33.618  1.00  0.00     0.037 A 
BRANCH  47  61
ATOM     61  C   UNL A   1      42.502  26.634  27.745  1.00  0.00     0.064 A 
ATOM     62  C   UNL A   1      43.468  27.112  26.849  1.00  0.00     0.173 A 
ATOM     63  C   UNL A   1      41.952  25.365  27.506  1.00  0.00     0.173 A 
ATOM     64  F   UNL A   1      44.010  28.326  27.027  1.00  0.00    -0.203 F 
ATOM     65  C   UNL A   1      43.854  26.356  25.745  1.00  0.00     0.198 A 
ATOM     66  C   UNL A   1      42.355  24.603  26.414  1.00  0.00     0.198 A 
ATOM     67  F   UNL A   1      41.025  24.863  28.337  1.00  0.00    -0.203 F 
ATOM     68  F   UNL A   1      44.751  26.848  24.879  1.00  0.00    -0.200 F 
ATOM     69  C   UNL A   1      43.302  25.102  25.531  1.00  0.00     0.200 A 
ATOM     70  F   UNL A   1      41.826  23.389  26.212  1.00  0.00    -0.200 F 
ATOM     71  F   UNL A   1      43.677  24.374  24.469  1.00  0.00    -0.200 F 
ENDBRANCH  47  61
BRANCH  48  72
ATOM     72  C   UNL A   1      39.304  32.080  35.450  1.00  0.00     0.064 A 
ATOM     73  C   UNL A   1      38.455  31.510  36.407  1.00  0.00     0.173 A 
ATOM     74  C   UNL A   1      39.692  33.416  35.631  1.00  0.00     0.173 A 
ATOM     75  F   UNL A   1      38.033  30.245  36.259  1.00  0.00    -0.203 F 
ATOM     76  C   UNL A   1      38.011  32.246  37.503  1.00  0.00     0.198 A 
ATOM     77  C   UNL A   1      39.269  34.143  36.741  1.00  0.00     0.198 A 
ATOM     78  F   UNL A   1      40.501  34.007  34.740  1.00  0.00    -0.203 F 
ATOM     79  F   UNL A   1      37.176  31.687  38.390  1.00  0.00    -0.200 F 
ATOM     80  C   UNL A   1      38.426  33.559  37.675  1.00  0.00     0.200 A 
ATOM     81  F   UNL A   1      39.681  35.407  36.908  1.00  0.00    -0.200 F 
ATOM     82  F   UNL A   1      38.010  34.262  38.736  1.00  0.00    -0.200 F 
ENDBRANCH  48  72
BRANCH  60  83
ATOM     83  C   UNL A   1      44.659  27.736  34.532  1.00  0.00     0.064 A 
ATOM     84  C   UNL A   1      44.501  26.587  35.321  1.00  0.00     0.173 A 
ATOM     85  C   UNL A   1      45.880  28.422  34.598  1.00  0.00     0.173 A 
ATOM     86  F   UNL A   1      43.344  25.910  35.303  1.00  0.00    -0.203 F 
ATOM     87  C   UNL A   1      45.526  26.150  36.155  1.00  0.00     0.198 A 
ATOM     88  C   UNL A   1      46.908  27.972  35.419  1.00  0.00     0.198 A 
ATOM     89  F   UNL A   1      46.075  29.525  33.860  1.00  0.00    -0.203 F 
ATOM     90  F   UNL A   1      45.344  25.068  36.925  1.00  0.00    -0.200 F 
ATOM     91  C   UNL A   1      46.729  26.838  36.201  1.00  0.00     0.200 A 
ATOM     92  F   UNL A   1      48.072  28.635  35.460  1.00  0.00    -0.200 F 
ATOM     93  F   UNL A   1      47.715  26.415  37.003  1.00  0.00    -0.200 F 
ENDBRANCH  60  83
ENDBRANCH  34  35
ENDBRANCH  27  29
ENDBRANCH  26  27
ENDBRANCH  25  26
ENDBRANCH   1  25
TORSDOF 13
ENDMDL
MODEL 2
REMARK VINA RESULT:     -13.1      3.347      8.371
REMARK SMILES CN1C(=O)/C(=N\Nc2cccc(C(=O)OCCOC(=O)c3ccc(-c4c5nc(c(-c6c(F)c(F)c(F)c(F)c6F)c6ccc([nH]6)c(-c6c(F)c(F)c(F)c(F)c6F)c6nc(c(-c7c(F)c(F)c(F)c(F)c7F)c7ccc4[nH]7)C=C6)C=C5)cc3)c2)c2ccccc21
REMARK SMILES IDX 16 1 15 2 13 3 14 4 12 5 8 6 9 7 84 8 10 9 11 10 7 11 6 13
REMARK SMILES IDX 1 14 2 15 3 16 90 17 4 18 5 19 85 20 89 21 86 22 88 23 87 24
REMARK SMILES IDX 17 25 18 26 19 27 20 28 21 29 22 30 83 31 23 32 82 33 24 34
REMARK SMILES IDX 25 35 26 36 76 37 27 38 81 39 75 40 77 41 28 42 80 43 74 44
REMARK SMILES IDX 73 45 29 47 61 48 41 49 60 50 42 51 45 52 59 53 78 54 43 55
REMARK SMILES IDX 44 56 58 58 79 59 46 60 30 61 31 62 39 63 32 64 33 65 37 66
REMARK SMILES IDX 40 67 34 68 35 69 38 70 36 71 62 72 63 73 71 74 64 75 65 76
REMARK SMILES IDX 69 77 72 78 66 79 67 80 70 81 68 82 47 83 48 84 56 85 49 86
REMARK SMILES IDX 50 87 54 88 57 89 51 90 52 91 55 92 53 93
REMARK H PARENT 7 12 77 46 45 57
REMARK Flexibility Score: inf
ROOT
ATOM      1  C   UNL A   1      42.675  20.525  26.131  1.00  0.00     0.275 C 
ENDROOT
BRANCH   1   2
ATOM      2  O   UNL A   1      41.298  20.769  25.778  1.00  0.00    -0.458 OA
BRANCH   2   3
ATOM      3  C   UNL A   1      40.499  21.179  26.793  1.00  0.00     0.338 C 
ATOM      4  O   UNL A   1      40.617  20.896  27.975  1.00  0.00    -0.246 OA
BRANCH   3   5
ATOM      5  C   UNL A   1      39.438  22.076  26.286  1.00  0.00     0.062 A 
ATOM      6  C   UNL A   1      37.281  22.303  25.219  1.00  0.00     0.057 A 
ATOM      7  C   UNL A   1      37.203  23.621  25.697  1.00  0.00     0.028 A 
ATOM      8  C   UNL A   1      38.459  21.576  25.429  1.00  0.00     0.043 A 
ATOM      9  C   UNL A   1      38.218  24.155  26.489  1.00  0.00     0.003 A 
ATOM     10  C   UNL A   1      39.307  23.359  26.829  1.00  0.00     0.016 A 
BRANCH   6  11
ATOM     11  N   UNL A   1      36.086  21.690  24.787  1.00  0.00    -0.278 N 
ATOM     12  H   UNL A   1      36.148  21.043  24.047  1.00  0.00     0.190 HD
BRANCH  11  13
ATOM     13  N   UNL A   1      34.860  21.924  25.314  1.00  0.00    -0.169 NA
ATOM     14  C   UNL A   1      33.115  25.710  22.707  1.00  0.00     0.153 C 
ATOM     15  N   UNL A   1      33.206  24.557  23.563  1.00  0.00    -0.309 N 
ATOM     16  C   UNL A   1      34.117  23.525  23.403  1.00  0.00     0.279 C 
ATOM     17  C   UNL A   1      32.361  24.299  24.651  1.00  0.00     0.053 A 
ATOM     18  O   UNL A   1      34.810  23.283  22.437  1.00  0.00    -0.267 OA
ATOM     19  C   UNL A   1      34.017  22.711  24.713  1.00  0.00     0.158 C 
ATOM     20  C   UNL A   1      32.766  23.148  25.327  1.00  0.00     0.031 A 
ATOM     21  C   UNL A   1      31.235  24.990  25.054  1.00  0.00     0.027 A 
ATOM     22  C   UNL A   1      32.079  22.631  26.407  1.00  0.00     0.013 A 
ATOM     23  C   UNL A   1      30.506  24.473  26.132  1.00  0.00     0.002 A 
ATOM     24  C   UNL A   1      30.920  23.302  26.798  1.00  0.00     0.001 A 
ENDBRANCH  11  13
ENDBRANCH   6  11
ENDBRANCH   3   5
ENDBRANCH   2   3
ENDBRANCH   1   2
BRANCH   1  25
ATOM     25  C   UNL A   1      43.592  21.470  25.357  1.00  0.00     0.275 C 
BRANCH  25  26
ATOM     26  O   UNL A   1      42.876  22.682  25.071  1.00  0.00    -0.458 OA
BRANCH  26  27
ATOM     27  C   UNL A   1      43.612  23.811  24.980  1.00  0.00     0.338 C 
ATOM     28  O   UNL A   1      44.539  24.028  24.215  1.00  0.00    -0.246 OA
BRANCH  27  29
ATOM     29  C   UNL A   1      43.134  24.789  25.982  1.00  0.00     0.060 A 
ATOM     30  C   UNL A   1      43.281  26.160  25.764  1.00  0.00     0.016 A 
ATOM     31  C   UNL A   1      42.586  24.340  27.182  1.00  0.00     0.016 A 
ATOM     32  C   UNL A   1      42.940  27.080  26.754  1.00  0.00     0.010 A 
ATOM     33  C   UNL A   1      42.159  25.265  28.140  1.00  0.00     0.010 A 
ATOM     34  C   UNL A   1      42.350  26.646  27.947  1.00  0.00    -0.014 A 
BRANCH  34  35
ATOM     35  C   UNL A   1      41.965  27.620  29.005  1.00  0.00     0.031 A 
ATOM     36  C   UNL A   1      42.814  27.760  30.238  1.00  0.00     0.074 A 
ATOM     37  C   UNL A   1      40.858  28.378  28.879  1.00  0.00     0.049 A 
ATOM     38  N   UNL A   1      42.542  28.353  31.372  1.00  0.00    -0.248 NA
ATOM     39  C   UNL A   1      44.145  27.133  30.193  1.00  0.00     0.031 C 
ATOM     40  C   UNL A   1      39.966  28.395  27.719  1.00  0.00     0.029 A 
ATOM     41  N   UNL A   1      40.294  29.286  29.743  1.00  0.00    -0.354 N 
ATOM     42  C   UNL A   1      43.632  28.113  32.197  1.00  0.00     0.074 A 
ATOM     43  C   UNL A   1      44.580  27.332  31.430  1.00  0.00     0.031 C 
ATOM     44  C   UNL A   1      38.989  29.291  27.928  1.00  0.00     0.029 A 
ATOM     45  C   UNL A   1      39.134  29.847  29.269  1.00  0.00     0.049 A 
ATOM     46  H   UNL A   1      40.686  29.513  30.617  1.00  0.00     0.167 HD
ATOM     47  C   UNL A   1      43.819  28.501  33.480  1.00  0.00     0.037 A 
ATOM     48  C   UNL A   1      38.257  30.680  29.863  1.00  0.00     0.037 A 
ATOM     49  C   UNL A   1      42.907  29.331  34.222  1.00  0.00     0.049 A 
ATOM     50  C   UNL A   1      38.484  31.099  31.287  1.00  0.00     0.074 A 
ATOM     51  C   UNL A   1      43.006  29.775  35.529  1.00  0.00     0.029 A 
ATOM     52  N   UNL A   1      41.735  29.865  33.706  1.00  0.00    -0.354 N 
ATOM     53  N   UNL A   1      39.467  30.784  32.093  1.00  0.00    -0.248 NA
ATOM     54  C   UNL A   1      37.463  31.965  31.893  1.00  0.00     0.031 C 
ATOM     55  C   UNL A   1      41.886  30.567  35.810  1.00  0.00     0.029 A 
ATOM     56  C   UNL A   1      41.104  30.636  34.668  1.00  0.00     0.049 A 
ATOM     57  H   UNL A   1      41.402  29.719  32.791  1.00  0.00     0.167 HD
ATOM     58  C   UNL A   1      39.181  31.401  33.302  1.00  0.00     0.074 A 
ATOM     59  C   UNL A   1      37.947  32.135  33.116  1.00  0.00     0.031 C 
ATOM     60  C   UNL A   1      39.871  31.351  34.466  1.00  0.00     0.037 A 
BRANCH  47  61
ATOM     61  C   UNL A   1      45.045  27.998  34.179  1.00  0.00     0.064 A 
ATOM     62  C   UNL A   1      46.219  28.759  34.255  1.00  0.00     0.173 A 
ATOM     63  C   UNL A   1      45.030  26.743  34.807  1.00  0.00     0.173 A 
ATOM     64  F   UNL A   1      46.286  29.958  33.656  1.00  0.00    -0.203 F 
ATOM     65  C   UNL A   1      47.343  28.272  34.917  1.00  0.00     0.198 A 
ATOM     66  C   UNL A   1      46.148  26.268  35.486  1.00  0.00     0.198 A 
ATOM     67  F   UNL A   1      43.928  25.978  34.763  1.00  0.00    -0.203 F 
ATOM     68  F   UNL A   1      48.469  28.999  34.945  1.00  0.00    -0.200 F 
ATOM     69  C   UNL A   1      47.306  27.031  35.536  1.00  0.00     0.200 A 
ATOM     70  F   UNL A   1      46.108  25.072  36.089  1.00  0.00    -0.200 F 
ATOM     71  F   UNL A   1      48.388  26.566  36.176  1.00  0.00    -0.200 F 
ENDBRANCH  47  61
BRANCH  48  72
ATOM     72  C   UNL A   1      37.055  31.130  29.117  1.00  0.00     0.064 A 
ATOM     73  C   UNL A   1      35.977  30.263  28.901  1.00  0.00     0.173 A 
ATOM     74  C   UNL A   1      36.953  32.439  28.624  1.00  0.00     0.173 A 
ATOM     75  F   UNL A   1      36.043  28.993  29.328  1.00  0.00    -0.203 F 
ATOM     76  C   UNL A   1      34.839  30.687  28.219  1.00  0.00     0.198 A 
ATOM     77  C   UNL A   1      35.804  32.870  27.964  1.00  0.00     0.198 A 
ATOM     78  F   UNL A   1      37.961  33.305  28.802  1.00  0.00    -0.203 F 
ATOM     79  F   UNL A   1      33.832  29.831  27.999  1.00  0.00    -0.200 F 
ATOM     80  C   UNL A   1      34.749  31.994  27.759  1.00  0.00     0.200 A 
ATOM     81  F   UNL A   1      35.719  34.136  27.531  1.00  0.00    -0.200 F 
ATOM     82  F   UNL A   1      33.650  32.406  27.114  1.00  0.00    -0.200 F 
ENDBRANCH  48  72
BRANCH  60  83
ATOM     83  C   UNL A   1      39.306  32.110  35.626  1.00  0.00     0.064 A 
ATOM     84  C   UNL A   1      38.454  31.489  36.552  1.00  0.00     0.173 A 
ATOM     85  C   UNL A   1      39.640  33.456  35.833  1.00  0.00     0.173 A 
ATOM     86  F   UNL A   1      38.095  30.208  36.384  1.00  0.00    -0.203 F 
ATOM     87  C   UNL A   1      37.947  32.196  37.638  1.00  0.00     0.198 A 
ATOM     88  C   UNL A   1      39.145  34.154  36.929  1.00  0.00     0.198 A 
ATOM     89  F   UNL A   1      40.452  34.090  34.972  1.00  0.00    -0.203 F 
ATOM     90  F   UNL A   1      37.111  31.594  38.495  1.00  0.00    -0.200 F 
ATOM     91  C   UNL A   1      38.296  33.525  37.829  1.00  0.00     0.200 A 
ATOM     92  F   UNL A   1      39.485  35.437  37.115  1.00  0.00    -0.200 F 
ATOM     93  F   UNL A   1      37.808  34.203  38.876  1.00  0.00    -0.200 F 
ENDBRANCH  60  83
ENDBRANCH  34  35
ENDBRANCH  27  29
ENDBRANCH  26  27
ENDBRANCH  25  26
ENDBRANCH   1  25
TORSDOF 13
ENDMDL
MODEL 3
REMARK VINA RESULT:     -13.1      4.188      9.687
REMARK SMILES CN1C(=O)/C(=N\Nc2cccc(C(=O)OCCOC(=O)c3ccc(-c4c5nc(c(-c6c(F)c(F)c(F)c(F)c6F)c6ccc([nH]6)c(-c6c(F)c(F)c(F)c(F)c6F)c6nc(c(-c7c(F)c(F)c(F)c(F)c7F)c7ccc4[nH]7)C=C6)C=C5)cc3)c2)c2ccccc21
REMARK SMILES IDX 16 1 15 2 13 3 14 4 12 5 8 6 9 7 84 8 10 9 11 10 7 11 6 13
REMARK SMILES IDX 1 14 2 15 3 16 90 17 4 18 5 19 85 20 89 21 86 22 88 23 87 24
REMARK SMILES IDX 17 25 18 26 19 27 20 28 21 29 22 30 83 31 23 32 82 33 24 34
REMARK SMILES IDX 25 35 26 36 76 37 27 38 81 39 75 40 77 41 28 42 80 43 74 44
REMARK SMILES IDX 73 45 29 47 61 48 41 49 60 50 42 51 45 52 59 53 78 54 43 55
REMARK SMILES IDX 44 56 58 58 79 59 46 60 30 61 31 62 39 63 32 64 33 65 37 66
REMARK SMILES IDX 40 67 34 68 35 69 38 70 36 71 62 72 63 73 71 74 64 75 65 76
REMARK SMILES IDX 69 77 72 78 66 79 67 80 70 81 68 82 47 83 48 84 56 85 49 86
REMARK SMILES IDX 50 87 54 88 57 89 51 90 52 91 55 92 53 93
REMARK H PARENT 7 12 77 46 45 57
REMARK Flexibility Score: inf
ROOT
ATOM      1  C   UNL A   1      35.907  19.967  25.014  1.00  0.00     0.275 C 
ENDROOT
BRANCH   1   2
ATOM      2  O   UNL A   1      34.503  20.108  24.714  1.00  0.00    -0.458 OA
BRANCH   2   3
ATOM      3  C   UNL A   1      33.794  20.866  25.586  1.00  0.00     0.338 C 
ATOM      4  O   UNL A   1      33.982  20.966  26.787  1.00  0.00    -0.246 OA
BRANCH   3   5
ATOM      5  C   UNL A   1      32.738  21.618  24.875  1.00  0.00     0.062 A 
ATOM      6  C   UNL A   1      30.901  23.185  24.996  1.00  0.00     0.057 A 
ATOM      7  C   UNL A   1      31.017  23.401  23.614  1.00  0.00     0.028 A 
ATOM      8  C   UNL A   1      31.699  22.204  25.597  1.00  0.00     0.043 A 
ATOM      9  C   UNL A   1      32.003  22.756  22.871  1.00  0.00     0.003 A 
ATOM     10  C   UNL A   1      32.900  21.910  23.516  1.00  0.00     0.016 A 
BRANCH   6  11
ATOM     11  N   UNL A   1      30.184  24.136  25.752  1.00  0.00    -0.278 N 
ATOM     12  H   UNL A   1      29.227  23.966  25.910  1.00  0.00     0.190 HD
BRANCH  11  13
ATOM     13  N   UNL A   1      30.714  25.267  26.278  1.00  0.00    -0.169 NA
ATOM     14  C   UNL A   1      30.364  28.575  22.657  1.00  0.00     0.153 C 
ATOM     15  N   UNL A   1      30.509  27.967  23.952  1.00  0.00    -0.309 N 
ATOM     16  C   UNL A   1      29.873  26.803  24.353  1.00  0.00     0.279 C 
ATOM     17  C   UNL A   1      31.280  28.488  25.000  1.00  0.00     0.053 A 
ATOM     18  O   UNL A   1      28.944  26.236  23.818  1.00  0.00    -0.267 OA
ATOM     19  C   UNL A   1      30.574  26.410  25.673  1.00  0.00     0.158 C 
ATOM     20  C   UNL A   1      31.283  27.618  26.090  1.00  0.00     0.031 A 
ATOM     21  C   UNL A   1      31.942  29.698  25.067  1.00  0.00     0.027 A 
ATOM     22  C   UNL A   1      31.920  27.907  27.280  1.00  0.00     0.013 A 
ATOM     23  C   UNL A   1      32.577  30.027  26.271  1.00  0.00     0.002 A 
ATOM     24  C   UNL A   1      32.560  29.143  27.369  1.00  0.00     0.001 A 
ENDBRANCH  11  13
ENDBRANCH   6  11
ENDBRANCH   3   5
ENDBRANCH   2   3
ENDBRANCH   1   2
BRANCH   1  25
ATOM     25  C   UNL A   1      36.654  21.250  24.653  1.00  0.00     0.275 C 
BRANCH  25  26
ATOM     26  O   UNL A   1      37.275  21.775  25.837  1.00  0.00    -0.458 OA
BRANCH  26  27
ATOM     27  C   UNL A   1      38.588  21.498  26.003  1.00  0.00     0.338 C 
ATOM     28  O   UNL A   1      39.151  20.437  25.790  1.00  0.00    -0.246 OA
BRANCH  27  29
ATOM     29  C   UNL A   1      39.281  22.703  26.511  1.00  0.00     0.060 A 
ATOM     30  C   UNL A   1      38.845  23.979  26.152  1.00  0.00     0.016 A 
ATOM     31  C   UNL A   1      40.415  22.565  27.309  1.00  0.00     0.016 A 
ATOM     32  C   UNL A   1      39.562  25.112  26.531  1.00  0.00     0.010 A 
ATOM     33  C   UNL A   1      41.085  23.705  27.768  1.00  0.00     0.010 A 
ATOM     34  C   UNL A   1      40.679  24.992  27.367  1.00  0.00    -0.014 A 
BRANCH  34  35
ATOM     35  C   UNL A   1      41.444  26.194  27.795  1.00  0.00     0.031 A 
ATOM     36  C   UNL A   1      40.773  27.251  28.628  1.00  0.00     0.074 A 
ATOM     37  C   UNL A   1      42.734  26.357  27.441  1.00  0.00     0.049 A 
ATOM     38  N   UNL A   1      41.166  28.468  28.901  1.00  0.00    -0.248 NA
ATOM     39  C   UNL A   1      39.476  26.891  29.223  1.00  0.00     0.031 C 
ATOM     40  C   UNL A   1      43.537  25.396  26.683  1.00  0.00     0.029 A 
ATOM     41  N   UNL A   1      43.601  27.398  27.676  1.00  0.00    -0.354 N 
ATOM     42  C   UNL A   1      40.138  29.042  29.637  1.00  0.00     0.074 A 
ATOM     43  C   UNL A   1      39.107  28.035  29.782  1.00  0.00     0.031 C 
ATOM     44  C   UNL A   1      44.783  25.876  26.544  1.00  0.00     0.029 A 
ATOM     45  C   UNL A   1      44.844  27.212  27.125  1.00  0.00     0.049 A 
ATOM     46  H   UNL A   1      43.353  28.199  28.191  1.00  0.00     0.167 HD
ATOM     47  C   UNL A   1      40.058  30.298  30.135  1.00  0.00     0.037 A 
ATOM     48  C   UNL A   1      45.904  28.041  27.053  1.00  0.00     0.037 A 
ATOM     49  C   UNL A   1      41.108  31.278  30.046  1.00  0.00     0.049 A 
ATOM     50  C   UNL A   1      45.794  29.431  27.613  1.00  0.00     0.074 A 
ATOM     51  C   UNL A   1      41.121  32.580  30.517  1.00  0.00     0.029 A 
ATOM     52  N   UNL A   1      42.347  31.051  29.466  1.00  0.00    -0.354 N 
ATOM     53  N   UNL A   1      44.781  29.999  28.217  1.00  0.00    -0.248 NA
ATOM     54  C   UNL A   1      46.967  30.303  27.454  1.00  0.00     0.031 C 
ATOM     55  C   UNL A   1      42.363  33.146  30.208  1.00  0.00     0.029 A 
ATOM     56  C   UNL A   1      43.132  32.187  29.568  1.00  0.00     0.049 A 
ATOM     57  H   UNL A   1      42.627  30.206  29.044  1.00  0.00     0.167 HD
ATOM     58  C   UNL A   1      45.185  31.296  28.501  1.00  0.00     0.074 A 
ATOM     59  C   UNL A   1      46.549  31.422  28.030  1.00  0.00     0.031 C 
ATOM     60  C   UNL A   1      44.484  32.295  29.086  1.00  0.00     0.037 A 
BRANCH  47  61
ATOM     61  C   UNL A   1      38.772  30.697  30.792  1.00  0.00     0.064 A 
ATOM     62  C   UNL A   1      38.616  30.683  32.184  1.00  0.00     0.173 A 
ATOM     63  C   UNL A   1      37.688  31.127  30.011  1.00  0.00     0.173 A 
ATOM     64  F   UNL A   1      39.618  30.265  32.971  1.00  0.00    -0.203 F 
ATOM     65  C   UNL A   1      37.413  31.067  32.771  1.00  0.00     0.198 A 
ATOM     66  C   UNL A   1      36.494  31.530  30.601  1.00  0.00     0.198 A 
ATOM     67  F   UNL A   1      37.790  31.160  28.673  1.00  0.00    -0.203 F 
ATOM     68  F   UNL A   1      37.270  31.009  34.102  1.00  0.00    -0.200 F 
ATOM     69  C   UNL A   1      36.355  31.494  31.980  1.00  0.00     0.200 A 
ATOM     70  F   UNL A   1      35.477  31.948  29.836  1.00  0.00    -0.200 F 
ATOM     71  F   UNL A   1      35.199  31.865  32.548  1.00  0.00    -0.200 F 
ENDBRANCH  47  61
BRANCH  48  72
ATOM     72  C   UNL A   1      47.144  27.587  26.376  1.00  0.00     0.064 A 
ATOM     73  C   UNL A   1      48.193  27.014  27.105  1.00  0.00     0.173 A 
ATOM     74  C   UNL A   1      47.298  27.701  24.986  1.00  0.00     0.173 A 
ATOM     75  F   UNL A   1      48.103  26.913  28.440  1.00  0.00    -0.203 F 
ATOM     76  C   UNL A   1      49.351  26.570  26.470  1.00  0.00     0.198 A 
ATOM     77  C   UNL A   1      48.444  27.233  24.349  1.00  0.00     0.198 A 
ATOM     78  F   UNL A   1      46.323  28.247  24.245  1.00  0.00    -0.203 F 
ATOM     79  F   UNL A   1      50.353  26.050  27.193  1.00  0.00    -0.200 F 
ATOM     80  C   UNL A   1      49.472  26.670  25.092  1.00  0.00     0.200 A 
ATOM     81  F   UNL A   1      48.552  27.324  23.016  1.00  0.00    -0.200 F 
ATOM     82  F   UNL A   1      50.579  26.232  24.480  1.00  0.00    -0.200 F 
ENDBRANCH  48  72
BRANCH  60  83
ATOM     83  C   UNL A   1      45.180  33.611  29.247  1.00  0.00     0.064 A 
ATOM     84  C   UNL A   1      45.079  34.609  28.266  1.00  0.00     0.173 A 
ATOM     85  C   UNL A   1      45.926  33.890  30.400  1.00  0.00     0.173 A 
ATOM     86  F   UNL A   1      44.389  34.380  27.139  1.00  0.00    -0.203 F 
ATOM     87  C   UNL A   1      45.713  35.837  28.431  1.00  0.00     0.198 A 
ATOM     88  C   UNL A   1      46.544  35.124  30.569  1.00  0.00     0.198 A 
ATOM     89  F   UNL A   1      46.049  32.965  31.365  1.00  0.00    -0.203 F 
ATOM     90  F   UNL A   1      45.630  36.766  27.469  1.00  0.00    -0.200 F 
ATOM     91  C   UNL A   1      46.441  36.096  29.583  1.00  0.00     0.200 A 
ATOM     92  F   UNL A   1      47.244  35.376  31.684  1.00  0.00    -0.200 F 
ATOM     93  F   UNL A   1      47.050  37.278  29.740  1.00  0.00    -0.200 F 
ENDBRANCH  60  83
ENDBRANCH  34  35
ENDBRANCH  27  29
ENDBRANCH  26  27
ENDBRANCH  25  26
ENDBRANCH   1  25
TORSDOF 13
ENDMDL
