MODEL 1
REMARK VINA RESULT:     -11.7      0.000      0.000
REMARK SMILES CC[C@@]1(C)C[C@@H]([NH2+]C[C@H]2CC[C@@H](C(=O)OCCOC(=O)c3ccc(-c4c5nc(c(-c6c(F)c(F)c(F)c(F)c6F)c6ccc([nH]6)c(-c6c(F)c(F)c(F)c(F)c6F)c6nc(c(-c7c(F)c(F)c(F)c(F)c7F)c7ccc4[nH]7)C=C6)C=C5)cc3)CC2)CCO1
REMARK SMILES IDX 16 1 15 2 13 3 14 4 12 5 9 6 10 7 85 8 11 9 84 10 8 11 7 12
REMARK SMILES IDX 6 15 3 16 4 17 5 18 88 19 87 20 86 21 2 22 1 23 17 24 18 25
REMARK SMILES IDX 19 26 20 27 21 28 22 29 83 30 23 31 82 32 24 33 25 34 26 35
REMARK SMILES IDX 76 36 27 37 81 38 75 39 77 40 28 41 80 42 74 43 73 44 29 46
REMARK SMILES IDX 61 47 41 48 60 49 42 50 45 51 59 52 78 53 43 54 44 55 58 57
REMARK SMILES IDX 79 58 46 59 30 60 31 61 39 62 32 63 33 64 37 65 40 66 34 67
REMARK SMILES IDX 35 68 38 69 36 70 62 71 63 72 71 73 64 74 65 75 69 76 72 77
REMARK SMILES IDX 66 78 67 79 70 80 68 81 47 82 48 83 56 84 49 85 50 86 54 87
REMARK SMILES IDX 57 88 51 89 52 90 55 91 53 92
REMARK H PARENT 7 13 7 14 77 45 45 56
REMARK Flexibility Score: inf
ROOT
ATOM      1  C   UNL A   1      42.065  20.255  26.624  1.00  0.00     0.274 C 
ENDROOT
BRANCH   1   2
ATOM      2  O   UNL A   1      40.783  20.890  26.758  1.00  0.00    -0.462 OA
BRANCH   2   3
ATOM      3  C   UNL A   1      39.801  20.364  25.987  1.00  0.00     0.309 C 
ATOM      4  O   UNL A   1      39.673  19.174  25.721  1.00  0.00    -0.252 OA
BRANCH   3   5
ATOM      5  C   UNL A   1      38.837  21.400  25.468  1.00  0.00     0.099 C 
ATOM      6  C   UNL A   1      36.733  23.373  24.946  1.00  0.00     0.044 C 
ATOM      7  C   UNL A   1      38.013  23.706  25.739  1.00  0.00     0.010 C 
ATOM      8  C   UNL A   1      36.781  22.015  24.215  1.00  0.00     0.010 C 
ATOM      9  C   UNL A   1      38.634  22.525  26.469  1.00  0.00     0.016 C 
ATOM     10  C   UNL A   1      37.477  20.902  24.992  1.00  0.00     0.016 C 
BRANCH   6  11
ATOM     11  C   UNL A   1      35.444  23.520  25.779  1.00  0.00     0.264 C 
BRANCH  11  12
ATOM     12  N   UNL A   1      34.313  24.117  25.066  1.00  0.00    -0.343 N 
ATOM     13  H   UNL A   1      34.280  23.706  24.134  1.00  0.00     0.346 HD
ATOM     14  H   UNL A   1      33.492  23.920  25.639  1.00  0.00     0.346 HD
BRANCH  12  15
ATOM     15  C   UNL A   1      34.344  25.577  24.911  1.00  0.00     0.187 C 
ATOM     16  C   UNL A   1      32.068  26.561  25.781  1.00  0.00     0.071 C 
ATOM     17  C   UNL A   1      31.594  27.732  26.662  1.00  0.00     0.042 C 
ATOM     18  C   UNL A   1      33.602  26.442  25.949  1.00  0.00     0.100 C 
ATOM     19  O   UNL A   1      31.809  26.957  24.420  1.00  0.00    -0.375 OA
ATOM     20  C   UNL A   1      32.320  26.054  23.437  1.00  0.00     0.167 C 
ATOM     21  C   UNL A   1      33.835  25.959  23.511  1.00  0.00     0.093 C 
BRANCH  16  22
ATOM     22  C   UNL A   1      31.217  25.300  26.090  1.00  0.00     0.032 C 
ATOM     23  C   UNL A   1      29.703  25.458  26.081  1.00  0.00     0.007 C 
ENDBRANCH  16  22
ENDBRANCH  12  15
ENDBRANCH  11  12
ENDBRANCH   6  11
ENDBRANCH   3   5
ENDBRANCH   2   3
ENDBRANCH   1   2
BRANCH   1  24
ATOM     24  C   UNL A   1      43.009  21.092  25.757  1.00  0.00     0.275 C 
BRANCH  24  25
ATOM     25  O   UNL A   1      42.354  22.251  25.200  1.00  0.00    -0.458 OA
BRANCH  25  26
ATOM     26  C   UNL A   1      43.126  23.358  25.089  1.00  0.00     0.338 C 
ATOM     27  O   UNL A   1      44.030  23.556  24.299  1.00  0.00    -0.246 OA
BRANCH  26  28
ATOM     28  C   UNL A   1      42.677  24.385  26.043  1.00  0.00     0.060 A 
ATOM     29  C   UNL A   1      43.279  25.646  26.008  1.00  0.00     0.016 A 
ATOM     30  C   UNL A   1      41.760  24.070  27.045  1.00  0.00     0.016 A 
ATOM     31  C   UNL A   1      42.964  26.603  26.972  1.00  0.00     0.010 A 
ATOM     32  C   UNL A   1      41.439  25.032  28.011  1.00  0.00     0.010 A 
ATOM     33  C   UNL A   1      42.044  26.302  27.985  1.00  0.00    -0.014 A 
BRANCH  33  34
ATOM     34  C   UNL A   1      41.738  27.295  29.046  1.00  0.00     0.031 A 
ATOM     35  C   UNL A   1      42.564  27.330  30.299  1.00  0.00     0.074 A 
ATOM     36  C   UNL A   1      40.716  28.156  28.891  1.00  0.00     0.049 A 
ATOM     37  N   UNL A   1      42.357  27.986  31.413  1.00  0.00    -0.248 NA
ATOM     38  C   UNL A   1      43.790  26.517  30.299  1.00  0.00     0.031 C 
ATOM     39  C   UNL A   1      39.877  28.266  27.699  1.00  0.00     0.029 A 
ATOM     40  N   UNL A   1      40.199  29.093  29.753  1.00  0.00    -0.354 N 
ATOM     41  C   UNL A   1      43.407  27.645  32.254  1.00  0.00     0.074 A 
ATOM     42  C   UNL A   1      44.250  26.720  31.526  1.00  0.00     0.031 C 
ATOM     43  C   UNL A   1      38.945  29.210  27.906  1.00  0.00     0.029 A 
ATOM     44  C   UNL A   1      39.083  29.727  29.266  1.00  0.00     0.049 A 
ATOM     45  H   UNL A   1      40.592  29.292  30.633  1.00  0.00     0.167 HD
ATOM     46  C   UNL A   1      43.640  28.065  33.521  1.00  0.00     0.037 A 
ATOM     47  C   UNL A   1      38.240  30.590  29.864  1.00  0.00     0.037 A 
ATOM     48  C   UNL A   1      42.810  28.999  34.235  1.00  0.00     0.049 A 
ATOM     49  C   UNL A   1      38.481  30.985  31.296  1.00  0.00     0.074 A 
ATOM     50  C   UNL A   1      42.963  29.484  35.523  1.00  0.00     0.029 A 
ATOM     51  N   UNL A   1      41.672  29.599  33.716  1.00  0.00    -0.354 N 
ATOM     52  N   UNL A   1      39.452  30.627  32.101  1.00  0.00    -0.248 NA
ATOM     53  C   UNL A   1      37.501  31.894  31.908  1.00  0.00     0.031 C 
ATOM     54  C   UNL A   1      41.898  30.350  35.795  1.00  0.00     0.029 A 
ATOM     55  C   UNL A   1      41.106  30.437  34.663  1.00  0.00     0.049 A 
ATOM     56  H   UNL A   1      41.320  29.452  32.809  1.00  0.00     0.167 HD
ATOM     57  C   UNL A   1      39.210  31.276  33.304  1.00  0.00     0.074 A 
ATOM     58  C   UNL A   1      38.009  32.065  33.119  1.00  0.00     0.031 C 
ATOM     59  C   UNL A   1      39.915  31.220  34.459  1.00  0.00     0.037 A 
BRANCH  46  60
ATOM     60  C   UNL A   1      44.829  27.495  34.235  1.00  0.00     0.064 A 
ATOM     61  C   UNL A   1      46.085  28.114  34.184  1.00  0.00     0.173 A 
ATOM     62  C   UNL A   1      44.694  26.343  35.025  1.00  0.00     0.173 A 
ATOM     63  F   UNL A   1      46.267  29.210  33.432  1.00  0.00    -0.203 F 
ATOM     64  C   UNL A   1      47.168  27.593  34.888  1.00  0.00     0.198 A 
ATOM     65  C   UNL A   1      45.773  25.837  35.745  1.00  0.00     0.198 A 
ATOM     66  F   UNL A   1      43.511  25.716  35.110  1.00  0.00    -0.203 F 
ATOM     67  F   UNL A   1      48.369  28.183  34.801  1.00  0.00    -0.200 F 
ATOM     68  C   UNL A   1      47.009  26.460  35.673  1.00  0.00     0.200 A 
ATOM     69  F   UNL A   1      45.615  24.749  36.511  1.00  0.00    -0.200 F 
ATOM     70  F   UNL A   1      48.050  25.966  36.357  1.00  0.00    -0.200 F 
ENDBRANCH  46  60
BRANCH  47  71
ATOM     71  C   UNL A   1      37.056  31.105  29.127  1.00  0.00     0.064 A 
ATOM     72  C   UNL A   1      36.995  32.440  28.705  1.00  0.00     0.173 A 
ATOM     73  C   UNL A   1      35.957  30.280  28.850  1.00  0.00     0.173 A 
ATOM     74  F   UNL A   1      38.009  33.274  28.974  1.00  0.00    -0.203 F 
ATOM     75  C   UNL A   1      35.870  32.932  28.046  1.00  0.00     0.198 A 
ATOM     76  C   UNL A   1      34.845  30.766  28.166  1.00  0.00     0.198 A 
ATOM     77  F   UNL A   1      35.965  28.996  29.239  1.00  0.00    -0.203 F 
ATOM     78  F   UNL A   1      35.816  34.225  27.695  1.00  0.00    -0.200 F 
ATOM     79  C   UNL A   1      34.800  32.095  27.772  1.00  0.00     0.200 A 
ATOM     80  F   UNL A   1      33.817  29.950  27.896  1.00  0.00    -0.200 F 
ATOM     81  F   UNL A   1      33.718  32.569  27.138  1.00  0.00    -0.200 F 
ENDBRANCH  47  71
BRANCH  59  82
ATOM     82  C   UNL A   1      39.424  32.057  35.602  1.00  0.00     0.064 A 
ATOM     83  C   UNL A   1      39.819  33.394  35.753  1.00  0.00     0.173 A 
ATOM     84  C   UNL A   1      38.522  31.526  36.535  1.00  0.00     0.173 A 
ATOM     85  F   UNL A   1      40.694  33.941  34.895  1.00  0.00    -0.203 F 
ATOM     86  C   UNL A   1      39.343  34.164  36.811  1.00  0.00     0.198 A 
ATOM     87  C   UNL A   1      38.029  32.306  37.578  1.00  0.00     0.198 A 
ATOM     88  F   UNL A   1      38.111  30.253  36.431  1.00  0.00    -0.203 F 
ATOM     89  F   UNL A   1      39.763  35.428  36.960  1.00  0.00    -0.200 F 
ATOM     90  C   UNL A   1      38.444  33.622  37.718  1.00  0.00     0.200 A 
ATOM     91  F   UNL A   1      37.154  31.783  38.448  1.00  0.00    -0.200 F 
ATOM     92  F   UNL A   1      37.984  34.366  38.734  1.00  0.00    -0.200 F 
ENDBRANCH  59  82
ENDBRANCH  33  34
ENDBRANCH  26  28
ENDBRANCH  25  26
ENDBRANCH  24  25
ENDBRANCH   1  24
TORSDOF 15
ENDMDL
MODEL 2
REMARK VINA RESULT:     -11.3      2.716      8.546
REMARK SMILES CC[C@@]1(C)C[C@@H]([NH2+]C[C@H]2CC[C@@H](C(=O)OCCOC(=O)c3ccc(-c4c5nc(c(-c6c(F)c(F)c(F)c(F)c6F)c6ccc([nH]6)c(-c6c(F)c(F)c(F)c(F)c6F)c6nc(c(-c7c(F)c(F)c(F)c(F)c7F)c7ccc4[nH]7)C=C6)C=C5)cc3)CC2)CCO1
REMARK SMILES IDX 16 1 15 2 13 3 14 4 12 5 9 6 10 7 85 8 11 9 84 10 8 11 7 12
REMARK SMILES IDX 6 15 3 16 4 17 5 18 88 19 87 20 86 21 2 22 1 23 17 24 18 25
REMARK SMILES IDX 19 26 20 27 21 28 22 29 83 30 23 31 82 32 24 33 25 34 26 35
REMARK SMILES IDX 76 36 27 37 81 38 75 39 77 40 28 41 80 42 74 43 73 44 29 46
REMARK SMILES IDX 61 47 41 48 60 49 42 50 45 51 59 52 78 53 43 54 44 55 58 57
REMARK SMILES IDX 79 58 46 59 30 60 31 61 39 62 32 63 33 64 37 65 40 66 34 67
REMARK SMILES IDX 35 68 38 69 36 70 62 71 63 72 71 73 64 74 65 75 69 76 72 77
REMARK SMILES IDX 66 78 67 79 70 80 68 81 47 82 48 83 56 84 49 85 50 86 54 87
REMARK SMILES IDX 57 88 51 89 52 90 55 91 53 92
REMARK H PARENT 7 13 7 14 77 45 45 56
REMARK Flexibility Score: inf
ROOT
ATOM      1  C   UNL A   1      31.123  30.124  24.973  1.00  0.00     0.274 C 
ENDROOT
BRANCH   1   2
ATOM      2  O   UNL A   1      31.728  29.126  24.135  1.00  0.00    -0.462 OA
BRANCH   2   3
ATOM      3  C   UNL A   1      30.934  28.068  23.843  1.00  0.00     0.309 C 
ATOM      4  O   UNL A   1      30.208  27.981  22.858  1.00  0.00    -0.252 OA
BRANCH   3   5
ATOM      5  C   UNL A   1      31.026  26.960  24.860  1.00  0.00     0.099 C 
ATOM      6  C   UNL A   1      31.395  24.512  26.430  1.00  0.00     0.044 C 
ATOM      7  C   UNL A   1      32.555  25.469  26.089  1.00  0.00     0.010 C 
ATOM      8  C   UNL A   1      29.995  25.087  26.126  1.00  0.00     0.010 C 
ATOM      9  C   UNL A   1      32.371  26.258  24.802  1.00  0.00     0.016 C 
ATOM     10  C   UNL A   1      29.914  25.917  24.849  1.00  0.00     0.016 C 
BRANCH   6  11
ATOM     11  C   UNL A   1      31.569  23.104  25.827  1.00  0.00     0.264 C 
BRANCH  11  12
ATOM     12  N   UNL A   1      32.868  22.478  26.086  1.00  0.00    -0.343 N 
ATOM     13  H   UNL A   1      33.535  23.220  26.293  1.00  0.00     0.346 HD
ATOM     14  H   UNL A   1      32.710  21.829  26.857  1.00  0.00     0.346 HD
BRANCH  12  15
ATOM     15  C   UNL A   1      33.424  21.667  24.995  1.00  0.00     0.187 C 
ATOM     16  C   UNL A   1      35.997  22.169  24.805  1.00  0.00     0.071 C 
ATOM     17  C   UNL A   1      37.304  21.374  24.634  1.00  0.00     0.042 C 
ATOM     18  C   UNL A   1      34.872  21.154  25.125  1.00  0.00     0.100 C 
ATOM     19  O   UNL A   1      35.709  22.744  23.515  1.00  0.00    -0.375 OA
ATOM     20  C   UNL A   1      34.445  23.404  23.434  1.00  0.00     0.167 C 
ATOM     21  C   UNL A   1      33.299  22.433  23.667  1.00  0.00     0.093 C 
BRANCH  16  22
ATOM     22  C   UNL A   1      36.221  23.327  25.813  1.00  0.00     0.032 C 
ATOM     23  C   UNL A   1      37.659  23.721  26.119  1.00  0.00     0.007 C 
ENDBRANCH  16  22
ENDBRANCH  12  15
ENDBRANCH  11  12
ENDBRANCH   6  11
ENDBRANCH   3   5
ENDBRANCH   2   3
ENDBRANCH   1   2
BRANCH   1  24
ATOM     24  C   UNL A   1      31.765  30.142  26.363  1.00  0.00     0.275 C 
BRANCH  24  25
ATOM     25  O   UNL A   1      33.161  30.499  26.314  1.00  0.00    -0.458 OA
BRANCH  25  26
ATOM     26  C   UNL A   1      33.539  31.490  27.156  1.00  0.00     0.338 C 
ATOM     27  O   UNL A   1      32.918  32.497  27.442  1.00  0.00    -0.246 OA
BRANCH  26  28
ATOM     28  C   UNL A   1      34.833  31.162  27.776  1.00  0.00     0.060 A 
ATOM     29  C   UNL A   1      35.042  29.864  28.250  1.00  0.00     0.016 A 
ATOM     30  C   UNL A   1      35.785  32.156  28.001  1.00  0.00     0.016 A 
ATOM     31  C   UNL A   1      36.208  29.550  28.948  1.00  0.00     0.010 A 
ATOM     32  C   UNL A   1      36.956  31.840  28.698  1.00  0.00     0.010 A 
ATOM     33  C   UNL A   1      37.174  30.537  29.182  1.00  0.00    -0.014 A 
BRANCH  33  34
ATOM     34  C   UNL A   1      38.395  30.227  29.968  1.00  0.00     0.031 A 
ATOM     35  C   UNL A   1      39.425  29.288  29.411  1.00  0.00     0.074 A 
ATOM     36  C   UNL A   1      38.575  30.778  31.182  1.00  0.00     0.049 A 
ATOM     37  N   UNL A   1      40.462  28.748  30.000  1.00  0.00    -0.248 NA
ATOM     38  C   UNL A   1      39.268  28.905  27.999  1.00  0.00     0.031 C 
ATOM     39  C   UNL A   1      37.682  31.752  31.809  1.00  0.00     0.029 A 
ATOM     40  N   UNL A   1      39.567  30.583  32.113  1.00  0.00    -0.354 N 
ATOM     41  C   UNL A   1      41.063  27.941  29.044  1.00  0.00     0.074 A 
ATOM     42  C   UNL A   1      40.275  28.058  27.834  1.00  0.00     0.031 C 
ATOM     43  C   UNL A   1      38.160  32.062  33.025  1.00  0.00     0.029 A 
ATOM     44  C   UNL A   1      39.357  31.266  33.285  1.00  0.00     0.049 A 
ATOM     45  H   UNL A   1      40.351  30.010  31.954  1.00  0.00     0.167 HD
ATOM     46  C   UNL A   1      42.171  27.171  29.169  1.00  0.00     0.037 A 
ATOM     47  C   UNL A   1      40.026  31.219  34.453  1.00  0.00     0.037 A 
ATOM     48  C   UNL A   1      42.963  27.073  30.367  1.00  0.00     0.049 A 
ATOM     49  C   UNL A   1      41.211  30.301  34.588  1.00  0.00     0.074 A 
ATOM     50  C   UNL A   1      44.101  26.317  30.592  1.00  0.00     0.029 A 
ATOM     51  N   UNL A   1      42.703  27.760  31.542  1.00  0.00    -0.354 N 
ATOM     52  N   UNL A   1      41.751  29.509  33.694  1.00  0.00    -0.248 NA
ATOM     53  C   UNL A   1      41.872  30.260  35.901  1.00  0.00     0.031 C 
ATOM     54  C   UNL A   1      44.509  26.521  31.914  1.00  0.00     0.029 A 
ATOM     55  C   UNL A   1      43.650  27.434  32.500  1.00  0.00     0.049 A 
ATOM     56  H   UNL A   1      41.956  28.387  31.676  1.00  0.00     0.167 HD
ATOM     57  C   UNL A   1      42.819  28.890  34.328  1.00  0.00     0.074 A 
ATOM     58  C   UNL A   1      42.864  29.410  35.678  1.00  0.00     0.031 C 
ATOM     59  C   UNL A   1      43.683  27.969  33.837  1.00  0.00     0.037 A 
BRANCH  46  60
ATOM     60  C   UNL A   1      42.581  26.346  27.986  1.00  0.00     0.064 A 
ATOM     61  C   UNL A   1      42.032  25.079  27.746  1.00  0.00     0.173 A 
ATOM     62  C   UNL A   1      43.495  26.856  27.051  1.00  0.00     0.173 A 
ATOM     63  F   UNL A   1      41.164  24.544  28.617  1.00  0.00    -0.203 F 
ATOM     64  C   UNL A   1      42.394  24.345  26.620  1.00  0.00     0.198 A 
ATOM     65  C   UNL A   1      43.838  26.129  25.914  1.00  0.00     0.198 A 
ATOM     66  F   UNL A   1      44.046  28.066  27.233  1.00  0.00    -0.203 F 
ATOM     67  F   UNL A   1      41.881  23.122  26.424  1.00  0.00    -0.200 F 
ATOM     68  C   UNL A   1      43.291  24.873  25.702  1.00  0.00     0.200 A 
ATOM     69  F   UNL A   1      44.697  26.644  25.024  1.00  0.00    -0.200 F 
ATOM     70  F   UNL A   1      43.630  24.169  24.613  1.00  0.00    -0.200 F 
ENDBRANCH  46  60
BRANCH  47  71
ATOM     71  C   UNL A   1      39.564  32.032  35.609  1.00  0.00     0.064 A 
ATOM     72  C   UNL A   1      38.581  31.549  36.483  1.00  0.00     0.173 A 
ATOM     73  C   UNL A   1      40.081  33.313  35.849  1.00  0.00     0.173 A 
ATOM     74  F   UNL A   1      38.036  30.342  36.275  1.00  0.00    -0.203 F 
ATOM     75  C   UNL A   1      38.122  32.325  37.545  1.00  0.00     0.198 A 
ATOM     76  C   UNL A   1      39.642  34.076  36.928  1.00  0.00     0.198 A 
ATOM     77  F   UNL A   1      41.019  33.823  35.037  1.00  0.00    -0.203 F 
ATOM     78  F   UNL A   1      37.147  31.859  38.338  1.00  0.00    -0.200 F 
ATOM     79  C   UNL A   1      38.656  33.584  37.770  1.00  0.00     0.200 A 
ATOM     80  F   UNL A   1      40.167  35.289  37.146  1.00  0.00    -0.200 F 
ATOM     81  F   UNL A   1      38.214  34.330  38.793  1.00  0.00    -0.200 F 
ENDBRANCH  47  71
BRANCH  59  82
ATOM     82  C   UNL A   1      44.767  27.489  34.754  1.00  0.00     0.064 A 
ATOM     83  C   UNL A   1      44.599  26.347  35.552  1.00  0.00     0.173 A 
ATOM     84  C   UNL A   1      45.999  28.158  34.810  1.00  0.00     0.173 A 
ATOM     85  F   UNL A   1      43.432  25.684  35.544  1.00  0.00    -0.203 F 
ATOM     86  C   UNL A   1      45.620  25.904  36.388  1.00  0.00     0.198 A 
ATOM     87  C   UNL A   1      47.026  27.698  35.630  1.00  0.00     0.198 A 
ATOM     88  F   UNL A   1      46.209  29.252  34.064  1.00  0.00    -0.203 F 
ATOM     89  F   UNL A   1      45.425  24.834  37.171  1.00  0.00    -0.200 F 
ATOM     90  C   UNL A   1      46.834  26.575  36.422  1.00  0.00     0.200 A 
ATOM     91  F   UNL A   1      48.201  28.342  35.655  1.00  0.00    -0.200 F 
ATOM     92  F   UNL A   1      47.817  26.145  37.225  1.00  0.00    -0.200 F 
ENDBRANCH  59  82
ENDBRANCH  33  34
ENDBRANCH  26  28
ENDBRANCH  25  26
ENDBRANCH  24  25
ENDBRANCH   1  24
TORSDOF 15
ENDMDL
MODEL 3
REMARK VINA RESULT:     -11.3      3.433      8.457
REMARK SMILES CC[C@@]1(C)C[C@@H]([NH2+]C[C@H]2CC[C@@H](C(=O)OCCOC(=O)c3ccc(-c4c5nc(c(-c6c(F)c(F)c(F)c(F)c6F)c6ccc([nH]6)c(-c6c(F)c(F)c(F)c(F)c6F)c6nc(c(-c7c(F)c(F)c(F)c(F)c7F)c7ccc4[nH]7)C=C6)C=C5)cc3)CC2)CCO1
REMARK SMILES IDX 16 1 15 2 13 3 14 4 12 5 9 6 10 7 85 8 11 9 84 10 8 11 7 12
REMARK SMILES IDX 6 15 3 16 4 17 5 18 88 19 87 20 86 21 2 22 1 23 17 24 18 25
REMARK SMILES IDX 19 26 20 27 21 28 22 29 83 30 23 31 82 32 24 33 25 34 26 35
REMARK SMILES IDX 76 36 27 37 81 38 75 39 77 40 28 41 80 42 74 43 73 44 29 46
REMARK SMILES IDX 61 47 41 48 60 49 42 50 45 51 59 52 78 53 43 54 44 55 58 57
REMARK SMILES IDX 79 58 46 59 30 60 31 61 39 62 32 63 33 64 37 65 40 66 34 67
REMARK SMILES IDX 35 68 38 69 36 70 62 71 63 72 71 73 64 74 65 75 69 76 72 77
REMARK SMILES IDX 66 78 67 79 70 80 68 81 47 82 48 83 56 84 49 85 50 86 54 87
REMARK SMILES IDX 57 88 51 89 52 90 55 91 53 92
REMARK H PARENT 7 13 7 14 77 45 45 56
REMARK Flexibility Score: inf
ROOT
ATOM      1  C   UNL A   1      31.352  29.605  25.191  1.00  0.00     0.274 C 
ENDROOT
BRANCH   1   2
ATOM      2  O   UNL A   1      32.386  29.333  24.230  1.00  0.00    -0.462 OA
BRANCH   2   3
ATOM      3  C   UNL A   1      31.960  28.770  23.075  1.00  0.00     0.309 C 
ATOM      4  O   UNL A   1      31.151  29.272  22.302  1.00  0.00    -0.252 OA
BRANCH   3   5
ATOM      5  C   UNL A   1      32.589  27.429  22.803  1.00  0.00     0.099 C 
ATOM      6  C   UNL A   1      33.358  24.618  22.483  1.00  0.00     0.044 C 
ATOM      7  C   UNL A   1      32.411  25.341  21.504  1.00  0.00     0.010 C 
ATOM      8  C   UNL A   1      34.084  25.559  23.468  1.00  0.00     0.010 C 
ATOM      9  C   UNL A   1      31.616  26.484  22.117  1.00  0.00     0.016 C 
ATOM     10  C   UNL A   1      33.233  26.713  23.986  1.00  0.00     0.016 C 
BRANCH   6  11
ATOM     11  C   UNL A   1      32.690  23.438  23.218  1.00  0.00     0.264 C 
BRANCH  11  12
ATOM     12  N   UNL A   1      33.480  22.865  24.310  1.00  0.00    -0.343 N 
ATOM     13  H   UNL A   1      34.302  22.423  23.902  1.00  0.00     0.346 HD
ATOM     14  H   UNL A   1      33.690  23.645  24.934  1.00  0.00     0.346 HD
BRANCH  12  15
ATOM     15  C   UNL A   1      32.801  21.865  25.145  1.00  0.00     0.187 C 
ATOM     16  C   UNL A   1      31.106  23.103  26.725  1.00  0.00     0.071 C 
ATOM     17  C   UNL A   1      29.652  22.928  27.199  1.00  0.00     0.042 C 
ATOM     18  C   UNL A   1      31.336  22.120  25.552  1.00  0.00     0.100 C 
ATOM     19  O   UNL A   1      31.936  22.674  27.822  1.00  0.00    -0.375 OA
ATOM     20  C   UNL A   1      33.332  22.623  27.519  1.00  0.00     0.167 C 
ATOM     21  C   UNL A   1      33.622  21.613  26.421  1.00  0.00     0.093 C 
BRANCH  16  22
ATOM     22  C   UNL A   1      31.389  24.606  26.463  1.00  0.00     0.032 C 
ATOM     23  C   UNL A   1      30.328  25.399  25.713  1.00  0.00     0.007 C 
ENDBRANCH  16  22
ENDBRANCH  12  15
ENDBRANCH  11  12
ENDBRANCH   6  11
ENDBRANCH   3   5
ENDBRANCH   2   3
ENDBRANCH   1   2
BRANCH   1  24
ATOM     24  C   UNL A   1      31.751  30.752  26.123  1.00  0.00     0.275 C 
BRANCH  24  25
ATOM     25  O   UNL A   1      33.079  30.583  26.659  1.00  0.00    -0.458 OA
BRANCH  25  26
ATOM     26  C   UNL A   1      33.593  31.663  27.294  1.00  0.00     0.338 C 
ATOM     27  O   UNL A   1      33.080  32.759  27.425  1.00  0.00    -0.246 OA
BRANCH  26  28
ATOM     28  C   UNL A   1      34.888  31.323  27.904  1.00  0.00     0.060 A 
ATOM     29  C   UNL A   1      35.089  30.024  28.378  1.00  0.00     0.016 A 
ATOM     30  C   UNL A   1      35.852  32.308  28.120  1.00  0.00     0.016 A 
ATOM     31  C   UNL A   1      36.257  29.700  29.067  1.00  0.00     0.010 A 
ATOM     32  C   UNL A   1      37.026  31.982  28.807  1.00  0.00     0.010 A 
ATOM     33  C   UNL A   1      37.235  30.678  29.291  1.00  0.00    -0.014 A 
BRANCH  33  34
ATOM     34  C   UNL A   1      38.460  30.357  30.067  1.00  0.00     0.031 A 
ATOM     35  C   UNL A   1      39.497  29.442  29.484  1.00  0.00     0.074 A 
ATOM     36  C   UNL A   1      38.636  30.877  31.296  1.00  0.00     0.049 A 
ATOM     37  N   UNL A   1      40.539  28.895  30.058  1.00  0.00    -0.248 NA
ATOM     38  C   UNL A   1      39.341  29.096  28.063  1.00  0.00     0.031 C 
ATOM     39  C   UNL A   1      37.736  31.826  31.950  1.00  0.00     0.029 A 
ATOM     40  N   UNL A   1      39.631  30.666  32.220  1.00  0.00    -0.354 N 
ATOM     41  C   UNL A   1      41.146  28.119  29.080  1.00  0.00     0.074 A 
ATOM     42  C   UNL A   1      40.355  28.262  27.875  1.00  0.00     0.031 C 
ATOM     43  C   UNL A   1      38.213  32.108  33.173  1.00  0.00     0.029 A 
ATOM     44  C   UNL A   1      39.417  31.315  33.411  1.00  0.00     0.049 A 
ATOM     45  H   UNL A   1      40.420  30.104  32.046  1.00  0.00     0.167 HD
ATOM     46  C   UNL A   1      42.260  27.355  29.183  1.00  0.00     0.037 A 
ATOM     47  C   UNL A   1      40.088  31.242  34.576  1.00  0.00     0.037 A 
ATOM     48  C   UNL A   1      43.054  27.231  30.377  1.00  0.00     0.049 A 
ATOM     49  C   UNL A   1      41.280  30.331  34.685  1.00  0.00     0.074 A 
ATOM     50  C   UNL A   1      44.199  26.479  30.581  1.00  0.00     0.029 A 
ATOM     51  N   UNL A   1      42.790  27.885  31.571  1.00  0.00    -0.354 N 
ATOM     52  N   UNL A   1      41.826  29.568  33.770  1.00  0.00    -0.248 NA
ATOM     53  C   UNL A   1      41.943  30.260  35.996  1.00  0.00     0.031 C 
ATOM     54  C   UNL A   1      44.607  26.651  31.908  1.00  0.00     0.029 A 
ATOM     55  C   UNL A   1      43.740  27.542  32.519  1.00  0.00     0.049 A 
ATOM     56  H   UNL A   1      42.038  28.502  31.723  1.00  0.00     0.167 HD
ATOM     57  C   UNL A   1      42.900  28.940  34.386  1.00  0.00     0.074 A 
ATOM     58  C   UNL A   1      42.942  29.425  35.749  1.00  0.00     0.031 C 
ATOM     59  C   UNL A   1      43.771  28.040  33.869  1.00  0.00     0.037 A 
BRANCH  46  60
ATOM     60  C   UNL A   1      42.675  26.566  27.979  1.00  0.00     0.064 A 
ATOM     61  C   UNL A   1      42.180  25.277  27.736  1.00  0.00     0.173 A 
ATOM     62  C   UNL A   1      43.538  27.130  27.026  1.00  0.00     0.173 A 
ATOM     63  F   UNL A   1      41.363  24.690  28.623  1.00  0.00    -0.203 F 
ATOM     64  C   UNL A   1      42.545  24.575  26.590  1.00  0.00     0.198 A 
ATOM     65  C   UNL A   1      43.883  26.434  25.871  1.00  0.00     0.198 A 
ATOM     66  F   UNL A   1      44.036  28.362  27.210  1.00  0.00    -0.203 F 
ATOM     67  F   UNL A   1      42.085  23.331  26.392  1.00  0.00    -0.200 F 
ATOM     68  C   UNL A   1      43.390  25.156  25.655  1.00  0.00     0.200 A 
ATOM     69  F   UNL A   1      44.691  27.001  24.964  1.00  0.00    -0.200 F 
ATOM     70  F   UNL A   1      43.732  24.483  24.548  1.00  0.00    -0.200 F 
ENDBRANCH  46  60
BRANCH  47  71
ATOM     71  C   UNL A   1      39.620  32.020  35.753  1.00  0.00     0.064 A 
ATOM     72  C   UNL A   1      38.605  31.529  36.585  1.00  0.00     0.173 A 
ATOM     73  C   UNL A   1      40.165  33.276  36.057  1.00  0.00     0.173 A 
ATOM     74  F   UNL A   1      38.034  30.346  36.316  1.00  0.00    -0.203 F 
ATOM     75  C   UNL A   1      38.142  32.273  37.668  1.00  0.00     0.198 A 
ATOM     76  C   UNL A   1      39.720  34.007  37.157  1.00  0.00     0.198 A 
ATOM     77  F   UNL A   1      41.135  33.793  35.288  1.00  0.00    -0.203 F 
ATOM     78  F   UNL A   1      37.137  31.803  38.420  1.00  0.00    -0.200 F 
ATOM     79  C   UNL A   1      38.703  33.508  37.956  1.00  0.00     0.200 A 
ATOM     80  F   UNL A   1      40.272  35.196  37.436  1.00  0.00    -0.200 F 
ATOM     81  F   UNL A   1      38.257  34.223  38.999  1.00  0.00    -0.200 F 
ENDBRANCH  47  71
BRANCH  59  82
ATOM     82  C   UNL A   1      44.860  27.545  34.773  1.00  0.00     0.064 A 
ATOM     83  C   UNL A   1      44.704  26.378  35.535  1.00  0.00     0.173 A 
ATOM     84  C   UNL A   1      46.084  28.225  34.849  1.00  0.00     0.173 A 
ATOM     85  F   UNL A   1      43.545  25.703  35.508  1.00  0.00    -0.203 F 
ATOM     86  C   UNL A   1      45.730  25.922  36.359  1.00  0.00     0.198 A 
ATOM     87  C   UNL A   1      47.116  27.753  35.656  1.00  0.00     0.198 A 
ATOM     88  F   UNL A   1      46.282  29.344  34.136  1.00  0.00    -0.203 F 
ATOM     89  F   UNL A   1      45.547  24.827  37.109  1.00  0.00    -0.200 F 
ATOM     90  C   UNL A   1      46.936  26.605  36.414  1.00  0.00     0.200 A 
ATOM     91  F   UNL A   1      48.284  28.409  35.700  1.00  0.00    -0.200 F 
ATOM     92  F   UNL A   1      47.924  26.162  37.203  1.00  0.00    -0.200 F 
ENDBRANCH  59  82
ENDBRANCH  33  34
ENDBRANCH  26  28
ENDBRANCH  25  26
ENDBRANCH  24  25
ENDBRANCH   1  24
TORSDOF 15
ENDMDL
