MODEL 1
REMARK VINA RESULT:     -12.4      0.000      0.000
REMARK SMILES O=C(/C=C/c1ccccc1Oc1cccc(Cl)c1)OCCOC(=O)c1ccc(-c2c3nc(c(-c4c(F)c(F)c(F)c(F)c4F)c4ccc([nH]4)c(-c4c(F)c(F)c(F)c(F)c4F)c4nc(c(-c5c(F)c(F)c(F)c(F)c5F)c5ccc2[nH]5)C=C4)C=C3)cc1
REMARK SMILES IDX 20 1 19 2 2 3 1 4 3 5 4 6 5 7 6 8 10 9 7 10 9 11 8 12 11 13
REMARK SMILES IDX 12 14 13 15 18 16 14 17 16 18 15 19 17 20 21 21 22 22 23 23
REMARK SMILES IDX 24 24 25 25 26 26 87 27 27 28 86 29 28 30 29 31 30 32 80 33
REMARK SMILES IDX 31 34 85 35 79 36 81 37 32 38 84 39 78 40 77 41 33 43 65 44
REMARK SMILES IDX 45 45 64 46 46 47 49 48 63 49 82 50 47 51 48 52 62 54 83 55
REMARK SMILES IDX 50 56 34 57 35 58 43 59 36 60 37 61 41 62 44 63 38 64 39 65
REMARK SMILES IDX 42 66 40 67 66 68 67 69 75 70 68 71 69 72 73 73 76 74 70 75
REMARK SMILES IDX 71 76 74 77 72 78 51 79 52 80 60 81 53 82 54 83 58 84 61 85
REMARK SMILES IDX 55 86 56 87 59 88 57 89
REMARK H PARENT 81 42 49 53
REMARK Flexibility Score: inf
ROOT
ATOM      1  C   UNL A   1      31.733  28.377  27.499  1.00  0.00     0.275 C 
ENDROOT
BRANCH   1   2
ATOM      2  O   UNL A   1      31.114  27.102  27.209  1.00  0.00    -0.459 OA
BRANCH   2   3
ATOM      3  C   UNL A   1      31.333  26.332  26.123  1.00  0.00     0.330 C 
ATOM      4  O   UNL A   1      30.511  26.268  25.215  1.00  0.00    -0.247 OA
BRANCH   3   5
ATOM      5  C   UNL A   1      32.523  25.471  26.070  1.00  0.00     0.094 C 
ATOM      6  C   UNL A   1      32.568  24.133  26.065  1.00  0.00     0.019 C 
BRANCH   6   7
ATOM      7  C   UNL A   1      33.844  23.429  25.863  1.00  0.00     0.017 A 
ATOM      8  C   UNL A   1      34.913  24.292  25.526  1.00  0.00     0.012 A 
ATOM      9  C   UNL A   1      34.109  22.052  25.990  1.00  0.00     0.134 A 
ATOM     10  C   UNL A   1      36.211  23.819  25.337  1.00  0.00     0.001 A 
ATOM     11  C   UNL A   1      35.427  21.594  25.786  1.00  0.00     0.048 A 
ATOM     12  C   UNL A   1      36.470  22.465  25.473  1.00  0.00     0.004 A 
BRANCH   9  13
ATOM     13  O   UNL A   1      33.258  20.999  26.270  1.00  0.00    -0.457 OA
BRANCH  13  14
ATOM     14  C   UNL A   1      32.962  20.060  25.324  1.00  0.00     0.128 A 
ATOM     15  C   UNL A   1      32.592  20.485  24.047  1.00  0.00     0.047 A 
ATOM     16  C   UNL A   1      32.941  18.707  25.659  1.00  0.00     0.067 A 
ATOM     17  C   UNL A   1      32.290  19.542  23.066  1.00  0.00     0.005 A 
ATOM     18  C   UNL A   1      32.664  17.770  24.667  1.00  0.00     0.044 A 
ATOM     19  C   UNL A   1      32.343  18.181  23.372  1.00  0.00     0.021 A 
ATOM     20  Cl  UNL A   1      32.769  16.092  25.032  1.00  0.00    -0.084 Cl
ENDBRANCH  13  14
ENDBRANCH   9  13
ENDBRANCH   6   7
ENDBRANCH   3   5
ENDBRANCH   2   3
ENDBRANCH   1   2
BRANCH   1  21
ATOM     21  C   UNL A   1      31.754  29.335  26.306  1.00  0.00     0.275 C 
BRANCH  21  22
ATOM     22  O   UNL A   1      33.054  29.934  26.143  1.00  0.00    -0.458 OA
BRANCH  22  23
ATOM     23  C   UNL A   1      33.330  30.993  26.947  1.00  0.00     0.338 C 
ATOM     24  O   UNL A   1      32.581  31.905  27.235  1.00  0.00    -0.246 OA
BRANCH  23  25
ATOM     25  C   UNL A   1      34.665  30.808  27.570  1.00  0.00     0.060 A 
ATOM     26  C   UNL A   1      35.132  29.498  27.758  1.00  0.00     0.016 A 
ATOM     27  C   UNL A   1      35.466  31.893  27.934  1.00  0.00     0.016 A 
ATOM     28  C   UNL A   1      36.390  29.272  28.325  1.00  0.00     0.010 A 
ATOM     29  C   UNL A   1      36.717  31.667  28.515  1.00  0.00     0.010 A 
ATOM     30  C   UNL A   1      37.174  30.357  28.739  1.00  0.00    -0.014 A 
BRANCH  30  31
ATOM     31  C   UNL A   1      38.368  30.148  29.594  1.00  0.00     0.031 A 
ATOM     32  C   UNL A   1      39.423  29.194  29.113  1.00  0.00     0.074 A 
ATOM     33  C   UNL A   1      38.498  30.738  30.794  1.00  0.00     0.049 A 
ATOM     34  N   UNL A   1      40.489  28.752  29.729  1.00  0.00    -0.248 NA
ATOM     35  C   UNL A   1      39.242  28.662  27.754  1.00  0.00     0.031 C 
ATOM     36  C   UNL A   1      37.569  31.704  31.365  1.00  0.00     0.029 A 
ATOM     37  N   UNL A   1      39.461  30.580  31.762  1.00  0.00    -0.354 N 
ATOM     38  C   UNL A   1      41.102  27.886  28.836  1.00  0.00     0.074 A 
ATOM     39  C   UNL A   1      40.280  27.848  27.645  1.00  0.00     0.031 C 
ATOM     40  C   UNL A   1      37.981  32.028  32.603  1.00  0.00     0.029 A 
ATOM     41  C   UNL A   1      39.190  31.265  32.920  1.00  0.00     0.049 A 
ATOM     42  H   UNL A   1      40.266  30.028  31.638  1.00  0.00     0.167 HD
ATOM     43  C   UNL A   1      42.247  27.182  28.992  1.00  0.00     0.037 A 
ATOM     44  C   UNL A   1      39.824  31.249  34.109  1.00  0.00     0.037 A 
ATOM     45  C   UNL A   1      43.058  27.198  30.177  1.00  0.00     0.049 A 
ATOM     46  C   UNL A   1      41.056  30.399  34.292  1.00  0.00     0.074 A 
ATOM     47  C   UNL A   1      44.249  26.537  30.416  1.00  0.00     0.029 A 
ATOM     48  N   UNL A   1      42.749  27.900  31.332  1.00  0.00    -0.354 N 
ATOM     49  N   UNL A   1      41.655  29.614  33.429  1.00  0.00    -0.248 NA
ATOM     50  C   UNL A   1      41.699  30.431  35.615  1.00  0.00     0.031 C 
ATOM     51  C   UNL A   1      44.636  26.800  31.736  1.00  0.00     0.029 A 
ATOM     52  C   UNL A   1      43.710  27.662  32.300  1.00  0.00     0.049 A 
ATOM     53  H   UNL A   1      41.962  28.482  31.447  1.00  0.00     0.167 HD
ATOM     54  C   UNL A   1      42.756  29.085  34.092  1.00  0.00     0.074 A 
ATOM     55  C   UNL A   1      42.744  29.636  35.430  1.00  0.00     0.031 C 
ATOM     56  C   UNL A   1      43.695  28.224  33.627  1.00  0.00     0.037 A 
BRANCH  43  57
ATOM     57  C   UNL A   1      42.659  26.301  27.853  1.00  0.00     0.064 A 
ATOM     58  C   UNL A   1      43.570  26.736  26.880  1.00  0.00     0.173 A 
ATOM     59  C   UNL A   1      42.118  25.014  27.725  1.00  0.00     0.173 A 
ATOM     60  F   UNL A   1      44.096  27.968  26.949  1.00  0.00    -0.203 F 
ATOM     61  C   UNL A   1      43.901  25.924  25.798  1.00  0.00     0.198 A 
ATOM     62  C   UNL A   1      42.471  24.195  26.657  1.00  0.00     0.198 A 
ATOM     63  F   UNL A   1      41.240  24.556  28.630  1.00  0.00    -0.203 F 
ATOM     64  F   UNL A   1      44.729  26.378  24.849  1.00  0.00    -0.200 F 
ATOM     65  C   UNL A   1      43.354  24.653  25.690  1.00  0.00     0.200 A 
ATOM     66  F   UNL A   1      41.945  22.966  26.556  1.00  0.00    -0.200 F 
ATOM     67  F   UNL A   1      43.667  23.875  24.646  1.00  0.00    -0.200 F 
ENDBRANCH  43  57
BRANCH  44  68
ATOM     68  C   UNL A   1      39.287  32.049  35.240  1.00  0.00     0.064 A 
ATOM     69  C   UNL A   1      39.568  33.416  35.358  1.00  0.00     0.173 A 
ATOM     70  C   UNL A   1      38.489  31.456  36.230  1.00  0.00     0.173 A 
ATOM     71  F   UNL A   1      40.350  34.019  34.452  1.00  0.00    -0.203 F 
ATOM     72  C   UNL A   1      39.079  34.160  36.431  1.00  0.00     0.198 A 
ATOM     73  C   UNL A   1      37.984  32.205  37.290  1.00  0.00     0.198 A 
ATOM     74  F   UNL A   1      38.196  30.149  36.162  1.00  0.00    -0.203 F 
ATOM     75  F   UNL A   1      39.393  35.458  36.542  1.00  0.00    -0.200 F 
ATOM     76  C   UNL A   1      38.284  33.555  37.393  1.00  0.00     0.200 A 
ATOM     77  F   UNL A   1      37.211  31.617  38.214  1.00  0.00    -0.200 F 
ATOM     78  F   UNL A   1      37.813  34.270  38.423  1.00  0.00    -0.200 F 
ENDBRANCH  44  68
BRANCH  56  79
ATOM     79  C   UNL A   1      44.817  27.845  34.549  1.00  0.00     0.064 A 
ATOM     80  C   UNL A   1      44.751  26.700  35.356  1.00  0.00     0.173 A 
ATOM     81  C   UNL A   1      46.004  28.593  34.563  1.00  0.00     0.173 A 
ATOM     82  F   UNL A   1      43.634  25.960  35.387  1.00  0.00    -0.203 F 
ATOM     83  C   UNL A   1      45.832  26.322  36.149  1.00  0.00     0.198 A 
ATOM     84  C   UNL A   1      47.091  28.200  35.339  1.00  0.00     0.198 A 
ATOM     85  F   UNL A   1      46.118  29.693  33.804  1.00  0.00    -0.203 F 
ATOM     86  F   UNL A   1      45.741  25.238  36.932  1.00  0.00    -0.200 F 
ATOM     87  C   UNL A   1      47.004  27.066  36.132  1.00  0.00     0.200 A 
ATOM     88  F   UNL A   1      48.226  28.912  35.312  1.00  0.00    -0.200 F 
ATOM     89  F   UNL A   1      48.048  26.690  36.884  1.00  0.00    -0.200 F 
ENDBRANCH  56  79
ENDBRANCH  30  31
ENDBRANCH  23  25
ENDBRANCH  22  23
ENDBRANCH  21  22
ENDBRANCH   1  21
TORSDOF 14
ENDMDL
MODEL 2
REMARK VINA RESULT:     -12.4      2.945      4.227
REMARK SMILES O=C(/C=C/c1ccccc1Oc1cccc(Cl)c1)OCCOC(=O)c1ccc(-c2c3nc(c(-c4c(F)c(F)c(F)c(F)c4F)c4ccc([nH]4)c(-c4c(F)c(F)c(F)c(F)c4F)c4nc(c(-c5c(F)c(F)c(F)c(F)c5F)c5ccc2[nH]5)C=C4)C=C3)cc1
REMARK SMILES IDX 20 1 19 2 2 3 1 4 3 5 4 6 5 7 6 8 10 9 7 10 9 11 8 12 11 13
REMARK SMILES IDX 12 14 13 15 18 16 14 17 16 18 15 19 17 20 21 21 22 22 23 23
REMARK SMILES IDX 24 24 25 25 26 26 87 27 27 28 86 29 28 30 29 31 30 32 80 33
REMARK SMILES IDX 31 34 85 35 79 36 81 37 32 38 84 39 78 40 77 41 33 43 65 44
REMARK SMILES IDX 45 45 64 46 46 47 49 48 63 49 82 50 47 51 48 52 62 54 83 55
REMARK SMILES IDX 50 56 34 57 35 58 43 59 36 60 37 61 41 62 44 63 38 64 39 65
REMARK SMILES IDX 42 66 40 67 66 68 67 69 75 70 68 71 69 72 73 73 76 74 70 75
REMARK SMILES IDX 71 76 74 77 72 78 51 79 52 80 60 81 53 82 54 83 58 84 61 85
REMARK SMILES IDX 55 86 56 87 59 88 57 89
REMARK H PARENT 81 42 49 53
REMARK Flexibility Score: inf
ROOT
ATOM      1  C   UNL A   1      31.873  30.993  26.590  1.00  0.00     0.275 C 
ENDROOT
BRANCH   1   2
ATOM      2  O   UNL A   1      32.653  30.097  27.415  1.00  0.00    -0.459 OA
BRANCH   2   3
ATOM      3  C   UNL A   1      33.904  29.658  27.164  1.00  0.00     0.330 C 
ATOM      4  O   UNL A   1      34.883  30.237  27.624  1.00  0.00    -0.247 OA
BRANCH   3   5
ATOM      5  C   UNL A   1      34.109  28.533  26.242  1.00  0.00     0.094 C 
ATOM      6  C   UNL A   1      33.268  27.526  25.977  1.00  0.00     0.019 C 
BRANCH   6   7
ATOM      7  C   UNL A   1      33.575  26.555  24.914  1.00  0.00     0.017 A 
ATOM      8  C   UNL A   1      34.243  25.401  25.385  1.00  0.00     0.012 A 
ATOM      9  C   UNL A   1      33.264  26.637  23.543  1.00  0.00     0.134 A 
ATOM     10  C   UNL A   1      34.581  24.347  24.538  1.00  0.00     0.001 A 
ATOM     11  C   UNL A   1      33.623  25.564  22.702  1.00  0.00     0.048 A 
ATOM     12  C   UNL A   1      34.265  24.427  23.190  1.00  0.00     0.004 A 
BRANCH   9  13
ATOM     13  O   UNL A   1      32.658  27.649  22.821  1.00  0.00    -0.457 OA
BRANCH  13  14
ATOM     14  C   UNL A   1      31.316  27.878  22.916  1.00  0.00     0.128 A 
ATOM     15  C   UNL A   1      30.502  26.887  23.470  1.00  0.00     0.047 A 
ATOM     16  C   UNL A   1      30.760  29.040  22.384  1.00  0.00     0.067 A 
ATOM     17  C   UNL A   1      29.129  27.102  23.580  1.00  0.00     0.005 A 
ATOM     18  C   UNL A   1      29.392  29.259  22.521  1.00  0.00     0.044 A 
ATOM     19  C   UNL A   1      28.576  28.299  23.121  1.00  0.00     0.021 A 
ATOM     20  Cl  UNL A   1      28.716  30.750  21.993  1.00  0.00    -0.084 Cl
ENDBRANCH  13  14
ENDBRANCH   9  13
ENDBRANCH   6   7
ENDBRANCH   3   5
ENDBRANCH   2   3
ENDBRANCH   1   2
BRANCH   1  21
ATOM     21  C   UNL A   1      31.770  32.412  27.153  1.00  0.00     0.275 C 
BRANCH  21  22
ATOM     22  O   UNL A   1      33.056  33.061  27.168  1.00  0.00    -0.458 OA
BRANCH  22  23
ATOM     23  C   UNL A   1      33.243  33.997  28.135  1.00  0.00     0.338 C 
ATOM     24  O   UNL A   1      32.528  34.951  28.375  1.00  0.00    -0.246 OA
BRANCH  23  25
ATOM     25  C   UNL A   1      34.394  33.607  28.987  1.00  0.00     0.060 A 
ATOM     26  C   UNL A   1      35.639  34.201  28.729  1.00  0.00     0.016 A 
ATOM     27  C   UNL A   1      34.258  32.703  30.043  1.00  0.00     0.016 A 
ATOM     28  C   UNL A   1      36.750  33.880  29.514  1.00  0.00     0.010 A 
ATOM     29  C   UNL A   1      35.373  32.370  30.818  1.00  0.00     0.010 A 
ATOM     30  C   UNL A   1      36.629  32.935  30.541  1.00  0.00    -0.014 A 
BRANCH  30  31
ATOM     31  C   UNL A   1      37.833  32.366  31.194  1.00  0.00     0.031 A 
ATOM     32  C   UNL A   1      38.556  31.251  30.495  1.00  0.00     0.074 A 
ATOM     33  C   UNL A   1      38.251  32.778  32.403  1.00  0.00     0.049 A 
ATOM     34  N   UNL A   1      39.550  30.511  30.915  1.00  0.00    -0.248 NA
ATOM     35  C   UNL A   1      38.084  30.923  29.142  1.00  0.00     0.031 C 
ATOM     36  C   UNL A   1      37.664  33.866  33.174  1.00  0.00     0.029 A 
ATOM     37  N   UNL A   1      39.259  32.299  33.206  1.00  0.00    -0.354 N 
ATOM     38  C   UNL A   1      39.818  29.627  29.879  1.00  0.00     0.074 A 
ATOM     39  C   UNL A   1      38.870  29.908  28.822  1.00  0.00     0.031 C 
ATOM     40  C   UNL A   1      38.293  33.952  34.359  1.00  0.00     0.029 A 
ATOM     41  C   UNL A   1      39.309  32.901  34.438  1.00  0.00     0.049 A 
ATOM     42  H   UNL A   1      39.884  31.592  32.925  1.00  0.00     0.167 HD
ATOM     43  C   UNL A   1      40.767  28.665  29.814  1.00  0.00     0.037 A 
ATOM     44  C   UNL A   1      40.063  32.612  35.518  1.00  0.00     0.037 A 
ATOM     45  C   UNL A   1      41.698  28.367  30.866  1.00  0.00     0.049 A 
ATOM     46  C   UNL A   1      41.063  31.485  35.455  1.00  0.00     0.074 A 
ATOM     47  C   UNL A   1      42.713  27.427  30.879  1.00  0.00     0.029 A 
ATOM     48  N   UNL A   1      41.715  28.994  32.103  1.00  0.00    -0.354 N 
ATOM     49  N   UNL A   1      41.342  30.680  34.458  1.00  0.00    -0.248 NA
ATOM     50  C   UNL A   1      41.854  31.226  36.668  1.00  0.00     0.031 C 
ATOM     51  C   UNL A   1      43.313  27.451  32.143  1.00  0.00     0.029 A 
ATOM     52  C   UNL A   1      42.703  28.438  32.899  1.00  0.00     0.049 A 
ATOM     53  H   UNL A   1      41.115  29.726  32.374  1.00  0.00     0.167 HD
ATOM     54  C   UNL A   1      42.354  29.843  34.912  1.00  0.00     0.074 A 
ATOM     55  C   UNL A   1      42.643  30.236  36.274  1.00  0.00     0.031 C 
ATOM     56  C   UNL A   1      42.990  28.844  34.252  1.00  0.00     0.037 A 
BRANCH  43  57
ATOM     57  C   UNL A   1      40.807  27.840  28.565  1.00  0.00     0.064 A 
ATOM     58  C   UNL A   1      41.586  28.215  27.461  1.00  0.00     0.173 A 
ATOM     59  C   UNL A   1      40.041  26.671  28.467  1.00  0.00     0.173 A 
ATOM     60  F   UNL A   1      42.317  29.340  27.500  1.00  0.00    -0.203 F 
ATOM     61  C   UNL A   1      41.570  27.465  26.288  1.00  0.00     0.198 A 
ATOM     62  C   UNL A   1      40.048  25.908  27.303  1.00  0.00     0.198 A 
ATOM     63  F   UNL A   1      39.278  26.273  29.497  1.00  0.00    -0.203 F 
ATOM     64  F   UNL A   1      42.275  27.871  25.225  1.00  0.00    -0.200 F 
ATOM     65  C   UNL A   1      40.804  26.311  26.212  1.00  0.00     0.200 A 
ATOM     66  F   UNL A   1      39.310  24.791  27.232  1.00  0.00    -0.200 F 
ATOM     67  F   UNL A   1      40.783  25.594  25.081  1.00  0.00    -0.200 F 
ENDBRANCH  43  57
BRANCH  44  68
ATOM     68  C   UNL A   1      39.882  33.389  36.770  1.00  0.00     0.064 A 
ATOM     69  C   UNL A   1      38.920  33.022  37.718  1.00  0.00     0.173 A 
ATOM     70  C   UNL A   1      40.666  34.522  37.037  1.00  0.00     0.173 A 
ATOM     71  F   UNL A   1      38.128  31.963  37.492  1.00  0.00    -0.203 F 
ATOM     72  C   UNL A   1      38.738  33.764  38.883  1.00  0.00     0.198 A 
ATOM     73  C   UNL A   1      40.498  35.251  38.213  1.00  0.00     0.198 A 
ATOM     74  F   UNL A   1      41.598  34.916  36.158  1.00  0.00    -0.203 F 
ATOM     75  F   UNL A   1      37.784  33.414  39.757  1.00  0.00    -0.200 F 
ATOM     76  C   UNL A   1      39.531  34.875  39.132  1.00  0.00     0.200 A 
ATOM     77  F   UNL A   1      41.270  36.320  38.451  1.00  0.00    -0.200 F 
ATOM     78  F   UNL A   1      39.357  35.588  40.253  1.00  0.00    -0.200 F 
ENDBRANCH  44  68
BRANCH  56  79
ATOM     79  C   UNL A   1      44.091  28.119  34.970  1.00  0.00     0.064 A 
ATOM     80  C   UNL A   1      43.855  26.925  35.665  1.00  0.00     0.173 A 
ATOM     81  C   UNL A   1      45.413  28.585  34.891  1.00  0.00     0.173 A 
ATOM     82  F   UNL A   1      42.608  26.446  35.780  1.00  0.00    -0.203 F 
ATOM     83  C   UNL A   1      44.903  26.227  36.261  1.00  0.00     0.198 A 
ATOM     84  C   UNL A   1      46.460  27.873  35.468  1.00  0.00     0.198 A 
ATOM     85  F   UNL A   1      45.690  29.720  34.231  1.00  0.00    -0.203 F 
ATOM     86  F   UNL A   1      44.654  25.099  36.942  1.00  0.00    -0.200 F 
ATOM     87  C   UNL A   1      46.205  26.695  36.153  1.00  0.00     0.200 A 
ATOM     88  F   UNL A   1      47.718  28.320  35.351  1.00  0.00    -0.200 F 
ATOM     89  F   UNL A   1      47.213  26.012  36.713  1.00  0.00    -0.200 F 
ENDBRANCH  56  79
ENDBRANCH  30  31
ENDBRANCH  23  25
ENDBRANCH  22  23
ENDBRANCH  21  22
ENDBRANCH   1  21
TORSDOF 14
ENDMDL
MODEL 3
REMARK VINA RESULT:     -12.3      1.837      2.552
REMARK SMILES O=C(/C=C/c1ccccc1Oc1cccc(Cl)c1)OCCOC(=O)c1ccc(-c2c3nc(c(-c4c(F)c(F)c(F)c(F)c4F)c4ccc([nH]4)c(-c4c(F)c(F)c(F)c(F)c4F)c4nc(c(-c5c(F)c(F)c(F)c(F)c5F)c5ccc2[nH]5)C=C4)C=C3)cc1
REMARK SMILES IDX 20 1 19 2 2 3 1 4 3 5 4 6 5 7 6 8 10 9 7 10 9 11 8 12 11 13
REMARK SMILES IDX 12 14 13 15 18 16 14 17 16 18 15 19 17 20 21 21 22 22 23 23
REMARK SMILES IDX 24 24 25 25 26 26 87 27 27 28 86 29 28 30 29 31 30 32 80 33
REMARK SMILES IDX 31 34 85 35 79 36 81 37 32 38 84 39 78 40 77 41 33 43 65 44
REMARK SMILES IDX 45 45 64 46 46 47 49 48 63 49 82 50 47 51 48 52 62 54 83 55
REMARK SMILES IDX 50 56 34 57 35 58 43 59 36 60 37 61 41 62 44 63 38 64 39 65
REMARK SMILES IDX 42 66 40 67 66 68 67 69 75 70 68 71 69 72 73 73 76 74 70 75
REMARK SMILES IDX 71 76 74 77 72 78 51 79 52 80 60 81 53 82 54 83 58 84 61 85
REMARK SMILES IDX 55 86 56 87 59 88 57 89
REMARK H PARENT 81 42 49 53
REMARK Flexibility Score: inf
ROOT
ATOM      1  C   UNL A   1      31.285  29.802  24.935  1.00  0.00     0.275 C 
ENDROOT
BRANCH   1   2
ATOM      2  O   UNL A   1      31.281  29.312  23.574  1.00  0.00    -0.459 OA
BRANCH   2   3
ATOM      3  C   UNL A   1      30.826  28.113  23.153  1.00  0.00     0.330 C 
ATOM      4  O   UNL A   1      30.247  27.997  22.078  1.00  0.00    -0.247 OA
BRANCH   3   5
ATOM      5  C   UNL A   1      30.928  26.945  24.038  1.00  0.00     0.094 C 
ATOM      6  C   UNL A   1      31.976  26.126  24.198  1.00  0.00     0.019 C 
BRANCH   6   7
ATOM      7  C   UNL A   1      31.958  25.084  25.237  1.00  0.00     0.017 A 
ATOM      8  C   UNL A   1      30.662  24.590  25.513  1.00  0.00     0.012 A 
ATOM      9  C   UNL A   1      33.049  24.531  25.935  1.00  0.00     0.134 A 
ATOM     10  C   UNL A   1      30.443  23.568  26.436  1.00  0.00     0.001 A 
ATOM     11  C   UNL A   1      32.805  23.505  26.871  1.00  0.00     0.048 A 
ATOM     12  C   UNL A   1      31.520  23.020  27.114  1.00  0.00     0.004 A 
BRANCH   9  13
ATOM     13  O   UNL A   1      34.394  24.847  25.889  1.00  0.00    -0.457 OA
BRANCH  13  14
ATOM     14  C   UNL A   1      35.283  24.052  25.223  1.00  0.00     0.128 A 
ATOM     15  C   UNL A   1      35.048  23.760  23.878  1.00  0.00     0.047 A 
ATOM     16  C   UNL A   1      36.351  23.469  25.902  1.00  0.00     0.067 A 
ATOM     17  C   UNL A   1      35.945  22.953  23.179  1.00  0.00     0.005 A 
ATOM     18  C   UNL A   1      37.258  22.687  25.192  1.00  0.00     0.044 A 
ATOM     19  C   UNL A   1      37.062  22.431  23.834  1.00  0.00     0.021 A 
ATOM     20  Cl  UNL A   1      38.656  22.076  25.987  1.00  0.00    -0.084 Cl
ENDBRANCH  13  14
ENDBRANCH   9  13
ENDBRANCH   6   7
ENDBRANCH   3   5
ENDBRANCH   2   3
ENDBRANCH   1   2
BRANCH   1  21
ATOM     21  C   UNL A   1      32.687  29.941  25.532  1.00  0.00     0.275 C 
BRANCH  21  22
ATOM     22  O   UNL A   1      32.626  30.303  26.925  1.00  0.00    -0.458 OA
BRANCH  22  23
ATOM     23  C   UNL A   1      33.232  31.469  27.268  1.00  0.00     0.338 C 
ATOM     24  O   UNL A   1      32.742  32.581  27.241  1.00  0.00    -0.246 OA
BRANCH  23  25
ATOM     25  C   UNL A   1      34.571  31.184  27.840  1.00  0.00     0.060 A 
ATOM     26  C   UNL A   1      34.864  29.862  28.211  1.00  0.00     0.016 A 
ATOM     27  C   UNL A   1      35.541  32.179  27.983  1.00  0.00     0.016 A 
ATOM     28  C   UNL A   1      36.118  29.539  28.740  1.00  0.00     0.010 A 
ATOM     29  C   UNL A   1      36.788  31.859  28.526  1.00  0.00     0.010 A 
ATOM     30  C   UNL A   1      37.074  30.544  28.932  1.00  0.00    -0.014 A 
BRANCH  30  31
ATOM     31  C   UNL A   1      38.288  30.291  29.745  1.00  0.00     0.031 A 
ATOM     32  C   UNL A   1      39.304  29.321  29.214  1.00  0.00     0.074 A 
ATOM     33  C   UNL A   1      38.471  30.855  30.951  1.00  0.00     0.049 A 
ATOM     34  N   UNL A   1      40.377  28.841  29.789  1.00  0.00    -0.248 NA
ATOM     35  C   UNL A   1      39.068  28.819  27.853  1.00  0.00     0.031 C 
ATOM     36  C   UNL A   1      37.584  31.832  31.568  1.00  0.00     0.029 A 
ATOM     37  N   UNL A   1      39.458  30.655  31.886  1.00  0.00    -0.354 N 
ATOM     38  C   UNL A   1      40.941  27.978  28.861  1.00  0.00     0.074 A 
ATOM     39  C   UNL A   1      40.082  27.982  27.696  1.00  0.00     0.031 C 
ATOM     40  C   UNL A   1      38.042  32.123  32.799  1.00  0.00     0.029 A 
ATOM     41  C   UNL A   1      39.241  31.325  33.063  1.00  0.00     0.049 A 
ATOM     42  H   UNL A   1      40.245  30.086  31.726  1.00  0.00     0.167 HD
ATOM     43  C   UNL A   1      42.073  27.244  28.968  1.00  0.00     0.037 A 
ATOM     44  C   UNL A   1      39.911  31.272  34.231  1.00  0.00     0.037 A 
ATOM     45  C   UNL A   1      42.920  27.218  30.128  1.00  0.00     0.049 A 
ATOM     46  C   UNL A   1      41.126  30.389  34.360  1.00  0.00     0.074 A 
ATOM     47  C   UNL A   1      44.102  26.525  30.317  1.00  0.00     0.029 A 
ATOM     48  N   UNL A   1      42.664  27.906  31.304  1.00  0.00    -0.354 N 
ATOM     49  N   UNL A   1      41.679  29.606  33.465  1.00  0.00    -0.248 NA
ATOM     50  C   UNL A   1      41.811  30.381  35.662  1.00  0.00     0.031 C 
ATOM     51  C   UNL A   1      44.535  26.753  31.628  1.00  0.00     0.029 A 
ATOM     52  C   UNL A   1      43.649  27.627  32.237  1.00  0.00     0.049 A 
ATOM     53  H   UNL A   1      41.897  28.504  31.454  1.00  0.00     0.167 HD
ATOM     54  C   UNL A   1      42.787  29.038  34.083  1.00  0.00     0.074 A 
ATOM     55  C   UNL A   1      42.830  29.564  35.431  1.00  0.00     0.031 C 
ATOM     56  C   UNL A   1      43.689  28.164  33.573  1.00  0.00     0.037 A 
BRANCH  43  57
ATOM     57  C   UNL A   1      42.427  26.375  27.801  1.00  0.00     0.064 A 
ATOM     58  C   UNL A   1      41.870  25.098  27.640  1.00  0.00     0.173 A 
ATOM     59  C   UNL A   1      43.349  26.820  26.844  1.00  0.00     0.173 A 
ATOM     60  F   UNL A   1      41.000  24.621  28.543  1.00  0.00    -0.203 F 
ATOM     61  C   UNL A   1      42.251  24.282  26.578  1.00  0.00     0.198 A 
ATOM     62  C   UNL A   1      43.708  26.012  25.769  1.00  0.00     0.198 A 
ATOM     63  F   UNL A   1      43.911  28.033  26.958  1.00  0.00    -0.203 F 
ATOM     64  F   UNL A   1      41.751  23.044  26.473  1.00  0.00    -0.200 F 
ATOM     65  C   UNL A   1      43.166  24.742  25.642  1.00  0.00     0.200 A 
ATOM     66  F   UNL A   1      44.589  26.459  24.863  1.00  0.00    -0.200 F 
ATOM     67  F   UNL A   1      43.537  23.954  24.624  1.00  0.00    -0.200 F 
ENDBRANCH  43  57
BRANCH  44  68
ATOM     68  C   UNL A   1      39.429  32.064  35.392  1.00  0.00     0.064 A 
ATOM     69  C   UNL A   1      39.840  33.388  35.587  1.00  0.00     0.173 A 
ATOM     70  C   UNL A   1      38.554  31.503  36.335  1.00  0.00     0.173 A 
ATOM     71  F   UNL A   1      40.699  33.955  34.728  1.00  0.00    -0.203 F 
ATOM     72  C   UNL A   1      39.403  34.121  36.689  1.00  0.00     0.198 A 
ATOM     73  C   UNL A   1      38.100  32.245  37.424  1.00  0.00     0.198 A 
ATOM     74  F   UNL A   1      38.136  30.237  36.195  1.00  0.00    -0.203 F 
ATOM     75  F   UNL A   1      39.840  35.375  36.873  1.00  0.00    -0.200 F 
ATOM     76  C   UNL A   1      38.529  33.551  37.603  1.00  0.00     0.200 A 
ATOM     77  F   UNL A   1      37.252  31.691  38.302  1.00  0.00    -0.200 F 
ATOM     78  F   UNL A   1      38.108  34.257  38.660  1.00  0.00    -0.200 F 
ENDBRANCH  44  68
BRANCH  56  79
ATOM     79  C   UNL A   1      44.829  27.741  34.453  1.00  0.00     0.064 A 
ATOM     80  C   UNL A   1      44.763  26.580  35.236  1.00  0.00     0.173 A 
ATOM     81  C   UNL A   1      46.032  28.463  34.448  1.00  0.00     0.173 A 
ATOM     82  F   UNL A   1      43.631  25.863  35.285  1.00  0.00    -0.203 F 
ATOM     83  C   UNL A   1      45.858  26.162  35.988  1.00  0.00     0.198 A 
ATOM     84  C   UNL A   1      47.133  28.030  35.182  1.00  0.00     0.198 A 
ATOM     85  F   UNL A   1      46.148  29.577  33.709  1.00  0.00    -0.203 F 
ATOM     86  F   UNL A   1      45.767  25.062  36.749  1.00  0.00    -0.200 F 
ATOM     87  C   UNL A   1      47.045  26.881  35.952  1.00  0.00     0.200 A 
ATOM     88  F   UNL A   1      48.282  28.719  35.135  1.00  0.00    -0.200 F 
ATOM     89  F   UNL A   1      48.103  26.466  36.663  1.00  0.00    -0.200 F 
ENDBRANCH  56  79
ENDBRANCH  30  31
ENDBRANCH  23  25
ENDBRANCH  22  23
ENDBRANCH  21  22
ENDBRANCH   1  21
TORSDOF 14
ENDMDL
