MODEL 1
REMARK VINA RESULT:     -12.0      0.000      0.000
REMARK SMILES COc1ccccc1CNC(=O)[C@@H]1[C@H]2CC[C@H](CC2)[C@@H]1C(=O)OCCOC(=O)c1ccc(-c2c3nc(c(-c4c(F)c(F)c(F)c(F)c4F)c4ccc([nH]4)c(-c4c(F)c(F)c(F)c(F)c4F)c4nc(c(-c5c(F)c(F)c(F)c(F)c5F)c5ccc2[nH]5)C=C4)C=C3)cc1
REMARK SMILES IDX 24 1 23 2 21 3 22 4 20 5 13 6 14 7 15 8 19 9 17 10 16 11
REMARK SMILES IDX 18 12 11 13 10 14 12 16 9 17 8 18 3 19 4 20 5 21 7 22 6 23
REMARK SMILES IDX 2 24 1 25 25 26 26 27 27 28 28 29 29 30 30 31 91 32 31 33
REMARK SMILES IDX 90 34 32 35 33 36 34 37 84 38 35 39 89 40 83 41 85 42 36 43
REMARK SMILES IDX 88 44 82 45 81 46 37 48 69 49 49 50 68 51 50 52 53 53 67 54
REMARK SMILES IDX 86 55 51 56 52 57 66 59 87 60 54 61 38 62 39 63 47 64 40 65
REMARK SMILES IDX 41 66 45 67 48 68 42 69 43 70 46 71 44 72 70 73 71 74 79 75
REMARK SMILES IDX 72 76 73 77 77 78 80 79 74 80 75 81 78 82 76 83 55 84 56 85
REMARK SMILES IDX 64 86 57 87 58 88 62 89 65 90 59 91 60 92 63 93 61 94
REMARK H PARENT 10 15 85 47 53 58
REMARK Flexibility Score: inf
ROOT
ATOM      1  C   UNL A   1      33.122  28.855  24.627  1.00  0.00     0.274 C 
ENDROOT
BRANCH   1   2
ATOM      2  O   UNL A   1      32.584  27.520  24.685  1.00  0.00    -0.462 OA
BRANCH   2   3
ATOM      3  C   UNL A   1      33.299  26.627  25.405  1.00  0.00     0.310 C 
ATOM      4  O   UNL A   1      33.806  26.849  26.500  1.00  0.00    -0.252 OA
BRANCH   3   5
ATOM      5  C   UNL A   1      33.467  25.286  24.715  1.00  0.00     0.115 C 
ATOM      6  C   UNL A   1      32.225  24.367  24.688  1.00  0.00     0.096 C 
ATOM      7  C   UNL A   1      32.679  22.902  24.944  1.00  0.00     0.002 C 
ATOM      8  C   UNL A   1      33.742  22.545  23.877  1.00  0.00     0.005 C 
ATOM      9  C   UNL A   1      33.354  22.745  26.321  1.00  0.00     0.005 C 
ATOM     10  C   UNL A   1      34.725  24.492  25.144  1.00  0.00     0.004 C 
ATOM     11  C   UNL A   1      34.988  23.431  24.054  1.00  0.00     0.005 C 
ATOM     12  C   UNL A   1      34.499  23.748  26.469  1.00  0.00     0.005 C 
BRANCH   6  13
ATOM     13  C   UNL A   1      31.060  24.811  25.574  1.00  0.00     0.224 C 
ATOM     14  N   UNL A   1      30.023  25.496  25.016  1.00  0.00    -0.352 N 
ATOM     15  H   UNL A   1      29.362  25.839  25.660  1.00  0.00     0.163 HD
ATOM     16  O   UNL A   1      31.007  24.575  26.778  1.00  0.00    -0.275 OA
BRANCH  14  17
ATOM     17  C   UNL A   1      29.738  25.805  23.627  1.00  0.00     0.155 C 
BRANCH  17  18
ATOM     18  C   UNL A   1      28.753  26.937  23.497  1.00  0.00     0.013 A 
ATOM     19  C   UNL A   1      29.098  28.133  22.853  1.00  0.00     0.123 A 
ATOM     20  C   UNL A   1      28.193  29.195  22.770  1.00  0.00     0.047 A 
ATOM     21  C   UNL A   1      26.904  29.052  23.279  1.00  0.00     0.004 A 
ATOM     22  C   UNL A   1      27.440  26.803  23.981  1.00  0.00     0.009 A 
ATOM     23  C   UNL A   1      26.524  27.853  23.875  1.00  0.00     0.001 A 
BRANCH  19  24
ATOM     24  O   UNL A   1      30.361  28.333  22.360  1.00  0.00    -0.496 OA
ATOM     25  C   UNL A   1      30.543  29.704  22.000  1.00  0.00     0.278 C 
ENDBRANCH  19  24
ENDBRANCH  17  18
ENDBRANCH  14  17
ENDBRANCH   6  13
ENDBRANCH   3   5
ENDBRANCH   2   3
ENDBRANCH   1   2
BRANCH   1  26
ATOM     26  C   UNL A   1      32.189  29.840  25.318  1.00  0.00     0.275 C 
BRANCH  26  27
ATOM     27  O   UNL A   1      32.524  29.929  26.715  1.00  0.00    -0.458 OA
BRANCH  27  28
ATOM     28  C   UNL A   1      33.130  31.075  27.092  1.00  0.00     0.338 C 
ATOM     29  O   UNL A   1      32.688  32.210  27.034  1.00  0.00    -0.246 OA
BRANCH  28  30
ATOM     30  C   UNL A   1      34.476  30.784  27.606  1.00  0.00     0.060 A 
ATOM     31  C   UNL A   1      34.875  29.465  27.831  1.00  0.00     0.016 A 
ATOM     32  C   UNL A   1      35.287  31.846  28.006  1.00  0.00     0.016 A 
ATOM     33  C   UNL A   1      36.040  29.207  28.550  1.00  0.00     0.010 A 
ATOM     34  C   UNL A   1      36.500  31.583  28.646  1.00  0.00     0.010 A 
ATOM     35  C   UNL A   1      36.866  30.264  28.963  1.00  0.00    -0.014 A 
BRANCH  35  36
ATOM     36  C   UNL A   1      38.090  29.999  29.761  1.00  0.00     0.031 A 
ATOM     37  C   UNL A   1      39.190  29.143  29.193  1.00  0.00     0.074 A 
ATOM     38  C   UNL A   1      38.219  30.525  30.994  1.00  0.00     0.049 A 
ATOM     39  N   UNL A   1      40.253  28.660  29.785  1.00  0.00    -0.248 NA
ATOM     40  C   UNL A   1      39.073  28.775  27.773  1.00  0.00     0.031 C 
ATOM     41  C   UNL A   1      37.247  31.402  31.646  1.00  0.00     0.029 A 
ATOM     42  N   UNL A   1      39.226  30.398  31.918  1.00  0.00    -0.354 N 
ATOM     43  C   UNL A   1      40.902  27.891  28.827  1.00  0.00     0.074 A 
ATOM     44  C   UNL A   1      40.118  27.973  27.614  1.00  0.00     0.031 C 
ATOM     45  C   UNL A   1      37.715  31.756  32.853  1.00  0.00     0.029 A 
ATOM     46  C   UNL A   1      38.985  31.078  33.085  1.00  0.00     0.049 A 
ATOM     47  H   UNL A   1      40.041  29.870  31.758  1.00  0.00     0.167 HD
ATOM     48  C   UNL A   1      42.048  27.180  28.952  1.00  0.00     0.037 A 
ATOM     49  C   UNL A   1      39.694  31.124  34.229  1.00  0.00     0.037 A 
ATOM     50  C   UNL A   1      42.852  27.136  30.146  1.00  0.00     0.049 A 
ATOM     51  C   UNL A   1      40.958  30.322  34.344  1.00  0.00     0.074 A 
ATOM     52  C   UNL A   1      44.028  26.443  30.372  1.00  0.00     0.029 A 
ATOM     53  N   UNL A   1      42.569  27.834  31.310  1.00  0.00    -0.354 N 
ATOM     54  N   UNL A   1      41.529  29.548  33.454  1.00  0.00    -0.248 NA
ATOM     55  C   UNL A   1      41.666  30.386  35.631  1.00  0.00     0.031 C 
ATOM     56  C   UNL A   1      44.449  26.709  31.681  1.00  0.00     0.029 A 
ATOM     57  C   UNL A   1      43.548  27.589  32.259  1.00  0.00     0.049 A 
ATOM     58  H   UNL A   1      41.787  28.420  31.442  1.00  0.00     0.167 HD
ATOM     59  C   UNL A   1      42.662  29.036  34.068  1.00  0.00     0.074 A 
ATOM     60  C   UNL A   1      42.711  29.603  35.400  1.00  0.00     0.031 C 
ATOM     61  C   UNL A   1      43.576  28.166  33.576  1.00  0.00     0.037 A 
BRANCH  48  62
ATOM     62  C   UNL A   1      42.489  26.365  27.775  1.00  0.00     0.064 A 
ATOM     63  C   UNL A   1      43.469  26.827  26.884  1.00  0.00     0.173 A 
ATOM     64  C   UNL A   1      41.950  25.089  27.556  1.00  0.00     0.173 A 
ATOM     65  F   UNL A   1      44.002  28.047  27.042  1.00  0.00    -0.203 F 
ATOM     66  C   UNL A   1      43.881  26.046  25.807  1.00  0.00     0.198 A 
ATOM     67  C   UNL A   1      42.379  24.301  26.492  1.00  0.00     0.198 A 
ATOM     68  F   UNL A   1      41.012  24.601  28.382  1.00  0.00    -0.203 F 
ATOM     69  F   UNL A   1      44.795  26.518  24.950  1.00  0.00    -0.200 F 
ATOM     70  C   UNL A   1      43.341  24.782  25.616  1.00  0.00     0.200 A 
ATOM     71  F   UNL A   1      41.861  23.078  26.313  1.00  0.00    -0.200 F 
ATOM     72  F   UNL A   1      43.743  24.029  24.583  1.00  0.00    -0.200 F 
ENDBRANCH  48  62
BRANCH  49  73
ATOM     73  C   UNL A   1      39.204  31.946  35.362  1.00  0.00     0.064 A 
ATOM     74  C   UNL A   1      38.434  31.375  36.383  1.00  0.00     0.173 A 
ATOM     75  C   UNL A   1      39.509  33.312  35.456  1.00  0.00     0.173 A 
ATOM     76  F   UNL A   1      38.099  30.078  36.322  1.00  0.00    -0.203 F 
ATOM     77  C   UNL A   1      37.985  32.140  37.457  1.00  0.00     0.198 A 
ATOM     78  C   UNL A   1      39.079  34.071  36.542  1.00  0.00     0.198 A 
ATOM     79  F   UNL A   1      40.243  33.903  34.501  1.00  0.00    -0.203 F 
ATOM     80  F   UNL A   1      37.227  31.577  38.408  1.00  0.00    -0.200 F 
ATOM     81  C   UNL A   1      38.315  33.485  37.538  1.00  0.00     0.200 A 
ATOM     82  F   UNL A   1      39.409  35.367  36.623  1.00  0.00    -0.200 F 
ATOM     83  F   UNL A   1      37.890  34.218  38.577  1.00  0.00    -0.200 F 
ENDBRANCH  49  73
BRANCH  61  84
ATOM     84  C   UNL A   1      44.711  27.792  34.479  1.00  0.00     0.064 A 
ATOM     85  C   UNL A   1      45.890  28.549  34.516  1.00  0.00     0.173 A 
ATOM     86  C   UNL A   1      44.608  26.681  35.328  1.00  0.00     0.173 A 
ATOM     87  F   UNL A   1      46.038  29.609  33.708  1.00  0.00    -0.203 F 
ATOM     88  C   UNL A   1      46.938  28.194  35.361  1.00  0.00     0.198 A 
ATOM     89  C   UNL A   1      45.651  26.341  36.184  1.00  0.00     0.198 A 
ATOM     90  F   UNL A   1      43.497  25.930  35.327  1.00  0.00    -0.203 F 
ATOM     91  F   UNL A   1      48.072  28.907  35.355  1.00  0.00    -0.200 F 
ATOM     92  C   UNL A   1      46.816  27.093  36.197  1.00  0.00     0.200 A 
ATOM     93  F   UNL A   1      45.531  25.279  36.994  1.00  0.00    -0.200 F 
ATOM     94  F   UNL A   1      47.826  26.751  37.007  1.00  0.00    -0.200 F 
ENDBRANCH  61  84
ENDBRANCH  35  36
ENDBRANCH  28  30
ENDBRANCH  27  28
ENDBRANCH  26  27
ENDBRANCH   1  26
TORSDOF 15
ENDMDL
MODEL 2
REMARK VINA RESULT:     -11.9      1.410      4.136
REMARK SMILES COc1ccccc1CNC(=O)[C@@H]1[C@H]2CC[C@H](CC2)[C@@H]1C(=O)OCCOC(=O)c1ccc(-c2c3nc(c(-c4c(F)c(F)c(F)c(F)c4F)c4ccc([nH]4)c(-c4c(F)c(F)c(F)c(F)c4F)c4nc(c(-c5c(F)c(F)c(F)c(F)c5F)c5ccc2[nH]5)C=C4)C=C3)cc1
REMARK SMILES IDX 24 1 23 2 21 3 22 4 20 5 13 6 14 7 15 8 19 9 17 10 16 11
REMARK SMILES IDX 18 12 11 13 10 14 12 16 9 17 8 18 3 19 4 20 5 21 7 22 6 23
REMARK SMILES IDX 2 24 1 25 25 26 26 27 27 28 28 29 29 30 30 31 91 32 31 33
REMARK SMILES IDX 90 34 32 35 33 36 34 37 84 38 35 39 89 40 83 41 85 42 36 43
REMARK SMILES IDX 88 44 82 45 81 46 37 48 69 49 49 50 68 51 50 52 53 53 67 54
REMARK SMILES IDX 86 55 51 56 52 57 66 59 87 60 54 61 38 62 39 63 47 64 40 65
REMARK SMILES IDX 41 66 45 67 48 68 42 69 43 70 46 71 44 72 70 73 71 74 79 75
REMARK SMILES IDX 72 76 73 77 77 78 80 79 74 80 75 81 78 82 76 83 55 84 56 85
REMARK SMILES IDX 64 86 57 87 58 88 62 89 65 90 59 91 60 92 63 93 61 94
REMARK H PARENT 10 15 85 47 53 58
REMARK Flexibility Score: inf
ROOT
ATOM      1  C   UNL A   1      31.705  28.920  26.864  1.00  0.00     0.274 C 
ENDROOT
BRANCH   1   2
ATOM      2  O   UNL A   1      31.161  28.356  25.656  1.00  0.00    -0.462 OA
BRANCH   2   3
ATOM      3  C   UNL A   1      31.126  27.005  25.599  1.00  0.00     0.310 C 
ATOM      4  O   UNL A   1      30.840  26.268  26.537  1.00  0.00    -0.252 OA
BRANCH   3   5
ATOM      5  C   UNL A   1      31.519  26.445  24.246  1.00  0.00     0.115 C 
ATOM      6  C   UNL A   1      32.925  25.811  24.146  1.00  0.00     0.096 C 
ATOM      7  C   UNL A   1      33.563  26.217  22.787  1.00  0.00     0.002 C 
ATOM      8  C   UNL A   1      32.598  25.772  21.662  1.00  0.00     0.005 C 
ATOM      9  C   UNL A   1      33.723  27.744  22.664  1.00  0.00     0.005 C 
ATOM     10  C   UNL A   1      31.264  27.399  23.052  1.00  0.00     0.004 C 
ATOM     11  C   UNL A   1      31.268  26.539  21.771  1.00  0.00     0.005 C 
ATOM     12  C   UNL A   1      32.385  28.441  22.914  1.00  0.00     0.005 C 
BRANCH   6  13
ATOM     13  C   UNL A   1      33.839  26.050  25.348  1.00  0.00     0.224 C 
ATOM     14  N   UNL A   1      34.226  24.991  26.111  1.00  0.00    -0.352 N 
ATOM     15  H   UNL A   1      34.727  25.229  26.925  1.00  0.00     0.163 HD
ATOM     16  O   UNL A   1      34.253  27.163  25.663  1.00  0.00    -0.275 OA
BRANCH  14  17
ATOM     17  C   UNL A   1      34.018  23.567  25.920  1.00  0.00     0.155 C 
BRANCH  17  18
ATOM     18  C   UNL A   1      35.313  22.841  25.666  1.00  0.00     0.013 A 
ATOM     19  C   UNL A   1      35.331  21.550  25.121  1.00  0.00     0.123 A 
ATOM     20  C   UNL A   1      36.533  20.866  24.924  1.00  0.00     0.047 A 
ATOM     21  C   UNL A   1      37.744  21.491  25.214  1.00  0.00     0.004 A 
ATOM     22  C   UNL A   1      36.546  23.463  25.928  1.00  0.00     0.009 A 
ATOM     23  C   UNL A   1      37.751  22.793  25.707  1.00  0.00     0.001 A 
BRANCH  19  24
ATOM     24  O   UNL A   1      34.166  20.883  24.842  1.00  0.00    -0.496 OA
ATOM     25  C   UNL A   1      34.407  19.477  24.758  1.00  0.00     0.278 C 
ENDBRANCH  19  24
ENDBRANCH  17  18
ENDBRANCH  14  17
ENDBRANCH   6  13
ENDBRANCH   3   5
ENDBRANCH   2   3
ENDBRANCH   1   2
BRANCH   1  26
ATOM     26  C   UNL A   1      31.743  30.440  26.778  1.00  0.00     0.275 C 
BRANCH  26  27
ATOM     27  O   UNL A   1      33.082  30.876  26.477  1.00  0.00    -0.458 OA
BRANCH  27  28
ATOM     28  C   UNL A   1      33.588  31.806  27.315  1.00  0.00     0.338 C 
ATOM     29  O   UNL A   1      33.095  32.875  27.635  1.00  0.00    -0.246 OA
BRANCH  28  30
ATOM     30  C   UNL A   1      34.892  31.361  27.826  1.00  0.00     0.060 A 
ATOM     31  C   UNL A   1      35.085  30.031  28.204  1.00  0.00     0.016 A 
ATOM     32  C   UNL A   1      35.880  32.315  28.069  1.00  0.00     0.016 A 
ATOM     33  C   UNL A   1      36.226  29.673  28.919  1.00  0.00     0.010 A 
ATOM     34  C   UNL A   1      37.063  31.935  28.706  1.00  0.00     0.010 A 
ATOM     35  C   UNL A   1      37.228  30.620  29.175  1.00  0.00    -0.014 A 
BRANCH  35  36
ATOM     36  C   UNL A   1      38.429  30.255  29.969  1.00  0.00     0.031 A 
ATOM     37  C   UNL A   1      39.476  29.349  29.379  1.00  0.00     0.074 A 
ATOM     38  C   UNL A   1      38.585  30.735  31.217  1.00  0.00     0.049 A 
ATOM     39  N   UNL A   1      40.504  28.782  29.958  1.00  0.00    -0.248 NA
ATOM     40  C   UNL A   1      39.342  29.031  27.948  1.00  0.00     0.031 C 
ATOM     41  C   UNL A   1      37.668  31.652  31.893  1.00  0.00     0.029 A 
ATOM     42  N   UNL A   1      39.578  30.518  32.139  1.00  0.00    -0.354 N 
ATOM     43  C   UNL A   1      41.107  28.003  28.980  1.00  0.00     0.074 A 
ATOM     44  C   UNL A   1      40.335  28.170  27.767  1.00  0.00     0.031 C 
ATOM     45  C   UNL A   1      38.152  31.940  33.110  1.00  0.00     0.029 A 
ATOM     46  C   UNL A   1      39.376  31.177  33.326  1.00  0.00     0.049 A 
ATOM     47  H   UNL A   1      40.360  29.944  31.966  1.00  0.00     0.167 HD
ATOM     48  C   UNL A   1      42.205  27.217  29.086  1.00  0.00     0.037 A 
ATOM     49  C   UNL A   1      40.081  31.143  34.473  1.00  0.00     0.037 A 
ATOM     50  C   UNL A   1      43.000  27.087  30.280  1.00  0.00     0.049 A 
ATOM     51  C   UNL A   1      41.291  30.261  34.567  1.00  0.00     0.074 A 
ATOM     52  C   UNL A   1      44.129  26.315  30.489  1.00  0.00     0.029 A 
ATOM     53  N   UNL A   1      42.756  27.767  31.464  1.00  0.00    -0.354 N 
ATOM     54  N   UNL A   1      41.816  29.479  33.656  1.00  0.00    -0.248 NA
ATOM     55  C   UNL A   1      41.996  30.241  35.857  1.00  0.00     0.031 C 
ATOM     56  C   UNL A   1      44.559  26.515  31.806  1.00  0.00     0.029 A 
ATOM     57  C   UNL A   1      43.713  27.433  32.408  1.00  0.00     0.049 A 
ATOM     58  H   UNL A   1      42.012  28.396  31.611  1.00  0.00     0.167 HD
ATOM     59  C   UNL A   1      42.912  28.878  34.257  1.00  0.00     0.074 A 
ATOM     60  C   UNL A   1      42.990  29.401  35.606  1.00  0.00     0.031 C 
ATOM     61  C   UNL A   1      43.772  27.967  33.742  1.00  0.00     0.037 A 
BRANCH  48  62
ATOM     62  C   UNL A   1      42.600  26.412  27.886  1.00  0.00     0.064 A 
ATOM     63  C   UNL A   1      42.015  25.169  27.607  1.00  0.00     0.173 A 
ATOM     64  C   UNL A   1      43.550  26.910  26.982  1.00  0.00     0.173 A 
ATOM     65  F   UNL A   1      41.112  24.644  28.448  1.00  0.00    -0.203 F 
ATOM     66  C   UNL A   1      42.380  24.446  26.473  1.00  0.00     0.198 A 
ATOM     67  C   UNL A   1      43.898  26.195  25.840  1.00  0.00     0.198 A 
ATOM     68  F   UNL A   1      44.137  28.097  27.204  1.00  0.00    -0.203 F 
ATOM     69  F   UNL A   1      41.833  23.245  26.242  1.00  0.00    -0.200 F 
ATOM     70  C   UNL A   1      43.316  24.962  25.589  1.00  0.00     0.200 A 
ATOM     71  F   UNL A   1      44.797  26.698  24.983  1.00  0.00    -0.200 F 
ATOM     72  F   UNL A   1      43.662  24.268  24.496  1.00  0.00    -0.200 F 
ENDBRANCH  48  62
BRANCH  49  73
ATOM     73  C   UNL A   1      39.638  31.961  35.628  1.00  0.00     0.064 A 
ATOM     74  C   UNL A   1      40.196  33.223  35.870  1.00  0.00     0.173 A 
ATOM     75  C   UNL A   1      38.637  31.507  36.500  1.00  0.00     0.173 A 
ATOM     76  F   UNL A   1      41.171  33.686  35.076  1.00  0.00    -0.203 F 
ATOM     77  C   UNL A   1      39.772  34.001  36.945  1.00  0.00     0.198 A 
ATOM     78  C   UNL A   1      38.198  32.296  37.560  1.00  0.00     0.198 A 
ATOM     79  F   UNL A   1      38.073  30.306  36.308  1.00  0.00    -0.203 F 
ATOM     80  F   UNL A   1      40.341  35.193  37.172  1.00  0.00    -0.200 F 
ATOM     81  C   UNL A   1      38.768  33.540  37.784  1.00  0.00     0.200 A 
ATOM     82  F   UNL A   1      37.220  31.853  38.362  1.00  0.00    -0.200 F 
ATOM     83  F   UNL A   1      38.353  34.294  38.811  1.00  0.00    -0.200 F 
ENDBRANCH  49  73
BRANCH  61  84
ATOM     84  C   UNL A   1      44.876  27.495  34.636  1.00  0.00     0.064 A 
ATOM     85  C   UNL A   1      44.738  26.337  35.413  1.00  0.00     0.173 A 
ATOM     86  C   UNL A   1      46.088  28.196  34.699  1.00  0.00     0.173 A 
ATOM     87  F   UNL A   1      43.588  25.646  35.397  1.00  0.00    -0.203 F 
ATOM     88  C   UNL A   1      45.772  25.906  36.240  1.00  0.00     0.198 A 
ATOM     89  C   UNL A   1      47.126  27.751  35.512  1.00  0.00     0.198 A 
ATOM     90  F   UNL A   1      46.265  29.308  33.971  1.00  0.00    -0.203 F 
ATOM     91  F   UNL A   1      45.607  24.818  37.004  1.00  0.00    -0.200 F 
ATOM     92  C   UNL A   1      46.966  26.611  36.285  1.00  0.00     0.200 A 
ATOM     93  F   UNL A   1      48.281  28.431  35.554  1.00  0.00    -0.200 F 
ATOM     94  F   UNL A   1      47.959  26.197  37.083  1.00  0.00    -0.200 F 
ENDBRANCH  61  84
ENDBRANCH  35  36
ENDBRANCH  28  30
ENDBRANCH  27  28
ENDBRANCH  26  27
ENDBRANCH   1  26
TORSDOF 15
ENDMDL
MODEL 3
REMARK VINA RESULT:     -11.9      4.224      9.274
REMARK SMILES COc1ccccc1CNC(=O)[C@@H]1[C@H]2CC[C@H](CC2)[C@@H]1C(=O)OCCOC(=O)c1ccc(-c2c3nc(c(-c4c(F)c(F)c(F)c(F)c4F)c4ccc([nH]4)c(-c4c(F)c(F)c(F)c(F)c4F)c4nc(c(-c5c(F)c(F)c(F)c(F)c5F)c5ccc2[nH]5)C=C4)C=C3)cc1
REMARK SMILES IDX 24 1 23 2 21 3 22 4 20 5 13 6 14 7 15 8 19 9 17 10 16 11
REMARK SMILES IDX 18 12 11 13 10 14 12 16 9 17 8 18 3 19 4 20 5 21 7 22 6 23
REMARK SMILES IDX 2 24 1 25 25 26 26 27 27 28 28 29 29 30 30 31 91 32 31 33
REMARK SMILES IDX 90 34 32 35 33 36 34 37 84 38 35 39 89 40 83 41 85 42 36 43
REMARK SMILES IDX 88 44 82 45 81 46 37 48 69 49 49 50 68 51 50 52 53 53 67 54
REMARK SMILES IDX 86 55 51 56 52 57 66 59 87 60 54 61 38 62 39 63 47 64 40 65
REMARK SMILES IDX 41 66 45 67 48 68 42 69 43 70 46 71 44 72 70 73 71 74 79 75
REMARK SMILES IDX 72 76 73 77 77 78 80 79 74 80 75 81 78 82 76 83 55 84 56 85
REMARK SMILES IDX 64 86 57 87 58 88 62 89 65 90 59 91 60 92 63 93 61 94
REMARK H PARENT 10 15 85 47 53 58
REMARK Flexibility Score: inf
ROOT
ATOM      1  C   UNL A   1      36.514  22.195  23.889  1.00  0.00     0.274 C 
ENDROOT
BRANCH   1   2
ATOM      2  O   UNL A   1      35.119  21.884  24.066  1.00  0.00    -0.462 OA
BRANCH   2   3
ATOM      3  C   UNL A   1      34.246  22.781  23.555  1.00  0.00     0.310 C 
ATOM      4  O   UNL A   1      34.417  23.422  22.522  1.00  0.00    -0.252 OA
BRANCH   3   5
ATOM      5  C   UNL A   1      33.004  22.971  24.405  1.00  0.00     0.115 C 
ATOM      6  C   UNL A   1      32.962  24.239  25.287  1.00  0.00     0.096 C 
ATOM      7  C   UNL A   1      32.351  23.869  26.669  1.00  0.00     0.002 C 
ATOM      8  C   UNL A   1      30.960  23.241  26.416  1.00  0.00     0.005 C 
ATOM      9  C   UNL A   1      33.196  22.810  27.402  1.00  0.00     0.005 C 
ATOM     10  C   UNL A   1      32.582  21.724  25.221  1.00  0.00     0.004 C 
ATOM     11  C   UNL A   1      31.108  21.925  25.632  1.00  0.00     0.005 C 
ATOM     12  C   UNL A   1      33.407  21.587  26.509  1.00  0.00     0.005 C 
BRANCH   6  13
ATOM     13  C   UNL A   1      34.278  25.013  25.386  1.00  0.00     0.224 C 
ATOM     14  N   UNL A   1      34.358  26.260  24.846  1.00  0.00    -0.352 N 
ATOM     15  H   UNL A   1      35.260  26.657  24.855  1.00  0.00     0.163 HD
ATOM     16  O   UNL A   1      35.279  24.564  25.939  1.00  0.00    -0.275 OA
BRANCH  14  17
ATOM     17  C   UNL A   1      33.330  27.100  24.258  1.00  0.00     0.155 C 
BRANCH  17  18
ATOM     18  C   UNL A   1      32.995  28.274  25.140  1.00  0.00     0.013 A 
ATOM     19  C   UNL A   1      31.867  29.069  24.898  1.00  0.00     0.123 A 
ATOM     20  C   UNL A   1      31.583  30.181  25.696  1.00  0.00     0.047 A 
ATOM     21  C   UNL A   1      32.393  30.478  26.789  1.00  0.00     0.004 A 
ATOM     22  C   UNL A   1      33.786  28.576  26.262  1.00  0.00     0.009 A 
ATOM     23  C   UNL A   1      33.489  29.670  27.078  1.00  0.00     0.001 A 
BRANCH  19  24
ATOM     24  O   UNL A   1      31.053  28.834  23.820  1.00  0.00    -0.496 OA
ATOM     25  C   UNL A   1      30.074  29.868  23.702  1.00  0.00     0.278 C 
ENDBRANCH  19  24
ENDBRANCH  17  18
ENDBRANCH  14  17
ENDBRANCH   6  13
ENDBRANCH   3   5
ENDBRANCH   2   3
ENDBRANCH   1   2
BRANCH   1  26
ATOM     26  C   UNL A   1      37.389  21.116  24.516  1.00  0.00     0.275 C 
BRANCH  26  27
ATOM     27  O   UNL A   1      37.751  21.501  25.854  1.00  0.00    -0.458 OA
BRANCH  27  28
ATOM     28  C   UNL A   1      39.060  21.371  26.158  1.00  0.00     0.338 C 
ATOM     29  O   UNL A   1      39.767  20.387  26.023  1.00  0.00    -0.246 OA
BRANCH  28  30
ATOM     30  C   UNL A   1      39.571  22.631  26.716  1.00  0.00     0.060 A 
ATOM     31  C   UNL A   1      39.093  23.856  26.247  1.00  0.00     0.016 A 
ATOM     32  C   UNL A   1      40.643  22.586  27.607  1.00  0.00     0.016 A 
ATOM     33  C   UNL A   1      39.753  25.034  26.589  1.00  0.00     0.010 A 
ATOM     34  C   UNL A   1      41.247  23.775  28.021  1.00  0.00     0.010 A 
ATOM     35  C   UNL A   1      40.835  25.006  27.481  1.00  0.00    -0.014 A 
BRANCH  35  36
ATOM     36  C   UNL A   1      41.568  26.253  27.821  1.00  0.00     0.031 A 
ATOM     37  C   UNL A   1      40.904  27.312  28.660  1.00  0.00     0.074 A 
ATOM     38  C   UNL A   1      42.826  26.438  27.382  1.00  0.00     0.049 A 
ATOM     39  N   UNL A   1      41.304  28.529  28.927  1.00  0.00    -0.248 NA
ATOM     40  C   UNL A   1      39.614  26.956  29.273  1.00  0.00     0.031 C 
ATOM     41  C   UNL A   1      43.598  25.477  26.595  1.00  0.00     0.029 A 
ATOM     42  N   UNL A   1      43.679  27.502  27.537  1.00  0.00    -0.354 N 
ATOM     43  C   UNL A   1      40.295  29.100  29.692  1.00  0.00     0.074 A 
ATOM     44  C   UNL A   1      39.265  28.096  29.853  1.00  0.00     0.031 C 
ATOM     45  C   UNL A   1      44.819  25.982  26.359  1.00  0.00     0.029 A 
ATOM     46  C   UNL A   1      44.891  27.327  26.918  1.00  0.00     0.049 A 
ATOM     47  H   UNL A   1      43.443  28.313  28.044  1.00  0.00     0.167 HD
ATOM     48  C   UNL A   1      40.235  30.349  30.211  1.00  0.00     0.037 A 
ATOM     49  C   UNL A   1      45.933  28.169  26.788  1.00  0.00     0.037 A 
ATOM     50  C   UNL A   1      41.281  31.331  30.090  1.00  0.00     0.049 A 
ATOM     51  C   UNL A   1      45.840  29.550  27.368  1.00  0.00     0.074 A 
ATOM     52  C   UNL A   1      41.314  32.625  30.579  1.00  0.00     0.029 A 
ATOM     53  N   UNL A   1      42.491  31.116  29.448  1.00  0.00    -0.354 N 
ATOM     54  N   UNL A   1      44.856  30.102  28.035  1.00  0.00    -0.248 NA
ATOM     55  C   UNL A   1      46.996  30.434  27.159  1.00  0.00     0.031 C 
ATOM     56  C   UNL A   1      42.539  33.200  30.218  1.00  0.00     0.029 A 
ATOM     57  C   UNL A   1      43.279  32.252  29.528  1.00  0.00     0.049 A 
ATOM     58  H   UNL A   1      42.753  30.277  29.002  1.00  0.00     0.167 HD
ATOM     59  C   UNL A   1      45.272  31.392  28.329  1.00  0.00     0.074 A 
ATOM     60  C   UNL A   1      46.607  31.536  27.787  1.00  0.00     0.031 C 
ATOM     61  C   UNL A   1      44.604  32.372  28.982  1.00  0.00     0.037 A 
BRANCH  48  62
ATOM     62  C   UNL A   1      38.983  30.738  30.937  1.00  0.00     0.064 A 
ATOM     63  C   UNL A   1      38.878  30.639  32.331  1.00  0.00     0.173 A 
ATOM     64  C   UNL A   1      37.887  31.254  30.228  1.00  0.00     0.173 A 
ATOM     65  F   UNL A   1      39.893  30.139  33.050  1.00  0.00    -0.203 F 
ATOM     66  C   UNL A   1      37.713  31.026  32.989  1.00  0.00     0.198 A 
ATOM     67  C   UNL A   1      36.732  31.659  30.890  1.00  0.00     0.198 A 
ATOM     68  F   UNL A   1      37.940  31.371  28.893  1.00  0.00    -0.203 F 
ATOM     69  F   UNL A   1      37.620  30.893  34.318  1.00  0.00    -0.200 F 
ATOM     70  C   UNL A   1      36.644  31.542  32.269  1.00  0.00     0.200 A 
ATOM     71  F   UNL A   1      35.704  32.163  30.194  1.00  0.00    -0.200 F 
ATOM     72  F   UNL A   1      35.526  31.919  32.904  1.00  0.00    -0.200 F 
ENDBRANCH  48  62
BRANCH  49  73
ATOM     73  C   UNL A   1      47.145  27.727  26.055  1.00  0.00     0.064 A 
ATOM     74  C   UNL A   1      48.264  27.245  26.745  1.00  0.00     0.173 A 
ATOM     75  C   UNL A   1      47.201  27.760  24.654  1.00  0.00     0.173 A 
ATOM     76  F   UNL A   1      48.263  27.217  28.085  1.00  0.00    -0.203 F 
ATOM     77  C   UNL A   1      49.398  26.814  26.060  1.00  0.00     0.198 A 
ATOM     78  C   UNL A   1      48.326  27.306  23.970  1.00  0.00     0.198 A 
ATOM     79  F   UNL A   1      46.153  28.213  23.951  1.00  0.00    -0.203 F 
ATOM     80  F   UNL A   1      50.467  26.382  26.744  1.00  0.00    -0.200 F 
ATOM     81  C   UNL A   1      49.424  26.837  24.673  1.00  0.00     0.200 A 
ATOM     82  F   UNL A   1      48.343  27.320  22.630  1.00  0.00    -0.200 F 
ATOM     83  F   UNL A   1      50.512  26.412  24.016  1.00  0.00    -0.200 F 
ENDBRANCH  49  73
BRANCH  61  84
ATOM     84  C   UNL A   1      45.318  33.677  29.158  1.00  0.00     0.064 A 
ATOM     85  C   UNL A   1      46.141  33.911  30.268  1.00  0.00     0.173 A 
ATOM     86  C   UNL A   1      45.193  34.690  28.198  1.00  0.00     0.173 A 
ATOM     87  F   UNL A   1      46.275  32.976  31.219  1.00  0.00    -0.203 F 
ATOM     88  C   UNL A   1      46.802  35.127  30.420  1.00  0.00     0.198 A 
ATOM     89  C   UNL A   1      45.870  35.897  28.345  1.00  0.00     0.198 A 
ATOM     90  F   UNL A   1      44.417  34.508  27.120  1.00  0.00    -0.203 F 
ATOM     91  F   UNL A   1      47.554  35.348  31.507  1.00  0.00    -0.200 F 
ATOM     92  C   UNL A   1      46.669  36.117  29.457  1.00  0.00     0.200 A 
ATOM     93  F   UNL A   1      45.743  36.853  27.413  1.00  0.00    -0.200 F 
ATOM     94  F   UNL A   1      47.303  37.288  29.607  1.00  0.00    -0.200 F 
ENDBRANCH  61  84
ENDBRANCH  35  36
ENDBRANCH  28  30
ENDBRANCH  27  28
ENDBRANCH  26  27
ENDBRANCH   1  26
TORSDOF 15
ENDMDL
