MODEL 1
REMARK VINA RESULT:     -11.9      0.000      0.000
REMARK SMILES Cc1ccc([C@@](C)(O)[C@H](F)C(=O)OCCOC(=O)c2ccc(-c3c4nc(c(-c5c(F)c(F)c(F)c(F)c5F)c5ccc([nH]5)c(-c5c(F)c(F)c(F)c(F)c5F)c5nc(c(-c6c(F)c(F)c(F)c(F)c6F)c6ccc3[nH]6)C=C5)C=C4)cc2)cc1F
REMARK SMILES IDX 14 1 13 2 11 3 12 4 9 5 10 6 6 7 7 8 5 9 1 10 2 11 3 12
REMARK SMILES IDX 83 13 4 14 82 15 84 16 8 17 15 19 16 20 17 21 18 22 19 23
REMARK SMILES IDX 20 24 81 25 21 26 80 27 22 28 23 29 24 30 74 31 25 32 79 33
REMARK SMILES IDX 73 34 75 35 26 36 78 37 72 38 71 39 27 41 59 42 39 43 58 44
REMARK SMILES IDX 40 45 43 46 57 47 76 48 41 49 42 50 56 52 77 53 44 54 28 55
REMARK SMILES IDX 29 56 37 57 30 58 31 59 35 60 38 61 32 62 33 63 36 64 34 65
REMARK SMILES IDX 60 66 61 67 69 68 62 69 63 70 67 71 70 72 64 73 65 74 68 75
REMARK SMILES IDX 66 76 45 77 46 78 54 79 47 80 48 81 52 82 55 83 49 84 50 85
REMARK SMILES IDX 53 86 51 87
REMARK H PARENT 8 18 75 40 43 51
REMARK Flexibility Score: inf
ROOT
ATOM      1  C   UNL A   1      39.643  21.662  26.549  1.00  0.00     0.274 C 
ENDROOT
BRANCH   1   2
ATOM      2  O   UNL A   1      38.611  22.449  25.934  1.00  0.00    -0.460 OA
BRANCH   2   3
ATOM      3  C   UNL A   1      37.778  21.800  25.070  1.00  0.00     0.344 C 
ATOM      4  O   UNL A   1      37.670  20.574  25.012  1.00  0.00    -0.249 OA
BRANCH   3   5
ATOM      5  C   UNL A   1      36.898  22.769  24.292  1.00  0.00     0.311 C 
ATOM      6  F   UNL A   1      37.007  22.578  22.935  1.00  0.00    -0.231 F 
BRANCH   5   7
ATOM      7  C   UNL A   1      35.413  22.663  24.700  1.00  0.00     0.129 C 
ATOM      8  C   UNL A   1      35.211  23.017  26.187  1.00  0.00     0.051 C 
BRANCH   7   9
ATOM      9  C   UNL A   1      34.477  23.559  23.872  1.00  0.00    -0.010 A 
ATOM     10  C   UNL A   1      31.869  26.226  21.650  1.00  0.00     0.047 C 
ATOM     11  C   UNL A   1      32.780  25.295  22.388  1.00  0.00    -0.015 A 
ATOM     12  C   UNL A   1      32.885  23.944  22.049  1.00  0.00     0.007 A 
ATOM     13  C   UNL A   1      33.537  25.769  23.455  1.00  0.00     0.126 A 
ATOM     14  C   UNL A   1      33.725  23.089  22.777  1.00  0.00     0.007 A 
ATOM     15  C   UNL A   1      34.372  24.928  24.183  1.00  0.00     0.046 A 
ATOM     16  F   UNL A   1      33.470  27.063  23.801  1.00  0.00    -0.207 F 
ENDBRANCH   7   9
BRANCH   7  17
ATOM     17  O   UNL A   1      35.008  21.297  24.490  1.00  0.00    -0.382 OA
ATOM     18  H   UNL A   1      35.164  21.052  23.565  1.00  0.00     0.212 HD
ENDBRANCH   7  17
ENDBRANCH   5   7
ENDBRANCH   3   5
ENDBRANCH   2   3
ENDBRANCH   1   2
BRANCH   1  19
ATOM     19  C   UNL A   1      41.032  22.136  26.123  1.00  0.00     0.275 C 
BRANCH  19  20
ATOM     20  O   UNL A   1      41.518  23.226  26.925  1.00  0.00    -0.458 OA
BRANCH  20  21
ATOM     21  C   UNL A   1      41.646  24.385  26.245  1.00  0.00     0.338 C 
ATOM     22  O   UNL A   1      42.549  24.696  25.486  1.00  0.00    -0.246 OA
BRANCH  21  23
ATOM     23  C   UNL A   1      40.718  25.416  26.708  1.00  0.00     0.060 A 
ATOM     24  C   UNL A   1      40.844  26.669  26.086  1.00  0.00     0.016 A 
ATOM     25  C   UNL A   1      40.216  25.280  28.003  1.00  0.00     0.016 A 
ATOM     26  C   UNL A   1      40.710  27.811  26.854  1.00  0.00     0.010 A 
ATOM     27  C   UNL A   1      40.089  26.418  28.765  1.00  0.00     0.010 A 
ATOM     28  C   UNL A   1      40.426  27.659  28.211  1.00  0.00    -0.014 A 
BRANCH  28  29
ATOM     29  C   UNL A   1      40.520  28.769  29.134  1.00  0.00     0.031 A 
ATOM     30  C   UNL A   1      39.404  29.720  29.221  1.00  0.00     0.074 A 
ATOM     31  C   UNL A   1      41.639  28.970  29.863  1.00  0.00     0.049 A 
ATOM     32  N   UNL A   1      39.558  30.978  29.456  1.00  0.00    -0.248 NA
ATOM     33  C   UNL A   1      38.020  29.324  28.981  1.00  0.00     0.031 C 
ATOM     34  C   UNL A   1      41.787  29.895  30.979  1.00  0.00     0.029 A 
ATOM     35  N   UNL A   1      42.935  28.491  29.621  1.00  0.00    -0.354 N 
ATOM     36  C   UNL A   1      38.309  31.490  29.684  1.00  0.00     0.074 A 
ATOM     37  C   UNL A   1      37.378  30.459  29.277  1.00  0.00     0.031 C 
ATOM     38  C   UNL A   1      43.091  30.129  31.180  1.00  0.00     0.029 A 
ATOM     39  C   UNL A   1      43.823  29.472  30.115  1.00  0.00     0.049 A 
ATOM     40  H   UNL A   1      43.178  27.640  29.192  1.00  0.00     0.167 HD
ATOM     41  C   UNL A   1      38.170  32.664  30.354  1.00  0.00     0.037 A 
ATOM     42  C   UNL A   1      44.760  30.077  29.327  1.00  0.00     0.037 A 
ATOM     43  C   UNL A   1      39.448  33.217  30.769  1.00  0.00     0.049 A 
ATOM     44  C   UNL A   1      44.628  31.574  29.257  1.00  0.00     0.074 A 
ATOM     45  C   UNL A   1      40.167  33.087  31.948  1.00  0.00     0.029 A 
ATOM     46  N   UNL A   1      40.333  33.719  29.822  1.00  0.00    -0.354 N 
ATOM     47  N   UNL A   1      43.524  32.204  29.546  1.00  0.00    -0.248 NA
ATOM     48  C   UNL A   1      45.697  32.480  28.846  1.00  0.00     0.031 C 
ATOM     49  C   UNL A   1      41.498  33.492  31.703  1.00  0.00     0.029 A 
ATOM     50  C   UNL A   1      41.587  33.888  30.381  1.00  0.00     0.049 A 
ATOM     51  H   UNL A   1      40.101  33.925  28.888  1.00  0.00     0.167 HD
ATOM     52  C   UNL A   1      43.707  33.550  29.377  1.00  0.00     0.074 A 
ATOM     53  C   UNL A   1      45.086  33.675  28.944  1.00  0.00     0.031 C 
ATOM     54  C   UNL A   1      42.694  34.436  29.616  1.00  0.00     0.037 A 
BRANCH  41  55
ATOM     55  C   UNL A   1      36.837  33.068  30.899  1.00  0.00     0.064 A 
ATOM     56  C   UNL A   1      35.935  33.835  30.138  1.00  0.00     0.173 A 
ATOM     57  C   UNL A   1      36.440  32.769  32.213  1.00  0.00     0.173 A 
ATOM     58  F   UNL A   1      36.193  34.162  28.867  1.00  0.00    -0.203 F 
ATOM     59  C   UNL A   1      34.748  34.329  30.679  1.00  0.00     0.198 A 
ATOM     60  C   UNL A   1      35.272  33.299  32.767  1.00  0.00     0.198 A 
ATOM     61  F   UNL A   1      37.199  31.983  32.992  1.00  0.00    -0.203 F 
ATOM     62  F   UNL A   1      33.931  35.071  29.919  1.00  0.00    -0.200 F 
ATOM     63  C   UNL A   1      34.430  34.083  32.000  1.00  0.00     0.200 A 
ATOM     64  F   UNL A   1      34.980  33.066  34.054  1.00  0.00    -0.200 F 
ATOM     65  F   UNL A   1      33.316  34.604  32.534  1.00  0.00    -0.200 F 
ENDBRANCH  41  55
BRANCH  42  66
ATOM     66  C   UNL A   1      45.268  29.193  28.252  1.00  0.00     0.064 A 
ATOM     67  C   UNL A   1      46.188  28.200  28.628  1.00  0.00     0.173 A 
ATOM     68  C   UNL A   1      44.538  29.000  27.071  1.00  0.00     0.173 A 
ATOM     69  F   UNL A   1      46.917  28.351  29.746  1.00  0.00    -0.203 F 
ATOM     70  C   UNL A   1      46.262  26.993  27.940  1.00  0.00     0.198 A 
ATOM     71  C   UNL A   1      44.619  27.790  26.379  1.00  0.00     0.198 A 
ATOM     72  F   UNL A   1      43.660  29.926  26.660  1.00  0.00    -0.203 F 
ATOM     73  F   UNL A   1      47.048  26.010  28.401  1.00  0.00    -0.200 F 
ATOM     74  C   UNL A   1      45.451  26.775  26.838  1.00  0.00     0.200 A 
ATOM     75  F   UNL A   1      43.831  27.581  25.312  1.00  0.00    -0.200 F 
ATOM     76  F   UNL A   1      45.455  25.577  26.242  1.00  0.00    -0.200 F 
ENDBRANCH  42  66
BRANCH  54  77
ATOM     77  C   UNL A   1      42.678  35.907  29.282  1.00  0.00     0.064 A 
ATOM     78  C   UNL A   1      43.398  36.882  29.989  1.00  0.00     0.173 A 
ATOM     79  C   UNL A   1      42.030  36.363  28.106  1.00  0.00     0.173 A 
ATOM     80  F   UNL A   1      44.144  36.562  31.055  1.00  0.00    -0.203 F 
ATOM     81  C   UNL A   1      43.423  38.220  29.582  1.00  0.00     0.198 A 
ATOM     82  C   UNL A   1      42.106  37.685  27.672  1.00  0.00     0.198 A 
ATOM     83  F   UNL A   1      41.323  35.534  27.323  1.00  0.00    -0.203 F 
ATOM     84  F   UNL A   1      44.095  39.120  30.313  1.00  0.00    -0.200 F 
ATOM     85  C   UNL A   1      42.791  38.617  28.419  1.00  0.00     0.200 A 
ATOM     86  F   UNL A   1      41.529  38.039  26.515  1.00  0.00    -0.200 F 
ATOM     87  F   UNL A   1      42.860  39.891  28.008  1.00  0.00    -0.200 F 
ENDBRANCH  54  77
ENDBRANCH  28  29
ENDBRANCH  21  23
ENDBRANCH  20  21
ENDBRANCH  19  20
ENDBRANCH   1  19
TORSDOF 14
ENDMDL
MODEL 2
REMARK VINA RESULT:     -11.8      1.272      2.229
REMARK SMILES Cc1ccc([C@@](C)(O)[C@H](F)C(=O)OCCOC(=O)c2ccc(-c3c4nc(c(-c5c(F)c(F)c(F)c(F)c5F)c5ccc([nH]5)c(-c5c(F)c(F)c(F)c(F)c5F)c5nc(c(-c6c(F)c(F)c(F)c(F)c6F)c6ccc3[nH]6)C=C5)C=C4)cc2)cc1F
REMARK SMILES IDX 14 1 13 2 11 3 12 4 9 5 10 6 6 7 7 8 5 9 1 10 2 11 3 12
REMARK SMILES IDX 83 13 4 14 82 15 84 16 8 17 15 19 16 20 17 21 18 22 19 23
REMARK SMILES IDX 20 24 81 25 21 26 80 27 22 28 23 29 24 30 74 31 25 32 79 33
REMARK SMILES IDX 73 34 75 35 26 36 78 37 72 38 71 39 27 41 59 42 39 43 58 44
REMARK SMILES IDX 40 45 43 46 57 47 76 48 41 49 42 50 56 52 77 53 44 54 28 55
REMARK SMILES IDX 29 56 37 57 30 58 31 59 35 60 38 61 32 62 33 63 36 64 34 65
REMARK SMILES IDX 60 66 61 67 69 68 62 69 63 70 67 71 70 72 64 73 65 74 68 75
REMARK SMILES IDX 66 76 45 77 46 78 54 79 47 80 48 81 52 82 55 83 49 84 50 85
REMARK SMILES IDX 53 86 51 87
REMARK H PARENT 8 18 75 40 43 51
REMARK Flexibility Score: inf
ROOT
ATOM      1  C   UNL A   1      38.352  22.245  25.406  1.00  0.00     0.274 C 
ENDROOT
BRANCH   1   2
ATOM      2  O   UNL A   1      37.162  22.135  26.203  1.00  0.00    -0.460 OA
BRANCH   2   3
ATOM      3  C   UNL A   1      36.091  21.519  25.625  1.00  0.00     0.344 C 
ATOM      4  O   UNL A   1      36.173  20.487  24.957  1.00  0.00    -0.249 OA
BRANCH   3   5
ATOM      5  C   UNL A   1      34.775  22.173  26.022  1.00  0.00     0.311 C 
ATOM      6  F   UNL A   1      34.888  22.866  27.203  1.00  0.00    -0.231 F 
BRANCH   5   7
ATOM      7  C   UNL A   1      34.242  23.122  24.927  1.00  0.00     0.129 C 
ATOM      8  C   UNL A   1      33.278  22.392  23.971  1.00  0.00     0.051 C 
BRANCH   7   9
ATOM      9  C   UNL A   1      33.512  24.357  25.480  1.00  0.00    -0.010 A 
ATOM     10  C   UNL A   1      31.605  27.941  27.019  1.00  0.00     0.047 C 
ATOM     11  C   UNL A   1      32.235  26.698  26.472  1.00  0.00    -0.015 A 
ATOM     12  C   UNL A   1      31.561  25.476  26.453  1.00  0.00     0.007 A 
ATOM     13  C   UNL A   1      33.536  26.743  25.978  1.00  0.00     0.126 A 
ATOM     14  C   UNL A   1      32.188  24.322  25.959  1.00  0.00     0.007 A 
ATOM     15  C   UNL A   1      34.165  25.603  25.487  1.00  0.00     0.046 A 
ATOM     16  F   UNL A   1      34.209  27.902  25.969  1.00  0.00    -0.207 F 
ENDBRANCH   7   9
BRANCH   7  17
ATOM     17  O   UNL A   1      35.378  23.587  24.174  1.00  0.00    -0.382 OA
ATOM     18  H   UNL A   1      35.477  24.544  24.295  1.00  0.00     0.212 HD
ENDBRANCH   7  17
ENDBRANCH   5   7
ENDBRANCH   3   5
ENDBRANCH   2   3
ENDBRANCH   1   2
BRANCH   1  19
ATOM     19  C   UNL A   1      39.597  21.875  26.211  1.00  0.00     0.275 C 
BRANCH  19  20
ATOM     20  O   UNL A   1      39.879  22.813  27.263  1.00  0.00    -0.458 OA
BRANCH  20  21
ATOM     21  C   UNL A   1      40.586  23.889  26.856  1.00  0.00     0.338 C 
ATOM     22  O   UNL A   1      41.758  23.913  26.519  1.00  0.00    -0.246 OA
BRANCH  21  23
ATOM     23  C   UNL A   1      39.893  25.151  27.117  1.00  0.00     0.060 A 
ATOM     24  C   UNL A   1      40.411  26.275  26.453  1.00  0.00     0.016 A 
ATOM     25  C   UNL A   1      39.206  25.257  28.327  1.00  0.00     0.016 A 
ATOM     26  C   UNL A   1      40.467  27.480  27.128  1.00  0.00     0.010 A 
ATOM     27  C   UNL A   1      39.268  26.457  28.997  1.00  0.00     0.010 A 
ATOM     28  C   UNL A   1      39.976  27.525  28.432  1.00  0.00    -0.014 A 
BRANCH  28  29
ATOM     29  C   UNL A   1      40.222  28.659  29.297  1.00  0.00     0.031 A 
ATOM     30  C   UNL A   1      39.186  29.690  29.431  1.00  0.00     0.074 A 
ATOM     31  C   UNL A   1      41.409  28.805  29.925  1.00  0.00     0.049 A 
ATOM     32  N   UNL A   1      39.445  30.942  29.600  1.00  0.00    -0.248 NA
ATOM     33  C   UNL A   1      37.762  29.387  29.320  1.00  0.00     0.031 C 
ATOM     34  C   UNL A   1      41.711  29.758  30.985  1.00  0.00     0.029 A 
ATOM     35  N   UNL A   1      42.644  28.226  29.602  1.00  0.00    -0.354 N 
ATOM     36  C   UNL A   1      38.256  31.550  29.904  1.00  0.00     0.074 A 
ATOM     37  C   UNL A   1      37.226  30.575  29.617  1.00  0.00     0.031 C 
ATOM     38  C   UNL A   1      43.041  29.904  31.072  1.00  0.00     0.029 A 
ATOM     39  C   UNL A   1      43.636  29.158  29.980  1.00  0.00     0.049 A 
ATOM     40  H   UNL A   1      42.792  27.343  29.191  1.00  0.00     0.167 HD
ATOM     41  C   UNL A   1      38.255  32.755  30.532  1.00  0.00     0.037 A 
ATOM     42  C   UNL A   1      44.544  29.664  29.096  1.00  0.00     0.037 A 
ATOM     43  C   UNL A   1      39.598  33.230  30.820  1.00  0.00     0.049 A 
ATOM     44  C   UNL A   1      44.510  31.162  28.972  1.00  0.00     0.074 A 
ATOM     45  C   UNL A   1      40.401  33.092  31.942  1.00  0.00     0.029 A 
ATOM     46  N   UNL A   1      40.435  33.631  29.785  1.00  0.00    -0.354 N 
ATOM     47  N   UNL A   1      43.479  31.881  29.321  1.00  0.00    -0.248 NA
ATOM     48  C   UNL A   1      45.601  31.973  28.439  1.00  0.00     0.031 C 
ATOM     49  C   UNL A   1      41.731  33.391  31.575  1.00  0.00     0.029 A 
ATOM     50  C   UNL A   1      41.738  33.730  30.234  1.00  0.00     0.049 A 
ATOM     51  H   UNL A   1      40.141  33.818  28.864  1.00  0.00     0.167 HD
ATOM     52  C   UNL A   1      43.741  33.203  29.080  1.00  0.00     0.074 A 
ATOM     53  C   UNL A   1      45.084  33.213  28.534  1.00  0.00     0.031 C 
ATOM     54  C   UNL A   1      42.814  34.168  29.361  1.00  0.00     0.037 A 
BRANCH  41  55
ATOM     55  C   UNL A   1      37.002  33.274  31.163  1.00  0.00     0.064 A 
ATOM     56  C   UNL A   1      36.722  33.058  32.525  1.00  0.00     0.173 A 
ATOM     57  C   UNL A   1      36.008  33.938  30.425  1.00  0.00     0.173 A 
ATOM     58  F   UNL A   1      37.602  32.456  33.334  1.00  0.00    -0.203 F 
ATOM     59  C   UNL A   1      35.501  33.420  33.094  1.00  0.00     0.198 A 
ATOM     60  C   UNL A   1      34.769  34.263  30.985  1.00  0.00     0.198 A 
ATOM     61  F   UNL A   1      36.213  34.255  29.137  1.00  0.00    -0.203 F 
ATOM     62  F   UNL A   1      35.274  33.176  34.392  1.00  0.00    -0.200 F 
ATOM     63  C   UNL A   1      34.516  33.998  32.317  1.00  0.00     0.200 A 
ATOM     64  F   UNL A   1      33.815  34.811  30.219  1.00  0.00    -0.200 F 
ATOM     65  F   UNL A   1      33.324  34.295  32.853  1.00  0.00    -0.200 F 
ENDBRANCH  41  55
BRANCH  42  66
ATOM     66  C   UNL A   1      44.899  28.706  28.022  1.00  0.00     0.064 A 
ATOM     67  C   UNL A   1      45.688  27.603  28.391  1.00  0.00     0.173 A 
ATOM     68  C   UNL A   1      44.119  28.598  26.863  1.00  0.00     0.173 A 
ATOM     69  F   UNL A   1      46.460  27.668  29.487  1.00  0.00    -0.203 F 
ATOM     70  C   UNL A   1      45.580  26.389  27.720  1.00  0.00     0.198 A 
ATOM     71  C   UNL A   1      44.017  27.380  26.188  1.00  0.00     0.198 A 
ATOM     72  F   UNL A   1      43.362  29.629  26.460  1.00  0.00    -0.203 F 
ATOM     73  F   UNL A   1      46.239  25.314  28.178  1.00  0.00    -0.200 F 
ATOM     74  C   UNL A   1      44.718  26.268  26.643  1.00  0.00     0.200 A 
ATOM     75  F   UNL A   1      43.181  27.266  25.146  1.00  0.00    -0.200 F 
ATOM     76  F   UNL A   1      44.545  25.073  26.067  1.00  0.00    -0.200 F 
ENDBRANCH  42  66
BRANCH  54  77
ATOM     77  C   UNL A   1      42.872  35.623  28.966  1.00  0.00     0.064 A 
ATOM     78  C   UNL A   1      42.195  36.166  27.864  1.00  0.00     0.173 A 
ATOM     79  C   UNL A   1      43.518  36.564  29.808  1.00  0.00     0.173 A 
ATOM     80  F   UNL A   1      41.455  35.399  27.052  1.00  0.00    -0.203 F 
ATOM     81  C   UNL A   1      42.207  37.539  27.594  1.00  0.00     0.198 A 
ATOM     82  C   UNL A   1      43.477  37.936  29.569  1.00  0.00     0.198 A 
ATOM     83  F   UNL A   1      44.186  36.185  30.908  1.00  0.00    -0.203 F 
ATOM     84  F   UNL A   1      41.574  38.005  26.509  1.00  0.00    -0.200 F 
ATOM     85  C   UNL A   1      42.834  38.422  28.453  1.00  0.00     0.200 A 
ATOM     86  F   UNL A   1      44.048  38.780  30.440  1.00  0.00    -0.200 F 
ATOM     87  F   UNL A   1      42.799  39.741  28.216  1.00  0.00    -0.200 F 
ENDBRANCH  54  77
ENDBRANCH  28  29
ENDBRANCH  21  23
ENDBRANCH  20  21
ENDBRANCH  19  20
ENDBRANCH   1  19
TORSDOF 14
ENDMDL
MODEL 3
REMARK VINA RESULT:     -11.8      4.286     10.328
REMARK SMILES Cc1ccc([C@@](C)(O)[C@H](F)C(=O)OCCOC(=O)c2ccc(-c3c4nc(c(-c5c(F)c(F)c(F)c(F)c5F)c5ccc([nH]5)c(-c5c(F)c(F)c(F)c(F)c5F)c5nc(c(-c6c(F)c(F)c(F)c(F)c6F)c6ccc3[nH]6)C=C5)C=C4)cc2)cc1F
REMARK SMILES IDX 14 1 13 2 11 3 12 4 9 5 10 6 6 7 7 8 5 9 1 10 2 11 3 12
REMARK SMILES IDX 83 13 4 14 82 15 84 16 8 17 15 19 16 20 17 21 18 22 19 23
REMARK SMILES IDX 20 24 81 25 21 26 80 27 22 28 23 29 24 30 74 31 25 32 79 33
REMARK SMILES IDX 73 34 75 35 26 36 78 37 72 38 71 39 27 41 59 42 39 43 58 44
REMARK SMILES IDX 40 45 43 46 57 47 76 48 41 49 42 50 56 52 77 53 44 54 28 55
REMARK SMILES IDX 29 56 37 57 30 58 31 59 35 60 38 61 32 62 33 63 36 64 34 65
REMARK SMILES IDX 60 66 61 67 69 68 62 69 63 70 67 71 70 72 64 73 65 74 68 75
REMARK SMILES IDX 66 76 45 77 46 78 54 79 47 80 48 81 52 82 55 83 49 84 50 85
REMARK SMILES IDX 53 86 51 87
REMARK H PARENT 8 18 75 40 43 51
REMARK Flexibility Score: inf
ROOT
ATOM      1  C   UNL A   1      33.765  29.916  27.338  1.00  0.00     0.274 C 
ENDROOT
BRANCH   1   2
ATOM      2  O   UNL A   1      33.671  29.891  25.904  1.00  0.00    -0.460 OA
BRANCH   2   3
ATOM      3  C   UNL A   1      32.427  29.708  25.376  1.00  0.00     0.344 C 
ATOM      4  O   UNL A   1      31.435  30.356  25.715  1.00  0.00    -0.249 OA
BRANCH   3   5
ATOM      5  C   UNL A   1      32.439  28.716  24.221  1.00  0.00     0.311 C 
ATOM      6  F   UNL A   1      33.689  28.603  23.660  1.00  0.00    -0.231 F 
BRANCH   5   7
ATOM      7  C   UNL A   1      31.950  27.316  24.650  1.00  0.00     0.129 C 
ATOM      8  C   UNL A   1      30.584  26.979  24.019  1.00  0.00     0.051 C 
BRANCH   7   9
ATOM      9  C   UNL A   1      32.925  26.182  24.294  1.00  0.00    -0.010 A 
ATOM     10  C   UNL A   1      35.771  23.016  23.441  1.00  0.00     0.047 C 
ATOM     11  C   UNL A   1      34.766  24.088  23.725  1.00  0.00    -0.015 A 
ATOM     12  C   UNL A   1      33.767  24.423  22.808  1.00  0.00     0.007 A 
ATOM     13  C   UNL A   1      34.824  24.791  24.924  1.00  0.00     0.126 A 
ATOM     14  C   UNL A   1      32.856  25.452  23.091  1.00  0.00     0.007 A 
ATOM     15  C   UNL A   1      33.926  25.813  25.212  1.00  0.00     0.046 A 
ATOM     16  F   UNL A   1      35.763  24.488  25.833  1.00  0.00    -0.207 F 
ENDBRANCH   7   9
BRANCH   7  17
ATOM     17  O   UNL A   1      31.806  27.334  26.083  1.00  0.00    -0.382 OA
ATOM     18  H   UNL A   1      30.913  27.630  26.315  1.00  0.00     0.212 HD
ENDBRANCH   7  17
ENDBRANCH   5   7
ENDBRANCH   3   5
ENDBRANCH   2   3
ENDBRANCH   1   2
BRANCH   1  19
ATOM     19  C   UNL A   1      34.047  31.327  27.852  1.00  0.00     0.275 C 
BRANCH  19  20
ATOM     20  O   UNL A   1      35.452  31.605  27.972  1.00  0.00    -0.458 OA
BRANCH  20  21
ATOM     21  C   UNL A   1      36.017  31.078  29.079  1.00  0.00     0.338 C 
ATOM     22  O   UNL A   1      36.132  31.610  30.171  1.00  0.00    -0.246 OA
BRANCH  21  23
ATOM     23  C   UNL A   1      36.771  29.856  28.800  1.00  0.00     0.060 A 
ATOM     24  C   UNL A   1      37.074  29.061  29.918  1.00  0.00     0.016 A 
ATOM     25  C   UNL A   1      37.564  29.851  27.652  1.00  0.00     0.016 A 
ATOM     26  C   UNL A   1      38.314  28.454  29.988  1.00  0.00     0.010 A 
ATOM     27  C   UNL A   1      38.799  29.248  27.727  1.00  0.00     0.010 A 
ATOM     28  C   UNL A   1      39.196  28.639  28.924  1.00  0.00    -0.014 A 
BRANCH  28  29
ATOM     29  C   UNL A   1      40.590  28.261  29.020  1.00  0.00     0.031 A 
ATOM     30  C   UNL A   1      41.015  26.966  28.474  1.00  0.00     0.074 A 
ATOM     31  C   UNL A   1      41.479  29.054  29.656  1.00  0.00     0.049 A 
ATOM     32  N   UNL A   1      41.955  26.250  28.991  1.00  0.00    -0.248 NA
ATOM     33  C   UNL A   1      40.359  26.348  27.326  1.00  0.00     0.031 C 
ATOM     34  C   UNL A   1      42.929  28.914  29.632  1.00  0.00     0.029 A 
ATOM     35  N   UNL A   1      41.231  30.057  30.604  1.00  0.00    -0.354 N 
ATOM     36  C   UNL A   1      42.218  25.246  28.099  1.00  0.00     0.074 A 
ATOM     37  C   UNL A   1      41.140  25.280  27.133  1.00  0.00     0.031 C 
ATOM     38  C   UNL A   1      43.447  29.586  30.669  1.00  0.00     0.029 A 
ATOM     39  C   UNL A   1      42.343  30.067  31.476  1.00  0.00     0.049 A 
ATOM     40  H   UNL A   1      40.439  30.639  30.654  1.00  0.00     0.167 HD
ATOM     41  C   UNL A   1      43.406  24.588  28.151  1.00  0.00     0.037 A 
ATOM     42  C   UNL A   1      42.221  29.875  32.822  1.00  0.00     0.037 A 
ATOM     43  C   UNL A   1      44.275  25.101  29.197  1.00  0.00     0.049 A 
ATOM     44  C   UNL A   1      43.004  28.703  33.348  1.00  0.00     0.074 A 
ATOM     45  C   UNL A   1      45.265  26.071  29.177  1.00  0.00     0.029 A 
ATOM     46  N   UNL A   1      43.958  24.890  30.534  1.00  0.00    -0.354 N 
ATOM     47  N   UNL A   1      43.410  27.722  32.590  1.00  0.00    -0.248 NA
ATOM     48  C   UNL A   1      43.380  28.520  34.746  1.00  0.00     0.031 C 
ATOM     49  C   UNL A   1      45.529  26.462  30.508  1.00  0.00     0.029 A 
ATOM     50  C   UNL A   1      44.716  25.717  31.342  1.00  0.00     0.049 A 
ATOM     51  H   UNL A   1      43.290  24.244  30.860  1.00  0.00     0.167 HD
ATOM     52  C   UNL A   1      44.081  26.803  33.351  1.00  0.00     0.074 A 
ATOM     53  C   UNL A   1      44.043  27.349  34.694  1.00  0.00     0.031 C 
ATOM     54  C   UNL A   1      44.609  25.674  32.790  1.00  0.00     0.037 A 
BRANCH  41  55
ATOM     55  C   UNL A   1      43.846  23.735  27.004  1.00  0.00     0.064 A 
ATOM     56  C   UNL A   1      43.440  22.392  26.889  1.00  0.00     0.173 A 
ATOM     57  C   UNL A   1      44.740  24.197  26.023  1.00  0.00     0.173 A 
ATOM     58  F   UNL A   1      42.574  21.847  27.752  1.00  0.00    -0.203 F 
ATOM     59  C   UNL A   1      43.947  21.550  25.900  1.00  0.00     0.198 A 
ATOM     60  C   UNL A   1      45.279  23.342  25.058  1.00  0.00     0.198 A 
ATOM     61  F   UNL A   1      45.127  25.482  26.005  1.00  0.00    -0.203 F 
ATOM     62  F   UNL A   1      43.543  20.273  25.844  1.00  0.00    -0.200 F 
ATOM     63  C   UNL A   1      44.886  22.018  25.002  1.00  0.00     0.200 A 
ATOM     64  F   UNL A   1      46.200  23.803  24.200  1.00  0.00    -0.200 F 
ATOM     65  F   UNL A   1      45.413  21.193  24.087  1.00  0.00    -0.200 F 
ENDBRANCH  41  55
BRANCH  42  66
ATOM     66  C   UNL A   1      40.940  30.383  33.364  1.00  0.00     0.064 A 
ATOM     67  C   UNL A   1      40.786  31.779  33.430  1.00  0.00     0.173 A 
ATOM     68  C   UNL A   1      39.781  29.595  33.337  1.00  0.00     0.173 A 
ATOM     69  F   UNL A   1      41.870  32.570  33.470  1.00  0.00    -0.203 F 
ATOM     70  C   UNL A   1      39.531  32.368  33.312  1.00  0.00     0.198 A 
ATOM     71  C   UNL A   1      38.523  30.189  33.226  1.00  0.00     0.198 A 
ATOM     72  F   UNL A   1      39.874  28.258  33.292  1.00  0.00    -0.203 F 
ATOM     73  F   UNL A   1      39.427  33.703  33.238  1.00  0.00    -0.200 F 
ATOM     74  C   UNL A   1      38.405  31.574  33.174  1.00  0.00     0.200 A 
ATOM     75  F   UNL A   1      37.433  29.418  33.090  1.00  0.00    -0.200 F 
ATOM     76  F   UNL A   1      37.215  32.149  32.961  1.00  0.00    -0.200 F 
ENDBRANCH  42  66
BRANCH  54  77
ATOM     77  C   UNL A   1      45.186  24.486  33.518  1.00  0.00     0.064 A 
ATOM     78  C   UNL A   1      44.491  23.288  33.745  1.00  0.00     0.173 A 
ATOM     79  C   UNL A   1      46.556  24.473  33.888  1.00  0.00     0.173 A 
ATOM     80  F   UNL A   1      43.223  23.132  33.343  1.00  0.00    -0.203 F 
ATOM     81  C   UNL A   1      45.102  22.182  34.344  1.00  0.00     0.198 A 
ATOM     82  C   UNL A   1      47.176  23.349  34.430  1.00  0.00     0.198 A 
ATOM     83  F   UNL A   1      47.345  25.543  33.709  1.00  0.00    -0.203 F 
ATOM     84  F   UNL A   1      44.384  21.074  34.573  1.00  0.00    -0.200 F 
ATOM     85  C   UNL A   1      46.444  22.207  34.672  1.00  0.00     0.200 A 
ATOM     86  F   UNL A   1      48.490  23.377  34.694  1.00  0.00    -0.200 F 
ATOM     87  F   UNL A   1      47.036  21.127  35.200  1.00  0.00    -0.200 F 
ENDBRANCH  54  77
ENDBRANCH  28  29
ENDBRANCH  21  23
ENDBRANCH  20  21
ENDBRANCH  19  20
ENDBRANCH   1  19
TORSDOF 14
ENDMDL
