MODEL 1
REMARK VINA RESULT:     -11.9      0.000      0.000
REMARK SMILES Cc1ccc(Br)cc1C(=O)N1CCO[C@H](CC(=O)OCCOC(=O)c2ccc(-c3c4nc(c(-c5c(F)c(F)c(F)c(F)c5F)c5ccc([nH]5)c(-c5c(F)c(F)c(F)c(F)c5F)c5nc(c(-c6c(F)c(F)c(F)c(F)c6F)c6ccc3[nH]6)C=C5)C=C4)cc2)C1
REMARK SMILES IDX 20 1 19 2 17 3 18 4 16 5 15 6 11 7 12 8 88 9 13 10 14 11
REMARK SMILES IDX 9 12 10 13 8 14 1 15 2 16 3 17 4 18 7 19 5 20 6 21 21 22
REMARK SMILES IDX 22 23 23 24 24 25 25 26 26 27 87 28 27 29 86 30 28 31 29 32
REMARK SMILES IDX 30 33 80 34 31 35 85 36 79 37 81 38 32 39 84 40 78 41 77 42
REMARK SMILES IDX 33 44 65 45 45 46 64 47 46 48 49 49 63 50 82 51 47 52 48 53
REMARK SMILES IDX 62 55 83 56 50 57 34 58 35 59 43 60 36 61 37 62 41 63 44 64
REMARK SMILES IDX 38 65 39 66 42 67 40 68 66 69 67 70 75 71 68 72 69 73 73 74
REMARK SMILES IDX 76 75 70 76 71 77 74 78 72 79 51 80 52 81 60 82 53 83 54 84
REMARK SMILES IDX 58 85 61 86 55 87 56 88 59 89 57 90
REMARK H PARENT 81 43 49 54
REMARK Flexibility Score: inf
ROOT
ATOM      1  C   UNL A   1      31.153  29.570  24.264  1.00  0.00     0.274 C 
ENDROOT
BRANCH   1   2
ATOM      2  O   UNL A   1      30.245  28.468  24.074  1.00  0.00    -0.462 OA
BRANCH   2   3
ATOM      3  C   UNL A   1      30.825  27.298  23.713  1.00  0.00     0.308 C 
ATOM      4  O   UNL A   1      31.634  27.169  22.798  1.00  0.00    -0.252 OA
BRANCH   3   5
ATOM      5  C   UNL A   1      30.266  26.120  24.456  1.00  0.00     0.156 C 
BRANCH   5   6
ATOM      6  C   UNL A   1      30.319  26.165  25.991  1.00  0.00     0.148 C 
ATOM      7  N   UNL A   1      32.551  25.161  26.076  1.00  0.00    -0.334 N 
ATOM      8  C   UNL A   1      32.028  23.878  26.538  1.00  0.00     0.148 C 
ATOM      9  C   UNL A   1      31.751  26.296  26.537  1.00  0.00     0.152 C 
ATOM     10  C   UNL A   1      30.501  23.762  26.313  1.00  0.00     0.182 C 
ATOM     11  O   UNL A   1      29.751  24.964  26.575  1.00  0.00    -0.374 OA
BRANCH   7  12
ATOM     12  C   UNL A   1      33.852  25.414  25.665  1.00  0.00     0.254 C 
ATOM     13  O   UNL A   1      34.261  26.580  25.653  1.00  0.00    -0.269 OA
BRANCH  12  14
ATOM     14  C   UNL A   1      34.761  24.366  25.065  1.00  0.00     0.044 A 
ATOM     15  C   UNL A   1      33.554  23.839  22.809  1.00  0.00     0.045 C 
ATOM     16  C   UNL A   1      34.683  23.766  23.787  1.00  0.00    -0.038 A 
ATOM     17  C   UNL A   1      35.797  23.043  23.294  1.00  0.00     0.005 A 
ATOM     18  C   UNL A   1      36.969  22.904  24.029  1.00  0.00     0.016 A 
ATOM     19  C   UNL A   1      35.950  24.171  25.810  1.00  0.00     0.029 A 
ATOM     20  C   UNL A   1      37.036  23.462  25.294  1.00  0.00     0.018 A 
ATOM     21  Br  UNL A   1      38.634  23.314  26.292  1.00  0.00    -0.051 Br
ENDBRANCH  12  14
ENDBRANCH   7  12
ENDBRANCH   5   6
ENDBRANCH   3   5
ENDBRANCH   2   3
ENDBRANCH   1   2
BRANCH   1  22
ATOM     22  C   UNL A   1      31.583  29.745  25.724  1.00  0.00     0.275 C 
BRANCH  22  23
ATOM     23  O   UNL A   1      32.974  30.093  25.860  1.00  0.00    -0.458 OA
BRANCH  23  24
ATOM     24  C   UNL A   1      33.238  31.000  26.828  1.00  0.00     0.338 C 
ATOM     25  O   UNL A   1      32.479  31.845  27.274  1.00  0.00    -0.246 OA
BRANCH  24  26
ATOM     26  C   UNL A   1      34.572  30.773  27.403  1.00  0.00     0.060 A 
ATOM     27  C   UNL A   1      34.900  29.466  27.766  1.00  0.00     0.016 A 
ATOM     28  C   UNL A   1      35.429  31.826  27.714  1.00  0.00     0.016 A 
ATOM     29  C   UNL A   1      36.043  29.203  28.509  1.00  0.00     0.010 A 
ATOM     30  C   UNL A   1      36.607  31.558  28.422  1.00  0.00     0.010 A 
ATOM     31  C   UNL A   1      36.906  30.250  28.847  1.00  0.00    -0.014 A 
BRANCH  31  32
ATOM     32  C   UNL A   1      38.112  29.965  29.660  1.00  0.00     0.031 A 
ATOM     33  C   UNL A   1      39.183  29.056  29.131  1.00  0.00     0.074 A 
ATOM     34  C   UNL A   1      38.250  30.544  30.866  1.00  0.00     0.049 A 
ATOM     35  N   UNL A   1      40.268  28.623  29.722  1.00  0.00    -0.248 NA
ATOM     36  C   UNL A   1      39.008  28.562  27.756  1.00  0.00     0.031 C 
ATOM     37  C   UNL A   1      37.295  31.474  31.469  1.00  0.00     0.029 A 
ATOM     38  N   UNL A   1      39.246  30.430  31.804  1.00  0.00    -0.354 N 
ATOM     39  C   UNL A   1      40.892  27.789  28.803  1.00  0.00     0.074 A 
ATOM     40  C   UNL A   1      40.058  27.764  27.620  1.00  0.00     0.031 C 
ATOM     41  C   UNL A   1      37.750  31.847  32.675  1.00  0.00     0.029 A 
ATOM     42  C   UNL A   1      39.003  31.148  32.947  1.00  0.00     0.049 A 
ATOM     43  H   UNL A   1      40.055  29.886  31.668  1.00  0.00     0.167 HD
ATOM     44  C   UNL A   1      42.057  27.112  28.939  1.00  0.00     0.037 A 
ATOM     45  C   UNL A   1      39.700  31.215  34.097  1.00  0.00     0.037 A 
ATOM     46  C   UNL A   1      42.899  27.166  30.106  1.00  0.00     0.049 A 
ATOM     47  C   UNL A   1      40.973  30.427  34.230  1.00  0.00     0.074 A 
ATOM     48  C   UNL A   1      44.116  26.544  30.323  1.00  0.00     0.029 A 
ATOM     49  N   UNL A   1      42.611  27.890  31.254  1.00  0.00    -0.354 N 
ATOM     50  N   UNL A   1      41.556  29.641  33.358  1.00  0.00    -0.248 NA
ATOM     51  C   UNL A   1      41.683  30.531  35.513  1.00  0.00     0.031 C 
ATOM     52  C   UNL A   1      44.546  26.858  31.617  1.00  0.00     0.029 A 
ATOM     53  C   UNL A   1      43.616  27.710  32.192  1.00  0.00     0.049 A 
ATOM     54  H   UNL A   1      41.811  28.450  31.383  1.00  0.00     0.167 HD
ATOM     55  C   UNL A   1      42.704  29.170  33.977  1.00  0.00     0.074 A 
ATOM     56  C   UNL A   1      42.747  29.773  35.294  1.00  0.00     0.031 C 
ATOM     57  C   UNL A   1      43.639  28.312  33.500  1.00  0.00     0.037 A 
BRANCH  44  58
ATOM     58  C   UNL A   1      42.482  26.229  27.805  1.00  0.00     0.064 A 
ATOM     59  C   UNL A   1      42.010  24.914  27.674  1.00  0.00     0.173 A 
ATOM     60  C   UNL A   1      43.337  26.723  26.809  1.00  0.00     0.173 A 
ATOM     61  F   UNL A   1      41.200  24.392  28.606  1.00  0.00    -0.203 F 
ATOM     62  C   UNL A   1      42.395  24.122  26.594  1.00  0.00     0.198 A 
ATOM     63  C   UNL A   1      43.701  25.936  25.720  1.00  0.00     0.198 A 
ATOM     64  F   UNL A   1      43.811  27.976  26.886  1.00  0.00    -0.203 F 
ATOM     65  F   UNL A   1      41.960  22.857  26.506  1.00  0.00    -0.200 F 
ATOM     66  C   UNL A   1      43.234  24.635  25.616  1.00  0.00     0.200 A 
ATOM     67  F   UNL A   1      44.502  26.437  24.770  1.00  0.00    -0.200 F 
ATOM     68  F   UNL A   1      43.595  23.874  24.574  1.00  0.00    -0.200 F 
ENDBRANCH  44  58
BRANCH  45  69
ATOM     69  C   UNL A   1      39.190  32.042  35.218  1.00  0.00     0.064 A 
ATOM     70  C   UNL A   1      39.449  33.417  35.279  1.00  0.00     0.173 A 
ATOM     71  C   UNL A   1      38.431  31.471  36.251  1.00  0.00     0.173 A 
ATOM     72  F   UNL A   1      40.193  34.000  34.329  1.00  0.00    -0.203 F 
ATOM     73  C   UNL A   1      38.979  34.189  36.339  1.00  0.00     0.198 A 
ATOM     74  C   UNL A   1      37.939  32.249  37.295  1.00  0.00     0.198 A 
ATOM     75  F   UNL A   1      38.158  30.157  36.238  1.00  0.00    -0.203 F 
ATOM     76  F   UNL A   1      39.275  35.494  36.397  1.00  0.00    -0.200 F 
ATOM     77  C   UNL A   1      38.218  33.605  37.342  1.00  0.00     0.200 A 
ATOM     78  F   UNL A   1      37.197  31.683  38.257  1.00  0.00    -0.200 F 
ATOM     79  F   UNL A   1      37.763  34.350  38.359  1.00  0.00    -0.200 F 
ENDBRANCH  45  69
BRANCH  57  80
ATOM     80  C   UNL A   1      44.790  27.986  34.404  1.00  0.00     0.064 A 
ATOM     81  C   UNL A   1      44.762  26.867  35.248  1.00  0.00     0.173 A 
ATOM     82  C   UNL A   1      45.942  28.787  34.407  1.00  0.00     0.173 A 
ATOM     83  F   UNL A   1      43.675  26.082  35.292  1.00  0.00    -0.203 F 
ATOM     84  C   UNL A   1      45.837  26.574  36.081  1.00  0.00     0.198 A 
ATOM     85  C   UNL A   1      47.025  28.477  35.224  1.00  0.00     0.198 A 
ATOM     86  F   UNL A   1      46.018  29.866  33.614  1.00  0.00    -0.203 F 
ATOM     87  F   UNL A   1      45.771  25.526  36.913  1.00  0.00    -0.200 F 
ATOM     88  C   UNL A   1      46.969  27.376  36.065  1.00  0.00     0.200 A 
ATOM     89  F   UNL A   1      48.122  29.247  35.200  1.00  0.00    -0.200 F 
ATOM     90  F   UNL A   1      48.004  27.092  36.867  1.00  0.00    -0.200 F 
ENDBRANCH  57  80
ENDBRANCH  31  32
ENDBRANCH  24  26
ENDBRANCH  23  24
ENDBRANCH  22  23
ENDBRANCH   1  22
TORSDOF 14
ENDMDL
MODEL 2
REMARK VINA RESULT:     -11.8      4.273      9.446
REMARK SMILES Cc1ccc(Br)cc1C(=O)N1CCO[C@H](CC(=O)OCCOC(=O)c2ccc(-c3c4nc(c(-c5c(F)c(F)c(F)c(F)c5F)c5ccc([nH]5)c(-c5c(F)c(F)c(F)c(F)c5F)c5nc(c(-c6c(F)c(F)c(F)c(F)c6F)c6ccc3[nH]6)C=C5)C=C4)cc2)C1
REMARK SMILES IDX 20 1 19 2 17 3 18 4 16 5 15 6 11 7 12 8 88 9 13 10 14 11
REMARK SMILES IDX 9 12 10 13 8 14 1 15 2 16 3 17 4 18 7 19 5 20 6 21 21 22
REMARK SMILES IDX 22 23 23 24 24 25 25 26 26 27 87 28 27 29 86 30 28 31 29 32
REMARK SMILES IDX 30 33 80 34 31 35 85 36 79 37 81 38 32 39 84 40 78 41 77 42
REMARK SMILES IDX 33 44 65 45 45 46 64 47 46 48 49 49 63 50 82 51 47 52 48 53
REMARK SMILES IDX 62 55 83 56 50 57 34 58 35 59 43 60 36 61 37 62 41 63 44 64
REMARK SMILES IDX 38 65 39 66 42 67 40 68 66 69 67 70 75 71 68 72 69 73 73 74
REMARK SMILES IDX 76 75 70 76 71 77 74 78 72 79 51 80 52 81 60 82 53 83 54 84
REMARK SMILES IDX 58 85 61 86 55 87 56 88 59 89 57 90
REMARK H PARENT 81 43 49 54
REMARK Flexibility Score: inf
ROOT
ATOM      1  C   UNL A   1      35.466  20.875  25.546  1.00  0.00     0.274 C 
ENDROOT
BRANCH   1   2
ATOM      2  O   UNL A   1      34.401  20.625  24.607  1.00  0.00    -0.462 OA
BRANCH   2   3
ATOM      3  C   UNL A   1      33.339  21.462  24.704  1.00  0.00     0.308 C 
ATOM      4  O   UNL A   1      32.612  21.562  25.688  1.00  0.00    -0.252 OA
BRANCH   3   5
ATOM      5  C   UNL A   1      33.039  22.167  23.414  1.00  0.00     0.156 C 
BRANCH   5   6
ATOM      6  C   UNL A   1      34.169  22.995  22.783  1.00  0.00     0.148 C 
ATOM      7  N   UNL A   1      33.676  24.961  24.157  1.00  0.00    -0.334 N 
ATOM      8  C   UNL A   1      33.076  25.677  23.034  1.00  0.00     0.148 C 
ATOM      9  C   UNL A   1      34.745  24.052  23.741  1.00  0.00     0.152 C 
ATOM     10  C   UNL A   1      32.734  24.728  21.861  1.00  0.00     0.182 C 
ATOM     11  O   UNL A   1      33.711  23.700  21.600  1.00  0.00    -0.374 OA
BRANCH   7  12
ATOM     12  C   UNL A   1      33.646  25.353  25.487  1.00  0.00     0.254 C 
ATOM     13  O   UNL A   1      33.979  24.544  26.360  1.00  0.00    -0.269 OA
BRANCH  12  14
ATOM     14  C   UNL A   1      33.066  26.666  25.962  1.00  0.00     0.044 A 
ATOM     15  C   UNL A   1      30.512  26.121  26.050  1.00  0.00     0.045 C 
ATOM     16  C   UNL A   1      31.725  26.959  26.302  1.00  0.00    -0.038 A 
ATOM     17  C   UNL A   1      31.438  28.148  27.017  1.00  0.00     0.005 A 
ATOM     18  C   UNL A   1      32.436  29.039  27.397  1.00  0.00     0.016 A 
ATOM     19  C   UNL A   1      34.056  27.613  26.323  1.00  0.00     0.029 A 
ATOM     20  C   UNL A   1      33.745  28.771  27.036  1.00  0.00     0.018 A 
ATOM     21  Br  UNL A   1      35.119  29.952  27.576  1.00  0.00    -0.051 Br
ENDBRANCH  12  14
ENDBRANCH   7  12
ENDBRANCH   5   6
ENDBRANCH   3   5
ENDBRANCH   2   3
ENDBRANCH   1   2
BRANCH   1  22
ATOM     22  C   UNL A   1      36.857  20.745  24.919  1.00  0.00     0.275 C 
BRANCH  22  23
ATOM     23  O   UNL A   1      37.727  21.844  25.256  1.00  0.00    -0.458 OA
BRANCH  23  24
ATOM     24  C   UNL A   1      38.809  21.503  25.992  1.00  0.00     0.338 C 
ATOM     25  O   UNL A   1      39.306  20.394  26.104  1.00  0.00    -0.246 OA
BRANCH  24  26
ATOM     26  C   UNL A   1      39.431  22.696  26.584  1.00  0.00     0.060 A 
ATOM     27  C   UNL A   1      38.990  23.940  26.134  1.00  0.00     0.016 A 
ATOM     28  C   UNL A   1      40.516  22.606  27.453  1.00  0.00     0.016 A 
ATOM     29  C   UNL A   1      39.670  25.101  26.478  1.00  0.00     0.010 A 
ATOM     30  C   UNL A   1      41.175  23.779  27.842  1.00  0.00     0.010 A 
ATOM     31  C   UNL A   1      40.773  25.029  27.334  1.00  0.00    -0.014 A 
BRANCH  31  32
ATOM     32  C   UNL A   1      41.508  26.269  27.679  1.00  0.00     0.031 A 
ATOM     33  C   UNL A   1      40.837  27.348  28.477  1.00  0.00     0.074 A 
ATOM     34  C   UNL A   1      42.788  26.410  27.290  1.00  0.00     0.049 A 
ATOM     35  N   UNL A   1      41.285  28.534  28.807  1.00  0.00    -0.248 NA
ATOM     36  C   UNL A   1      39.478  27.061  28.963  1.00  0.00     0.031 C 
ATOM     37  C   UNL A   1      43.557  25.414  26.545  1.00  0.00     0.029 A 
ATOM     38  N   UNL A   1      43.665  27.451  27.464  1.00  0.00    -0.354 N 
ATOM     39  C   UNL A   1      40.258  29.141  29.518  1.00  0.00     0.074 A 
ATOM     40  C   UNL A   1      39.158  28.201  29.559  1.00  0.00     0.031 C 
ATOM     41  C   UNL A   1      44.792  25.891  26.324  1.00  0.00     0.029 A 
ATOM     42  C   UNL A   1      44.885  27.241  26.873  1.00  0.00     0.049 A 
ATOM     43  H   UNL A   1      43.441  28.268  27.965  1.00  0.00     0.167 HD
ATOM     44  C   UNL A   1      40.242  30.371  30.086  1.00  0.00     0.037 A 
ATOM     45  C   UNL A   1      45.950  28.057  26.763  1.00  0.00     0.037 A 
ATOM     46  C   UNL A   1      41.350  31.289  30.071  1.00  0.00     0.049 A 
ATOM     47  C   UNL A   1      45.892  29.428  27.375  1.00  0.00     0.074 A 
ATOM     48  C   UNL A   1      41.442  32.543  30.650  1.00  0.00     0.029 A 
ATOM     49  N   UNL A   1      42.565  31.049  29.445  1.00  0.00    -0.354 N 
ATOM     50  N   UNL A   1      44.918  29.995  28.045  1.00  0.00    -0.248 NA
ATOM     51  C   UNL A   1      47.081  30.275  27.212  1.00  0.00     0.031 C 
ATOM     52  C   UNL A   1      42.697  33.079  30.340  1.00  0.00     0.029 A 
ATOM     53  C   UNL A   1      43.403  32.142  29.603  1.00  0.00     0.049 A 
ATOM     54  H   UNL A   1      42.798  30.224  28.960  1.00  0.00     0.167 HD
ATOM     55  C   UNL A   1      45.378  31.255  28.394  1.00  0.00     0.074 A 
ATOM     56  C   UNL A   1      46.728  31.364  27.879  1.00  0.00     0.031 C 
ATOM     57  C   UNL A   1      44.741  32.236  29.078  1.00  0.00     0.037 A 
BRANCH  44  58
ATOM     58  C   UNL A   1      38.973  30.810  30.753  1.00  0.00     0.064 A 
ATOM     59  C   UNL A   1      37.919  31.389  30.031  1.00  0.00     0.173 A 
ATOM     60  C   UNL A   1      38.793  30.604  32.129  1.00  0.00     0.173 A 
ATOM     61  F   UNL A   1      38.048  31.617  28.716  1.00  0.00    -0.203 F 
ATOM     62  C   UNL A   1      36.737  31.761  30.667  1.00  0.00     0.198 A 
ATOM     63  C   UNL A   1      37.601  30.956  32.757  1.00  0.00     0.198 A 
ATOM     64  F   UNL A   1      39.769  30.048  32.863  1.00  0.00    -0.203 F 
ATOM     65  F   UNL A   1      35.755  32.344  29.965  1.00  0.00    -0.200 F 
ATOM     66  C   UNL A   1      36.577  31.539  32.027  1.00  0.00     0.200 A 
ATOM     67  F   UNL A   1      37.444  30.730  34.068  1.00  0.00    -0.200 F 
ATOM     68  F   UNL A   1      35.435  31.889  32.635  1.00  0.00    -0.200 F 
ENDBRANCH  44  58
BRANCH  45  69
ATOM     69  C   UNL A   1      47.151  27.600  26.020  1.00  0.00     0.064 A 
ATOM     70  C   UNL A   1      47.227  27.716  24.626  1.00  0.00     0.173 A 
ATOM     71  C   UNL A   1      48.247  27.040  26.692  1.00  0.00     0.173 A 
ATOM     72  F   UNL A   1      46.192  28.220  23.939  1.00  0.00    -0.203 F 
ATOM     73  C   UNL A   1      48.351  27.277  23.930  1.00  0.00     0.198 A 
ATOM     74  C   UNL A   1      49.381  26.626  25.998  1.00  0.00     0.198 A 
ATOM     75  F   UNL A   1      48.222  26.906  28.027  1.00  0.00    -0.203 F 
ATOM     76  F   UNL A   1      48.383  27.360  22.594  1.00  0.00    -0.200 F 
ATOM     77  C   UNL A   1      49.429  26.739  24.617  1.00  0.00     0.200 A 
ATOM     78  F   UNL A   1      50.424  26.116  26.666  1.00  0.00    -0.200 F 
ATOM     79  F   UNL A   1      50.511  26.320  23.947  1.00  0.00    -0.200 F 
ENDBRANCH  45  69
BRANCH  57  80
ATOM     80  C   UNL A   1      45.501  33.506  29.316  1.00  0.00     0.064 A 
ATOM     81  C   UNL A   1      46.320  33.667  30.442  1.00  0.00     0.173 A 
ATOM     82  C   UNL A   1      45.430  34.562  28.395  1.00  0.00     0.173 A 
ATOM     83  F   UNL A   1      46.407  32.692  31.359  1.00  0.00    -0.203 F 
ATOM     84  C   UNL A   1      47.023  34.851  30.651  1.00  0.00     0.198 A 
ATOM     85  C   UNL A   1      46.152  35.736  28.595  1.00  0.00     0.198 A 
ATOM     86  F   UNL A   1      44.663  34.455  27.299  1.00  0.00    -0.203 F 
ATOM     87  F   UNL A   1      47.764  35.001  31.757  1.00  0.00    -0.200 F 
ATOM     88  C   UNL A   1      46.942  35.881  29.725  1.00  0.00     0.200 A 
ATOM     89  F   UNL A   1      46.081  36.726  27.696  1.00  0.00    -0.200 F 
ATOM     90  F   UNL A   1      47.620  37.019  29.928  1.00  0.00    -0.200 F 
ENDBRANCH  57  80
ENDBRANCH  31  32
ENDBRANCH  24  26
ENDBRANCH  23  24
ENDBRANCH  22  23
ENDBRANCH   1  22
TORSDOF 14
ENDMDL
MODEL 3
REMARK VINA RESULT:     -11.7      1.162      2.291
REMARK SMILES Cc1ccc(Br)cc1C(=O)N1CCO[C@H](CC(=O)OCCOC(=O)c2ccc(-c3c4nc(c(-c5c(F)c(F)c(F)c(F)c5F)c5ccc([nH]5)c(-c5c(F)c(F)c(F)c(F)c5F)c5nc(c(-c6c(F)c(F)c(F)c(F)c6F)c6ccc3[nH]6)C=C5)C=C4)cc2)C1
REMARK SMILES IDX 20 1 19 2 17 3 18 4 16 5 15 6 11 7 12 8 88 9 13 10 14 11
REMARK SMILES IDX 9 12 10 13 8 14 1 15 2 16 3 17 4 18 7 19 5 20 6 21 21 22
REMARK SMILES IDX 22 23 23 24 24 25 25 26 26 27 87 28 27 29 86 30 28 31 29 32
REMARK SMILES IDX 30 33 80 34 31 35 85 36 79 37 81 38 32 39 84 40 78 41 77 42
REMARK SMILES IDX 33 44 65 45 45 46 64 47 46 48 49 49 63 50 82 51 47 52 48 53
REMARK SMILES IDX 62 55 83 56 50 57 34 58 35 59 43 60 36 61 37 62 41 63 44 64
REMARK SMILES IDX 38 65 39 66 42 67 40 68 66 69 67 70 75 71 68 72 69 73 73 74
REMARK SMILES IDX 76 75 70 76 71 77 74 78 72 79 51 80 52 81 60 82 53 83 54 84
REMARK SMILES IDX 58 85 61 86 55 87 56 88 59 89 57 90
REMARK H PARENT 81 43 49 54
REMARK Flexibility Score: inf
ROOT
ATOM      1  C   UNL A   1      31.442  29.482  25.146  1.00  0.00     0.274 C 
ENDROOT
BRANCH   1   2
ATOM      2  O   UNL A   1      32.312  28.423  25.593  1.00  0.00    -0.462 OA
BRANCH   2   3
ATOM      3  C   UNL A   1      31.682  27.317  26.058  1.00  0.00     0.308 C 
ATOM      4  O   UNL A   1      31.084  27.248  27.128  1.00  0.00    -0.252 OA
BRANCH   3   5
ATOM      5  C   UNL A   1      31.911  26.113  25.193  1.00  0.00     0.156 C 
BRANCH   5   6
ATOM      6  C   UNL A   1      30.733  25.627  24.335  1.00  0.00     0.148 C 
ATOM      7  N   UNL A   1      32.199  24.737  22.587  1.00  0.00    -0.334 N 
ATOM      8  C   UNL A   1      31.883  25.833  21.673  1.00  0.00     0.148 C 
ATOM      9  C   UNL A   1      31.083  24.402  23.473  1.00  0.00     0.152 C 
ATOM     10  C   UNL A   1      31.224  27.024  22.407  1.00  0.00     0.182 C 
ATOM     11  O   UNL A   1      30.274  26.664  23.430  1.00  0.00    -0.374 OA
BRANCH   7  12
ATOM     12  C   UNL A   1      33.188  23.782  22.408  1.00  0.00     0.254 C 
ATOM     13  O   UNL A   1      33.527  23.475  21.259  1.00  0.00    -0.269 OA
BRANCH  12  14
ATOM     14  C   UNL A   1      33.772  22.958  23.532  1.00  0.00     0.044 A 
ATOM     15  C   UNL A   1      32.304  20.799  23.431  1.00  0.00     0.045 C 
ATOM     16  C   UNL A   1      33.455  21.631  23.902  1.00  0.00    -0.038 A 
ATOM     17  C   UNL A   1      34.323  20.931  24.776  1.00  0.00     0.005 A 
ATOM     18  C   UNL A   1      35.480  21.509  25.284  1.00  0.00     0.016 A 
ATOM     19  C   UNL A   1      34.934  23.537  24.100  1.00  0.00     0.029 A 
ATOM     20  C   UNL A   1      35.776  22.820  24.951  1.00  0.00     0.018 A 
ATOM     21  Br  UNL A   1      37.364  23.610  25.604  1.00  0.00    -0.051 Br
ENDBRANCH  12  14
ENDBRANCH   7  12
ENDBRANCH   5   6
ENDBRANCH   3   5
ENDBRANCH   2   3
ENDBRANCH   1   2
BRANCH   1  22
ATOM     22  C   UNL A   1      31.579  30.759  25.980  1.00  0.00     0.275 C 
BRANCH  22  23
ATOM     23  O   UNL A   1      32.533  30.627  27.052  1.00  0.00    -0.458 OA
BRANCH  23  24
ATOM     24  C   UNL A   1      33.255  31.743  27.307  1.00  0.00     0.338 C 
ATOM     25  O   UNL A   1      32.874  32.900  27.234  1.00  0.00    -0.246 OA
BRANCH  24  26
ATOM     26  C   UNL A   1      34.585  31.393  27.825  1.00  0.00     0.060 A 
ATOM     27  C   UNL A   1      34.801  30.066  28.195  1.00  0.00     0.016 A 
ATOM     28  C   UNL A   1      35.554  32.362  28.079  1.00  0.00     0.016 A 
ATOM     29  C   UNL A   1      35.947  29.702  28.891  1.00  0.00     0.010 A 
ATOM     30  C   UNL A   1      36.732  31.989  28.738  1.00  0.00     0.010 A 
ATOM     31  C   UNL A   1      36.922  30.664  29.172  1.00  0.00    -0.014 A 
BRANCH  31  32
ATOM     32  C   UNL A   1      38.132  30.273  29.934  1.00  0.00     0.031 A 
ATOM     33  C   UNL A   1      39.126  29.320  29.338  1.00  0.00     0.074 A 
ATOM     34  C   UNL A   1      38.341  30.795  31.156  1.00  0.00     0.049 A 
ATOM     35  N   UNL A   1      40.198  28.798  29.877  1.00  0.00    -0.248 NA
ATOM     36  C   UNL A   1      38.880  28.893  27.952  1.00  0.00     0.031 C 
ATOM     37  C   UNL A   1      37.466  31.758  31.823  1.00  0.00     0.029 A 
ATOM     38  N   UNL A   1      39.355  30.582  32.056  1.00  0.00    -0.354 N 
ATOM     39  C   UNL A   1      40.741  27.964  28.909  1.00  0.00     0.074 A 
ATOM     40  C   UNL A   1      39.873  28.037  27.752  1.00  0.00     0.031 C 
ATOM     41  C   UNL A   1      37.979  32.054  33.027  1.00  0.00     0.029 A 
ATOM     42  C   UNL A   1      39.193  31.269  33.232  1.00  0.00     0.049 A 
ATOM     43  H   UNL A   1      40.124  29.995  31.875  1.00  0.00     0.167 HD
ATOM     44  C   UNL A   1      41.865  27.210  28.982  1.00  0.00     0.037 A 
ATOM     45  C   UNL A   1      39.926  31.247  34.361  1.00  0.00     0.037 A 
ATOM     46  C   UNL A   1      42.743  27.166  30.122  1.00  0.00     0.049 A 
ATOM     47  C   UNL A   1      41.150  30.377  34.425  1.00  0.00     0.074 A 
ATOM     48  C   UNL A   1      43.924  26.462  30.276  1.00  0.00     0.029 A 
ATOM     49  N   UNL A   1      42.535  27.862  31.304  1.00  0.00    -0.354 N 
ATOM     50  N   UNL A   1      41.656  29.591  33.506  1.00  0.00    -0.248 NA
ATOM     51  C   UNL A   1      41.903  30.387  35.686  1.00  0.00     0.031 C 
ATOM     52  C   UNL A   1      44.410  26.698  31.567  1.00  0.00     0.029 A 
ATOM     53  C   UNL A   1      43.554  27.582  32.202  1.00  0.00     0.049 A 
ATOM     54  H   UNL A   1      41.777  28.464  31.480  1.00  0.00     0.167 HD
ATOM     55  C   UNL A   1      42.790  29.025  34.069  1.00  0.00     0.074 A 
ATOM     56  C   UNL A   1      42.910  29.573  35.405  1.00  0.00     0.031 C 
ATOM     57  C   UNL A   1      43.654  28.131  33.530  1.00  0.00     0.037 A 
BRANCH  44  58
ATOM     58  C   UNL A   1      42.199  26.348  27.803  1.00  0.00     0.064 A 
ATOM     59  C   UNL A   1      43.158  26.731  26.853  1.00  0.00     0.173 A 
ATOM     60  C   UNL A   1      41.585  25.096  27.648  1.00  0.00     0.173 A 
ATOM     61  F   UNL A   1      43.764  27.923  26.950  1.00  0.00    -0.203 F 
ATOM     62  C   UNL A   1      43.475  25.899  25.782  1.00  0.00     0.198 A 
ATOM     63  C   UNL A   1      41.921  24.257  26.589  1.00  0.00     0.198 A 
ATOM     64  F   UNL A   1      40.666  24.680  28.533  1.00  0.00    -0.203 F 
ATOM     65  F   UNL A   1      44.368  26.299  24.866  1.00  0.00    -0.200 F 
ATOM     66  C   UNL A   1      42.861  24.661  25.654  1.00  0.00     0.200 A 
ATOM     67  F   UNL A   1      41.336  23.057  26.474  1.00  0.00    -0.200 F 
ATOM     68  F   UNL A   1      43.175  23.858  24.628  1.00  0.00    -0.200 F 
ENDBRANCH  44  58
BRANCH  45  69
ATOM     69  C   UNL A   1      39.503  32.059  35.528  1.00  0.00     0.064 A 
ATOM     70  C   UNL A   1      38.612  31.548  36.481  1.00  0.00     0.173 A 
ATOM     71  C   UNL A   1      39.984  33.364  35.714  1.00  0.00     0.173 A 
ATOM     72  F   UNL A   1      38.105  30.316  36.330  1.00  0.00    -0.203 F 
ATOM     73  C   UNL A   1      38.208  32.317  37.569  1.00  0.00     0.198 A 
ATOM     74  C   UNL A   1      39.599  34.122  36.817  1.00  0.00     0.198 A 
ATOM     75  F   UNL A   1      40.838  33.898  34.828  1.00  0.00    -0.203 F 
ATOM     76  F   UNL A   1      37.323  31.822  38.444  1.00  0.00    -0.200 F 
ATOM     77  C   UNL A   1      38.707  33.600  37.740  1.00  0.00     0.200 A 
ATOM     78  F   UNL A   1      40.092  35.356  36.983  1.00  0.00    -0.200 F 
ATOM     79  F   UNL A   1      38.321  34.337  38.790  1.00  0.00    -0.200 F 
ENDBRANCH  45  69
BRANCH  57  80
ATOM     80  C   UNL A   1      44.808  27.699  34.384  1.00  0.00     0.064 A 
ATOM     81  C   UNL A   1      44.728  26.560  35.199  1.00  0.00     0.173 A 
ATOM     82  C   UNL A   1      46.014  28.416  34.368  1.00  0.00     0.173 A 
ATOM     83  F   UNL A   1      43.590  25.853  35.261  1.00  0.00    -0.203 F 
ATOM     84  C   UNL A   1      45.807  26.169  35.986  1.00  0.00     0.198 A 
ATOM     85  C   UNL A   1      47.099  28.007  35.138  1.00  0.00     0.198 A 
ATOM     86  F   UNL A   1      46.141  29.509  33.601  1.00  0.00    -0.203 F 
ATOM     87  F   UNL A   1      45.695  25.104  36.792  1.00  0.00    -0.200 F 
ATOM     88  C   UNL A   1      46.993  26.889  35.951  1.00  0.00     0.200 A 
ATOM     89  F   UNL A   1      48.246  28.698  35.095  1.00  0.00    -0.200 F 
ATOM     90  F   UNL A   1      48.031  26.510  36.708  1.00  0.00    -0.200 F 
ENDBRANCH  57  80
ENDBRANCH  31  32
ENDBRANCH  24  26
ENDBRANCH  23  24
ENDBRANCH  22  23
ENDBRANCH   1  22
TORSDOF 14
ENDMDL
