MODEL 1
REMARK VINA RESULT:     -12.1      0.000      0.000
REMARK SMILES CC1(C)CCC[C@@H]1NC(=O)CC1(C(=O)OCCOC(=O)c2ccc(-c3c4nc(c(-c5c(F)c(F)c(F)c(F)c5F)c5ccc([nH]5)c(-c5c(F)c(F)c(F)c(F)c5F)c5nc(c(-c6c(F)c(F)c(F)c(F)c6F)c6ccc3[nH]6)C=C5)C=C4)cc2)CCCCC1
REMARK SMILES IDX 16 1 15 2 13 3 14 4 12 5 84 6 88 7 85 8 87 9 86 10 11 11
REMARK SMILES IDX 9 12 8 13 10 15 7 16 1 17 2 18 3 19 4 20 5 21 6 22 17 23
REMARK SMILES IDX 18 24 19 25 20 26 21 27 22 28 83 29 23 30 82 31 24 32 25 33
REMARK SMILES IDX 26 34 76 35 27 36 81 37 75 38 77 39 28 40 80 41 74 42 73 43
REMARK SMILES IDX 29 45 61 46 41 47 60 48 42 49 45 50 59 51 78 52 43 53 44 54
REMARK SMILES IDX 58 56 79 57 46 58 30 59 31 60 39 61 32 62 33 63 37 64 40 65
REMARK SMILES IDX 34 66 35 67 38 68 36 69 62 70 63 71 71 72 64 73 65 74 69 75
REMARK SMILES IDX 72 76 66 77 67 78 70 79 68 80 47 81 48 82 56 83 49 84 50 85
REMARK SMILES IDX 54 86 57 87 51 88 52 89 55 90 53 91
REMARK H PARENT 8 14 77 44 45 55
REMARK Flexibility Score: inf
ROOT
ATOM      1  C   UNL A   1      31.836  29.045  27.146  1.00  0.00     0.274 C 
ENDROOT
BRANCH   1   2
ATOM      2  O   UNL A   1      32.481  28.221  26.154  1.00  0.00    -0.462 OA
BRANCH   2   3
ATOM      3  C   UNL A   1      31.741  27.177  25.704  1.00  0.00     0.312 C 
ATOM      4  O   UNL A   1      31.018  26.490  26.420  1.00  0.00    -0.252 OA
BRANCH   3   5
ATOM      5  C   UNL A   1      31.841  26.952  24.187  1.00  0.00     0.077 C 
ATOM      6  C   UNL A   1      31.598  28.334  23.528  1.00  0.00     0.019 C 
ATOM      7  C   UNL A   1      30.807  25.973  23.595  1.00  0.00     0.019 C 
ATOM      8  C   UNL A   1      30.150  28.812  23.730  1.00  0.00     0.001 C 
ATOM      9  C   UNL A   1      29.354  26.418  23.714  1.00  0.00     0.001 C 
ATOM     10  C   UNL A   1      29.140  27.819  23.167  1.00  0.00     0.000 C 
BRANCH   5  11
ATOM     11  C   UNL A   1      33.303  26.459  23.998  1.00  0.00     0.118 C 
BRANCH  11  12
ATOM     12  C   UNL A   1      33.613  25.632  22.772  1.00  0.00     0.221 C 
ATOM     13  N   UNL A   1      33.884  24.299  22.882  1.00  0.00    -0.353 N 
ATOM     14  H   UNL A   1      34.137  23.868  22.034  1.00  0.00     0.163 HD
ATOM     15  O   UNL A   1      33.638  26.152  21.655  1.00  0.00    -0.275 OA
BRANCH  13  16
ATOM     16  C   UNL A   1      33.867  23.395  24.033  1.00  0.00     0.087 C 
ATOM     17  C   UNL A   1      35.794  24.110  25.540  1.00  0.00     0.013 C 
ATOM     18  C   UNL A   1      35.265  23.031  24.599  1.00  0.00    -0.015 C 
ATOM     19  C   UNL A   1      36.318  22.745  23.515  1.00  0.00     0.013 C 
ATOM     20  C   UNL A   1      34.956  21.750  25.396  1.00  0.00     0.008 C 
ATOM     21  C   UNL A   1      33.975  20.980  24.530  1.00  0.00     0.003 C 
ATOM     22  C   UNL A   1      33.241  22.032  23.707  1.00  0.00     0.025 C 
ENDBRANCH  13  16
ENDBRANCH  11  12
ENDBRANCH   5  11
ENDBRANCH   3   5
ENDBRANCH   2   3
ENDBRANCH   1   2
BRANCH   1  23
ATOM     23  C   UNL A   1      31.759  30.497  26.688  1.00  0.00     0.275 C 
BRANCH  23  24
ATOM     24  O   UNL A   1      33.075  30.991  26.384  1.00  0.00    -0.458 OA
BRANCH  24  25
ATOM     25  C   UNL A   1      33.573  31.895  27.257  1.00  0.00     0.338 C 
ATOM     26  O   UNL A   1      33.054  32.949  27.587  1.00  0.00    -0.246 OA
BRANCH  25  27
ATOM     27  C   UNL A   1      34.859  31.433  27.830  1.00  0.00     0.060 A 
ATOM     28  C   UNL A   1      35.044  30.115  28.248  1.00  0.00     0.016 A 
ATOM     29  C   UNL A   1      35.863  32.374  28.068  1.00  0.00     0.016 A 
ATOM     30  C   UNL A   1      36.165  29.771  29.007  1.00  0.00     0.010 A 
ATOM     31  C   UNL A   1      37.042  31.997  28.721  1.00  0.00     0.010 A 
ATOM     32  C   UNL A   1      37.194  30.700  29.238  1.00  0.00    -0.014 A 
BRANCH  32  33
ATOM     33  C   UNL A   1      38.425  30.321  29.995  1.00  0.00     0.031 A 
ATOM     34  C   UNL A   1      39.457  29.393  29.400  1.00  0.00     0.074 A 
ATOM     35  C   UNL A   1      38.620  30.791  31.243  1.00  0.00     0.049 A 
ATOM     36  N   UNL A   1      40.506  28.836  29.955  1.00  0.00    -0.248 NA
ATOM     37  C   UNL A   1      39.281  29.036  27.987  1.00  0.00     0.031 C 
ATOM     38  C   UNL A   1      37.725  31.704  31.955  1.00  0.00     0.029 A 
ATOM     39  N   UNL A   1      39.636  30.561  32.138  1.00  0.00    -0.354 N 
ATOM     40  C   UNL A   1      41.086  28.042  28.970  1.00  0.00     0.074 A 
ATOM     41  C   UNL A   1      40.276  28.186  27.781  1.00  0.00     0.031 C 
ATOM     42  C   UNL A   1      38.244  31.983  33.159  1.00  0.00     0.029 A 
ATOM     43  C   UNL A   1      39.461  31.200  33.341  1.00  0.00     0.049 A 
ATOM     44  H   UNL A   1      40.414  29.992  31.938  1.00  0.00     0.167 HD
ATOM     45  C   UNL A   1      42.186  27.256  29.050  1.00  0.00     0.037 A 
ATOM     46  C   UNL A   1      40.168  31.133  34.485  1.00  0.00     0.037 A 
ATOM     47  C   UNL A   1      43.010  27.123  30.223  1.00  0.00     0.049 A 
ATOM     48  C   UNL A   1      41.362  30.230  34.564  1.00  0.00     0.074 A 
ATOM     49  C   UNL A   1      44.154  26.363  30.395  1.00  0.00     0.029 A 
ATOM     50  N   UNL A   1      42.775  27.772  31.425  1.00  0.00    -0.354 N 
ATOM     51  N   UNL A   1      41.878  29.458  33.639  1.00  0.00    -0.248 NA
ATOM     52  C   UNL A   1      42.061  30.172  35.855  1.00  0.00     0.031 C 
ATOM     53  C   UNL A   1      44.590  26.521  31.716  1.00  0.00     0.029 A 
ATOM     54  C   UNL A   1      43.741  27.412  32.351  1.00  0.00     0.049 A 
ATOM     55  H   UNL A   1      42.033  28.396  31.595  1.00  0.00     0.167 HD
ATOM     56  C   UNL A   1      42.957  28.821  34.233  1.00  0.00     0.074 A 
ATOM     57  C   UNL A   1      43.041  29.318  35.592  1.00  0.00     0.031 C 
ATOM     58  C   UNL A   1      43.799  27.902  33.703  1.00  0.00     0.037 A 
BRANCH  45  59
ATOM     59  C   UNL A   1      42.551  26.440  27.842  1.00  0.00     0.064 A 
ATOM     60  C   UNL A   1      43.503  26.879  26.912  1.00  0.00     0.173 A 
ATOM     61  C   UNL A   1      41.966  25.180  27.642  1.00  0.00     0.173 A 
ATOM     62  F   UNL A   1      44.078  28.082  27.050  1.00  0.00    -0.203 F 
ATOM     63  C   UNL A   1      43.847  26.090  25.816  1.00  0.00     0.198 A 
ATOM     64  C   UNL A   1      42.329  24.385  26.558  1.00  0.00     0.198 A 
ATOM     65  F   UNL A   1      41.050  24.715  28.505  1.00  0.00    -0.203 F 
ATOM     66  F   UNL A   1      44.736  26.542  24.919  1.00  0.00    -0.200 F 
ATOM     67  C   UNL A   1      43.266  24.843  25.643  1.00  0.00     0.200 A 
ATOM     68  F   UNL A   1      41.771  23.177  26.397  1.00  0.00    -0.200 F 
ATOM     69  F   UNL A   1      43.603  24.082  24.592  1.00  0.00    -0.200 F 
ENDBRANCH  45  59
BRANCH  46  70
ATOM     70  C   UNL A   1      39.718  31.918  35.662  1.00  0.00     0.064 A 
ATOM     71  C   UNL A   1      40.270  33.172  35.945  1.00  0.00     0.173 A 
ATOM     72  C   UNL A   1      38.700  31.443  36.503  1.00  0.00     0.173 A 
ATOM     73  F   UNL A   1      41.263  33.655  35.184  1.00  0.00    -0.203 F 
ATOM     74  C   UNL A   1      39.818  33.927  37.026  1.00  0.00     0.198 A 
ATOM     75  C   UNL A   1      38.229  32.210  37.565  1.00  0.00     0.198 A 
ATOM     76  F   UNL A   1      38.141  30.246  36.272  1.00  0.00    -0.203 F 
ATOM     77  F   UNL A   1      40.380  35.113  37.294  1.00  0.00    -0.200 F 
ATOM     78  C   UNL A   1      38.791  33.450  37.828  1.00  0.00     0.200 A 
ATOM     79  F   UNL A   1      37.226  31.752  38.326  1.00  0.00    -0.200 F 
ATOM     80  F   UNL A   1      38.344  34.184  38.855  1.00  0.00    -0.200 F 
ENDBRANCH  46  70
BRANCH  58  81
ATOM     81  C   UNL A   1      44.881  27.377  34.598  1.00  0.00     0.064 A 
ATOM     82  C   UNL A   1      46.118  28.029  34.703  1.00  0.00     0.173 A 
ATOM     83  C   UNL A   1      44.674  26.222  35.365  1.00  0.00     0.173 A 
ATOM     84  F   UNL A   1      46.365  29.129  33.976  1.00  0.00    -0.203 F 
ATOM     85  C   UNL A   1      47.121  27.527  35.527  1.00  0.00     0.198 A 
ATOM     86  C   UNL A   1      45.671  25.735  36.204  1.00  0.00     0.198 A 
ATOM     87  F   UNL A   1      43.506  25.566  35.300  1.00  0.00    -0.203 F 
ATOM     88  F   UNL A   1      48.312  28.139  35.579  1.00  0.00    -0.200 F 
ATOM     89  C   UNL A   1      46.895  26.384  36.280  1.00  0.00     0.200 A 
ATOM     90  F   UNL A   1      45.451  24.634  36.936  1.00  0.00    -0.200 F 
ATOM     91  F   UNL A   1      47.864  25.900  37.070  1.00  0.00    -0.200 F 
ENDBRANCH  58  81
ENDBRANCH  32  33
ENDBRANCH  25  27
ENDBRANCH  24  25
ENDBRANCH  23  24
ENDBRANCH   1  23
TORSDOF 14
ENDMDL
MODEL 2
REMARK VINA RESULT:     -12.1      0.110      1.606
REMARK SMILES CC1(C)CCC[C@@H]1NC(=O)CC1(C(=O)OCCOC(=O)c2ccc(-c3c4nc(c(-c5c(F)c(F)c(F)c(F)c5F)c5ccc([nH]5)c(-c5c(F)c(F)c(F)c(F)c5F)c5nc(c(-c6c(F)c(F)c(F)c(F)c6F)c6ccc3[nH]6)C=C5)C=C4)cc2)CCCCC1
REMARK SMILES IDX 16 1 15 2 13 3 14 4 12 5 84 6 88 7 85 8 87 9 86 10 11 11
REMARK SMILES IDX 9 12 8 13 10 15 7 16 1 17 2 18 3 19 4 20 5 21 6 22 17 23
REMARK SMILES IDX 18 24 19 25 20 26 21 27 22 28 83 29 23 30 82 31 24 32 25 33
REMARK SMILES IDX 26 34 76 35 27 36 81 37 75 38 77 39 28 40 80 41 74 42 73 43
REMARK SMILES IDX 29 45 61 46 41 47 60 48 42 49 45 50 59 51 78 52 43 53 44 54
REMARK SMILES IDX 58 56 79 57 46 58 30 59 31 60 39 61 32 62 33 63 37 64 40 65
REMARK SMILES IDX 34 66 35 67 38 68 36 69 62 70 63 71 71 72 64 73 65 74 69 75
REMARK SMILES IDX 72 76 66 77 67 78 70 79 68 80 47 81 48 82 56 83 49 84 50 85
REMARK SMILES IDX 54 86 57 87 51 88 52 89 55 90 53 91
REMARK H PARENT 8 14 77 44 45 55
REMARK Flexibility Score: inf
ROOT
ATOM      1  C   UNL A   1      31.812  28.944  27.238  1.00  0.00     0.274 C 
ENDROOT
BRANCH   1   2
ATOM      2  O   UNL A   1      32.472  28.126  26.252  1.00  0.00    -0.462 OA
BRANCH   2   3
ATOM      3  C   UNL A   1      31.719  27.119  25.742  1.00  0.00     0.312 C 
ATOM      4  O   UNL A   1      30.974  26.412  26.414  1.00  0.00    -0.252 OA
BRANCH   3   5
ATOM      5  C   UNL A   1      31.835  26.967  24.216  1.00  0.00     0.077 C 
ATOM      6  C   UNL A   1      31.615  28.382  23.623  1.00  0.00     0.019 C 
ATOM      7  C   UNL A   1      30.799  26.029  23.565  1.00  0.00     0.019 C 
ATOM      8  C   UNL A   1      30.170  28.864  23.830  1.00  0.00     0.001 C 
ATOM      9  C   UNL A   1      29.350  26.483  23.688  1.00  0.00     0.001 C 
ATOM     10  C   UNL A   1      29.157  27.911  23.207  1.00  0.00     0.000 C 
BRANCH   5  11
ATOM     11  C   UNL A   1      33.295  26.468  24.022  1.00  0.00     0.118 C 
BRANCH  11  12
ATOM     12  C   UNL A   1      33.600  25.653  22.786  1.00  0.00     0.221 C 
ATOM     13  N   UNL A   1      33.849  24.314  22.880  1.00  0.00    -0.353 N 
ATOM     14  H   UNL A   1      34.101  23.890  22.028  1.00  0.00     0.163 HD
ATOM     15  O   UNL A   1      33.641  26.187  21.677  1.00  0.00    -0.275 OA
BRANCH  13  16
ATOM     16  C   UNL A   1      33.809  23.395  24.018  1.00  0.00     0.087 C 
ATOM     17  C   UNL A   1      35.710  24.086  25.570  1.00  0.00     0.013 C 
ATOM     18  C   UNL A   1      35.196  23.021  24.605  1.00  0.00    -0.015 C 
ATOM     19  C   UNL A   1      36.268  22.747  23.536  1.00  0.00     0.013 C 
ATOM     20  C   UNL A   1      34.870  21.730  25.380  1.00  0.00     0.008 C 
ATOM     21  C   UNL A   1      33.904  20.973  24.486  1.00  0.00     0.003 C 
ATOM     22  C   UNL A   1      33.187  22.038  23.664  1.00  0.00     0.025 C 
ENDBRANCH  13  16
ENDBRANCH  11  12
ENDBRANCH   5  11
ENDBRANCH   3   5
ENDBRANCH   2   3
ENDBRANCH   1   2
BRANCH   1  23
ATOM     23  C   UNL A   1      31.782  30.406  26.808  1.00  0.00     0.275 C 
BRANCH  23  24
ATOM     24  O   UNL A   1      33.105  30.844  26.452  1.00  0.00    -0.458 OA
BRANCH  24  25
ATOM     25  C   UNL A   1      33.635  31.798  27.251  1.00  0.00     0.338 C 
ATOM     26  O   UNL A   1      33.144  32.884  27.512  1.00  0.00    -0.246 OA
BRANCH  25  27
ATOM     27  C   UNL A   1      34.921  31.350  27.837  1.00  0.00     0.060 A 
ATOM     28  C   UNL A   1      35.112  30.038  28.269  1.00  0.00     0.016 A 
ATOM     29  C   UNL A   1      35.918  32.300  28.069  1.00  0.00     0.016 A 
ATOM     30  C   UNL A   1      36.231  29.710  29.039  1.00  0.00     0.010 A 
ATOM     31  C   UNL A   1      37.095  31.938  28.733  1.00  0.00     0.010 A 
ATOM     32  C   UNL A   1      37.252  30.648  29.266  1.00  0.00    -0.014 A 
BRANCH  32  33
ATOM     33  C   UNL A   1      38.481  30.285  30.034  1.00  0.00     0.031 A 
ATOM     34  C   UNL A   1      39.522  29.357  29.456  1.00  0.00     0.074 A 
ATOM     35  C   UNL A   1      38.666  30.771  31.278  1.00  0.00     0.049 A 
ATOM     36  N   UNL A   1      40.571  28.812  30.023  1.00  0.00    -0.248 NA
ATOM     37  C   UNL A   1      39.356  28.982  28.046  1.00  0.00     0.031 C 
ATOM     38  C   UNL A   1      37.762  31.687  31.974  1.00  0.00     0.029 A 
ATOM     39  N   UNL A   1      39.679  30.558  32.181  1.00  0.00    -0.354 N 
ATOM     40  C   UNL A   1      41.161  28.010  29.051  1.00  0.00     0.074 A 
ATOM     41  C   UNL A   1      40.356  28.135  27.856  1.00  0.00     0.031 C 
ATOM     42  C   UNL A   1      38.273  31.983  33.177  1.00  0.00     0.029 A 
ATOM     43  C   UNL A   1      39.493  31.210  33.375  1.00  0.00     0.049 A 
ATOM     44  H   UNL A   1      40.461  29.991  31.991  1.00  0.00     0.167 HD
ATOM     45  C   UNL A   1      42.266  27.231  29.146  1.00  0.00     0.037 A 
ATOM     46  C   UNL A   1      40.194  31.160  34.524  1.00  0.00     0.037 A 
ATOM     47  C   UNL A   1      43.083  27.117  30.325  1.00  0.00     0.049 A 
ATOM     48  C   UNL A   1      41.393  30.266  34.620  1.00  0.00     0.074 A 
ATOM     49  C   UNL A   1      44.230  26.366  30.513  1.00  0.00     0.029 A 
ATOM     50  N   UNL A   1      42.838  27.779  31.518  1.00  0.00    -0.354 N 
ATOM     51  N   UNL A   1      41.918  29.486  33.707  1.00  0.00    -0.248 NA
ATOM     52  C   UNL A   1      42.085  30.227  35.916  1.00  0.00     0.031 C 
ATOM     53  C   UNL A   1      44.659  26.543  31.834  1.00  0.00     0.029 A 
ATOM     54  C   UNL A   1      43.800  27.436  32.454  1.00  0.00     0.049 A 
ATOM     55  H   UNL A   1      42.091  28.400  31.677  1.00  0.00     0.167 HD
ATOM     56  C   UNL A   1      42.998  28.862  34.315  1.00  0.00     0.074 A 
ATOM     57  C   UNL A   1      43.071  29.375  35.668  1.00  0.00     0.031 C 
ATOM     58  C   UNL A   1      43.848  27.942  33.800  1.00  0.00     0.037 A 
BRANCH  45  59
ATOM     59  C   UNL A   1      42.641  26.403  27.950  1.00  0.00     0.064 A 
ATOM     60  C   UNL A   1      42.079  25.140  27.719  1.00  0.00     0.173 A 
ATOM     61  C   UNL A   1      43.544  26.907  27.002  1.00  0.00     0.173 A 
ATOM     62  F   UNL A   1      41.224  24.609  28.604  1.00  0.00    -0.203 F 
ATOM     63  C   UNL A   1      42.420  24.404  26.585  1.00  0.00     0.198 A 
ATOM     64  C   UNL A   1      43.866  26.177  25.859  1.00  0.00     0.198 A 
ATOM     65  F   UNL A   1      44.109  28.111  27.177  1.00  0.00    -0.203 F 
ATOM     66  F   UNL A   1      41.897  23.184  26.399  1.00  0.00    -0.200 F 
ATOM     67  C   UNL A   1      43.306  24.925  25.655  1.00  0.00     0.200 A 
ATOM     68  F   UNL A   1      44.716  26.686  24.957  1.00  0.00    -0.200 F 
ATOM     69  F   UNL A   1      43.627  24.218  24.562  1.00  0.00    -0.200 F 
ENDBRANCH  45  59
BRANCH  46  70
ATOM     70  C   UNL A   1      39.733  31.957  35.689  1.00  0.00     0.064 A 
ATOM     71  C   UNL A   1      40.297  33.205  35.977  1.00  0.00     0.173 A 
ATOM     72  C   UNL A   1      38.693  31.499  36.513  1.00  0.00     0.173 A 
ATOM     73  F   UNL A   1      41.310  33.670  35.233  1.00  0.00    -0.203 F 
ATOM     74  C   UNL A   1      39.835  33.970  37.046  1.00  0.00     0.198 A 
ATOM     75  C   UNL A   1      38.213  32.277  37.563  1.00  0.00     0.198 A 
ATOM     76  F   UNL A   1      38.123  30.309  36.277  1.00  0.00    -0.203 F 
ATOM     77  F   UNL A   1      40.407  35.150  37.319  1.00  0.00    -0.200 F 
ATOM     78  C   UNL A   1      38.787  33.511  37.831  1.00  0.00     0.200 A 
ATOM     79  F   UNL A   1      37.189  31.836  38.307  1.00  0.00    -0.200 F 
ATOM     80  F   UNL A   1      38.330  34.255  38.846  1.00  0.00    -0.200 F 
ENDBRANCH  46  70
BRANCH  58  81
ATOM     81  C   UNL A   1      44.928  27.434  34.707  1.00  0.00     0.064 A 
ATOM     82  C   UNL A   1      44.738  26.288  35.494  1.00  0.00     0.173 A 
ATOM     83  C   UNL A   1      46.165  28.090  34.781  1.00  0.00     0.173 A 
ATOM     84  F   UNL A   1      43.566  25.637  35.467  1.00  0.00    -0.203 F 
ATOM     85  C   UNL A   1      45.743  25.831  36.342  1.00  0.00     0.198 A 
ATOM     86  C   UNL A   1      47.174  27.618  35.614  1.00  0.00     0.198 A 
ATOM     87  F   UNL A   1      46.393  29.188  34.045  1.00  0.00    -0.203 F 
ATOM     88  F   UNL A   1      45.525  24.761  37.119  1.00  0.00    -0.200 F 
ATOM     89  C   UNL A   1      46.960  26.494  36.398  1.00  0.00     0.200 A 
ATOM     90  F   UNL A   1      48.353  28.254  35.664  1.00  0.00    -0.200 F 
ATOM     91  F   UNL A   1      47.925  26.055  37.220  1.00  0.00    -0.200 F 
ENDBRANCH  58  81
ENDBRANCH  32  33
ENDBRANCH  25  27
ENDBRANCH  24  25
ENDBRANCH  23  24
ENDBRANCH   1  23
TORSDOF 14
ENDMDL
MODEL 3
REMARK VINA RESULT:     -12.1      4.377      9.794
REMARK SMILES CC1(C)CCC[C@@H]1NC(=O)CC1(C(=O)OCCOC(=O)c2ccc(-c3c4nc(c(-c5c(F)c(F)c(F)c(F)c5F)c5ccc([nH]5)c(-c5c(F)c(F)c(F)c(F)c5F)c5nc(c(-c6c(F)c(F)c(F)c(F)c6F)c6ccc3[nH]6)C=C5)C=C4)cc2)CCCCC1
REMARK SMILES IDX 16 1 15 2 13 3 14 4 12 5 84 6 88 7 85 8 87 9 86 10 11 11
REMARK SMILES IDX 9 12 8 13 10 15 7 16 1 17 2 18 3 19 4 20 5 21 6 22 17 23
REMARK SMILES IDX 18 24 19 25 20 26 21 27 22 28 83 29 23 30 82 31 24 32 25 33
REMARK SMILES IDX 26 34 76 35 27 36 81 37 75 38 77 39 28 40 80 41 74 42 73 43
REMARK SMILES IDX 29 45 61 46 41 47 60 48 42 49 45 50 59 51 78 52 43 53 44 54
REMARK SMILES IDX 58 56 79 57 46 58 30 59 31 60 39 61 32 62 33 63 37 64 40 65
REMARK SMILES IDX 34 66 35 67 38 68 36 69 62 70 63 71 71 72 64 73 65 74 69 75
REMARK SMILES IDX 72 76 66 77 67 78 70 79 68 80 47 81 48 82 56 83 49 84 50 85
REMARK SMILES IDX 54 86 57 87 51 88 52 89 55 90 53 91
REMARK H PARENT 8 14 77 44 45 55
REMARK Flexibility Score: inf
ROOT
ATOM      1  C   UNL A   1      36.767  22.293  23.903  1.00  0.00     0.274 C 
ENDROOT
BRANCH   1   2
ATOM      2  O   UNL A   1      35.816  22.955  24.761  1.00  0.00    -0.462 OA
BRANCH   2   3
ATOM      3  C   UNL A   1      34.689  23.388  24.142  1.00  0.00     0.312 C 
ATOM      4  O   UNL A   1      34.677  23.934  23.042  1.00  0.00    -0.252 OA
BRANCH   3   5
ATOM      5  C   UNL A   1      33.398  23.090  24.922  1.00  0.00     0.077 C 
ATOM      6  C   UNL A   1      33.611  21.710  25.596  1.00  0.00     0.019 C 
ATOM      7  C   UNL A   1      32.119  22.992  24.067  1.00  0.00     0.019 C 
ATOM      8  C   UNL A   1      33.679  20.577  24.559  1.00  0.00     0.001 C 
ATOM      9  C   UNL A   1      32.103  21.851  23.056  1.00  0.00     0.001 C 
ATOM     10  C   UNL A   1      32.420  20.513  23.702  1.00  0.00     0.000 C 
BRANCH   5  11
ATOM     11  C   UNL A   1      33.334  24.247  25.958  1.00  0.00     0.118 C 
BRANCH  11  12
ATOM     12  C   UNL A   1      31.980  24.618  26.515  1.00  0.00     0.221 C 
ATOM     13  N   UNL A   1      31.407  25.819  26.211  1.00  0.00    -0.353 N 
ATOM     14  H   UNL A   1      30.556  25.990  26.676  1.00  0.00     0.163 HD
ATOM     15  O   UNL A   1      31.376  23.846  27.262  1.00  0.00    -0.275 OA
BRANCH  13  16
ATOM     16  C   UNL A   1      31.830  26.899  25.319  1.00  0.00     0.087 C 
ATOM     17  C   UNL A   1      33.919  27.921  26.361  1.00  0.00     0.013 C 
ATOM     18  C   UNL A   1      32.445  28.133  26.031  1.00  0.00    -0.015 C 
ATOM     19  C   UNL A   1      31.695  28.548  27.308  1.00  0.00     0.013 C 
ATOM     20  C   UNL A   1      32.304  29.221  24.950  1.00  0.00     0.008 C 
ATOM     21  C   UNL A   1      30.941  28.977  24.328  1.00  0.00     0.003 C 
ATOM     22  C   UNL A   1      30.667  27.489  24.509  1.00  0.00     0.025 C 
ENDBRANCH  13  16
ENDBRANCH  11  12
ENDBRANCH   5  11
ENDBRANCH   3   5
ENDBRANCH   2   3
ENDBRANCH   1   2
BRANCH   1  23
ATOM     23  C   UNL A   1      37.376  21.077  24.593  1.00  0.00     0.275 C 
BRANCH  23  24
ATOM     24  O   UNL A   1      37.755  21.411  25.940  1.00  0.00    -0.458 OA
BRANCH  24  25
ATOM     25  C   UNL A   1      39.072  21.285  26.221  1.00  0.00     0.338 C 
ATOM     26  O   UNL A   1      39.754  20.285  26.075  1.00  0.00    -0.246 OA
BRANCH  25  27
ATOM     27  C   UNL A   1      39.638  22.564  26.714  1.00  0.00     0.060 A 
ATOM     28  C   UNL A   1      39.175  23.796  26.253  1.00  0.00     0.016 A 
ATOM     29  C   UNL A   1      40.742  22.522  27.568  1.00  0.00     0.016 A 
ATOM     30  C   UNL A   1      39.887  24.963  26.539  1.00  0.00     0.010 A 
ATOM     31  C   UNL A   1      41.378  23.707  27.954  1.00  0.00     0.010 A 
ATOM     32  C   UNL A   1      40.987  24.943  27.413  1.00  0.00    -0.014 A 
BRANCH  32  33
ATOM     33  C   UNL A   1      41.714  26.197  27.774  1.00  0.00     0.031 A 
ATOM     34  C   UNL A   1      41.051  27.279  28.593  1.00  0.00     0.074 A 
ATOM     35  C   UNL A   1      42.978  26.390  27.348  1.00  0.00     0.049 A 
ATOM     36  N   UNL A   1      41.465  28.490  28.878  1.00  0.00    -0.248 NA
ATOM     37  C   UNL A   1      39.738  26.957  29.165  1.00  0.00     0.031 C 
ATOM     38  C   UNL A   1      43.762  25.439  26.559  1.00  0.00     0.029 A 
ATOM     39  N   UNL A   1      43.827  27.457  27.516  1.00  0.00    -0.354 N 
ATOM     40  C   UNL A   1      40.450  29.077  29.626  1.00  0.00     0.074 A 
ATOM     41  C   UNL A   1      39.398  28.093  29.755  1.00  0.00     0.031 C 
ATOM     42  C   UNL A   1      44.983  25.946  26.341  1.00  0.00     0.029 A 
ATOM     43  C   UNL A   1      45.040  27.294  26.894  1.00  0.00     0.049 A 
ATOM     44  H   UNL A   1      43.589  28.261  28.032  1.00  0.00     0.167 HD
ATOM     45  C   UNL A   1      40.393  30.324  30.152  1.00  0.00     0.037 A 
ATOM     46  C   UNL A   1      46.072  28.145  26.739  1.00  0.00     0.037 A 
ATOM     47  C   UNL A   1      41.444  31.302  30.046  1.00  0.00     0.049 A 
ATOM     48  C   UNL A   1      45.975  29.534  27.297  1.00  0.00     0.074 A 
ATOM     49  C   UNL A   1      41.484  32.587  30.558  1.00  0.00     0.029 A 
ATOM     50  N   UNL A   1      42.644  31.097  29.383  1.00  0.00    -0.354 N 
ATOM     51  N   UNL A   1      44.996  30.087  27.971  1.00  0.00    -0.248 NA
ATOM     52  C   UNL A   1      47.118  30.424  27.054  1.00  0.00     0.031 C 
ATOM     53  C   UNL A   1      42.694  33.176  30.171  1.00  0.00     0.029 A 
ATOM     54  C   UNL A   1      43.422  32.241  29.453  1.00  0.00     0.049 A 
ATOM     55  H   UNL A   1      42.904  30.264  28.929  1.00  0.00     0.167 HD
ATOM     56  C   UNL A   1      45.401  31.388  28.230  1.00  0.00     0.074 A 
ATOM     57  C   UNL A   1      46.728  31.534  27.665  1.00  0.00     0.031 C 
ATOM     58  C   UNL A   1      44.732  32.376  28.871  1.00  0.00     0.037 A 
BRANCH  45  59
ATOM     59  C   UNL A   1      39.131  30.726  30.861  1.00  0.00     0.064 A 
ATOM     60  C   UNL A   1      38.977  30.567  32.245  1.00  0.00     0.173 A 
ATOM     61  C   UNL A   1      38.080  31.320  30.146  1.00  0.00     0.173 A 
ATOM     62  F   UNL A   1      39.946  29.989  32.971  1.00  0.00    -0.203 F 
ATOM     63  C   UNL A   1      37.809  30.976  32.886  1.00  0.00     0.198 A 
ATOM     64  C   UNL A   1      36.923  31.748  30.793  1.00  0.00     0.198 A 
ATOM     65  F   UNL A   1      38.179  31.496  28.820  1.00  0.00    -0.203 F 
ATOM     66  F   UNL A   1      37.668  30.784  34.205  1.00  0.00    -0.200 F 
ATOM     67  C   UNL A   1      36.787  31.571  32.162  1.00  0.00     0.200 A 
ATOM     68  F   UNL A   1      35.941  32.331  30.092  1.00  0.00    -0.200 F 
ATOM     69  F   UNL A   1      35.667  31.970  32.781  1.00  0.00    -0.200 F 
ENDBRANCH  45  59
BRANCH  46  70
ATOM     70  C   UNL A   1      47.266  27.706  25.973  1.00  0.00     0.064 A 
ATOM     71  C   UNL A   1      47.283  27.759  24.574  1.00  0.00     0.173 A 
ATOM     72  C   UNL A   1      48.424  27.263  26.629  1.00  0.00     0.173 A 
ATOM     73  F   UNL A   1      46.190  28.151  23.905  1.00  0.00    -0.203 F 
ATOM     74  C   UNL A   1      48.419  27.386  23.858  1.00  0.00     0.198 A 
ATOM     75  C   UNL A   1      49.567  26.918  25.914  1.00  0.00     0.198 A 
ATOM     76  F   UNL A   1      48.454  27.196  27.968  1.00  0.00    -0.203 F 
ATOM     77  F   UNL A   1      48.404  27.419  22.519  1.00  0.00    -0.200 F 
ATOM     78  C   UNL A   1      49.563  26.977  24.528  1.00  0.00     0.200 A 
ATOM     79  F   UNL A   1      50.675  26.541  26.567  1.00  0.00    -0.200 F 
ATOM     80  F   UNL A   1      50.661  26.638  23.840  1.00  0.00    -0.200 F 
ENDBRANCH  46  70
BRANCH  58  81
ATOM     81  C   UNL A   1      45.426  33.697  28.994  1.00  0.00     0.064 A 
ATOM     82  C   UNL A   1      45.252  34.703  28.032  1.00  0.00     0.173 A 
ATOM     83  C   UNL A   1      46.261  33.966  30.088  1.00  0.00     0.173 A 
ATOM     84  F   UNL A   1      44.475  34.485  26.961  1.00  0.00    -0.203 F 
ATOM     85  C   UNL A   1      45.912  35.923  28.148  1.00  0.00     0.198 A 
ATOM     86  C   UNL A   1      46.901  35.195  30.212  1.00  0.00     0.198 A 
ATOM     87  F   UNL A   1      46.455  33.036  31.035  1.00  0.00    -0.203 F 
ATOM     88  F   UNL A   1      45.768  36.854  27.194  1.00  0.00    -0.200 F 
ATOM     89  C   UNL A   1      46.732  36.170  29.240  1.00  0.00     0.200 A 
ATOM     90  F   UNL A   1      47.689  35.435  31.270  1.00  0.00    -0.200 F 
ATOM     91  F   UNL A   1      47.369  37.344  29.347  1.00  0.00    -0.200 F 
ENDBRANCH  58  81
ENDBRANCH  32  33
ENDBRANCH  25  27
ENDBRANCH  24  25
ENDBRANCH  23  24
ENDBRANCH   1  23
TORSDOF 14
ENDMDL
