MODEL 1
REMARK VINA RESULT:     -11.5      0.000      0.000
REMARK SMILES C[C@H](C(=O)NC1(C(=O)OCCOC(=O)c2ccc(-c3c4nc(c(-c5c(F)c(F)c(F)c(F)c5F)c5ccc([nH]5)c(-c5c(F)c(F)c(F)c(F)c5F)c5nc(c(-c6c(F)c(F)c(F)c(F)c6F)c6ccc3[nH]6)C=C5)C=C4)cc2)CCCC1)c1cccs1
REMARK SMILES IDX 10 1 9 2 7 3 8 4 6 5 78 6 81 7 79 8 80 9 5 10 3 11 4 12 2 14
REMARK SMILES IDX 1 15 82 16 83 17 86 18 84 19 85 20 11 21 12 22 13 23 14 24
REMARK SMILES IDX 15 25 16 26 77 27 17 28 76 29 18 30 19 31 20 32 70 33 21 34
REMARK SMILES IDX 75 35 69 36 71 37 22 38 74 39 68 40 67 41 23 43 55 44 35 45
REMARK SMILES IDX 54 46 36 47 39 48 53 49 72 50 37 51 38 52 52 54 73 55 40 56
REMARK SMILES IDX 24 57 25 58 33 59 26 60 27 61 31 62 34 63 28 64 29 65 32 66
REMARK SMILES IDX 30 67 56 68 57 69 65 70 58 71 59 72 63 73 66 74 60 75 61 76
REMARK SMILES IDX 64 77 62 78 41 79 42 80 50 81 43 82 44 83 48 84 51 85 45 86
REMARK SMILES IDX 46 87 49 88 47 89
REMARK H PARENT 5 13 71 42 39 53
REMARK Flexibility Score: inf
ROOT
ATOM      1  C   UNL A   1      36.042  20.267  25.000  1.00  0.00     0.274 C 
ENDROOT
BRANCH   1   2
ATOM      2  O   UNL A   1      35.261  21.087  25.899  1.00  0.00    -0.460 OA
BRANCH   2   3
ATOM      3  C   UNL A   1      33.986  21.305  25.488  1.00  0.00     0.331 C 
ATOM      4  O   UNL A   1      33.167  20.398  25.385  1.00  0.00    -0.249 OA
BRANCH   3   5
ATOM      5  C   UNL A   1      33.605  22.795  25.296  1.00  0.00     0.138 C 
ATOM      6  C   UNL A   1      33.575  23.482  23.931  1.00  0.00     0.040 C 
ATOM      7  C   UNL A   1      34.717  23.644  25.976  1.00  0.00     0.040 C 
ATOM      8  C   UNL A   1      35.015  23.732  23.547  1.00  0.00     0.003 C 
ATOM      9  C   UNL A   1      35.720  24.000  24.867  1.00  0.00     0.003 C 
BRANCH   5  10
ATOM     10  N   UNL A   1      32.295  23.026  25.946  1.00  0.00    -0.340 N 
ATOM     11  C   UNL A   1      31.600  24.123  26.334  1.00  0.00     0.228 C 
ATOM     12  O   UNL A   1      30.804  23.837  27.251  1.00  0.00    -0.274 OA
ATOM     13  H   UNL A   1      31.818  22.188  26.143  1.00  0.00     0.164 HD
BRANCH  11  14
ATOM     14  C   UNL A   1      31.485  25.526  25.691  1.00  0.00     0.115 C 
ATOM     15  C   UNL A   1      30.008  25.965  25.765  1.00  0.00     0.024 C 
BRANCH  14  16
ATOM     16  C   UNL A   1      32.343  26.714  26.088  1.00  0.00     0.017 A 
ATOM     17  C   UNL A   1      33.647  27.085  25.827  1.00  0.00     0.016 A 
ATOM     18  S   UNL A   1      31.653  27.823  27.246  1.00  0.00    -0.148 S 
ATOM     19  C   UNL A   1      34.003  28.349  26.394  1.00  0.00     0.012 A 
ATOM     20  C   UNL A   1      33.028  28.827  27.235  1.00  0.00     0.065 A 
ENDBRANCH  14  16
ENDBRANCH  11  14
ENDBRANCH   5  10
ENDBRANCH   3   5
ENDBRANCH   2   3
ENDBRANCH   1   2
BRANCH   1  21
ATOM     21  C   UNL A   1      37.483  20.760  24.754  1.00  0.00     0.275 C 
BRANCH  21  22
ATOM     22  O   UNL A   1      37.992  21.599  25.813  1.00  0.00    -0.458 OA
BRANCH  22  23
ATOM     23  C   UNL A   1      39.245  21.306  26.246  1.00  0.00     0.338 C 
ATOM     24  O   UNL A   1      39.819  20.237  26.137  1.00  0.00    -0.246 OA
BRANCH  23  25
ATOM     25  C   UNL A   1      39.938  22.533  26.700  1.00  0.00     0.060 A 
ATOM     26  C   UNL A   1      39.528  23.741  26.125  1.00  0.00     0.016 A 
ATOM     27  C   UNL A   1      40.981  22.525  27.626  1.00  0.00     0.016 A 
ATOM     28  C   UNL A   1      40.102  24.951  26.506  1.00  0.00     0.010 A 
ATOM     29  C   UNL A   1      41.599  23.738  27.973  1.00  0.00     0.010 A 
ATOM     30  C   UNL A   1      41.158  24.956  27.420  1.00  0.00    -0.014 A 
BRANCH  30  31
ATOM     31  C   UNL A   1      41.862  26.230  27.700  1.00  0.00     0.031 A 
ATOM     32  C   UNL A   1      41.158  27.297  28.484  1.00  0.00     0.074 A 
ATOM     33  C   UNL A   1      43.136  26.415  27.310  1.00  0.00     0.049 A 
ATOM     34  N   UNL A   1      41.537  28.519  28.757  1.00  0.00    -0.248 NA
ATOM     35  C   UNL A   1      39.850  26.930  29.049  1.00  0.00     0.031 C 
ATOM     36  C   UNL A   1      43.969  25.415  26.646  1.00  0.00     0.029 A 
ATOM     37  N   UNL A   1      43.949  27.518  27.412  1.00  0.00    -0.354 N 
ATOM     38  C   UNL A   1      40.511  29.073  29.511  1.00  0.00     0.074 A 
ATOM     39  C   UNL A   1      39.491  28.055  29.651  1.00  0.00     0.031 C 
ATOM     40  C   UNL A   1      45.169  25.959  26.375  1.00  0.00     0.029 A 
ATOM     41  C   UNL A   1      45.169  27.358  26.801  1.00  0.00     0.049 A 
ATOM     42  H   UNL A   1      43.684  28.344  27.879  1.00  0.00     0.167 HD
ATOM     43  C   UNL A   1      40.428  30.320  30.032  1.00  0.00     0.037 A 
ATOM     44  C   UNL A   1      46.149  28.253  26.571  1.00  0.00     0.037 A 
ATOM     45  C   UNL A   1      41.444  31.328  29.885  1.00  0.00     0.049 A 
ATOM     46  C   UNL A   1      45.977  29.675  27.050  1.00  0.00     0.074 A 
ATOM     47  C   UNL A   1      41.448  32.626  30.366  1.00  0.00     0.029 A 
ATOM     48  N   UNL A   1      42.637  31.153  29.197  1.00  0.00    -0.354 N 
ATOM     49  N   UNL A   1      44.997  30.206  27.741  1.00  0.00    -0.248 NA
ATOM     50  C   UNL A   1      47.045  30.626  26.707  1.00  0.00     0.031 C 
ATOM     51  C   UNL A   1      42.612  33.257  29.913  1.00  0.00     0.029 A 
ATOM     52  C   UNL A   1      43.366  32.332  29.208  1.00  0.00     0.049 A 
ATOM     53  H   UNL A   1      42.923  30.315  28.766  1.00  0.00     0.167 HD
ATOM     54  C   UNL A   1      45.342  31.537  27.937  1.00  0.00     0.074 A 
ATOM     55  C   UNL A   1      46.629  31.733  27.305  1.00  0.00     0.031 C 
ATOM     56  C   UNL A   1      44.652  32.511  28.582  1.00  0.00     0.037 A 
BRANCH  43  57
ATOM     57  C   UNL A   1      39.164  30.685  30.751  1.00  0.00     0.064 A 
ATOM     58  C   UNL A   1      38.061  31.239  30.085  1.00  0.00     0.173 A 
ATOM     59  C   UNL A   1      39.050  30.454  32.131  1.00  0.00     0.173 A 
ATOM     60  F   UNL A   1      38.124  31.494  28.770  1.00  0.00    -0.203 F 
ATOM     61  C   UNL A   1      36.899  31.572  30.780  1.00  0.00     0.198 A 
ATOM     62  C   UNL A   1      37.878  30.760  32.816  1.00  0.00     0.198 A 
ATOM     63  F   UNL A   1      40.075  29.924  32.815  1.00  0.00    -0.203 F 
ATOM     64  F   UNL A   1      35.875  32.145  30.133  1.00  0.00    -0.200 F 
ATOM     65  C   UNL A   1      36.807  31.326  32.142  1.00  0.00     0.200 A 
ATOM     66  F   UNL A   1      37.787  30.510  34.130  1.00  0.00    -0.200 F 
ATOM     67  F   UNL A   1      35.687  31.642  32.808  1.00  0.00    -0.200 F 
ENDBRANCH  43  57
BRANCH  44  68
ATOM     68  C   UNL A   1      47.356  27.860  25.795  1.00  0.00     0.064 A 
ATOM     69  C   UNL A   1      47.351  27.847  24.393  1.00  0.00     0.173 A 
ATOM     70  C   UNL A   1      48.529  27.439  26.442  1.00  0.00     0.173 A 
ATOM     71  F   UNL A   1      46.244  28.203  23.725  1.00  0.00    -0.203 F 
ATOM     72  C   UNL A   1      48.461  27.409  23.672  1.00  0.00     0.198 A 
ATOM     73  C   UNL A   1      49.649  27.035  25.721  1.00  0.00     0.198 A 
ATOM     74  F   UNL A   1      48.587  27.418  27.782  1.00  0.00    -0.203 F 
ATOM     75  F   UNL A   1      48.405  27.348  22.334  1.00  0.00    -0.200 F 
ATOM     76  C   UNL A   1      49.611  27.010  24.335  1.00  0.00     0.200 A 
ATOM     77  F   UNL A   1      50.760  26.656  26.366  1.00  0.00    -0.200 F 
ATOM     78  F   UNL A   1      50.675  26.585  23.642  1.00  0.00    -0.200 F 
ENDBRANCH  44  68
BRANCH  56  79
ATOM     79  C   UNL A   1      45.286  33.871  28.671  1.00  0.00     0.064 A 
ATOM     80  C   UNL A   1      45.003  34.882  27.741  1.00  0.00     0.173 A 
ATOM     81  C   UNL A   1      46.143  34.185  29.740  1.00  0.00     0.173 A 
ATOM     82  F   UNL A   1      44.202  34.631  26.695  1.00  0.00    -0.203 F 
ATOM     83  C   UNL A   1      45.569  36.148  27.865  1.00  0.00     0.198 A 
ATOM     84  C   UNL A   1      46.680  35.461  29.878  1.00  0.00     0.198 A 
ATOM     85  F   UNL A   1      46.441  33.258  30.662  1.00  0.00    -0.203 F 
ATOM     86  F   UNL A   1      45.318  37.085  26.940  1.00  0.00    -0.200 F 
ATOM     87  C   UNL A   1      46.398  36.440  28.938  1.00  0.00     0.200 A 
ATOM     88  F   UNL A   1      47.467  35.746  30.925  1.00  0.00    -0.200 F 
ATOM     89  F   UNL A   1      46.929  37.664  29.063  1.00  0.00    -0.200 F 
ENDBRANCH  56  79
ENDBRANCH  30  31
ENDBRANCH  23  25
ENDBRANCH  22  23
ENDBRANCH  21  22
ENDBRANCH   1  21
TORSDOF 14
ENDMDL
MODEL 2
REMARK VINA RESULT:     -11.5      0.166      1.628
REMARK SMILES C[C@H](C(=O)NC1(C(=O)OCCOC(=O)c2ccc(-c3c4nc(c(-c5c(F)c(F)c(F)c(F)c5F)c5ccc([nH]5)c(-c5c(F)c(F)c(F)c(F)c5F)c5nc(c(-c6c(F)c(F)c(F)c(F)c6F)c6ccc3[nH]6)C=C5)C=C4)cc2)CCCC1)c1cccs1
REMARK SMILES IDX 10 1 9 2 7 3 8 4 6 5 78 6 81 7 79 8 80 9 5 10 3 11 4 12 2 14
REMARK SMILES IDX 1 15 82 16 83 17 86 18 84 19 85 20 11 21 12 22 13 23 14 24
REMARK SMILES IDX 15 25 16 26 77 27 17 28 76 29 18 30 19 31 20 32 70 33 21 34
REMARK SMILES IDX 75 35 69 36 71 37 22 38 74 39 68 40 67 41 23 43 55 44 35 45
REMARK SMILES IDX 54 46 36 47 39 48 53 49 72 50 37 51 38 52 52 54 73 55 40 56
REMARK SMILES IDX 24 57 25 58 33 59 26 60 27 61 31 62 34 63 28 64 29 65 32 66
REMARK SMILES IDX 30 67 56 68 57 69 65 70 58 71 59 72 63 73 66 74 60 75 61 76
REMARK SMILES IDX 64 77 62 78 41 79 42 80 50 81 43 82 44 83 48 84 51 85 45 86
REMARK SMILES IDX 46 87 49 88 47 89
REMARK H PARENT 5 13 71 42 39 53
REMARK Flexibility Score: inf
ROOT
ATOM      1  C   UNL A   1      35.965  20.224  25.038  1.00  0.00     0.274 C 
ENDROOT
BRANCH   1   2
ATOM      2  O   UNL A   1      35.196  21.071  25.923  1.00  0.00    -0.460 OA
BRANCH   2   3
ATOM      3  C   UNL A   1      33.938  21.335  25.489  1.00  0.00     0.331 C 
ATOM      4  O   UNL A   1      33.093  20.455  25.355  1.00  0.00    -0.249 OA
BRANCH   3   5
ATOM      5  C   UNL A   1      33.606  22.838  25.310  1.00  0.00     0.138 C 
ATOM      6  C   UNL A   1      33.583  23.534  23.949  1.00  0.00     0.040 C 
ATOM      7  C   UNL A   1      34.757  23.643  25.980  1.00  0.00     0.040 C 
ATOM      8  C   UNL A   1      35.026  23.736  23.547  1.00  0.00     0.003 C 
ATOM      9  C   UNL A   1      35.757  23.971  24.860  1.00  0.00     0.003 C 
BRANCH   5  10
ATOM     10  N   UNL A   1      32.314  23.111  25.979  1.00  0.00    -0.340 N 
ATOM     11  C   UNL A   1      31.660  24.229  26.374  1.00  0.00     0.228 C 
ATOM     12  O   UNL A   1      30.868  23.970  27.303  1.00  0.00    -0.274 OA
ATOM     13  H   UNL A   1      31.814  22.289  26.184  1.00  0.00     0.164 HD
BRANCH  11  14
ATOM     14  C   UNL A   1      31.578  25.634  25.729  1.00  0.00     0.115 C 
ATOM     15  C   UNL A   1      30.102  26.080  25.740  1.00  0.00     0.024 C 
BRANCH  14  16
ATOM     16  C   UNL A   1      32.425  26.817  26.164  1.00  0.00     0.017 A 
ATOM     17  C   UNL A   1      33.746  27.172  25.978  1.00  0.00     0.016 A 
ATOM     18  S   UNL A   1      31.679  27.947  27.266  1.00  0.00    -0.148 S 
ATOM     19  C   UNL A   1      34.082  28.438  26.552  1.00  0.00     0.012 A 
ATOM     20  C   UNL A   1      33.063  28.936  27.328  1.00  0.00     0.065 A 
ENDBRANCH  14  16
ENDBRANCH  11  14
ENDBRANCH   5  10
ENDBRANCH   3   5
ENDBRANCH   2   3
ENDBRANCH   1   2
BRANCH   1  21
ATOM     21  C   UNL A   1      37.422  20.676  24.807  1.00  0.00     0.275 C 
BRANCH  21  22
ATOM     22  O   UNL A   1      37.946  21.494  25.876  1.00  0.00    -0.458 OA
BRANCH  22  23
ATOM     23  C   UNL A   1      39.208  21.198  26.279  1.00  0.00     0.338 C 
ATOM     24  O   UNL A   1      39.784  20.133  26.141  1.00  0.00    -0.246 OA
BRANCH  23  25
ATOM     25  C   UNL A   1      39.906  22.420  26.741  1.00  0.00     0.060 A 
ATOM     26  C   UNL A   1      39.553  23.622  26.119  1.00  0.00     0.016 A 
ATOM     27  C   UNL A   1      40.901  22.410  27.718  1.00  0.00     0.016 A 
ATOM     28  C   UNL A   1      40.135  24.828  26.502  1.00  0.00     0.010 A 
ATOM     29  C   UNL A   1      41.528  23.617  28.069  1.00  0.00     0.010 A 
ATOM     30  C   UNL A   1      41.144  24.831  27.468  1.00  0.00    -0.014 A 
BRANCH  30  31
ATOM     31  C   UNL A   1      41.863  26.095  27.756  1.00  0.00     0.031 A 
ATOM     32  C   UNL A   1      41.176  27.159  28.560  1.00  0.00     0.074 A 
ATOM     33  C   UNL A   1      43.134  26.273  27.355  1.00  0.00     0.049 A 
ATOM     34  N   UNL A   1      41.569  28.374  28.843  1.00  0.00    -0.248 NA
ATOM     35  C   UNL A   1      39.871  26.797  29.134  1.00  0.00     0.031 C 
ATOM     36  C   UNL A   1      43.951  25.274  26.670  1.00  0.00     0.029 A 
ATOM     37  N   UNL A   1      43.958  27.368  27.462  1.00  0.00    -0.354 N 
ATOM     38  C   UNL A   1      40.556  28.928  29.614  1.00  0.00     0.074 A 
ATOM     39  C   UNL A   1      39.528  27.918  29.752  1.00  0.00     0.031 C 
ATOM     40  C   UNL A   1      45.153  25.810  26.394  1.00  0.00     0.029 A 
ATOM     41  C   UNL A   1      45.170  27.204  26.836  1.00  0.00     0.049 A 
ATOM     42  H   UNL A   1      43.705  28.190  27.941  1.00  0.00     0.167 HD
ATOM     43  C   UNL A   1      40.490  30.170  30.150  1.00  0.00     0.037 A 
ATOM     44  C   UNL A   1      46.156  28.093  26.607  1.00  0.00     0.037 A 
ATOM     45  C   UNL A   1      41.513  31.171  30.004  1.00  0.00     0.049 A 
ATOM     46  C   UNL A   1      46.002  29.511  27.103  1.00  0.00     0.074 A 
ATOM     47  C   UNL A   1      41.534  32.463  30.500  1.00  0.00     0.029 A 
ATOM     48  N   UNL A   1      42.697  30.993  29.302  1.00  0.00    -0.354 N 
ATOM     49  N   UNL A   1      45.034  30.042  27.811  1.00  0.00    -0.248 NA
ATOM     50  C   UNL A   1      47.075  30.456  26.761  1.00  0.00     0.031 C 
ATOM     51  C   UNL A   1      42.699  33.088  30.042  1.00  0.00     0.029 A 
ATOM     52  C   UNL A   1      43.436  32.165  29.319  1.00  0.00     0.049 A 
ATOM     53  H   UNL A   1      42.972  30.158  28.859  1.00  0.00     0.167 HD
ATOM     54  C   UNL A   1      45.392  31.367  28.019  1.00  0.00     0.074 A 
ATOM     55  C   UNL A   1      46.674  31.559  27.376  1.00  0.00     0.031 C 
ATOM     56  C   UNL A   1      44.718  32.340  28.682  1.00  0.00     0.037 A 
BRANCH  43  57
ATOM     57  C   UNL A   1      39.236  30.538  30.886  1.00  0.00     0.064 A 
ATOM     58  C   UNL A   1      39.110  30.370  32.273  1.00  0.00     0.173 A 
ATOM     59  C   UNL A   1      38.150  31.092  30.190  1.00  0.00     0.173 A 
ATOM     60  F   UNL A   1      40.112  29.831  32.982  1.00  0.00    -0.203 F 
ATOM     61  C   UNL A   1      37.932  30.719  32.931  1.00  0.00     0.198 A 
ATOM     62  C   UNL A   1      36.986  31.466  30.855  1.00  0.00     0.198 A 
ATOM     63  F   UNL A   1      38.220  31.276  28.863  1.00  0.00    -0.203 F 
ATOM     64  F   UNL A   1      37.813  30.504  34.249  1.00  0.00    -0.200 F 
ATOM     65  C   UNL A   1      36.875  31.272  32.223  1.00  0.00     0.200 A 
ATOM     66  F   UNL A   1      35.971  32.013  30.171  1.00  0.00    -0.200 F 
ATOM     67  F   UNL A   1      35.744  31.612  32.858  1.00  0.00    -0.200 F 
ENDBRANCH  43  57
BRANCH  44  68
ATOM     68  C   UNL A   1      47.351  27.698  25.813  1.00  0.00     0.064 A 
ATOM     69  C   UNL A   1      48.551  27.326  26.437  1.00  0.00     0.173 A 
ATOM     70  C   UNL A   1      47.333  27.731  24.410  1.00  0.00     0.173 A 
ATOM     71  F   UNL A   1      48.634  27.314  27.776  1.00  0.00    -0.203 F 
ATOM     72  C   UNL A   1      49.689  27.025  25.690  1.00  0.00     0.198 A 
ATOM     73  C   UNL A   1      48.460  27.397  23.664  1.00  0.00     0.198 A 
ATOM     74  F   UNL A   1      46.217  28.092  23.760  1.00  0.00    -0.203 F 
ATOM     75  F   UNL A   1      50.839  26.735  26.313  1.00  0.00    -0.200 F 
ATOM     76  C   UNL A   1      49.641  27.054  24.304  1.00  0.00     0.200 A 
ATOM     77  F   UNL A   1      48.408  27.420  22.325  1.00  0.00    -0.200 F 
ATOM     78  F   UNL A   1      50.736  26.770  23.587  1.00  0.00    -0.200 F 
ENDBRANCH  44  68
BRANCH  56  79
ATOM     79  C   UNL A   1      45.365  33.693  28.781  1.00  0.00     0.064 A 
ATOM     80  C   UNL A   1      45.091  34.713  27.858  1.00  0.00     0.173 A 
ATOM     81  C   UNL A   1      46.225  33.991  29.851  1.00  0.00     0.173 A 
ATOM     82  F   UNL A   1      44.288  34.477  26.810  1.00  0.00    -0.203 F 
ATOM     83  C   UNL A   1      45.670  35.973  27.990  1.00  0.00     0.198 A 
ATOM     84  C   UNL A   1      46.775  35.261  29.998  1.00  0.00     0.198 A 
ATOM     85  F   UNL A   1      46.515  33.055  30.767  1.00  0.00    -0.203 F 
ATOM     86  F   UNL A   1      45.427  36.919  27.072  1.00  0.00    -0.200 F 
ATOM     87  C   UNL A   1      46.502  36.250  29.064  1.00  0.00     0.200 A 
ATOM     88  F   UNL A   1      47.565  35.531  31.046  1.00  0.00    -0.200 F 
ATOM     89  F   UNL A   1      47.045  37.467  29.198  1.00  0.00    -0.200 F 
ENDBRANCH  56  79
ENDBRANCH  30  31
ENDBRANCH  23  25
ENDBRANCH  22  23
ENDBRANCH  21  22
ENDBRANCH   1  21
TORSDOF 14
ENDMDL
MODEL 3
REMARK VINA RESULT:     -11.4      4.638      9.849
REMARK SMILES C[C@H](C(=O)NC1(C(=O)OCCOC(=O)c2ccc(-c3c4nc(c(-c5c(F)c(F)c(F)c(F)c5F)c5ccc([nH]5)c(-c5c(F)c(F)c(F)c(F)c5F)c5nc(c(-c6c(F)c(F)c(F)c(F)c6F)c6ccc3[nH]6)C=C5)C=C4)cc2)CCCC1)c1cccs1
REMARK SMILES IDX 10 1 9 2 7 3 8 4 6 5 78 6 81 7 79 8 80 9 5 10 3 11 4 12 2 14
REMARK SMILES IDX 1 15 82 16 83 17 86 18 84 19 85 20 11 21 12 22 13 23 14 24
REMARK SMILES IDX 15 25 16 26 77 27 17 28 76 29 18 30 19 31 20 32 70 33 21 34
REMARK SMILES IDX 75 35 69 36 71 37 22 38 74 39 68 40 67 41 23 43 55 44 35 45
REMARK SMILES IDX 54 46 36 47 39 48 53 49 72 50 37 51 38 52 52 54 73 55 40 56
REMARK SMILES IDX 24 57 25 58 33 59 26 60 27 61 31 62 34 63 28 64 29 65 32 66
REMARK SMILES IDX 30 67 56 68 57 69 65 70 58 71 59 72 63 73 66 74 60 75 61 76
REMARK SMILES IDX 64 77 62 78 41 79 42 80 50 81 43 82 44 83 48 84 51 85 45 86
REMARK SMILES IDX 46 87 49 88 47 89
REMARK H PARENT 5 13 71 42 39 53
REMARK Flexibility Score: inf
ROOT
ATOM      1  C   UNL A   1      31.391  28.794  24.615  1.00  0.00     0.274 C 
ENDROOT
BRANCH   1   2
ATOM      2  O   UNL A   1      31.451  27.552  25.353  1.00  0.00    -0.460 OA
BRANCH   2   3
ATOM      3  C   UNL A   1      30.746  26.536  24.792  1.00  0.00     0.331 C 
ATOM      4  O   UNL A   1      29.604  26.686  24.371  1.00  0.00    -0.249 OA
BRANCH   3   5
ATOM      5  C   UNL A   1      31.538  25.219  24.596  1.00  0.00     0.138 C 
ATOM      6  C   UNL A   1      30.897  23.834  24.698  1.00  0.00     0.040 C 
ATOM      7  C   UNL A   1      32.548  25.111  25.773  1.00  0.00     0.040 C 
ATOM      8  C   UNL A   1      30.689  23.568  26.171  1.00  0.00     0.003 C 
ATOM      9  C   UNL A   1      31.859  24.263  26.852  1.00  0.00     0.003 C 
BRANCH   5  10
ATOM     10  N   UNL A   1      32.247  25.292  23.299  1.00  0.00    -0.340 N 
ATOM     11  C   UNL A   1      33.454  24.877  22.844  1.00  0.00     0.228 C 
ATOM     12  O   UNL A   1      33.817  25.565  21.869  1.00  0.00    -0.274 OA
ATOM     13  H   UNL A   1      31.720  25.750  22.605  1.00  0.00     0.164 HD
BRANCH  11  14
ATOM     14  C   UNL A   1      34.279  23.611  23.179  1.00  0.00     0.115 C 
ATOM     15  C   UNL A   1      35.403  24.017  24.154  1.00  0.00     0.024 C 
BRANCH  14  16
ATOM     16  C   UNL A   1      33.674  22.313  23.683  1.00  0.00     0.017 A 
ATOM     17  C   UNL A   1      33.935  21.486  24.757  1.00  0.00     0.016 A 
ATOM     18  S   UNL A   1      32.481  21.558  22.655  1.00  0.00    -0.148 S 
ATOM     19  C   UNL A   1      33.044  20.372  24.847  1.00  0.00     0.012 A 
ATOM     20  C   UNL A   1      32.243  20.264  23.736  1.00  0.00     0.065 A 
ENDBRANCH  14  16
ENDBRANCH  11  14
ENDBRANCH   5  10
ENDBRANCH   3   5
ENDBRANCH   2   3
ENDBRANCH   1   2
BRANCH   1  21
ATOM     21  C   UNL A   1      31.634  30.064  25.456  1.00  0.00     0.275 C 
BRANCH  21  22
ATOM     22  O   UNL A   1      32.973  30.151  25.992  1.00  0.00    -0.458 OA
BRANCH  22  23
ATOM     23  C   UNL A   1      33.195  31.171  26.859  1.00  0.00     0.338 C 
ATOM     24  O   UNL A   1      32.403  32.041  27.176  1.00  0.00    -0.246 OA
BRANCH  23  25
ATOM     25  C   UNL A   1      34.488  30.987  27.557  1.00  0.00     0.060 A 
ATOM     26  C   UNL A   1      34.803  29.689  27.972  1.00  0.00     0.016 A 
ATOM     27  C   UNL A   1      35.361  32.037  27.841  1.00  0.00     0.016 A 
ATOM     28  C   UNL A   1      36.007  29.411  28.613  1.00  0.00     0.010 A 
ATOM     29  C   UNL A   1      36.553  31.769  28.536  1.00  0.00     0.010 A 
ATOM     30  C   UNL A   1      36.884  30.455  28.919  1.00  0.00    -0.014 A 
BRANCH  30  31
ATOM     31  C   UNL A   1      38.087  30.171  29.737  1.00  0.00     0.031 A 
ATOM     32  C   UNL A   1      39.139  29.251  29.193  1.00  0.00     0.074 A 
ATOM     33  C   UNL A   1      38.269  30.768  30.928  1.00  0.00     0.049 A 
ATOM     34  N   UNL A   1      40.216  28.781  29.770  1.00  0.00    -0.248 NA
ATOM     35  C   UNL A   1      38.959  28.810  27.801  1.00  0.00     0.031 C 
ATOM     36  C   UNL A   1      37.381  31.769  31.514  1.00  0.00     0.029 A 
ATOM     37  N   UNL A   1      39.265  30.611  31.862  1.00  0.00    -0.354 N 
ATOM     38  C   UNL A   1      40.832  27.978  28.820  1.00  0.00     0.074 A 
ATOM     39  C   UNL A   1      40.009  28.020  27.629  1.00  0.00     0.031 C 
ATOM     40  C   UNL A   1      37.857  32.119  32.722  1.00  0.00     0.029 A 
ATOM     41  C   UNL A   1      39.053  31.329  33.014  1.00  0.00     0.049 A 
ATOM     42  H   UNL A   1      40.054  30.039  31.719  1.00  0.00     0.167 HD
ATOM     43  C   UNL A   1      41.978  27.266  28.937  1.00  0.00     0.037 A 
ATOM     44  C   UNL A   1      39.723  31.311  34.183  1.00  0.00     0.037 A 
ATOM     45  C   UNL A   1      42.789  27.224  30.125  1.00  0.00     0.049 A 
ATOM     46  C   UNL A   1      40.924  30.409  34.332  1.00  0.00     0.074 A 
ATOM     47  C   UNL A   1      43.961  26.522  30.346  1.00  0.00     0.029 A 
ATOM     48  N   UNL A   1      42.505  27.908  31.299  1.00  0.00    -0.354 N 
ATOM     49  N   UNL A   1      41.494  29.631  33.443  1.00  0.00    -0.248 NA
ATOM     50  C   UNL A   1      41.571  30.375  35.652  1.00  0.00     0.031 C 
ATOM     51  C   UNL A   1      44.351  26.729  31.674  1.00  0.00     0.029 A 
ATOM     52  C   UNL A   1      43.459  27.614  32.259  1.00  0.00     0.049 A 
ATOM     53  H   UNL A   1      41.740  28.514  31.429  1.00  0.00     0.167 HD
ATOM     54  C   UNL A   1      42.574  29.040  34.085  1.00  0.00     0.074 A 
ATOM     55  C   UNL A   1      42.592  29.559  35.436  1.00  0.00     0.031 C 
ATOM     56  C   UNL A   1      43.471  28.145  33.600  1.00  0.00     0.037 A 
BRANCH  43  57
ATOM     57  C   UNL A   1      42.386  26.417  27.769  1.00  0.00     0.064 A 
ATOM     58  C   UNL A   1      43.327  26.852  26.825  1.00  0.00     0.173 A 
ATOM     59  C   UNL A   1      41.838  25.135  27.608  1.00  0.00     0.173 A 
ATOM     60  F   UNL A   1      43.869  28.074  26.924  1.00  0.00    -0.203 F 
ATOM     61  C   UNL A   1      43.685  26.043  25.748  1.00  0.00     0.198 A 
ATOM     62  C   UNL A   1      42.220  24.318  26.548  1.00  0.00     0.198 A 
ATOM     63  F   UNL A   1      40.935  24.670  28.485  1.00  0.00    -0.203 F 
ATOM     64  F   UNL A   1      44.550  26.496  24.830  1.00  0.00    -0.200 F 
ATOM     65  C   UNL A   1      43.137  24.776  25.615  1.00  0.00     0.200 A 
ATOM     66  F   UNL A   1      41.698  23.089  26.429  1.00  0.00    -0.200 F 
ATOM     67  F   UNL A   1      43.486  23.997  24.581  1.00  0.00    -0.200 F 
ENDBRANCH  43  57
BRANCH  44  68
ATOM     68  C   UNL A   1      39.240  32.121  35.334  1.00  0.00     0.064 A 
ATOM     69  C   UNL A   1      39.614  33.464  35.490  1.00  0.00     0.173 A 
ATOM     70  C   UNL A   1      38.433  31.553  36.332  1.00  0.00     0.173 A 
ATOM     71  F   UNL A   1      40.415  34.045  34.585  1.00  0.00    -0.203 F 
ATOM     72  C   UNL A   1      39.218  34.197  36.607  1.00  0.00     0.198 A 
ATOM     73  C   UNL A   1      38.009  32.297  37.430  1.00  0.00     0.198 A 
ATOM     74  F   UNL A   1      38.056  30.269  36.243  1.00  0.00    -0.203 F 
ATOM     75  F   UNL A   1      39.642  35.459  36.762  1.00  0.00    -0.200 F 
ATOM     76  C   UNL A   1      38.410  33.616  37.573  1.00  0.00     0.200 A 
ATOM     77  F   UNL A   1      37.224  31.733  38.358  1.00  0.00    -0.200 F 
ATOM     78  F   UNL A   1      38.034  34.320  38.649  1.00  0.00    -0.200 F 
ENDBRANCH  44  68
BRANCH  56  79
ATOM     79  C   UNL A   1      44.572  27.693  34.518  1.00  0.00     0.064 A 
ATOM     80  C   UNL A   1      45.773  28.407  34.639  1.00  0.00     0.173 A 
ATOM     81  C   UNL A   1      44.395  26.563  35.334  1.00  0.00     0.173 A 
ATOM     82  F   UNL A   1      45.998  29.485  33.874  1.00  0.00    -0.203 F 
ATOM     83  C   UNL A   1      46.764  27.995  35.526  1.00  0.00     0.198 A 
ATOM     84  C   UNL A   1      45.375  26.174  36.243  1.00  0.00     0.198 A 
ATOM     85  F   UNL A   1      43.262  25.849  35.264  1.00  0.00    -0.203 F 
ATOM     86  F   UNL A   1      47.922  28.667  35.593  1.00  0.00    -0.200 F 
ATOM     87  C   UNL A   1      46.561  26.886  36.334  1.00  0.00     0.200 A 
ATOM     88  F   UNL A   1      45.169  25.112  37.034  1.00  0.00    -0.200 F 
ATOM     89  F   UNL A   1      47.510  26.500  37.197  1.00  0.00    -0.200 F 
ENDBRANCH  56  79
ENDBRANCH  30  31
ENDBRANCH  23  25
ENDBRANCH  22  23
ENDBRANCH  21  22
ENDBRANCH   1  21
TORSDOF 14
ENDMDL
