MODEL 1
REMARK VINA RESULT:     -13.7      0.000      0.000
REMARK SMILES CC(C)Cc1ccc(-c2cc(Cl)cc3c2O[C@H](C(F)(F)F)C(C(=O)OCCOC(=O)c2ccc(-c4c5nc(c(-c6c(F)c(F)c(F)c(F)c6F)c6ccc([nH]6)c(-c6c(F)c(F)c(F)c(F)c6F)c6nc(c(-c7c(F)c(F)c(F)c(F)c7F)c7ccc4[nH]7)C=C6)C=C5)cc2)=C3)cc1
REMARK SMILES IDX 26 1 25 2 23 3 24 4 22 5 9 6 10 7 15 8 11 9 14 10 16 11
REMARK SMILES IDX 12 12 13 13 94 14 17 15 8 16 5 17 6 18 96 19 7 20 95 21 4 22
REMARK SMILES IDX 2 23 1 24 3 25 18 26 19 27 20 28 21 29 27 30 28 31 29 32
REMARK SMILES IDX 30 33 31 34 32 35 93 36 33 37 92 38 34 39 35 40 36 41 86 42
REMARK SMILES IDX 37 43 91 44 85 45 87 46 38 47 90 48 84 49 83 50 39 52 71 53
REMARK SMILES IDX 51 54 70 55 52 56 55 57 69 58 88 59 53 60 54 61 68 63 89 64
REMARK SMILES IDX 56 65 40 66 41 67 49 68 42 69 43 70 47 71 50 72 44 73 45 74
REMARK SMILES IDX 48 75 46 76 72 77 73 78 81 79 74 80 75 81 79 82 82 83 76 84
REMARK SMILES IDX 77 85 80 86 78 87 57 88 58 89 66 90 59 91 60 92 64 93 67 94
REMARK SMILES IDX 61 95 62 96 65 97 63 98
REMARK H PARENT 87 51 55 62
REMARK Flexibility Score: inf
ROOT
ATOM      1  C   UNL A   1      31.220  29.370  24.764  1.00  0.00     0.275 C 
ENDROOT
BRANCH   1   2
ATOM      2  O   UNL A   1      30.987  28.115  25.449  1.00  0.00    -0.459 OA
BRANCH   2   3
ATOM      3  C   UNL A   1      30.777  27.083  24.591  1.00  0.00     0.338 C 
ATOM      4  O   UNL A   1      29.686  26.802  24.105  1.00  0.00    -0.246 OA
BRANCH   3   5
ATOM      5  C   UNL A   1      32.008  26.350  24.204  1.00  0.00     0.087 C 
ATOM      6  C   UNL A   1      32.045  22.298  24.574  1.00  0.00     0.026 A 
ATOM      7  C   UNL A   1      31.096  22.098  25.610  1.00  0.00     0.033 A 
ATOM      8  C   UNL A   1      32.407  23.635  24.380  1.00  0.00     0.135 A 
ATOM      9  C   UNL A   1      30.660  23.109  26.472  1.00  0.00     0.042 A 
ATOM     10  C   UNL A   1      32.192  24.560  25.433  1.00  0.00     0.019 A 
ATOM     11  O   UNL A   1      32.816  24.183  23.171  1.00  0.00    -0.475 OA
ATOM     12  Cl  UNL A   1      29.326  22.943  27.536  1.00  0.00    -0.084 Cl
ATOM     13  C   UNL A   1      31.305  24.316  26.465  1.00  0.00     0.032 A 
ATOM     14  C   UNL A   1      32.703  25.932  25.274  1.00  0.00     0.027 C 
ATOM     15  C   UNL A   1      32.193  25.546  22.929  1.00  0.00     0.316 C 
BRANCH   6  16
ATOM     16  C   UNL A   1      32.647  21.036  24.035  1.00  0.00    -0.015 A 
ATOM     17  C   UNL A   1      33.384  18.247  23.779  1.00  0.00    -0.048 A 
ATOM     18  C   UNL A   1      32.429  18.836  22.936  1.00  0.00     0.004 A 
ATOM     19  C   UNL A   1      34.009  19.084  24.704  1.00  0.00     0.004 A 
ATOM     20  C   UNL A   1      32.101  20.221  23.033  1.00  0.00     0.009 A 
ATOM     21  C   UNL A   1      33.647  20.435  24.828  1.00  0.00     0.009 A 
BRANCH  17  22
ATOM     22  C   UNL A   1      33.775  16.769  23.692  1.00  0.00     0.038 C 
BRANCH  22  23
ATOM     23  C   UNL A   1      34.082  16.145  25.062  1.00  0.00    -0.013 C 
ATOM     24  C   UNL A   1      33.076  15.058  25.269  1.00  0.00     0.008 C 
ATOM     25  C   UNL A   1      35.470  15.529  25.259  1.00  0.00     0.008 C 
ENDBRANCH  22  23
ENDBRANCH  17  22
ENDBRANCH   6  16
BRANCH  15  26
ATOM     26  C   UNL A   1      33.089  26.411  22.032  1.00  0.00     0.430 C 
ATOM     27  F   UNL A   1      32.808  27.730  22.166  1.00  0.00    -0.167 F 
ATOM     28  F   UNL A   1      34.401  26.239  22.298  1.00  0.00    -0.167 F 
ATOM     29  F   UNL A   1      32.905  26.101  20.722  1.00  0.00    -0.167 F 
ENDBRANCH  15  26
ENDBRANCH   3   5
ENDBRANCH   2   3
ENDBRANCH   1   2
BRANCH   1  30
ATOM     30  C   UNL A   1      31.324  30.566  25.716  1.00  0.00     0.275 C 
BRANCH  30  31
ATOM     31  O   UNL A   1      32.446  30.435  26.616  1.00  0.00    -0.458 OA
BRANCH  31  32
ATOM     32  C   UNL A   1      32.929  31.619  27.083  1.00  0.00     0.338 C 
ATOM     33  O   UNL A   1      32.319  32.667  27.121  1.00  0.00    -0.246 OA
BRANCH  32  34
ATOM     34  C   UNL A   1      34.291  31.463  27.680  1.00  0.00     0.060 A 
ATOM     35  C   UNL A   1      34.660  30.175  28.056  1.00  0.00     0.016 A 
ATOM     36  C   UNL A   1      35.204  32.502  27.903  1.00  0.00     0.016 A 
ATOM     37  C   UNL A   1      35.937  29.931  28.590  1.00  0.00     0.010 A 
ATOM     38  C   UNL A   1      36.500  32.237  28.436  1.00  0.00     0.010 A 
ATOM     39  C   UNL A   1      36.909  30.933  28.761  1.00  0.00    -0.014 A 
BRANCH  39  40
ATOM     40  C   UNL A   1      38.261  30.557  29.372  1.00  0.00     0.031 A 
ATOM     41  C   UNL A   1      38.523  30.942  30.829  1.00  0.00     0.074 A 
ATOM     42  C   UNL A   1      39.188  29.766  28.765  1.00  0.00     0.049 A 
ATOM     43  N   UNL A   1      39.498  30.609  31.648  1.00  0.00    -0.248 NA
ATOM     44  C   UNL A   1      37.510  31.808  31.449  1.00  0.00     0.031 C 
ATOM     45  C   UNL A   1      39.056  29.136  27.462  1.00  0.00     0.029 A 
ATOM     46  N   UNL A   1      40.407  29.272  29.205  1.00  0.00    -0.354 N 
ATOM     47  C   UNL A   1      39.204  31.201  32.879  1.00  0.00     0.074 A 
ATOM     48  C   UNL A   1      37.945  31.897  32.696  1.00  0.00     0.031 C 
ATOM     49  C   UNL A   1      40.010  28.203  27.292  1.00  0.00     0.029 A 
ATOM     50  C   UNL A   1      40.950  28.267  28.410  1.00  0.00     0.049 A 
ATOM     51  H   UNL A   1      40.852  29.604  30.018  1.00  0.00     0.167 HD
ATOM     52  C   UNL A   1      39.916  31.227  34.043  1.00  0.00     0.037 A 
ATOM     53  C   UNL A   1      42.043  27.468  28.569  1.00  0.00     0.037 A 
ATOM     54  C   UNL A   1      41.246  30.677  34.226  1.00  0.00     0.049 A 
ATOM     55  C   UNL A   1      42.973  27.642  29.781  1.00  0.00     0.074 A 
ATOM     56  C   UNL A   1      42.192  30.887  35.218  1.00  0.00     0.029 A 
ATOM     57  N   UNL A   1      41.818  29.768  33.357  1.00  0.00    -0.354 N 
ATOM     58  N   UNL A   1      42.903  28.501  30.775  1.00  0.00    -0.248 NA
ATOM     59  C   UNL A   1      44.092  26.695  29.926  1.00  0.00     0.031 C 
ATOM     60  C   UNL A   1      43.360  30.165  34.884  1.00  0.00     0.029 A 
ATOM     61  C   UNL A   1      43.122  29.458  33.714  1.00  0.00     0.049 A 
ATOM     62  H   UNL A   1      41.356  29.386  32.577  1.00  0.00     0.167 HD
ATOM     63  C   UNL A   1      43.836  28.096  31.732  1.00  0.00     0.074 A 
ATOM     64  C   UNL A   1      44.582  27.012  31.120  1.00  0.00     0.031 C 
ATOM     65  C   UNL A   1      43.968  28.485  33.036  1.00  0.00     0.037 A 
BRANCH  52  66
ATOM     66  C   UNL A   1      39.321  32.045  35.158  1.00  0.00     0.064 A 
ATOM     67  C   UNL A   1      39.562  33.423  35.301  1.00  0.00     0.173 A 
ATOM     68  C   UNL A   1      38.554  31.411  36.147  1.00  0.00     0.173 A 
ATOM     69  F   UNL A   1      40.331  34.071  34.413  1.00  0.00    -0.203 F 
ATOM     70  C   UNL A   1      39.083  34.121  36.410  1.00  0.00     0.198 A 
ATOM     71  C   UNL A   1      38.043  32.121  37.228  1.00  0.00     0.198 A 
ATOM     72  F   UNL A   1      38.316  30.094  36.076  1.00  0.00    -0.203 F 
ATOM     73  F   UNL A   1      39.393  35.416  36.571  1.00  0.00    -0.200 F 
ATOM     74  C   UNL A   1      38.318  33.471  37.367  1.00  0.00     0.200 A 
ATOM     75  F   UNL A   1      37.300  31.488  38.147  1.00  0.00    -0.200 F 
ATOM     76  F   UNL A   1      37.865  34.141  38.436  1.00  0.00    -0.200 F 
ENDBRANCH  52  66
BRANCH  53  77
ATOM     77  C   UNL A   1      42.265  26.305  27.628  1.00  0.00     0.064 A 
ATOM     78  C   UNL A   1      43.223  26.359  26.595  1.00  0.00     0.173 A 
ATOM     79  C   UNL A   1      41.533  25.112  27.735  1.00  0.00     0.173 A 
ATOM     80  F   UNL A   1      43.964  27.464  26.421  1.00  0.00    -0.203 F 
ATOM     81  C   UNL A   1      43.407  25.298  25.700  1.00  0.00     0.198 A 
ATOM     82  C   UNL A   1      41.745  24.036  26.866  1.00  0.00     0.198 A 
ATOM     83  F   UNL A   1      40.617  24.976  28.703  1.00  0.00    -0.203 F 
ATOM     84  F   UNL A   1      44.285  25.412  24.692  1.00  0.00    -0.200 F 
ATOM     85  C   UNL A   1      42.670  24.134  25.839  1.00  0.00     0.200 A 
ATOM     86  F   UNL A   1      41.049  22.903  27.025  1.00  0.00    -0.200 F 
ATOM     87  F   UNL A   1      42.847  23.115  24.987  1.00  0.00    -0.200 F 
ENDBRANCH  53  77
BRANCH  65  88
ATOM     88  C   UNL A   1      45.049  27.822  33.861  1.00  0.00     0.064 A 
ATOM     89  C   UNL A   1      46.356  28.332  33.917  1.00  0.00     0.173 A 
ATOM     90  C   UNL A   1      44.763  26.698  34.655  1.00  0.00     0.173 A 
ATOM     91  F   UNL A   1      46.698  29.393  33.171  1.00  0.00    -0.203 F 
ATOM     92  C   UNL A   1      47.333  27.741  34.720  1.00  0.00     0.198 A 
ATOM     93  C   UNL A   1      45.736  26.123  35.476  1.00  0.00     0.198 A 
ATOM     94  F   UNL A   1      43.538  26.151  34.641  1.00  0.00    -0.203 F 
ATOM     95  F   UNL A   1      48.579  28.233  34.728  1.00  0.00    -0.200 F 
ATOM     96  C   UNL A   1      47.019  26.644  35.507  1.00  0.00     0.200 A 
ATOM     97  F   UNL A   1      45.430  25.065  36.241  1.00  0.00    -0.200 F 
ATOM     98  F   UNL A   1      47.955  26.088  36.290  1.00  0.00    -0.200 F 
ENDBRANCH  65  88
ENDBRANCH  39  40
ENDBRANCH  32  34
ENDBRANCH  31  32
ENDBRANCH  30  31
ENDBRANCH   1  30
TORSDOF 15
ENDMDL
MODEL 2
REMARK VINA RESULT:     -13.1      0.910      7.137
REMARK SMILES CC(C)Cc1ccc(-c2cc(Cl)cc3c2O[C@H](C(F)(F)F)C(C(=O)OCCOC(=O)c2ccc(-c4c5nc(c(-c6c(F)c(F)c(F)c(F)c6F)c6ccc([nH]6)c(-c6c(F)c(F)c(F)c(F)c6F)c6nc(c(-c7c(F)c(F)c(F)c(F)c7F)c7ccc4[nH]7)C=C6)C=C5)cc2)=C3)cc1
REMARK SMILES IDX 26 1 25 2 23 3 24 4 22 5 9 6 10 7 15 8 11 9 14 10 16 11
REMARK SMILES IDX 12 12 13 13 94 14 17 15 8 16 5 17 6 18 96 19 7 20 95 21 4 22
REMARK SMILES IDX 2 23 1 24 3 25 18 26 19 27 20 28 21 29 27 30 28 31 29 32
REMARK SMILES IDX 30 33 31 34 32 35 93 36 33 37 92 38 34 39 35 40 36 41 86 42
REMARK SMILES IDX 37 43 91 44 85 45 87 46 38 47 90 48 84 49 83 50 39 52 71 53
REMARK SMILES IDX 51 54 70 55 52 56 55 57 69 58 88 59 53 60 54 61 68 63 89 64
REMARK SMILES IDX 56 65 40 66 41 67 49 68 42 69 43 70 47 71 50 72 44 73 45 74
REMARK SMILES IDX 48 75 46 76 72 77 73 78 81 79 74 80 75 81 79 82 82 83 76 84
REMARK SMILES IDX 77 85 80 86 78 87 57 88 58 89 66 90 59 91 60 92 64 93 67 94
REMARK SMILES IDX 61 95 62 96 65 97 63 98
REMARK H PARENT 87 51 55 62
REMARK Flexibility Score: inf
ROOT
ATOM      1  C   UNL A   1      30.838  29.100  24.367  1.00  0.00     0.275 C 
ENDROOT
BRANCH   1   2
ATOM      2  O   UNL A   1      30.711  27.910  25.183  1.00  0.00    -0.459 OA
BRANCH   2   3
ATOM      3  C   UNL A   1      30.506  26.789  24.443  1.00  0.00     0.338 C 
ATOM      4  O   UNL A   1      29.401  26.387  24.092  1.00  0.00    -0.246 OA
BRANCH   3   5
ATOM      5  C   UNL A   1      31.751  26.112  24.003  1.00  0.00     0.087 C 
ATOM      6  C   UNL A   1      31.994  22.069  24.392  1.00  0.00     0.026 A 
ATOM      7  C   UNL A   1      31.105  21.832  25.471  1.00  0.00     0.033 A 
ATOM      8  C   UNL A   1      32.285  23.419  24.175  1.00  0.00     0.135 A 
ATOM      9  C   UNL A   1      30.661  22.828  26.347  1.00  0.00     0.042 A 
ATOM     10  C   UNL A   1      32.074  24.341  25.232  1.00  0.00     0.019 A 
ATOM     11  O   UNL A   1      32.611  23.977  22.945  1.00  0.00    -0.475 OA
ATOM     12  Cl  UNL A   1      29.387  22.607  27.472  1.00  0.00    -0.084 Cl
ATOM     13  C   UNL A   1      31.248  24.063  26.304  1.00  0.00     0.032 A 
ATOM     14  C   UNL A   1      32.512  25.734  25.042  1.00  0.00     0.027 C 
ATOM     15  C   UNL A   1      31.915  25.308  22.725  1.00  0.00     0.316 C 
BRANCH   6  16
ATOM     16  C   UNL A   1      32.630  20.832  23.832  1.00  0.00    -0.015 A 
ATOM     17  C   UNL A   1      33.459  18.073  23.541  1.00  0.00    -0.048 A 
ATOM     18  C   UNL A   1      32.467  18.633  22.721  1.00  0.00     0.004 A 
ATOM     19  C   UNL A   1      34.072  18.925  24.460  1.00  0.00     0.004 A 
ATOM     20  C   UNL A   1      32.093  20.005  22.834  1.00  0.00     0.009 A 
ATOM     21  C   UNL A   1      33.665  20.261  24.601  1.00  0.00     0.009 A 
BRANCH  17  22
ATOM     22  C   UNL A   1      33.899  16.610  23.436  1.00  0.00     0.038 C 
BRANCH  22  23
ATOM     23  C   UNL A   1      33.749  15.838  24.757  1.00  0.00    -0.013 C 
ATOM     24  C   UNL A   1      35.100  15.830  25.399  1.00  0.00     0.008 C 
ATOM     25  C   UNL A   1      32.756  16.390  25.784  1.00  0.00     0.008 C 
ENDBRANCH  22  23
ENDBRANCH  17  22
ENDBRANCH   6  16
BRANCH  15  26
ATOM     26  C   UNL A   1      32.728  26.207  21.783  1.00  0.00     0.430 C 
ATOM     27  F   UNL A   1      32.504  25.900  20.482  1.00  0.00    -0.167 F 
ATOM     28  F   UNL A   1      32.447  27.516  21.953  1.00  0.00    -0.167 F 
ATOM     29  F   UNL A   1      34.060  26.055  22.000  1.00  0.00    -0.167 F 
ENDBRANCH  15  26
ENDBRANCH   3   5
ENDBRANCH   2   3
ENDBRANCH   1   2
BRANCH   1  30
ATOM     30  C   UNL A   1      32.231  29.733  24.440  1.00  0.00     0.275 C 
BRANCH  30  31
ATOM     31  O   UNL A   1      32.859  29.495  25.719  1.00  0.00    -0.458 OA
BRANCH  31  32
ATOM     32  C   UNL A   1      33.079  30.621  26.452  1.00  0.00     0.338 C 
ATOM     33  O   UNL A   1      32.384  31.615  26.449  1.00  0.00    -0.246 OA
BRANCH  32  34
ATOM     34  C   UNL A   1      34.233  30.454  27.388  1.00  0.00     0.060 A 
ATOM     35  C   UNL A   1      34.440  29.174  27.896  1.00  0.00     0.016 A 
ATOM     36  C   UNL A   1      35.099  31.475  27.800  1.00  0.00     0.016 A 
ATOM     37  C   UNL A   1      35.525  28.919  28.752  1.00  0.00     0.010 A 
ATOM     38  C   UNL A   1      36.202  31.198  28.661  1.00  0.00     0.010 A 
ATOM     39  C   UNL A   1      36.460  29.900  29.131  1.00  0.00    -0.014 A 
BRANCH  39  40
ATOM     40  C   UNL A   1      37.592  29.514  30.086  1.00  0.00     0.031 A 
ATOM     41  C   UNL A   1      38.804  28.783  29.504  1.00  0.00     0.074 A 
ATOM     42  C   UNL A   1      37.676  29.911  31.384  1.00  0.00     0.049 A 
ATOM     43  N   UNL A   1      39.971  28.487  30.035  1.00  0.00    -0.248 NA
ATOM     44  C   UNL A   1      38.676  28.355  28.104  1.00  0.00     0.031 C 
ATOM     45  C   UNL A   1      36.730  30.770  32.080  1.00  0.00     0.029 A 
ATOM     46  N   UNL A   1      38.657  29.720  32.345  1.00  0.00    -0.354 N 
ATOM     47  C   UNL A   1      40.719  27.864  29.034  1.00  0.00     0.074 A 
ATOM     48  C   UNL A   1      39.872  27.847  27.856  1.00  0.00     0.031 C 
ATOM     49  C   UNL A   1      37.252  31.197  33.244  1.00  0.00     0.029 A 
ATOM     50  C   UNL A   1      38.522  30.511  33.483  1.00  0.00     0.049 A 
ATOM     51  H   UNL A   1      39.394  29.077  32.231  1.00  0.00     0.167 HD
ATOM     52  C   UNL A   1      41.963  27.304  29.074  1.00  0.00     0.037 A 
ATOM     53  C   UNL A   1      39.327  30.697  34.566  1.00  0.00     0.037 A 
ATOM     54  C   UNL A   1      42.782  27.161  30.264  1.00  0.00     0.049 A 
ATOM     55  C   UNL A   1      40.634  29.901  34.718  1.00  0.00     0.074 A 
ATOM     56  C   UNL A   1      43.891  26.369  30.520  1.00  0.00     0.029 A 
ATOM     57  N   UNL A   1      42.557  27.870  31.429  1.00  0.00    -0.354 N 
ATOM     58  N   UNL A   1      41.158  28.990  33.926  1.00  0.00    -0.248 NA
ATOM     59  C   UNL A   1      41.491  30.207  35.877  1.00  0.00     0.031 C 
ATOM     60  C   UNL A   1      44.267  26.547  31.869  1.00  0.00     0.029 A 
ATOM     61  C   UNL A   1      43.430  27.495  32.441  1.00  0.00     0.049 A 
ATOM     62  H   UNL A   1      41.861  28.558  31.530  1.00  0.00     0.167 HD
ATOM     63  C   UNL A   1      42.456  28.749  34.383  1.00  0.00     0.074 A 
ATOM     64  C   UNL A   1      42.579  29.485  35.628  1.00  0.00     0.031 C 
ATOM     65  C   UNL A   1      43.488  28.102  33.764  1.00  0.00     0.037 A 
BRANCH  52  66
ATOM     66  C   UNL A   1      42.425  26.639  27.806  1.00  0.00     0.064 A 
ATOM     67  C   UNL A   1      42.089  25.314  27.476  1.00  0.00     0.173 A 
ATOM     68  C   UNL A   1      43.288  27.326  26.940  1.00  0.00     0.173 A 
ATOM     69  F   UNL A   1      41.307  24.591  28.294  1.00  0.00    -0.203 F 
ATOM     70  C   UNL A   1      42.628  24.698  26.347  1.00  0.00     0.198 A 
ATOM     71  C   UNL A   1      43.790  26.723  25.791  1.00  0.00     0.198 A 
ATOM     72  F   UNL A   1      43.665  28.583  27.218  1.00  0.00    -0.203 F 
ATOM     73  F   UNL A   1      42.361  23.409  26.095  1.00  0.00    -0.200 F 
ATOM     74  C   UNL A   1      43.471  25.406  25.502  1.00  0.00     0.200 A 
ATOM     75  F   UNL A   1      44.599  27.412  24.976  1.00  0.00    -0.200 F 
ATOM     76  F   UNL A   1      43.995  24.812  24.421  1.00  0.00    -0.200 F 
ENDBRANCH  52  66
BRANCH  53  77
ATOM     77  C   UNL A   1      39.012  31.796  35.555  1.00  0.00     0.064 A 
ATOM     78  C   UNL A   1      39.503  33.108  35.388  1.00  0.00     0.173 A 
ATOM     79  C   UNL A   1      38.214  31.570  36.688  1.00  0.00     0.173 A 
ATOM     80  F   UNL A   1      40.276  33.408  34.334  1.00  0.00    -0.203 F 
ATOM     81  C   UNL A   1      39.243  34.119  36.321  1.00  0.00     0.198 A 
ATOM     82  C   UNL A   1      37.921  32.592  37.599  1.00  0.00     0.198 A 
ATOM     83  F   UNL A   1      37.695  30.355  36.907  1.00  0.00    -0.203 F 
ATOM     84  F   UNL A   1      39.780  35.338  36.159  1.00  0.00    -0.200 F 
ATOM     85  C   UNL A   1      38.447  33.861  37.424  1.00  0.00     0.200 A 
ATOM     86  F   UNL A   1      37.126  32.341  38.648  1.00  0.00    -0.200 F 
ATOM     87  F   UNL A   1      38.193  34.828  38.317  1.00  0.00    -0.200 F 
ENDBRANCH  53  77
BRANCH  65  88
ATOM     88  C   UNL A   1      44.817  28.046  34.486  1.00  0.00     0.064 A 
ATOM     89  C   UNL A   1      45.120  27.027  35.402  1.00  0.00     0.173 A 
ATOM     90  C   UNL A   1      45.825  28.988  34.214  1.00  0.00     0.173 A 
ATOM     91  F   UNL A   1      44.196  26.107  35.716  1.00  0.00    -0.203 F 
ATOM     92  C   UNL A   1      46.367  26.957  36.026  1.00  0.00     0.198 A 
ATOM     93  C   UNL A   1      47.080  28.901  34.821  1.00  0.00     0.198 A 
ATOM     94  F   UNL A   1      45.600  29.995  33.358  1.00  0.00    -0.203 F 
ATOM     95  F   UNL A   1      46.615  25.990  36.919  1.00  0.00    -0.200 F 
ATOM     96  C   UNL A   1      47.349  27.888  35.727  1.00  0.00     0.200 A 
ATOM     97  F   UNL A   1      48.031  29.800  34.527  1.00  0.00    -0.200 F 
ATOM     98  F   UNL A   1      48.552  27.810  36.315  1.00  0.00    -0.200 F 
ENDBRANCH  65  88
ENDBRANCH  39  40
ENDBRANCH  32  34
ENDBRANCH  31  32
ENDBRANCH  30  31
ENDBRANCH   1  30
TORSDOF 15
ENDMDL
MODEL 3
REMARK VINA RESULT:     -12.9      4.086      9.498
REMARK SMILES CC(C)Cc1ccc(-c2cc(Cl)cc3c2O[C@H](C(F)(F)F)C(C(=O)OCCOC(=O)c2ccc(-c4c5nc(c(-c6c(F)c(F)c(F)c(F)c6F)c6ccc([nH]6)c(-c6c(F)c(F)c(F)c(F)c6F)c6nc(c(-c7c(F)c(F)c(F)c(F)c7F)c7ccc4[nH]7)C=C6)C=C5)cc2)=C3)cc1
REMARK SMILES IDX 26 1 25 2 23 3 24 4 22 5 9 6 10 7 15 8 11 9 14 10 16 11
REMARK SMILES IDX 12 12 13 13 94 14 17 15 8 16 5 17 6 18 96 19 7 20 95 21 4 22
REMARK SMILES IDX 2 23 1 24 3 25 18 26 19 27 20 28 21 29 27 30 28 31 29 32
REMARK SMILES IDX 30 33 31 34 32 35 93 36 33 37 92 38 34 39 35 40 36 41 86 42
REMARK SMILES IDX 37 43 91 44 85 45 87 46 38 47 90 48 84 49 83 50 39 52 71 53
REMARK SMILES IDX 51 54 70 55 52 56 55 57 69 58 88 59 53 60 54 61 68 63 89 64
REMARK SMILES IDX 56 65 40 66 41 67 49 68 42 69 43 70 47 71 50 72 44 73 45 74
REMARK SMILES IDX 48 75 46 76 72 77 73 78 81 79 74 80 75 81 79 82 82 83 76 84
REMARK SMILES IDX 77 85 80 86 78 87 57 88 58 89 66 90 59 91 60 92 64 93 67 94
REMARK SMILES IDX 61 95 62 96 65 97 63 98
REMARK H PARENT 87 51 55 62
REMARK Flexibility Score: inf
ROOT
ATOM      1  C   UNL A   1      45.248  22.694  25.416  1.00  0.00     0.275 C 
ENDROOT
BRANCH   1   2
ATOM      2  O   UNL A   1      43.823  22.502  25.586  1.00  0.00    -0.459 OA
BRANCH   2   3
ATOM      3  C   UNL A   1      43.465  22.373  26.890  1.00  0.00     0.338 C 
ATOM      4  O   UNL A   1      44.020  22.955  27.818  1.00  0.00    -0.246 OA
BRANCH   3   5
ATOM      5  C   UNL A   1      42.270  21.523  27.115  1.00  0.00     0.087 C 
ATOM      6  C   UNL A   1      38.617  23.020  26.130  1.00  0.00     0.026 A 
ATOM      7  C   UNL A   1      38.836  24.415  26.256  1.00  0.00     0.033 A 
ATOM      8  C   UNL A   1      39.657  22.229  26.628  1.00  0.00     0.135 A 
ATOM      9  C   UNL A   1      39.918  24.974  26.945  1.00  0.00     0.042 A 
ATOM     10  C   UNL A   1      40.559  22.797  27.563  1.00  0.00     0.019 A 
ATOM     11  O   UNL A   1      39.992  20.965  26.159  1.00  0.00    -0.475 OA
ATOM     12  Cl  UNL A   1      40.339  26.634  26.871  1.00  0.00    -0.084 Cl
ATOM     13  C   UNL A   1      40.713  24.163  27.709  1.00  0.00     0.032 A 
ATOM     14  C   UNL A   1      41.564  21.920  28.186  1.00  0.00     0.027 C 
ATOM     15  C   UNL A   1      41.494  20.786  26.038  1.00  0.00     0.316 C 
BRANCH   6  16
ATOM     16  C   UNL A   1      37.230  22.649  25.699  1.00  0.00    -0.015 A 
ATOM     17  C   UNL A   1      34.675  21.292  25.568  1.00  0.00    -0.048 A 
ATOM     18  C   UNL A   1      34.791  22.595  26.079  1.00  0.00     0.004 A 
ATOM     19  C   UNL A   1      35.837  20.707  25.067  1.00  0.00     0.004 A 
ATOM     20  C   UNL A   1      36.043  23.279  26.100  1.00  0.00     0.009 A 
ATOM     21  C   UNL A   1      37.075  21.365  25.135  1.00  0.00     0.009 A 
BRANCH  17  22
ATOM     22  C   UNL A   1      33.345  20.534  25.514  1.00  0.00     0.038 C 
BRANCH  22  23
ATOM     23  C   UNL A   1      33.388  19.309  24.587  1.00  0.00    -0.013 C 
ATOM     24  C   UNL A   1      32.923  18.144  25.400  1.00  0.00     0.008 C 
ATOM     25  C   UNL A   1      32.528  19.356  23.320  1.00  0.00     0.008 C 
ENDBRANCH  22  23
ENDBRANCH  17  22
ENDBRANCH   6  16
BRANCH  15  26
ATOM     26  C   UNL A   1      41.889  19.311  26.192  1.00  0.00     0.430 C 
ATOM     27  F   UNL A   1      42.218  19.013  27.472  1.00  0.00    -0.167 F 
ATOM     28  F   UNL A   1      40.902  18.473  25.813  1.00  0.00    -0.167 F 
ATOM     29  F   UNL A   1      42.974  19.019  25.429  1.00  0.00    -0.167 F 
ENDBRANCH  15  26
ENDBRANCH   3   5
ENDBRANCH   2   3
ENDBRANCH   1   2
BRANCH   1  30
ATOM     30  C   UNL A   1      45.598  23.999  24.695  1.00  0.00     0.275 C 
BRANCH  30  31
ATOM     31  O   UNL A   1      44.653  25.048  25.001  1.00  0.00    -0.458 OA
BRANCH  31  32
ATOM     32  C   UNL A   1      45.226  26.245  25.306  1.00  0.00     0.338 C 
ATOM     33  O   UNL A   1      46.029  26.841  24.619  1.00  0.00    -0.246 OA
BRANCH  32  34
ATOM     34  C   UNL A   1      44.650  26.831  26.555  1.00  0.00     0.060 A 
ATOM     35  C   UNL A   1      44.852  28.195  26.750  1.00  0.00     0.016 A 
ATOM     36  C   UNL A   1      43.949  26.121  27.537  1.00  0.00     0.016 A 
ATOM     37  C   UNL A   1      44.312  28.836  27.879  1.00  0.00     0.010 A 
ATOM     38  C   UNL A   1      43.399  26.788  28.672  1.00  0.00     0.010 A 
ATOM     39  C   UNL A   1      43.540  28.174  28.851  1.00  0.00    -0.014 A 
BRANCH  39  40
ATOM     40  C   UNL A   1      43.019  28.968  30.050  1.00  0.00     0.031 A 
ATOM     41  C   UNL A   1      41.587  29.505  29.989  1.00  0.00     0.074 A 
ATOM     42  C   UNL A   1      43.677  29.099  31.234  1.00  0.00     0.049 A 
ATOM     43  N   UNL A   1      40.832  30.060  30.913  1.00  0.00    -0.248 NA
ATOM     44  C   UNL A   1      40.910  29.362  28.692  1.00  0.00     0.031 C 
ATOM     45  C   UNL A   1      44.961  28.505  31.570  1.00  0.00     0.029 A 
ATOM     46  N   UNL A   1      43.315  29.705  32.427  1.00  0.00    -0.354 N 
ATOM     47  C   UNL A   1      39.592  30.307  30.320  1.00  0.00     0.074 A 
ATOM     48  C   UNL A   1      39.697  29.819  28.958  1.00  0.00     0.031 C 
ATOM     49  C   UNL A   1      45.184  28.586  32.894  1.00  0.00     0.029 A 
ATOM     50  C   UNL A   1      44.134  29.397  33.510  1.00  0.00     0.049 A 
ATOM     51  H   UNL A   1      42.539  30.306  32.503  1.00  0.00     0.167 HD
ATOM     52  C   UNL A   1      38.480  30.925  30.815  1.00  0.00     0.037 A 
ATOM     53  C   UNL A   1      44.040  29.690  34.838  1.00  0.00     0.037 A 
ATOM     54  C   UNL A   1      38.381  31.562  32.115  1.00  0.00     0.049 A 
ATOM     55  C   UNL A   1      42.897  30.571  35.368  1.00  0.00     0.074 A 
ATOM     56  C   UNL A   1      37.459  32.466  32.621  1.00  0.00     0.029 A 
ATOM     57  N   UNL A   1      39.277  31.333  33.142  1.00  0.00    -0.354 N 
ATOM     58  N   UNL A   1      41.911  31.148  34.715  1.00  0.00    -0.248 NA
ATOM     59  C   UNL A   1      42.817  30.786  36.824  1.00  0.00     0.031 C 
ATOM     60  C   UNL A   1      37.864  32.837  33.922  1.00  0.00     0.029 A 
ATOM     61  C   UNL A   1      39.006  32.121  34.252  1.00  0.00     0.049 A 
ATOM     62  H   UNL A   1      40.019  30.689  33.093  1.00  0.00     0.167 HD
ATOM     63  C   UNL A   1      41.015  31.632  35.671  1.00  0.00     0.074 A 
ATOM     64  C   UNL A   1      41.663  31.433  36.955  1.00  0.00     0.031 C 
ATOM     65  C   UNL A   1      39.728  32.066  35.515  1.00  0.00     0.037 A 
BRANCH  52  66
ATOM     66  C   UNL A   1      37.337  31.090  29.850  1.00  0.00     0.064 A 
ATOM     67  C   UNL A   1      36.462  30.039  29.522  1.00  0.00     0.173 A 
ATOM     68  C   UNL A   1      37.166  32.312  29.183  1.00  0.00     0.173 A 
ATOM     69  F   UNL A   1      36.610  28.832  30.091  1.00  0.00    -0.203 F 
ATOM     70  C   UNL A   1      35.485  30.201  28.539  1.00  0.00     0.198 A 
ATOM     71  C   UNL A   1      36.163  32.483  28.235  1.00  0.00     0.198 A 
ATOM     72  F   UNL A   1      37.989  33.340  29.436  1.00  0.00    -0.203 F 
ATOM     73  F   UNL A   1      34.716  29.164  28.182  1.00  0.00    -0.200 F 
ATOM     74  C   UNL A   1      35.332  31.425  27.903  1.00  0.00     0.200 A 
ATOM     75  F   UNL A   1      36.017  33.668  27.627  1.00  0.00    -0.200 F 
ATOM     76  F   UNL A   1      34.399  31.578  26.954  1.00  0.00    -0.200 F 
ENDBRANCH  52  66
BRANCH  53  77
ATOM     77  C   UNL A   1      44.979  29.028  35.820  1.00  0.00     0.064 A 
ATOM     78  C   UNL A   1      44.660  27.804  36.443  1.00  0.00     0.173 A 
ATOM     79  C   UNL A   1      46.218  29.594  36.162  1.00  0.00     0.173 A 
ATOM     80  F   UNL A   1      43.494  27.197  36.175  1.00  0.00    -0.203 F 
ATOM     81  C   UNL A   1      45.511  27.206  37.381  1.00  0.00     0.198 A 
ATOM     82  C   UNL A   1      47.086  28.976  37.068  1.00  0.00     0.198 A 
ATOM     83  F   UNL A   1      46.602  30.747  35.598  1.00  0.00    -0.203 F 
ATOM     84  F   UNL A   1      45.142  26.073  37.998  1.00  0.00    -0.200 F 
ATOM     85  C   UNL A   1      46.727  27.791  37.689  1.00  0.00     0.200 A 
ATOM     86  F   UNL A   1      48.274  29.533  37.339  1.00  0.00    -0.200 F 
ATOM     87  F   UNL A   1      47.546  27.219  38.583  1.00  0.00    -0.200 F 
ENDBRANCH  53  77
BRANCH  65  88
ATOM     88  C   UNL A   1      38.971  32.481  36.758  1.00  0.00     0.064 A 
ATOM     89  C   UNL A   1      38.064  31.619  37.394  1.00  0.00     0.173 A 
ATOM     90  C   UNL A   1      39.199  33.732  37.357  1.00  0.00     0.173 A 
ATOM     91  F   UNL A   1      37.791  30.417  36.864  1.00  0.00    -0.203 F 
ATOM     92  C   UNL A   1      37.408  31.993  38.568  1.00  0.00     0.198 A 
ATOM     93  C   UNL A   1      38.559  34.094  38.545  1.00  0.00     0.198 A 
ATOM     94  F   UNL A   1      40.044  34.609  36.796  1.00  0.00    -0.203 F 
ATOM     95  F   UNL A   1      36.524  31.160  39.134  1.00  0.00    -0.200 F 
ATOM     96  C   UNL A   1      37.664  33.226  39.148  1.00  0.00     0.200 A 
ATOM     97  F   UNL A   1      38.811  35.285  39.107  1.00  0.00    -0.200 F 
ATOM     98  F   UNL A   1      37.044  33.576  40.284  1.00  0.00    -0.200 F 
ENDBRANCH  65  88
ENDBRANCH  39  40
ENDBRANCH  32  34
ENDBRANCH  31  32
ENDBRANCH  30  31
ENDBRANCH   1  30
TORSDOF 15
ENDMDL
