MODEL 1
REMARK VINA RESULT:     -10.3      0.000      0.000
REMARK SMILES C[C@@H]([NH2+]CC(C)(C)S(C)(=O)=O)C(=O)OCCOC(=O)c1ccc(-c2c3nc(c(-c4c(F)c(F)c(F)c(F)c4F)c4ccc([nH]4)c(-c4c(F)c(F)c(F)c(F)c4F)c4nc(c(-c5c(F)c(F)c(F)c(F)c5F)c5ccc2[nH]5)C=C4)C=C3)cc1
REMARK SMILES IDX 15 1 14 2 12 3 13 4 2 5 1 6 3 7 4 10 5 11 6 12 7 13 8 14
REMARK SMILES IDX 9 15 10 16 11 17 16 18 17 19 18 20 19 21 20 22 21 23 82 24
REMARK SMILES IDX 22 25 81 26 23 27 24 28 25 29 75 30 26 31 80 32 74 33 76 34
REMARK SMILES IDX 27 35 79 36 73 37 72 38 28 40 60 41 40 42 59 43 41 44 44 45
REMARK SMILES IDX 58 46 77 47 42 48 43 49 57 51 78 52 45 53 29 54 30 55 38 56
REMARK SMILES IDX 31 57 32 58 36 59 39 60 33 61 34 62 37 63 35 64 61 65 62 66
REMARK SMILES IDX 70 67 63 68 64 69 68 70 71 71 65 72 66 73 69 74 67 75 46 76
REMARK SMILES IDX 47 77 55 78 48 79 49 80 53 81 56 82 50 83 51 84 54 85 52 86
REMARK H PARENT 3 8 3 9 76 39 44 50
REMARK Flexibility Score: inf
ROOT
ATOM      1  C   UNL A   1      34.009  34.367  28.592  1.00  0.00     0.274 C 
ENDROOT
BRANCH   1   2
ATOM      2  O   UNL A   1      33.329  34.580  29.843  1.00  0.00    -0.458 OA
BRANCH   2   3
ATOM      3  C   UNL A   1      32.837  35.835  30.001  1.00  0.00     0.364 C 
ATOM      4  O   UNL A   1      32.278  36.451  29.096  1.00  0.00    -0.245 OA
BRANCH   3   5
ATOM      5  C   UNL A   1      33.026  36.436  31.401  1.00  0.00     0.290 C 
ATOM      6  C   UNL A   1      32.015  35.916  32.425  1.00  0.00     0.088 C 
BRANCH   5   7
ATOM      7  N   UNL A   1      34.403  36.270  31.917  1.00  0.00    -0.333 N 
ATOM      8  H   UNL A   1      34.740  37.194  32.187  1.00  0.00     0.347 HD
ATOM      9  H   UNL A   1      34.907  35.819  31.153  1.00  0.00     0.347 HD
BRANCH   7  10
ATOM     10  C   UNL A   1      34.607  35.376  33.068  1.00  0.00     0.283 C 
BRANCH  10  11
ATOM     11  C   UNL A   1      35.740  34.307  33.145  1.00  0.00     0.115 C 
ATOM     12  C   UNL A   1      37.096  34.915  32.745  1.00  0.00     0.034 C 
ATOM     13  C   UNL A   1      35.829  33.827  34.614  1.00  0.00     0.034 C 
BRANCH  11  14
ATOM     14  S   UNL A   1      35.486  32.819  32.119  1.00  0.00     0.158 S 
ATOM     15  C   UNL A   1      36.378  31.471  32.875  1.00  0.00     0.159 C 
ATOM     16  O   UNL A   1      34.070  32.510  32.121  1.00  0.00    -0.228 OA
ATOM     17  O   UNL A   1      36.140  33.056  30.840  1.00  0.00    -0.228 OA
ENDBRANCH  11  14
ENDBRANCH  10  11
ENDBRANCH   7  10
ENDBRANCH   5   7
ENDBRANCH   3   5
ENDBRANCH   2   3
ENDBRANCH   1   2
BRANCH   1  18
ATOM     18  C   UNL A   1      33.625  33.038  27.924  1.00  0.00     0.275 C 
BRANCH  18  19
ATOM     19  O   UNL A   1      34.074  31.871  28.651  1.00  0.00    -0.458 OA
BRANCH  19  20
ATOM     20  C   UNL A   1      34.356  30.789  27.880  1.00  0.00     0.338 C 
ATOM     21  O   UNL A   1      33.672  30.363  26.965  1.00  0.00    -0.246 OA
BRANCH  20  22
ATOM     22  C   UNL A   1      35.709  30.250  28.165  1.00  0.00     0.060 A 
ATOM     23  C   UNL A   1      35.919  29.716  29.439  1.00  0.00     0.016 A 
ATOM     24  C   UNL A   1      36.770  30.293  27.255  1.00  0.00     0.016 A 
ATOM     25  C   UNL A   1      37.161  29.186  29.795  1.00  0.00     0.010 A 
ATOM     26  C   UNL A   1      38.032  29.786  27.626  1.00  0.00     0.010 A 
ATOM     27  C   UNL A   1      38.232  29.220  28.897  1.00  0.00    -0.014 A 
BRANCH  27  28
ATOM     28  C   UNL A   1      39.555  28.724  29.368  1.00  0.00     0.031 A 
ATOM     29  C   UNL A   1      40.246  29.425  30.500  1.00  0.00     0.074 A 
ATOM     30  C   UNL A   1      40.083  27.584  28.884  1.00  0.00     0.049 A 
ATOM     31  N   UNL A   1      41.361  29.117  31.114  1.00  0.00    -0.248 NA
ATOM     32  C   UNL A   1      39.583  30.630  31.021  1.00  0.00     0.031 C 
ATOM     33  C   UNL A   1      39.479  26.762  27.844  1.00  0.00     0.029 A 
ATOM     34  N   UNL A   1      41.229  26.902  29.226  1.00  0.00    -0.354 N 
ATOM     35  C   UNL A   1      41.527  30.076  32.101  1.00  0.00     0.074 A 
ATOM     36  C   UNL A   1      40.413  30.996  31.986  1.00  0.00     0.031 C 
ATOM     37  C   UNL A   1      40.243  25.675  27.641  1.00  0.00     0.029 A 
ATOM     38  C   UNL A   1      41.418  25.746  28.506  1.00  0.00     0.049 A 
ATOM     39  H   UNL A   1      41.854  27.213  29.920  1.00  0.00     0.167 HD
ATOM     40  C   UNL A   1      42.514  30.179  33.023  1.00  0.00     0.037 A 
ATOM     41  C   UNL A   1      42.430  24.855  28.529  1.00  0.00     0.037 A 
ATOM     42  C   UNL A   1      43.640  29.286  33.125  1.00  0.00     0.049 A 
ATOM     43  C   UNL A   1      43.571  25.057  29.496  1.00  0.00     0.074 A 
ATOM     44  C   UNL A   1      44.713  29.347  33.999  1.00  0.00     0.029 A 
ATOM     45  N   UNL A   1      43.847  28.174  32.322  1.00  0.00    -0.354 N 
ATOM     46  N   UNL A   1      43.728  25.975  30.419  1.00  0.00    -0.248 NA
ATOM     47  C   UNL A   1      44.681  24.093  29.425  1.00  0.00     0.031 C 
ATOM     48  C   UNL A   1      45.595  28.306  33.690  1.00  0.00     0.029 A 
ATOM     49  C   UNL A   1      45.041  27.556  32.665  1.00  0.00     0.049 A 
ATOM     50  H   UNL A   1      43.237  27.868  31.613  1.00  0.00     0.167 HD
ATOM     51  C   UNL A   1      44.934  25.688  31.047  1.00  0.00     0.074 A 
ATOM     52  C   UNL A   1      45.453  24.490  30.425  1.00  0.00     0.031 C 
ATOM     53  C   UNL A   1      45.558  26.363  32.044  1.00  0.00     0.037 A 
BRANCH  40  54
ATOM     54  C   UNL A   1      42.440  31.333  33.978  1.00  0.00     0.064 A 
ATOM     55  C   UNL A   1      41.807  31.217  35.225  1.00  0.00     0.173 A 
ATOM     56  C   UNL A   1      43.035  32.562  33.654  1.00  0.00     0.173 A 
ATOM     57  F   UNL A   1      41.208  30.068  35.575  1.00  0.00    -0.203 F 
ATOM     58  C   UNL A   1      41.755  32.296  36.104  1.00  0.00     0.198 A 
ATOM     59  C   UNL A   1      43.007  33.628  34.547  1.00  0.00     0.198 A 
ATOM     60  F   UNL A   1      43.653  32.722  32.475  1.00  0.00    -0.203 F 
ATOM     61  F   UNL A   1      41.107  32.178  37.270  1.00  0.00    -0.200 F 
ATOM     62  C   UNL A   1      42.362  33.497  35.767  1.00  0.00     0.200 A 
ATOM     63  F   UNL A   1      43.605  34.783  34.226  1.00  0.00    -0.200 F 
ATOM     64  F   UNL A   1      42.318  34.532  36.617  1.00  0.00    -0.200 F 
ENDBRANCH  40  54
BRANCH  41  65
ATOM     65  C   UNL A   1      42.457  23.712  27.571  1.00  0.00     0.064 A 
ATOM     66  C   UNL A   1      42.023  22.430  27.942  1.00  0.00     0.173 A 
ATOM     67  C   UNL A   1      43.004  23.863  26.287  1.00  0.00     0.173 A 
ATOM     68  F   UNL A   1      41.529  22.218  29.171  1.00  0.00    -0.203 F 
ATOM     69  C   UNL A   1      42.169  21.342  27.082  1.00  0.00     0.198 A 
ATOM     70  C   UNL A   1      43.114  22.782  25.415  1.00  0.00     0.198 A 
ATOM     71  F   UNL A   1      43.451  25.061  25.882  1.00  0.00    -0.203 F 
ATOM     72  F   UNL A   1      41.825  20.113  27.495  1.00  0.00    -0.200 F 
ATOM     73  C   UNL A   1      42.711  21.519  25.818  1.00  0.00     0.200 A 
ATOM     74  F   UNL A   1      43.633  22.961  24.192  1.00  0.00    -0.200 F 
ATOM     75  F   UNL A   1      42.867  20.470  24.999  1.00  0.00    -0.200 F 
ENDBRANCH  41  65
BRANCH  53  76
ATOM     76  C   UNL A   1      46.862  25.804  32.544  1.00  0.00     0.064 A 
ATOM     77  C   UNL A   1      46.923  24.931  33.642  1.00  0.00     0.173 A 
ATOM     78  C   UNL A   1      48.071  26.140  31.913  1.00  0.00     0.173 A 
ATOM     79  F   UNL A   1      45.801  24.584  34.292  1.00  0.00    -0.203 F 
ATOM     80  C   UNL A   1      48.143  24.452  34.115  1.00  0.00     0.198 A 
ATOM     81  C   UNL A   1      49.285  25.628  32.364  1.00  0.00     0.198 A 
ATOM     82  F   UNL A   1      48.076  26.961  30.852  1.00  0.00    -0.203 F 
ATOM     83  F   UNL A   1      48.179  23.676  35.207  1.00  0.00    -0.200 F 
ATOM     84  C   UNL A   1      49.323  24.797  33.472  1.00  0.00     0.200 A 
ATOM     85  F   UNL A   1      50.422  25.949  31.730  1.00  0.00    -0.200 F 
ATOM     86  F   UNL A   1      50.494  24.336  33.929  1.00  0.00    -0.200 F 
ENDBRANCH  53  76
ENDBRANCH  27  28
ENDBRANCH  20  22
ENDBRANCH  19  20
ENDBRANCH  18  19
ENDBRANCH   1  18
TORSDOF 15
ENDMDL
MODEL 2
REMARK VINA RESULT:     -10.1      1.388      2.131
REMARK SMILES C[C@@H]([NH2+]CC(C)(C)S(C)(=O)=O)C(=O)OCCOC(=O)c1ccc(-c2c3nc(c(-c4c(F)c(F)c(F)c(F)c4F)c4ccc([nH]4)c(-c4c(F)c(F)c(F)c(F)c4F)c4nc(c(-c5c(F)c(F)c(F)c(F)c5F)c5ccc2[nH]5)C=C4)C=C3)cc1
REMARK SMILES IDX 15 1 14 2 12 3 13 4 2 5 1 6 3 7 4 10 5 11 6 12 7 13 8 14
REMARK SMILES IDX 9 15 10 16 11 17 16 18 17 19 18 20 19 21 20 22 21 23 82 24
REMARK SMILES IDX 22 25 81 26 23 27 24 28 25 29 75 30 26 31 80 32 74 33 76 34
REMARK SMILES IDX 27 35 79 36 73 37 72 38 28 40 60 41 40 42 59 43 41 44 44 45
REMARK SMILES IDX 58 46 77 47 42 48 43 49 57 51 78 52 45 53 29 54 30 55 38 56
REMARK SMILES IDX 31 57 32 58 36 59 39 60 33 61 34 62 37 63 35 64 61 65 62 66
REMARK SMILES IDX 70 67 63 68 64 69 68 70 71 71 65 72 66 73 69 74 67 75 46 76
REMARK SMILES IDX 47 77 55 78 48 79 49 80 53 81 56 82 50 83 51 84 54 85 52 86
REMARK H PARENT 3 8 3 9 76 39 44 50
REMARK Flexibility Score: inf
ROOT
ATOM      1  C   UNL A   1      34.053  34.250  28.551  1.00  0.00     0.274 C 
ENDROOT
BRANCH   1   2
ATOM      2  O   UNL A   1      33.301  34.517  29.751  1.00  0.00    -0.458 OA
BRANCH   2   3
ATOM      3  C   UNL A   1      32.863  35.797  29.858  1.00  0.00     0.364 C 
ATOM      4  O   UNL A   1      32.420  36.432  28.904  1.00  0.00    -0.245 OA
BRANCH   3   5
ATOM      5  C   UNL A   1      32.957  36.400  31.266  1.00  0.00     0.290 C 
ATOM      6  C   UNL A   1      31.941  35.812  32.246  1.00  0.00     0.088 C 
BRANCH   5   7
ATOM      7  N   UNL A   1      34.320  36.316  31.837  1.00  0.00    -0.333 N 
ATOM      8  H   UNL A   1      34.559  37.244  32.189  1.00  0.00     0.347 HD
ATOM      9  H   UNL A   1      34.896  35.971  31.069  1.00  0.00     0.347 HD
BRANCH   7  10
ATOM     10  C   UNL A   1      34.555  35.360  32.930  1.00  0.00     0.283 C 
BRANCH  10  11
ATOM     11  C   UNL A   1      35.504  34.127  32.814  1.00  0.00     0.115 C 
ATOM     12  C   UNL A   1      34.701  32.840  32.557  1.00  0.00     0.034 C 
ATOM     13  C   UNL A   1      36.441  34.373  31.607  1.00  0.00     0.034 C 
BRANCH  11  14
ATOM     14  S   UNL A   1      36.575  33.823  34.260  1.00  0.00     0.158 S 
ATOM     15  C   UNL A   1      37.225  32.167  34.123  1.00  0.00     0.159 C 
ATOM     16  O   UNL A   1      37.673  34.767  34.211  1.00  0.00    -0.228 OA
ATOM     17  O   UNL A   1      35.721  33.816  35.439  1.00  0.00    -0.228 OA
ENDBRANCH  11  14
ENDBRANCH  10  11
ENDBRANCH   7  10
ENDBRANCH   5   7
ENDBRANCH   3   5
ENDBRANCH   2   3
ENDBRANCH   1   2
BRANCH   1  18
ATOM     18  C   UNL A   1      33.783  32.850  27.978  1.00  0.00     0.275 C 
BRANCH  18  19
ATOM     19  O   UNL A   1      34.213  31.775  28.844  1.00  0.00    -0.458 OA
BRANCH  19  20
ATOM     20  C   UNL A   1      34.622  30.651  28.200  1.00  0.00     0.338 C 
ATOM     21  O   UNL A   1      34.023  30.078  27.306  1.00  0.00    -0.246 OA
BRANCH  20  22
ATOM     22  C   UNL A   1      35.999  30.263  28.595  1.00  0.00     0.060 A 
ATOM     23  C   UNL A   1      36.998  30.421  27.632  1.00  0.00     0.016 A 
ATOM     24  C   UNL A   1      36.326  29.718  29.840  1.00  0.00     0.016 A 
ATOM     25  C   UNL A   1      38.323  30.081  27.916  1.00  0.00     0.010 A 
ATOM     26  C   UNL A   1      37.658  29.347  30.115  1.00  0.00     0.010 A 
ATOM     27  C   UNL A   1      38.668  29.536  29.156  1.00  0.00    -0.014 A 
BRANCH  27  28
ATOM     28  C   UNL A   1      40.079  29.108  29.364  1.00  0.00     0.031 A 
ATOM     29  C   UNL A   1      40.983  29.938  30.226  1.00  0.00     0.074 A 
ATOM     30  C   UNL A   1      40.523  27.925  28.899  1.00  0.00     0.049 A 
ATOM     31  N   UNL A   1      42.218  29.711  30.599  1.00  0.00    -0.248 NA
ATOM     32  C   UNL A   1      40.414  31.189  30.750  1.00  0.00     0.031 C 
ATOM     33  C   UNL A   1      39.728  26.985  28.119  1.00  0.00     0.029 A 
ATOM     34  N   UNL A   1      41.738  27.296  29.043  1.00  0.00    -0.354 N 
ATOM     35  C   UNL A   1      42.569  30.777  31.412  1.00  0.00     0.074 A 
ATOM     36  C   UNL A   1      41.427  31.669  31.455  1.00  0.00     0.031 C 
ATOM     37  C   UNL A   1      40.462  25.888  27.867  1.00  0.00     0.029 A 
ATOM     38  C   UNL A   1      41.799  26.066  28.428  1.00  0.00     0.049 A 
ATOM     39  H   UNL A   1      42.493  27.688  29.538  1.00  0.00     0.167 HD
ATOM     40  C   UNL A   1      43.734  30.992  32.069  1.00  0.00     0.037 A 
ATOM     41  C   UNL A   1      42.820  25.192  28.317  1.00  0.00     0.037 A 
ATOM     42  C   UNL A   1      44.884  30.125  32.008  1.00  0.00     0.049 A 
ATOM     43  C   UNL A   1      44.142  25.512  28.971  1.00  0.00     0.074 A 
ATOM     44  C   UNL A   1      46.123  30.294  32.602  1.00  0.00     0.029 A 
ATOM     45  N   UNL A   1      44.943  28.931  31.304  1.00  0.00    -0.354 N 
ATOM     46  N   UNL A   1      44.472  26.530  29.728  1.00  0.00    -0.248 NA
ATOM     47  C   UNL A   1      45.239  24.556  28.753  1.00  0.00     0.031 C 
ATOM     48  C   UNL A   1      46.948  29.232  32.215  1.00  0.00     0.029 A 
ATOM     49  C   UNL A   1      46.203  28.366  31.432  1.00  0.00     0.049 A 
ATOM     50  H   UNL A   1      44.199  28.542  30.791  1.00  0.00     0.167 HD
ATOM     51  C   UNL A   1      45.797  26.326  30.093  1.00  0.00     0.074 A 
ATOM     52  C   UNL A   1      46.203  25.069  29.503  1.00  0.00     0.031 C 
ATOM     53  C   UNL A   1      46.607  27.115  30.842  1.00  0.00     0.037 A 
BRANCH  40  54
ATOM     54  C   UNL A   1      43.839  32.246  32.885  1.00  0.00     0.064 A 
ATOM     55  C   UNL A   1      43.485  32.272  34.242  1.00  0.00     0.173 A 
ATOM     56  C   UNL A   1      44.326  33.429  32.308  1.00  0.00     0.173 A 
ATOM     57  F   UNL A   1      42.997  31.172  34.835  1.00  0.00    -0.203 F 
ATOM     58  C   UNL A   1      43.596  33.443  34.988  1.00  0.00     0.198 A 
ATOM     59  C   UNL A   1      44.464  34.589  33.064  1.00  0.00     0.198 A 
ATOM     60  F   UNL A   1      44.679  33.454  31.015  1.00  0.00    -0.203 F 
ATOM     61  F   UNL A   1      43.211  33.459  36.270  1.00  0.00    -0.200 F 
ATOM     62  C   UNL A   1      44.093  34.598  34.400  1.00  0.00     0.200 A 
ATOM     63  F   UNL A   1      44.956  35.699  32.498  1.00  0.00    -0.200 F 
ATOM     64  F   UNL A   1      44.208  35.721  35.120  1.00  0.00    -0.200 F 
ENDBRANCH  40  54
BRANCH  41  65
ATOM     65  C   UNL A   1      42.668  23.948  27.508  1.00  0.00     0.064 A 
ATOM     66  C   UNL A   1      42.284  22.732  28.092  1.00  0.00     0.173 A 
ATOM     67  C   UNL A   1      42.994  23.935  26.142  1.00  0.00     0.173 A 
ATOM     68  F   UNL A   1      42.000  22.677  29.402  1.00  0.00    -0.203 F 
ATOM     69  C   UNL A   1      42.268  21.549  27.353  1.00  0.00     0.198 A 
ATOM     70  C   UNL A   1      42.941  22.759  25.396  1.00  0.00     0.198 A 
ATOM     71  F   UNL A   1      43.385  25.063  25.532  1.00  0.00    -0.203 F 
ATOM     72  F   UNL A   1      41.980  20.388  27.958  1.00  0.00    -0.200 F 
ATOM     73  C   UNL A   1      42.592  21.564  26.005  1.00  0.00     0.200 A 
ATOM     74  F   UNL A   1      43.250  22.781  24.092  1.00  0.00    -0.200 F 
ATOM     75  F   UNL A   1      42.594  20.425  25.300  1.00  0.00    -0.200 F 
ENDBRANCH  41  65
BRANCH  53  76
ATOM     76  C   UNL A   1      48.008  26.627  31.090  1.00  0.00     0.064 A 
ATOM     77  C   UNL A   1      49.075  26.975  30.246  1.00  0.00     0.173 A 
ATOM     78  C   UNL A   1      48.292  25.805  32.192  1.00  0.00     0.173 A 
ATOM     79  F   UNL A   1      48.860  27.748  29.170  1.00  0.00    -0.203 F 
ATOM     80  C   UNL A   1      50.359  26.483  30.469  1.00  0.00     0.198 A 
ATOM     81  C   UNL A   1      49.586  25.347  32.435  1.00  0.00     0.198 A 
ATOM     82  F   UNL A   1      47.317  25.448  33.041  1.00  0.00    -0.203 F 
ATOM     83  F   UNL A   1      51.345  26.774  29.609  1.00  0.00    -0.200 F 
ATOM     84  C   UNL A   1      50.615  25.675  31.567  1.00  0.00     0.200 A 
ATOM     85  F   UNL A   1      49.834  24.581  33.506  1.00  0.00    -0.200 F 
ATOM     86  F   UNL A   1      51.850  25.203  31.779  1.00  0.00    -0.200 F 
ENDBRANCH  53  76
ENDBRANCH  27  28
ENDBRANCH  20  22
ENDBRANCH  19  20
ENDBRANCH  18  19
ENDBRANCH   1  18
TORSDOF 15
ENDMDL
MODEL 3
REMARK VINA RESULT:     -10.0      6.380     11.785
REMARK SMILES C[C@@H]([NH2+]CC(C)(C)S(C)(=O)=O)C(=O)OCCOC(=O)c1ccc(-c2c3nc(c(-c4c(F)c(F)c(F)c(F)c4F)c4ccc([nH]4)c(-c4c(F)c(F)c(F)c(F)c4F)c4nc(c(-c5c(F)c(F)c(F)c(F)c5F)c5ccc2[nH]5)C=C4)C=C3)cc1
REMARK SMILES IDX 15 1 14 2 12 3 13 4 2 5 1 6 3 7 4 10 5 11 6 12 7 13 8 14
REMARK SMILES IDX 9 15 10 16 11 17 16 18 17 19 18 20 19 21 20 22 21 23 82 24
REMARK SMILES IDX 22 25 81 26 23 27 24 28 25 29 75 30 26 31 80 32 74 33 76 34
REMARK SMILES IDX 27 35 79 36 73 37 72 38 28 40 60 41 40 42 59 43 41 44 44 45
REMARK SMILES IDX 58 46 77 47 42 48 43 49 57 51 78 52 45 53 29 54 30 55 38 56
REMARK SMILES IDX 31 57 32 58 36 59 39 60 33 61 34 62 37 63 35 64 61 65 62 66
REMARK SMILES IDX 70 67 63 68 64 69 68 70 71 71 65 72 66 73 69 74 67 75 46 76
REMARK SMILES IDX 47 77 55 78 48 79 49 80 53 81 56 82 50 83 51 84 54 85 52 86
REMARK H PARENT 3 8 3 9 76 39 44 50
REMARK Flexibility Score: inf
ROOT
ATOM      1  C   UNL A   1      38.012  20.438  25.049  1.00  0.00     0.274 C 
ENDROOT
BRANCH   1   2
ATOM      2  O   UNL A   1      37.049  21.391  25.538  1.00  0.00    -0.458 OA
BRANCH   2   3
ATOM      3  C   UNL A   1      36.137  21.783  24.613  1.00  0.00     0.364 C 
ATOM      4  O   UNL A   1      36.452  22.289  23.539  1.00  0.00    -0.245 OA
BRANCH   3   5
ATOM      5  C   UNL A   1      34.671  21.545  25.004  1.00  0.00     0.290 C 
ATOM      6  C   UNL A   1      33.687  21.832  23.868  1.00  0.00     0.088 C 
BRANCH   5   7
ATOM      7  N   UNL A   1      34.434  20.191  25.551  1.00  0.00    -0.333 N 
ATOM      8  H   UNL A   1      33.502  20.189  25.964  1.00  0.00     0.347 HD
ATOM      9  H   UNL A   1      35.208  20.041  26.200  1.00  0.00     0.347 HD
BRANCH   7  10
ATOM     10  C   UNL A   1      34.505  19.049  24.626  1.00  0.00     0.283 C 
BRANCH  10  11
ATOM     11  C   UNL A   1      33.385  17.972  24.490  1.00  0.00     0.115 C 
ATOM     12  C   UNL A   1      32.503  17.937  25.751  1.00  0.00     0.034 C 
ATOM     13  C   UNL A   1      32.502  18.368  23.282  1.00  0.00     0.034 C 
BRANCH  11  14
ATOM     14  S   UNL A   1      33.967  16.270  24.184  1.00  0.00     0.158 S 
ATOM     15  C   UNL A   1      35.434  16.005  25.166  1.00  0.00     0.159 C 
ATOM     16  O   UNL A   1      32.933  15.356  24.626  1.00  0.00    -0.228 OA
ATOM     17  O   UNL A   1      34.403  16.202  22.797  1.00  0.00    -0.228 OA
ENDBRANCH  11  14
ENDBRANCH  10  11
ENDBRANCH   7  10
ENDBRANCH   5   7
ENDBRANCH   3   5
ENDBRANCH   2   3
ENDBRANCH   1   2
BRANCH   1  18
ATOM     18  C   UNL A   1      39.369  20.544  25.760  1.00  0.00     0.275 C 
BRANCH  18  19
ATOM     19  O   UNL A   1      40.129  19.313  25.751  1.00  0.00    -0.458 OA
BRANCH  19  20
ATOM     20  C   UNL A   1      41.435  19.444  26.100  1.00  0.00     0.338 C 
ATOM     21  O   UNL A   1      42.312  18.616  25.920  1.00  0.00    -0.246 OA
BRANCH  20  22
ATOM     22  C   UNL A   1      41.736  20.810  26.595  1.00  0.00     0.060 A 
ATOM     23  C   UNL A   1      41.902  21.807  25.631  1.00  0.00     0.016 A 
ATOM     24  C   UNL A   1      41.903  21.127  27.946  1.00  0.00     0.016 A 
ATOM     25  C   UNL A   1      42.188  23.121  26.005  1.00  0.00     0.010 A 
ATOM     26  C   UNL A   1      42.223  22.448  28.322  1.00  0.00     0.010 A 
ATOM     27  C   UNL A   1      42.358  23.457  27.352  1.00  0.00    -0.014 A 
BRANCH  27  28
ATOM     28  C   UNL A   1      42.753  24.854  27.681  1.00  0.00     0.031 A 
ATOM     29  C   UNL A   1      44.127  25.337  27.322  1.00  0.00     0.074 A 
ATOM     30  C   UNL A   1      41.860  25.731  28.177  1.00  0.00     0.049 A 
ATOM     31  N   UNL A   1      44.650  26.532  27.447  1.00  0.00    -0.248 NA
ATOM     32  C   UNL A   1      45.032  24.342  26.728  1.00  0.00     0.031 C 
ATOM     33  C   UNL A   1      40.473  25.419  28.495  1.00  0.00     0.029 A 
ATOM     34  N   UNL A   1      41.976  27.071  28.470  1.00  0.00    -0.354 N 
ATOM     35  C   UNL A   1      45.935  26.438  26.936  1.00  0.00     0.074 A 
ATOM     36  C   UNL A   1      46.125  25.061  26.524  1.00  0.00     0.031 C 
ATOM     37  C   UNL A   1      39.855  26.533  28.919  1.00  0.00     0.029 A 
ATOM     38  C   UNL A   1      40.815  27.633  28.949  1.00  0.00     0.049 A 
ATOM     39  H   UNL A   1      42.811  27.579  28.350  1.00  0.00     0.167 HD
ATOM     40  C   UNL A   1      46.869  27.410  26.814  1.00  0.00     0.037 A 
ATOM     41  C   UNL A   1      40.561  28.887  29.377  1.00  0.00     0.037 A 
ATOM     42  C   UNL A   1      46.698  28.774  27.248  1.00  0.00     0.049 A 
ATOM     43  C   UNL A   1      41.657  29.922  29.328  1.00  0.00     0.074 A 
ATOM     44  C   UNL A   1      47.614  29.812  27.207  1.00  0.00     0.029 A 
ATOM     45  N   UNL A   1      45.539  29.290  27.809  1.00  0.00    -0.354 N 
ATOM     46  N   UNL A   1      42.876  29.823  28.855  1.00  0.00    -0.248 NA
ATOM     47  C   UNL A   1      41.341  31.250  29.876  1.00  0.00     0.031 C 
ATOM     48  C   UNL A   1      47.028  30.941  27.794  1.00  0.00     0.029 A 
ATOM     49  C   UNL A   1      45.726  30.624  28.141  1.00  0.00     0.049 A 
ATOM     50  H   UNL A   1      44.708  28.783  27.951  1.00  0.00     0.167 HD
ATOM     51  C   UNL A   1      43.459  31.072  29.026  1.00  0.00     0.074 A 
ATOM     52  C   UNL A   1      42.452  31.925  29.616  1.00  0.00     0.031 C 
ATOM     53  C   UNL A   1      44.721  31.473  28.729  1.00  0.00     0.037 A 
BRANCH  40  54
ATOM     54  C   UNL A   1      48.189  27.020  26.219  1.00  0.00     0.064 A 
ATOM     55  C   UNL A   1      48.436  27.126  24.842  1.00  0.00     0.173 A 
ATOM     56  C   UNL A   1      49.230  26.560  27.040  1.00  0.00     0.173 A 
ATOM     57  F   UNL A   1      47.468  27.543  24.011  1.00  0.00    -0.203 F 
ATOM     58  C   UNL A   1      49.671  26.767  24.306  1.00  0.00     0.198 A 
ATOM     59  C   UNL A   1      50.471  26.231  26.506  1.00  0.00     0.198 A 
ATOM     60  F   UNL A   1      49.044  26.442  28.363  1.00  0.00    -0.203 F 
ATOM     61  F   UNL A   1      49.871  26.834  22.984  1.00  0.00    -0.200 F 
ATOM     62  C   UNL A   1      50.689  26.328  25.140  1.00  0.00     0.200 A 
ATOM     63  F   UNL A   1      51.458  25.820  27.313  1.00  0.00    -0.200 F 
ATOM     64  F   UNL A   1      51.879  25.991  24.625  1.00  0.00    -0.200 F 
ENDBRANCH  40  54
BRANCH  41  65
ATOM     65  C   UNL A   1      39.228  29.237  29.948  1.00  0.00     0.064 A 
ATOM     66  C   UNL A   1      38.232  29.848  29.172  1.00  0.00     0.173 A 
ATOM     67  C   UNL A   1      38.958  29.045  31.312  1.00  0.00     0.173 A 
ATOM     68  F   UNL A   1      38.450  30.093  27.871  1.00  0.00    -0.203 F 
ATOM     69  C   UNL A   1      37.038  30.287  29.744  1.00  0.00     0.198 A 
ATOM     70  C   UNL A   1      37.749  29.449  31.875  1.00  0.00     0.198 A 
ATOM     71  F   UNL A   1      39.878  28.481  32.108  1.00  0.00    -0.203 F 
ATOM     72  F   UNL A   1      36.140  30.945  28.997  1.00  0.00    -0.200 F 
ATOM     73  C   UNL A   1      36.795  30.083  31.094  1.00  0.00     0.200 A 
ATOM     74  F   UNL A   1      37.518  29.245  33.180  1.00  0.00    -0.200 F 
ATOM     75  F   UNL A   1      35.656  30.520  31.647  1.00  0.00    -0.200 F 
ENDBRANCH  41  65
BRANCH  53  76
ATOM     76  C   UNL A   1      45.074  32.908  29.013  1.00  0.00     0.064 A 
ATOM     77  C   UNL A   1      44.835  33.928  28.079  1.00  0.00     0.173 A 
ATOM     78  C   UNL A   1      45.652  33.270  30.240  1.00  0.00     0.173 A 
ATOM     79  F   UNL A   1      44.296  33.639  26.885  1.00  0.00    -0.203 F 
ATOM     80  C   UNL A   1      45.203  35.246  28.344  1.00  0.00     0.198 A 
ATOM     81  C   UNL A   1      45.982  34.595  30.517  1.00  0.00     0.198 A 
ATOM     82  F   UNL A   1      45.893  32.340  31.177  1.00  0.00    -0.203 F 
ATOM     83  F   UNL A   1      45.028  36.190  27.408  1.00  0.00    -0.200 F 
ATOM     84  C   UNL A   1      45.770  35.579  29.565  1.00  0.00     0.200 A 
ATOM     85  F   UNL A   1      46.514  34.917  31.704  1.00  0.00    -0.200 F 
ATOM     86  F   UNL A   1      46.123  36.846  29.817  1.00  0.00    -0.200 F 
ENDBRANCH  53  76
ENDBRANCH  27  28
ENDBRANCH  20  22
ENDBRANCH  19  20
ENDBRANCH  18  19
ENDBRANCH   1  18
TORSDOF 15
ENDMDL
