MODEL 1
REMARK VINA RESULT:     -11.8      0.000      0.000
REMARK SMILES CC[NH2+][C@@]1(C(=O)OCCOC(=O)c2ccc(-c3c4nc(c(-c5c(F)c(F)c(F)c(F)c5F)c5ccc([nH]5)c(-c5c(F)c(F)c(F)c(F)c5F)c5nc(c(-c6c(F)c(F)c(F)c(F)c6F)c6ccc3[nH]6)C=C5)C=C4)cc2)CC[C@@H]([NH+]2CC[NH+](C(C)C)CC2)C1
REMARK SMILES IDX 8 1 7 2 5 3 6 4 4 5 76 6 88 7 77 8 78 9 3 10 2 13 1 14 79 15
REMARK SMILES IDX 80 16 87 17 81 19 86 20 82 21 83 23 84 24 85 25 9 26 10 27
REMARK SMILES IDX 11 28 12 29 13 30 14 31 75 32 15 33 74 34 16 35 17 36 18 37
REMARK SMILES IDX 68 38 19 39 73 40 67 41 69 42 20 43 72 44 66 45 65 46 21 48
REMARK SMILES IDX 53 49 33 50 52 51 34 52 37 53 51 54 70 55 35 56 36 57 50 59
REMARK SMILES IDX 71 60 38 61 22 62 23 63 31 64 24 65 25 66 29 67 32 68 26 69
REMARK SMILES IDX 27 70 30 71 28 72 54 73 55 74 63 75 56 76 57 77 61 78 64 79
REMARK SMILES IDX 58 80 59 81 62 82 60 83 39 84 40 85 48 86 41 87 42 88 46 89
REMARK SMILES IDX 49 90 43 91 44 92 47 93 45 94
REMARK H PARENT 3 11 3 12 79 18 82 22 69 47 37 58
REMARK Flexibility Score: inf
ROOT
ATOM      1  C   UNL A   1      31.092  29.607  24.566  1.00  0.00     0.274 C 
ENDROOT
BRANCH   1   2
ATOM      2  O   UNL A   1      31.752  28.602  23.771  1.00  0.00    -0.457 OA
BRANCH   2   3
ATOM      3  C   UNL A   1      30.956  27.805  23.000  1.00  0.00     0.368 C 
ATOM      4  O   UNL A   1      30.165  28.232  22.165  1.00  0.00    -0.245 OA
BRANCH   3   5
ATOM      5  C   UNL A   1      31.170  26.287  23.326  1.00  0.00     0.200 C 
ATOM      6  C   UNL A   1      29.969  25.804  24.151  1.00  0.00     0.087 C 
ATOM      7  C   UNL A   1      32.392  26.072  24.247  1.00  0.00     0.146 C 
ATOM      8  C   UNL A   1      30.344  26.124  25.590  1.00  0.00     0.072 C 
ATOM      9  C   UNL A   1      31.865  25.905  25.682  1.00  0.00     0.191 C 
BRANCH   5  10
ATOM     10  N   UNL A   1      31.425  25.597  22.035  1.00  0.00    -0.332 N 
ATOM     11  H   UNL A   1      31.275  24.600  22.189  1.00  0.00     0.347 HD
ATOM     12  H   UNL A   1      30.788  26.046  21.377  1.00  0.00     0.347 HD
BRANCH  10  13
ATOM     13  C   UNL A   1      32.736  25.746  21.427  1.00  0.00     0.257 C 
ATOM     14  C   UNL A   1      32.648  25.391  19.948  1.00  0.00     0.071 C 
ENDBRANCH  10  13
ENDBRANCH   5  10
BRANCH   9  15
ATOM     15  N   UNL A   1      32.233  24.677  26.404  1.00  0.00    -0.323 N 
ATOM     16  C   UNL A   1      31.248  23.593  26.494  1.00  0.00     0.324 C 
ATOM     17  C   UNL A   1      33.541  24.122  26.019  1.00  0.00     0.324 C 
ATOM     18  H   UNL A   1      32.278  25.062  27.347  1.00  0.00     0.348 HD
ATOM     19  C   UNL A   1      31.199  22.586  25.320  1.00  0.00     0.324 C 
ATOM     20  C   UNL A   1      33.542  23.145  24.821  1.00  0.00     0.324 C 
ATOM     21  N   UNL A   1      32.488  22.115  24.795  1.00  0.00    -0.324 N 
ATOM     22  H   UNL A   1      32.285  21.947  23.810  1.00  0.00     0.348 HD
BRANCH  21  23
ATOM     23  C   UNL A   1      32.934  20.787  25.240  1.00  0.00     0.178 C 
ATOM     24  C   UNL A   1      32.526  19.626  24.332  1.00  0.00     0.075 C 
ATOM     25  C   UNL A   1      34.452  20.777  25.469  1.00  0.00     0.075 C 
ENDBRANCH  21  23
ENDBRANCH   9  15
ENDBRANCH   3   5
ENDBRANCH   2   3
ENDBRANCH   1   2
BRANCH   1  26
ATOM     26  C   UNL A   1      31.687  29.597  25.973  1.00  0.00     0.275 C 
BRANCH  26  27
ATOM     27  O   UNL A   1      32.980  30.227  25.936  1.00  0.00    -0.458 OA
BRANCH  27  28
ATOM     28  C   UNL A   1      33.214  31.174  26.868  1.00  0.00     0.338 C 
ATOM     29  O   UNL A   1      32.498  32.114  27.179  1.00  0.00    -0.246 OA
BRANCH  28  30
ATOM     30  C   UNL A   1      34.520  30.915  27.495  1.00  0.00     0.060 A 
ATOM     31  C   UNL A   1      34.859  29.616  27.863  1.00  0.00     0.016 A 
ATOM     32  C   UNL A   1      35.372  31.975  27.800  1.00  0.00     0.016 A 
ATOM     33  C   UNL A   1      36.013  29.376  28.605  1.00  0.00     0.010 A 
ATOM     34  C   UNL A   1      36.577  31.719  28.464  1.00  0.00     0.010 A 
ATOM     35  C   UNL A   1      36.897  30.421  28.902  1.00  0.00    -0.014 A 
BRANCH  35  36
ATOM     36  C   UNL A   1      38.126  30.170  29.705  1.00  0.00     0.031 A 
ATOM     37  C   UNL A   1      39.237  29.335  29.131  1.00  0.00     0.074 A 
ATOM     38  C   UNL A   1      38.265  30.695  30.938  1.00  0.00     0.049 A 
ATOM     39  N   UNL A   1      40.282  28.818  29.726  1.00  0.00    -0.248 NA
ATOM     40  C   UNL A   1      39.155  29.035  27.692  1.00  0.00     0.031 C 
ATOM     41  C   UNL A   1      37.308  31.582  31.599  1.00  0.00     0.029 A 
ATOM     42  N   UNL A   1      39.277  30.557  31.859  1.00  0.00    -0.354 N 
ATOM     43  C   UNL A   1      40.944  28.082  28.752  1.00  0.00     0.074 A 
ATOM     44  C   UNL A   1      40.192  28.227  27.524  1.00  0.00     0.031 C 
ATOM     45  C   UNL A   1      37.789  31.934  32.801  1.00  0.00     0.029 A 
ATOM     46  C   UNL A   1      39.046  31.230  33.034  1.00  0.00     0.049 A 
ATOM     47  H   UNL A   1      40.090  30.027  31.691  1.00  0.00     0.167 HD
ATOM     48  C   UNL A   1      42.074  27.343  28.878  1.00  0.00     0.037 A 
ATOM     49  C   UNL A   1      39.742  31.244  34.187  1.00  0.00     0.037 A 
ATOM     50  C   UNL A   1      42.852  27.246  30.085  1.00  0.00     0.049 A 
ATOM     51  C   UNL A   1      40.978  30.398  34.312  1.00  0.00     0.074 A 
ATOM     52  C   UNL A   1      44.003  26.512  30.316  1.00  0.00     0.029 A 
ATOM     53  N   UNL A   1      42.569  27.926  31.259  1.00  0.00    -0.354 N 
ATOM     54  N   UNL A   1      41.547  29.628  33.416  1.00  0.00    -0.248 NA
ATOM     55  C   UNL A   1      41.655  30.402  35.617  1.00  0.00     0.031 C 
ATOM     56  C   UNL A   1      44.405  26.732  31.638  1.00  0.00     0.029 A 
ATOM     57  C   UNL A   1      43.522  27.629  32.220  1.00  0.00     0.049 A 
ATOM     58  H   UNL A   1      41.804  28.532  31.391  1.00  0.00     0.167 HD
ATOM     59  C   UNL A   1      42.648  29.063  34.044  1.00  0.00     0.074 A 
ATOM     60  C   UNL A   1      42.681  29.593  35.391  1.00  0.00     0.031 C 
ATOM     61  C   UNL A   1      43.545  28.175  33.551  1.00  0.00     0.037 A 
BRANCH  48  62
ATOM     62  C   UNL A   1      42.511  26.545  27.687  1.00  0.00     0.064 A 
ATOM     63  C   UNL A   1      43.469  27.024  26.783  1.00  0.00     0.173 A 
ATOM     64  C   UNL A   1      41.981  25.264  27.468  1.00  0.00     0.173 A 
ATOM     65  F   UNL A   1      43.992  28.249  26.942  1.00  0.00    -0.203 F 
ATOM     66  C   UNL A   1      43.863  26.259  25.688  1.00  0.00     0.198 A 
ATOM     67  C   UNL A   1      42.395  24.492  26.386  1.00  0.00     0.198 A 
ATOM     68  F   UNL A   1      41.064  24.758  28.308  1.00  0.00    -0.203 F 
ATOM     69  F   UNL A   1      44.750  26.752  24.813  1.00  0.00    -0.200 F 
ATOM     70  C   UNL A   1      43.331  24.992  25.494  1.00  0.00     0.200 A 
ATOM     71  F   UNL A   1      41.886  23.265  26.205  1.00  0.00    -0.200 F 
ATOM     72  F   UNL A   1      43.715  24.257  24.442  1.00  0.00    -0.200 F 
ENDBRANCH  48  62
BRANCH  49  73
ATOM     73  C   UNL A   1      39.256  32.054  35.334  1.00  0.00     0.064 A 
ATOM     74  C   UNL A   1      38.451  31.482  36.329  1.00  0.00     0.173 A 
ATOM     75  C   UNL A   1      39.585  33.411  35.460  1.00  0.00     0.173 A 
ATOM     76  F   UNL A   1      38.085  30.195  36.236  1.00  0.00    -0.203 F 
ATOM     77  C   UNL A   1      37.992  32.239  37.405  1.00  0.00     0.198 A 
ATOM     78  C   UNL A   1      39.148  34.160  36.550  1.00  0.00     0.198 A 
ATOM     79  F   UNL A   1      40.347  34.006  34.530  1.00  0.00    -0.203 F 
ATOM     80  F   UNL A   1      37.194  31.678  38.324  1.00  0.00    -0.200 F 
ATOM     81  C   UNL A   1      38.348  33.575  37.519  1.00  0.00     0.200 A 
ATOM     82  F   UNL A   1      39.503  35.447  36.661  1.00  0.00    -0.200 F 
ATOM     83  F   UNL A   1      37.912  34.300  38.557  1.00  0.00    -0.200 F 
ENDBRANCH  49  73
BRANCH  61  84
ATOM     84  C   UNL A   1      44.651  27.743  34.463  1.00  0.00     0.064 A 
ATOM     85  C   UNL A   1      45.855  28.456  34.540  1.00  0.00     0.173 A 
ATOM     86  C   UNL A   1      44.488  26.627  35.297  1.00  0.00     0.173 A 
ATOM     87  F   UNL A   1      46.061  29.520  33.750  1.00  0.00    -0.203 F 
ATOM     88  C   UNL A   1      46.866  28.056  35.410  1.00  0.00     0.198 A 
ATOM     89  C   UNL A   1      45.493  26.243  36.180  1.00  0.00     0.198 A 
ATOM     90  F   UNL A   1      43.352  25.915  35.261  1.00  0.00    -0.203 F 
ATOM     91  F   UNL A   1      48.023  28.731  35.444  1.00  0.00    -0.200 F 
ATOM     92  C   UNL A   1      46.682  26.954  36.232  1.00  0.00     0.200 A 
ATOM     93  F   UNL A   1      45.312  25.182  36.978  1.00  0.00    -0.200 F 
ATOM     94  F   UNL A   1      47.655  26.573  37.072  1.00  0.00    -0.200 F 
ENDBRANCH  61  84
ENDBRANCH  35  36
ENDBRANCH  28  30
ENDBRANCH  27  28
ENDBRANCH  26  27
ENDBRANCH   1  26
TORSDOF 15
ENDMDL
MODEL 2
REMARK VINA RESULT:     -11.6      1.017      2.062
REMARK SMILES CC[NH2+][C@@]1(C(=O)OCCOC(=O)c2ccc(-c3c4nc(c(-c5c(F)c(F)c(F)c(F)c5F)c5ccc([nH]5)c(-c5c(F)c(F)c(F)c(F)c5F)c5nc(c(-c6c(F)c(F)c(F)c(F)c6F)c6ccc3[nH]6)C=C5)C=C4)cc2)CC[C@@H]([NH+]2CC[NH+](C(C)C)CC2)C1
REMARK SMILES IDX 8 1 7 2 5 3 6 4 4 5 76 6 88 7 77 8 78 9 3 10 2 13 1 14 79 15
REMARK SMILES IDX 80 16 87 17 81 19 86 20 82 21 83 23 84 24 85 25 9 26 10 27
REMARK SMILES IDX 11 28 12 29 13 30 14 31 75 32 15 33 74 34 16 35 17 36 18 37
REMARK SMILES IDX 68 38 19 39 73 40 67 41 69 42 20 43 72 44 66 45 65 46 21 48
REMARK SMILES IDX 53 49 33 50 52 51 34 52 37 53 51 54 70 55 35 56 36 57 50 59
REMARK SMILES IDX 71 60 38 61 22 62 23 63 31 64 24 65 25 66 29 67 32 68 26 69
REMARK SMILES IDX 27 70 30 71 28 72 54 73 55 74 63 75 56 76 57 77 61 78 64 79
REMARK SMILES IDX 58 80 59 81 62 82 60 83 39 84 40 85 48 86 41 87 42 88 46 89
REMARK SMILES IDX 49 90 43 91 44 92 47 93 45 94
REMARK H PARENT 3 11 3 12 79 18 82 22 69 47 37 58
REMARK Flexibility Score: inf
ROOT
ATOM      1  C   UNL A   1      31.889  28.137  26.650  1.00  0.00     0.274 C 
ENDROOT
BRANCH   1   2
ATOM      2  O   UNL A   1      31.114  27.177  25.906  1.00  0.00    -0.457 OA
BRANCH   2   3
ATOM      3  C   UNL A   1      31.452  25.864  26.054  1.00  0.00     0.368 C 
ATOM      4  O   UNL A   1      31.407  25.262  27.123  1.00  0.00    -0.245 OA
BRANCH   3   5
ATOM      5  C   UNL A   1      31.915  25.230  24.698  1.00  0.00     0.200 C 
ATOM      6  C   UNL A   1      30.847  24.219  24.257  1.00  0.00     0.087 C 
ATOM      7  C   UNL A   1      33.201  24.393  24.873  1.00  0.00     0.146 C 
ATOM      8  C   UNL A   1      31.242  22.924  24.950  1.00  0.00     0.072 C 
ATOM      9  C   UNL A   1      32.782  22.916  24.972  1.00  0.00     0.191 C 
BRANCH   5  10
ATOM     10  N   UNL A   1      32.206  26.353  23.770  1.00  0.00    -0.332 N 
ATOM     11  H   UNL A   1      32.096  27.219  24.298  1.00  0.00     0.347 HD
ATOM     12  H   UNL A   1      33.146  26.160  23.424  1.00  0.00     0.347 HD
BRANCH  10  13
ATOM     13  C   UNL A   1      31.399  26.476  22.569  1.00  0.00     0.257 C 
ATOM     14  C   UNL A   1      30.724  27.842  22.553  1.00  0.00     0.071 C 
ENDBRANCH  10  13
ENDBRANCH   5  10
BRANCH   9  15
ATOM     15  N   UNL A   1      33.372  21.975  24.008  1.00  0.00    -0.323 N 
ATOM     16  C   UNL A   1      34.727  21.470  24.257  1.00  0.00     0.324 C 
ATOM     17  C   UNL A   1      32.489  20.855  23.643  1.00  0.00     0.324 C 
ATOM     18  H   UNL A   1      33.477  22.612  23.218  1.00  0.00     0.348 HD
ATOM     19  C   UNL A   1      34.858  20.224  25.166  1.00  0.00     0.324 C 
ATOM     20  C   UNL A   1      32.558  19.608  24.552  1.00  0.00     0.324 C 
ATOM     21  N   UNL A   1      33.897  19.135  24.943  1.00  0.00    -0.324 N 
ATOM     22  H   UNL A   1      33.792  18.730  25.873  1.00  0.00     0.348 HD
BRANCH  21  23
ATOM     23  C   UNL A   1      34.379  17.983  24.168  1.00  0.00     0.178 C 
ATOM     24  C   UNL A   1      34.946  16.830  24.998  1.00  0.00     0.075 C 
ATOM     25  C   UNL A   1      33.280  17.470  23.225  1.00  0.00     0.075 C 
ENDBRANCH  21  23
ENDBRANCH   9  15
ENDBRANCH   3   5
ENDBRANCH   2   3
ENDBRANCH   1   2
BRANCH   1  26
ATOM     26  C   UNL A   1      31.774  29.501  25.973  1.00  0.00     0.275 C 
BRANCH  26  27
ATOM     27  O   UNL A   1      33.066  30.136  25.982  1.00  0.00    -0.458 OA
BRANCH  27  28
ATOM     28  C   UNL A   1      33.267  31.075  26.931  1.00  0.00     0.338 C 
ATOM     29  O   UNL A   1      32.530  31.997  27.241  1.00  0.00    -0.246 OA
BRANCH  28  30
ATOM     30  C   UNL A   1      34.567  30.830  27.576  1.00  0.00     0.060 A 
ATOM     31  C   UNL A   1      34.969  29.523  27.837  1.00  0.00     0.016 A 
ATOM     32  C   UNL A   1      35.348  31.902  28.005  1.00  0.00     0.016 A 
ATOM     33  C   UNL A   1      36.113  29.279  28.593  1.00  0.00     0.010 A 
ATOM     34  C   UNL A   1      36.545  31.653  28.685  1.00  0.00     0.010 A 
ATOM     35  C   UNL A   1      36.925  30.338  29.015  1.00  0.00    -0.014 A 
BRANCH  35  36
ATOM     36  C   UNL A   1      38.142  30.082  29.834  1.00  0.00     0.031 A 
ATOM     37  C   UNL A   1      39.261  29.248  29.271  1.00  0.00     0.074 A 
ATOM     38  C   UNL A   1      38.265  30.600  31.072  1.00  0.00     0.049 A 
ATOM     39  N   UNL A   1      40.296  28.727  29.879  1.00  0.00    -0.248 NA
ATOM     40  C   UNL A   1      39.199  28.956  27.830  1.00  0.00     0.031 C 
ATOM     41  C   UNL A   1      37.299  31.486  31.723  1.00  0.00     0.029 A 
ATOM     42  N   UNL A   1      39.263  30.457  32.006  1.00  0.00    -0.354 N 
ATOM     43  C   UNL A   1      40.972  27.995  28.911  1.00  0.00     0.074 A 
ATOM     44  C   UNL A   1      40.238  28.148  27.672  1.00  0.00     0.031 C 
ATOM     45  C   UNL A   1      37.763  31.830  32.934  1.00  0.00     0.029 A 
ATOM     46  C   UNL A   1      39.016  31.123  33.181  1.00  0.00     0.049 A 
ATOM     47  H   UNL A   1      40.077  29.926  31.847  1.00  0.00     0.167 HD
ATOM     48  C   UNL A   1      42.098  27.254  29.049  1.00  0.00     0.037 A 
ATOM     49  C   UNL A   1      39.695  31.130  34.344  1.00  0.00     0.037 A 
ATOM     50  C   UNL A   1      42.859  27.149  30.266  1.00  0.00     0.049 A 
ATOM     51  C   UNL A   1      40.929  30.282  34.482  1.00  0.00     0.074 A 
ATOM     52  C   UNL A   1      44.005  26.413  30.510  1.00  0.00     0.029 A 
ATOM     53  N   UNL A   1      42.560  27.824  31.440  1.00  0.00    -0.354 N 
ATOM     54  N   UNL A   1      41.509  29.516  33.591  1.00  0.00    -0.248 NA
ATOM     55  C   UNL A   1      41.587  30.279  35.797  1.00  0.00     0.031 C 
ATOM     56  C   UNL A   1      44.388  26.626  31.839  1.00  0.00     0.029 A 
ATOM     57  C   UNL A   1      43.499  27.521  32.412  1.00  0.00     0.049 A 
ATOM     58  H   UNL A   1      41.794  28.430  31.564  1.00  0.00     0.167 HD
ATOM     59  C   UNL A   1      42.600  28.947  34.231  1.00  0.00     0.074 A 
ATOM     60  C   UNL A   1      42.615  29.470  35.581  1.00  0.00     0.031 C 
ATOM     61  C   UNL A   1      43.503  28.059  33.746  1.00  0.00     0.037 A 
BRANCH  48  62
ATOM     62  C   UNL A   1      42.552  26.461  27.860  1.00  0.00     0.064 A 
ATOM     63  C   UNL A   1      43.510  26.952  26.963  1.00  0.00     0.173 A 
ATOM     64  C   UNL A   1      42.037  25.175  27.636  1.00  0.00     0.173 A 
ATOM     65  F   UNL A   1      44.020  28.182  27.125  1.00  0.00    -0.203 F 
ATOM     66  C   UNL A   1      43.919  26.192  25.870  1.00  0.00     0.198 A 
ATOM     67  C   UNL A   1      42.465  24.408  26.557  1.00  0.00     0.198 A 
ATOM     68  F   UNL A   1      41.120  24.659  28.470  1.00  0.00    -0.203 F 
ATOM     69  F   UNL A   1      44.806  26.694  25.000  1.00  0.00    -0.200 F 
ATOM     70  C   UNL A   1      43.402  24.919  25.671  1.00  0.00     0.200 A 
ATOM     71  F   UNL A   1      41.971  23.177  26.372  1.00  0.00    -0.200 F 
ATOM     72  F   UNL A   1      43.801  24.189  24.621  1.00  0.00    -0.200 F 
ENDBRANCH  48  62
BRANCH  49  73
ATOM     73  C   UNL A   1      39.194  31.935  35.488  1.00  0.00     0.064 A 
ATOM     74  C   UNL A   1      39.541  33.286  35.624  1.00  0.00     0.173 A 
ATOM     75  C   UNL A   1      38.359  31.373  36.464  1.00  0.00     0.173 A 
ATOM     76  F   UNL A   1      40.362  33.859  34.732  1.00  0.00    -0.203 F 
ATOM     77  C   UNL A   1      39.074  34.043  36.697  1.00  0.00     0.198 A 
ATOM     78  C   UNL A   1      37.871  32.137  37.521  1.00  0.00     0.198 A 
ATOM     79  F   UNL A   1      38.003  30.082  36.382  1.00  0.00    -0.203 F 
ATOM     80  F   UNL A   1      39.450  35.323  36.825  1.00  0.00    -0.200 F 
ATOM     81  C   UNL A   1      38.232  33.470  37.640  1.00  0.00     0.200 A 
ATOM     82  F   UNL A   1      37.050  31.583  38.424  1.00  0.00    -0.200 F 
ATOM     83  F   UNL A   1      37.778  34.201  38.667  1.00  0.00    -0.200 F 
ENDBRANCH  49  73
BRANCH  61  84
ATOM     84  C   UNL A   1      44.595  27.621  34.673  1.00  0.00     0.064 A 
ATOM     85  C   UNL A   1      45.795  28.338  34.779  1.00  0.00     0.173 A 
ATOM     86  C   UNL A   1      44.424  26.495  35.490  1.00  0.00     0.173 A 
ATOM     87  F   UNL A   1      46.010  29.413  34.005  1.00  0.00    -0.203 F 
ATOM     88  C   UNL A   1      46.792  27.933  35.661  1.00  0.00     0.198 A 
ATOM     89  C   UNL A   1      45.415  26.104  36.385  1.00  0.00     0.198 A 
ATOM     90  F   UNL A   1      43.291  25.778  35.425  1.00  0.00    -0.203 F 
ATOM     91  F   UNL A   1      47.946  28.613  35.723  1.00  0.00    -0.200 F 
ATOM     92  C   UNL A   1      46.600  26.821  36.466  1.00  0.00     0.200 A 
ATOM     93  F   UNL A   1      45.225  25.033  37.168  1.00  0.00    -0.200 F 
ATOM     94  F   UNL A   1      47.560  26.434  37.318  1.00  0.00    -0.200 F 
ENDBRANCH  61  84
ENDBRANCH  35  36
ENDBRANCH  28  30
ENDBRANCH  27  28
ENDBRANCH  26  27
ENDBRANCH   1  26
TORSDOF 15
ENDMDL
MODEL 3
REMARK VINA RESULT:     -11.5      0.406      2.005
REMARK SMILES CC[NH2+][C@@]1(C(=O)OCCOC(=O)c2ccc(-c3c4nc(c(-c5c(F)c(F)c(F)c(F)c5F)c5ccc([nH]5)c(-c5c(F)c(F)c(F)c(F)c5F)c5nc(c(-c6c(F)c(F)c(F)c(F)c6F)c6ccc3[nH]6)C=C5)C=C4)cc2)CC[C@@H]([NH+]2CC[NH+](C(C)C)CC2)C1
REMARK SMILES IDX 8 1 7 2 5 3 6 4 4 5 76 6 88 7 77 8 78 9 3 10 2 13 1 14 79 15
REMARK SMILES IDX 80 16 87 17 81 19 86 20 82 21 83 23 84 24 85 25 9 26 10 27
REMARK SMILES IDX 11 28 12 29 13 30 14 31 75 32 15 33 74 34 16 35 17 36 18 37
REMARK SMILES IDX 68 38 19 39 73 40 67 41 69 42 20 43 72 44 66 45 65 46 21 48
REMARK SMILES IDX 53 49 33 50 52 51 34 52 37 53 51 54 70 55 35 56 36 57 50 59
REMARK SMILES IDX 71 60 38 61 22 62 23 63 31 64 24 65 25 66 29 67 32 68 26 69
REMARK SMILES IDX 27 70 30 71 28 72 54 73 55 74 63 75 56 76 57 77 61 78 64 79
REMARK SMILES IDX 58 80 59 81 62 82 60 83 39 84 40 85 48 86 41 87 42 88 46 89
REMARK SMILES IDX 49 90 43 91 44 92 47 93 45 94
REMARK H PARENT 3 11 3 12 79 18 82 22 69 47 37 58
REMARK Flexibility Score: inf
ROOT
ATOM      1  C   UNL A   1      31.068  29.830  24.671  1.00  0.00     0.274 C 
ENDROOT
BRANCH   1   2
ATOM      2  O   UNL A   1      31.471  28.699  23.873  1.00  0.00    -0.457 OA
BRANCH   2   3
ATOM      3  C   UNL A   1      30.504  27.787  23.565  1.00  0.00     0.368 C 
ATOM      4  O   UNL A   1      29.375  28.087  23.191  1.00  0.00    -0.245 OA
BRANCH   3   5
ATOM      5  C   UNL A   1      31.013  26.318  23.761  1.00  0.00     0.200 C 
ATOM      6  C   UNL A   1      29.837  25.471  24.265  1.00  0.00     0.087 C 
ATOM      7  C   UNL A   1      32.071  26.230  24.883  1.00  0.00     0.146 C 
ATOM      8  C   UNL A   1      29.868  25.640  25.777  1.00  0.00     0.072 C 
ATOM      9  C   UNL A   1      31.357  25.738  26.154  1.00  0.00     0.191 C 
BRANCH   5  10
ATOM     10  N   UNL A   1      31.646  25.903  22.482  1.00  0.00    -0.332 N 
ATOM     11  H   UNL A   1      31.279  24.980  22.248  1.00  0.00     0.347 HD
ATOM     12  H   UNL A   1      31.415  26.652  21.830  1.00  0.00     0.347 HD
BRANCH  10  13
ATOM     13  C   UNL A   1      33.095  25.815  22.433  1.00  0.00     0.257 C 
ATOM     14  C   UNL A   1      33.657  27.099  21.834  1.00  0.00     0.071 C 
ENDBRANCH  10  13
ENDBRANCH   5  10
BRANCH   9  15
ATOM     15  N   UNL A   1      31.875  24.521  26.798  1.00  0.00    -0.323 N 
ATOM     16  C   UNL A   1      31.034  23.319  26.809  1.00  0.00     0.324 C 
ATOM     17  C   UNL A   1      33.242  24.160  26.390  1.00  0.00     0.324 C 
ATOM     18  H   UNL A   1      31.870  24.846  27.765  1.00  0.00     0.348 HD
ATOM     19  C   UNL A   1      31.113  22.392  25.571  1.00  0.00     0.324 C 
ATOM     20  C   UNL A   1      33.367  23.271  25.132  1.00  0.00     0.324 C 
ATOM     21  N   UNL A   1      32.452  22.122  25.029  1.00  0.00    -0.324 N 
ATOM     22  H   UNL A   1      32.273  21.994  24.033  1.00  0.00     0.348 HD
BRANCH  21  23
ATOM     23  C   UNL A   1      33.060  20.833  25.391  1.00  0.00     0.178 C 
ATOM     24  C   UNL A   1      32.474  19.614  24.678  1.00  0.00     0.075 C 
ATOM     25  C   UNL A   1      34.582  20.883  25.200  1.00  0.00     0.075 C 
ENDBRANCH  21  23
ENDBRANCH   9  15
ENDBRANCH   3   5
ENDBRANCH   2   3
ENDBRANCH   1   2
BRANCH   1  26
ATOM     26  C   UNL A   1      31.701  29.712  26.056  1.00  0.00     0.275 C 
BRANCH  26  27
ATOM     27  O   UNL A   1      33.011  30.308  26.021  1.00  0.00    -0.458 OA
BRANCH  27  28
ATOM     28  C   UNL A   1      33.260  31.266  26.938  1.00  0.00     0.338 C 
ATOM     29  O   UNL A   1      32.560  32.222  27.233  1.00  0.00    -0.246 OA
BRANCH  28  30
ATOM     30  C   UNL A   1      34.561  30.994  27.570  1.00  0.00     0.060 A 
ATOM     31  C   UNL A   1      34.897  29.688  27.917  1.00  0.00     0.016 A 
ATOM     32  C   UNL A   1      35.411  32.048  27.901  1.00  0.00     0.016 A 
ATOM     33  C   UNL A   1      36.045  29.434  28.664  1.00  0.00     0.010 A 
ATOM     34  C   UNL A   1      36.610  31.780  28.571  1.00  0.00     0.010 A 
ATOM     35  C   UNL A   1      36.926  30.473  28.987  1.00  0.00    -0.014 A 
BRANCH  35  36
ATOM     36  C   UNL A   1      38.149  30.207  29.795  1.00  0.00     0.031 A 
ATOM     37  C   UNL A   1      39.253  29.361  29.224  1.00  0.00     0.074 A 
ATOM     38  C   UNL A   1      38.289  30.728  31.030  1.00  0.00     0.049 A 
ATOM     39  N   UNL A   1      40.289  28.831  29.823  1.00  0.00    -0.248 NA
ATOM     40  C   UNL A   1      39.175  29.065  27.785  1.00  0.00     0.031 C 
ATOM     41  C   UNL A   1      37.338  31.625  31.688  1.00  0.00     0.029 A 
ATOM     42  N   UNL A   1      39.294  30.577  31.956  1.00  0.00    -0.354 N 
ATOM     43  C   UNL A   1      40.948  28.090  28.851  1.00  0.00     0.074 A 
ATOM     44  C   UNL A   1      40.204  28.246  27.620  1.00  0.00     0.031 C 
ATOM     45  C   UNL A   1      37.817  31.968  32.894  1.00  0.00     0.029 A 
ATOM     46  C   UNL A   1      39.066  31.250  33.131  1.00  0.00     0.049 A 
ATOM     47  H   UNL A   1      40.102  30.039  31.790  1.00  0.00     0.167 HD
ATOM     48  C   UNL A   1      42.069  27.338  28.980  1.00  0.00     0.037 A 
ATOM     49  C   UNL A   1      39.756  31.254  34.287  1.00  0.00     0.037 A 
ATOM     50  C   UNL A   1      42.840  27.230  30.190  1.00  0.00     0.049 A 
ATOM     51  C   UNL A   1      40.983  30.394  34.415  1.00  0.00     0.074 A 
ATOM     52  C   UNL A   1      43.982  26.482  30.425  1.00  0.00     0.029 A 
ATOM     53  N   UNL A   1      42.560  27.911  31.365  1.00  0.00    -0.354 N 
ATOM     54  N   UNL A   1      41.547  29.619  33.521  1.00  0.00    -0.248 NA
ATOM     55  C   UNL A   1      41.654  30.388  35.724  1.00  0.00     0.031 C 
ATOM     56  C   UNL A   1      44.380  26.696  31.750  1.00  0.00     0.029 A 
ATOM     57  C   UNL A   1      43.505  27.601  32.329  1.00  0.00     0.049 A 
ATOM     58  H   UNL A   1      41.801  28.525  31.495  1.00  0.00     0.167 HD
ATOM     59  C   UNL A   1      42.638  29.041  34.152  1.00  0.00     0.074 A 
ATOM     60  C   UNL A   1      42.672  29.568  35.501  1.00  0.00     0.031 C 
ATOM     61  C   UNL A   1      43.528  28.144  33.661  1.00  0.00     0.037 A 
BRANCH  48  62
ATOM     62  C   UNL A   1      42.503  26.537  27.790  1.00  0.00     0.064 A 
ATOM     63  C   UNL A   1      42.007  25.250  27.540  1.00  0.00     0.173 A 
ATOM     64  C   UNL A   1      43.411  27.084  26.870  1.00  0.00     0.173 A 
ATOM     65  F   UNL A   1      41.150  24.679  28.399  1.00  0.00    -0.203 F 
ATOM     66  C   UNL A   1      42.423  24.531  26.423  1.00  0.00     0.198 A 
ATOM     67  C   UNL A   1      43.806  26.371  25.742  1.00  0.00     0.198 A 
ATOM     68  F   UNL A   1      43.911  28.315  27.063  1.00  0.00    -0.203 F 
ATOM     69  F   UNL A   1      41.968  23.286  26.222  1.00  0.00    -0.200 F 
ATOM     70  C   UNL A   1      43.316  25.093  25.521  1.00  0.00     0.200 A 
ATOM     71  F   UNL A   1      44.662  26.920  24.868  1.00  0.00    -0.200 F 
ATOM     72  F   UNL A   1      43.710  24.399  24.445  1.00  0.00    -0.200 F 
ENDBRANCH  48  62
BRANCH  49  73
ATOM     73  C   UNL A   1      39.274  32.067  35.433  1.00  0.00     0.064 A 
ATOM     74  C   UNL A   1      39.624  33.418  35.554  1.00  0.00     0.173 A 
ATOM     75  C   UNL A   1      38.455  31.512  36.427  1.00  0.00     0.173 A 
ATOM     76  F   UNL A   1      40.431  33.985  34.645  1.00  0.00    -0.203 F 
ATOM     77  C   UNL A   1      39.175  34.183  36.629  1.00  0.00     0.198 A 
ATOM     78  C   UNL A   1      37.985  32.285  37.486  1.00  0.00     0.198 A 
ATOM     79  F   UNL A   1      38.097  30.221  36.360  1.00  0.00    -0.203 F 
ATOM     80  F   UNL A   1      39.554  35.464  36.742  1.00  0.00    -0.200 F 
ATOM     81  C   UNL A   1      38.349  33.618  37.590  1.00  0.00     0.200 A 
ATOM     82  F   UNL A   1      37.179  31.737  38.406  1.00  0.00    -0.200 F 
ATOM     83  F   UNL A   1      37.912  34.356  38.618  1.00  0.00    -0.200 F 
ENDBRANCH  49  73
BRANCH  61  84
ATOM     84  C   UNL A   1      44.625  27.698  34.578  1.00  0.00     0.064 A 
ATOM     85  C   UNL A   1      44.495  26.546  35.367  1.00  0.00     0.173 A 
ATOM     86  C   UNL A   1      45.832  28.409  34.639  1.00  0.00     0.173 A 
ATOM     87  F   UNL A   1      43.352  25.844  35.353  1.00  0.00    -0.203 F 
ATOM     88  C   UNL A   1      45.531  26.131  36.197  1.00  0.00     0.198 A 
ATOM     89  C   UNL A   1      46.873  27.979  35.456  1.00  0.00     0.198 A 
ATOM     90  F   UNL A   1      46.003  29.515  33.900  1.00  0.00    -0.203 F 
ATOM     91  F   UNL A   1      45.375  25.046  36.969  1.00  0.00    -0.200 F 
ATOM     92  C   UNL A   1      46.721  26.843  36.237  1.00  0.00     0.200 A 
ATOM     93  F   UNL A   1      48.024  28.664  35.488  1.00  0.00    -0.200 F 
ATOM     94  F   UNL A   1      47.719  26.439  37.035  1.00  0.00    -0.200 F 
ENDBRANCH  61  84
ENDBRANCH  35  36
ENDBRANCH  28  30
ENDBRANCH  27  28
ENDBRANCH  26  27
ENDBRANCH   1  26
TORSDOF 15
ENDMDL
