MODEL 1
REMARK VINA RESULT:     -11.3      0.000      0.000
REMARK SMILES [NH3+][C@@H](CCCC(=O)OCCOC(=O)c1ccc(-c2c3nc(c(-c4c(F)c(F)c(F)c(F)c4F)c4ccc([nH]4)c(-c4c(F)c(F)c(F)c(F)c4F)c4nc(c(-c5c(F)c(F)c(F)c(F)c5F)c5ccc2[nH]5)C=C4)C=C3)cc1)c1cnc2[nH]ccc2c1
REMARK SMILES IDX 9 1 8 2 6 3 7 4 5 5 4 6 3 7 2 8 1 9 77 13 78 14 85 15 79 16
REMARK SMILES IDX 84 17 80 18 83 19 81 20 82 21 10 23 11 24 12 25 13 26 14 27
REMARK SMILES IDX 15 28 76 29 16 30 75 31 17 32 18 33 19 34 69 35 20 36 74 37
REMARK SMILES IDX 68 38 70 39 21 40 73 41 67 42 66 43 22 45 54 46 34 47 53 48
REMARK SMILES IDX 35 49 38 50 52 51 71 52 36 53 37 54 51 56 72 57 39 58 23 59
REMARK SMILES IDX 24 60 32 61 25 62 26 63 30 64 33 65 27 66 28 67 31 68 29 69
REMARK SMILES IDX 55 70 56 71 64 72 57 73 58 74 62 75 65 76 59 77 60 78 63 79
REMARK SMILES IDX 61 80 40 81 41 82 49 83 42 84 43 85 47 86 50 87 44 88 45 89
REMARK SMILES IDX 48 90 46 91
REMARK H PARENT 1 10 1 11 1 12 81 22 70 44 38 55
REMARK Flexibility Score: inf
ROOT
ATOM      1  C   UNL A   1      31.733  28.537  24.844  1.00  0.00     0.274 C 
ENDROOT
BRANCH   1   2
ATOM      2  O   UNL A   1      32.210  27.297  25.377  1.00  0.00    -0.462 OA
BRANCH   2   3
ATOM      3  C   UNL A   1      33.409  26.889  24.884  1.00  0.00     0.305 C 
ATOM      4  O   UNL A   1      33.984  27.356  23.913  1.00  0.00    -0.252 OA
BRANCH   3   5
ATOM      5  C   UNL A   1      33.977  25.835  25.795  1.00  0.00     0.123 C 
BRANCH   5   6
ATOM      6  C   UNL A   1      34.634  24.655  25.081  1.00  0.00     0.018 C 
BRANCH   6   7
ATOM      7  C   UNL A   1      35.026  23.442  25.949  1.00  0.00     0.071 C 
BRANCH   7   8
ATOM      8  C   UNL A   1      33.951  22.572  26.644  1.00  0.00     0.213 C 
BRANCH   8   9
ATOM      9  N   UNL A   1      34.733  21.536  27.362  1.00  0.00    -0.351 N 
ATOM     10  H   UNL A   1      35.157  20.900  26.687  1.00  0.00     0.345 HD
ATOM     11  H   UNL A   1      34.115  21.011  27.981  1.00  0.00     0.345 HD
ATOM     12  H   UNL A   1      35.465  21.983  27.914  1.00  0.00     0.345 HD
ENDBRANCH   8   9
BRANCH   8  13
ATOM     13  C   UNL A   1      32.789  21.890  25.887  1.00  0.00     0.028 A 
ATOM     14  C   UNL A   1      33.172  21.261  24.700  1.00  0.00     0.123 A 
ATOM     15  C   UNL A   1      31.536  22.488  25.859  1.00  0.00     0.023 A 
ATOM     16  N   UNL A   1      32.813  21.708  23.472  1.00  0.00    -0.238 NA
ATOM     17  C   UNL A   1      31.304  23.198  24.681  1.00  0.00     0.019 A 
ATOM     18  C   UNL A   1      31.994  22.774  23.554  1.00  0.00     0.137 A 
ATOM     19  C   UNL A   1      30.592  24.373  24.333  1.00  0.00     0.029 A 
ATOM     20  N   UNL A   1      31.777  23.697  22.569  1.00  0.00    -0.346 N 
ATOM     21  C   UNL A   1      30.989  24.713  23.056  1.00  0.00     0.085 A 
ATOM     22  H   UNL A   1      32.133  23.644  21.653  1.00  0.00     0.167 HD
ENDBRANCH   8  13
ENDBRANCH   7   8
ENDBRANCH   6   7
ENDBRANCH   5   6
ENDBRANCH   3   5
ENDBRANCH   2   3
ENDBRANCH   1   2
BRANCH   1  23
ATOM     23  C   UNL A   1      31.761  29.537  25.997  1.00  0.00     0.275 C 
BRANCH  23  24
ATOM     24  O   UNL A   1      33.073  30.137  26.057  1.00  0.00    -0.458 OA
BRANCH  24  25
ATOM     25  C   UNL A   1      33.253  31.109  26.981  1.00  0.00     0.338 C 
ATOM     26  O   UNL A   1      32.490  32.015  27.259  1.00  0.00    -0.246 OA
BRANCH  25  27
ATOM     27  C   UNL A   1      34.590  30.960  27.588  1.00  0.00     0.060 A 
ATOM     28  C   UNL A   1      35.442  32.052  27.780  1.00  0.00     0.016 A 
ATOM     29  C   UNL A   1      35.001  29.678  27.953  1.00  0.00     0.016 A 
ATOM     30  C   UNL A   1      36.706  31.865  28.345  1.00  0.00     0.010 A 
ATOM     31  C   UNL A   1      36.235  29.503  28.579  1.00  0.00     0.010 A 
ATOM     32  C   UNL A   1      37.096  30.596  28.791  1.00  0.00    -0.014 A 
BRANCH  32  33
ATOM     33  C   UNL A   1      38.361  30.376  29.538  1.00  0.00     0.031 A 
ATOM     34  C   UNL A   1      39.402  29.439  29.000  1.00  0.00     0.074 A 
ATOM     35  C   UNL A   1      38.518  30.929  30.758  1.00  0.00     0.049 A 
ATOM     36  N   UNL A   1      40.410  28.876  29.615  1.00  0.00    -0.248 NA
ATOM     37  C   UNL A   1      39.279  29.075  27.581  1.00  0.00     0.031 C 
ATOM     38  C   UNL A   1      37.598  31.881  31.382  1.00  0.00     0.029 A 
ATOM     39  N   UNL A   1      39.490  30.734  31.709  1.00  0.00    -0.354 N 
ATOM     40  C   UNL A   1      41.018  28.058  28.671  1.00  0.00     0.074 A 
ATOM     41  C   UNL A   1      40.263  28.197  27.443  1.00  0.00     0.031 C 
ATOM     42  C   UNL A   1      38.041  32.177  32.613  1.00  0.00     0.029 A 
ATOM     43  C   UNL A   1      39.226  31.376  32.894  1.00  0.00     0.049 A 
ATOM     44  H   UNL A   1      40.295  30.189  31.555  1.00  0.00     0.167 HD
ATOM     45  C   UNL A   1      42.104  27.262  28.826  1.00  0.00     0.037 A 
ATOM     46  C   UNL A   1      39.829  31.281  34.094  1.00  0.00     0.037 A 
ATOM     47  C   UNL A   1      42.859  27.152  30.048  1.00  0.00     0.049 A 
ATOM     48  C   UNL A   1      40.986  30.338  34.261  1.00  0.00     0.074 A 
ATOM     49  C   UNL A   1      43.996  26.403  30.297  1.00  0.00     0.029 A 
ATOM     50  N   UNL A   1      42.549  27.811  31.229  1.00  0.00    -0.354 N 
ATOM     51  N   UNL A   1      41.547  29.552  33.375  1.00  0.00    -0.248 NA
ATOM     52  C   UNL A   1      41.581  30.253  35.602  1.00  0.00     0.031 C 
ATOM     53  C   UNL A   1      44.347  26.573  31.641  1.00  0.00     0.029 A 
ATOM     54  C   UNL A   1      43.456  27.464  32.219  1.00  0.00     0.049 A 
ATOM     55  H   UNL A   1      41.795  28.433  31.349  1.00  0.00     0.167 HD
ATOM     56  C   UNL A   1      42.566  28.889  34.043  1.00  0.00     0.074 A 
ATOM     57  C   UNL A   1      42.560  29.379  35.406  1.00  0.00     0.031 C 
ATOM     58  C   UNL A   1      43.428  27.955  33.572  1.00  0.00     0.037 A 
BRANCH  45  59
ATOM     59  C   UNL A   1      42.525  26.421  27.656  1.00  0.00     0.064 A 
ATOM     60  C   UNL A   1      43.522  26.839  26.762  1.00  0.00     0.173 A 
ATOM     61  C   UNL A   1      41.952  25.156  27.454  1.00  0.00     0.173 A 
ATOM     62  F   UNL A   1      44.093  28.044  26.905  1.00  0.00    -0.203 F 
ATOM     63  C   UNL A   1      43.912  26.032  25.696  1.00  0.00     0.198 A 
ATOM     64  C   UNL A   1      42.363  24.340  26.403  1.00  0.00     0.198 A 
ATOM     65  F   UNL A   1      40.998  24.704  28.283  1.00  0.00    -0.203 F 
ATOM     66  F   UNL A   1      44.836  26.469  24.830  1.00  0.00    -0.200 F 
ATOM     67  C   UNL A   1      43.338  24.781  25.522  1.00  0.00     0.200 A 
ATOM     68  F   UNL A   1      41.816  23.127  26.243  1.00  0.00    -0.200 F 
ATOM     69  F   UNL A   1      43.720  24.003  24.500  1.00  0.00    -0.200 F 
ENDBRANCH  45  59
BRANCH  46  70
ATOM     70  C   UNL A   1      39.310  32.067  35.245  1.00  0.00     0.064 A 
ATOM     71  C   UNL A   1      38.479  31.473  36.203  1.00  0.00     0.173 A 
ATOM     72  C   UNL A   1      39.643  33.420  35.415  1.00  0.00     0.173 A 
ATOM     73  F   UNL A   1      38.111  30.191  36.066  1.00  0.00    -0.203 F 
ATOM     74  C   UNL A   1      37.993  32.205  37.285  1.00  0.00     0.198 A 
ATOM     75  C   UNL A   1      39.181  34.142  36.513  1.00  0.00     0.198 A 
ATOM     76  F   UNL A   1      40.435  34.035  34.525  1.00  0.00    -0.203 F 
ATOM     77  F   UNL A   1      37.167  31.624  38.166  1.00  0.00    -0.200 F 
ATOM     78  C   UNL A   1      38.351  33.535  37.444  1.00  0.00     0.200 A 
ATOM     79  F   UNL A   1      39.541  35.423  36.670  1.00  0.00    -0.200 F 
ATOM     80  F   UNL A   1      37.891  34.235  38.490  1.00  0.00    -0.200 F 
ENDBRANCH  46  70
BRANCH  58  81
ATOM     81  C   UNL A   1      44.442  27.416  34.536  1.00  0.00     0.064 A 
ATOM     82  C   UNL A   1      45.667  28.066  34.749  1.00  0.00     0.173 A 
ATOM     83  C   UNL A   1      44.175  26.255  35.277  1.00  0.00     0.173 A 
ATOM     84  F   UNL A   1      45.976  29.168  34.051  1.00  0.00    -0.203 F 
ATOM     85  C   UNL A   1      46.597  27.559  35.654  1.00  0.00     0.198 A 
ATOM     86  C   UNL A   1      45.096  25.766  36.199  1.00  0.00     0.198 A 
ATOM     87  F   UNL A   1      43.016  25.600  35.111  1.00  0.00    -0.203 F 
ATOM     88  F   UNL A   1      47.780  28.170  35.807  1.00  0.00    -0.200 F 
ATOM     89  C   UNL A   1      46.307  26.414  36.382  1.00  0.00     0.200 A 
ATOM     90  F   UNL A   1      44.810  24.666  36.909  1.00  0.00    -0.200 F 
ATOM     91  F   UNL A   1      47.202  25.931  37.255  1.00  0.00    -0.200 F 
ENDBRANCH  58  81
ENDBRANCH  32  33
ENDBRANCH  25  27
ENDBRANCH  24  25
ENDBRANCH  23  24
ENDBRANCH   1  23
TORSDOF 16
ENDMDL
MODEL 2
REMARK VINA RESULT:     -11.3      1.877      3.254
REMARK SMILES [NH3+][C@@H](CCCC(=O)OCCOC(=O)c1ccc(-c2c3nc(c(-c4c(F)c(F)c(F)c(F)c4F)c4ccc([nH]4)c(-c4c(F)c(F)c(F)c(F)c4F)c4nc(c(-c5c(F)c(F)c(F)c(F)c5F)c5ccc2[nH]5)C=C4)C=C3)cc1)c1cnc2[nH]ccc2c1
REMARK SMILES IDX 9 1 8 2 6 3 7 4 5 5 4 6 3 7 2 8 1 9 77 13 78 14 85 15 79 16
REMARK SMILES IDX 84 17 80 18 83 19 81 20 82 21 10 23 11 24 12 25 13 26 14 27
REMARK SMILES IDX 15 28 76 29 16 30 75 31 17 32 18 33 19 34 69 35 20 36 74 37
REMARK SMILES IDX 68 38 70 39 21 40 73 41 67 42 66 43 22 45 54 46 34 47 53 48
REMARK SMILES IDX 35 49 38 50 52 51 71 52 36 53 37 54 51 56 72 57 39 58 23 59
REMARK SMILES IDX 24 60 32 61 25 62 26 63 30 64 33 65 27 66 28 67 31 68 29 69
REMARK SMILES IDX 55 70 56 71 64 72 57 73 58 74 62 75 65 76 59 77 60 78 63 79
REMARK SMILES IDX 61 80 40 81 41 82 49 83 42 84 43 85 47 86 50 87 44 88 45 89
REMARK SMILES IDX 48 90 46 91
REMARK H PARENT 1 10 1 11 1 12 81 22 70 44 38 55
REMARK Flexibility Score: inf
ROOT
ATOM      1  C   UNL A   1      31.943  27.942  26.815  1.00  0.00     0.274 C 
ENDROOT
BRANCH   1   2
ATOM      2  O   UNL A   1      33.098  27.733  25.994  1.00  0.00    -0.462 OA
BRANCH   2   3
ATOM      3  C   UNL A   1      33.227  26.472  25.506  1.00  0.00     0.305 C 
ATOM      4  O   UNL A   1      34.259  25.819  25.465  1.00  0.00    -0.252 OA
BRANCH   3   5
ATOM      5  C   UNL A   1      31.867  25.955  25.123  1.00  0.00     0.123 C 
BRANCH   5   6
ATOM      6  C   UNL A   1      31.592  25.926  23.621  1.00  0.00     0.018 C 
BRANCH   6   7
ATOM      7  C   UNL A   1      32.189  27.072  22.778  1.00  0.00     0.071 C 
BRANCH   7   8
ATOM      8  C   UNL A   1      31.599  28.502  22.835  1.00  0.00     0.213 C 
BRANCH   8   9
ATOM      9  N   UNL A   1      32.682  29.316  23.441  1.00  0.00    -0.351 N 
ATOM     10  H   UNL A   1      32.297  29.889  24.192  1.00  0.00     0.345 HD
ATOM     11  H   UNL A   1      33.092  29.920  22.729  1.00  0.00     0.345 HD
ATOM     12  H   UNL A   1      33.400  28.699  23.819  1.00  0.00     0.345 HD
ENDBRANCH   8   9
BRANCH   8  13
ATOM     13  C   UNL A   1      30.263  28.843  23.531  1.00  0.00     0.028 A 
ATOM     14  C   UNL A   1      29.180  28.075  23.097  1.00  0.00     0.123 A 
ATOM     15  C   UNL A   1      29.961  30.163  23.842  1.00  0.00     0.023 A 
ATOM     16  N   UNL A   1      28.151  28.580  22.373  1.00  0.00    -0.238 NA
ATOM     17  C   UNL A   1      29.117  30.758  22.905  1.00  0.00     0.019 A 
ATOM     18  C   UNL A   1      28.277  29.910  22.197  1.00  0.00     0.137 A 
ATOM     19  C   UNL A   1      28.957  32.063  22.374  1.00  0.00     0.029 A 
ATOM     20  N   UNL A   1      27.679  30.649  21.215  1.00  0.00    -0.346 N 
ATOM     21  C   UNL A   1      28.144  31.942  21.266  1.00  0.00     0.085 A 
ATOM     22  H   UNL A   1      27.019  30.308  20.570  1.00  0.00     0.167 HD
ENDBRANCH   8  13
ENDBRANCH   7   8
ENDBRANCH   6   7
ENDBRANCH   5   6
ENDBRANCH   3   5
ENDBRANCH   2   3
ENDBRANCH   1   2
BRANCH   1  23
ATOM     23  C   UNL A   1      31.753  29.454  26.907  1.00  0.00     0.275 C 
BRANCH  23  24
ATOM     24  O   UNL A   1      32.975  30.101  26.490  1.00  0.00    -0.458 OA
BRANCH  24  25
ATOM     25  C   UNL A   1      33.317  31.232  27.148  1.00  0.00     0.338 C 
ATOM     26  O   UNL A   1      32.683  32.268  27.216  1.00  0.00    -0.246 OA
BRANCH  25  27
ATOM     27  C   UNL A   1      34.656  31.060  27.745  1.00  0.00     0.060 A 
ATOM     28  C   UNL A   1      35.541  32.132  27.898  1.00  0.00     0.016 A 
ATOM     29  C   UNL A   1      35.033  29.777  28.142  1.00  0.00     0.016 A 
ATOM     30  C   UNL A   1      36.806  31.922  28.454  1.00  0.00     0.010 A 
ATOM     31  C   UNL A   1      36.268  29.583  28.759  1.00  0.00     0.010 A 
ATOM     32  C   UNL A   1      37.163  30.655  28.931  1.00  0.00    -0.014 A 
BRANCH  32  33
ATOM     33  C   UNL A   1      38.429  30.419  29.671  1.00  0.00     0.031 A 
ATOM     34  C   UNL A   1      39.457  29.472  29.124  1.00  0.00     0.074 A 
ATOM     35  C   UNL A   1      38.599  30.965  30.892  1.00  0.00     0.049 A 
ATOM     36  N   UNL A   1      40.462  28.895  29.731  1.00  0.00    -0.248 NA
ATOM     37  C   UNL A   1      39.323  29.115  27.704  1.00  0.00     0.031 C 
ATOM     38  C   UNL A   1      37.693  31.925  31.524  1.00  0.00     0.029 A 
ATOM     39  N   UNL A   1      39.574  30.756  31.837  1.00  0.00    -0.354 N 
ATOM     40  C   UNL A   1      41.056  28.075  28.781  1.00  0.00     0.074 A 
ATOM     41  C   UNL A   1      40.296  28.226  27.558  1.00  0.00     0.031 C 
ATOM     42  C   UNL A   1      38.146  32.212  32.753  1.00  0.00     0.029 A 
ATOM     43  C   UNL A   1      39.323  31.396  33.026  1.00  0.00     0.049 A 
ATOM     44  H   UNL A   1      40.372  30.202  31.676  1.00  0.00     0.167 HD
ATOM     45  C   UNL A   1      42.134  27.266  28.927  1.00  0.00     0.037 A 
ATOM     46  C   UNL A   1      39.931  31.290  34.222  1.00  0.00     0.037 A 
ATOM     47  C   UNL A   1      42.894  27.143  30.145  1.00  0.00     0.049 A 
ATOM     48  C   UNL A   1      41.079  30.334  34.380  1.00  0.00     0.074 A 
ATOM     49  C   UNL A   1      44.024  26.381  30.386  1.00  0.00     0.029 A 
ATOM     50  N   UNL A   1      42.598  27.801  31.330  1.00  0.00    -0.354 N 
ATOM     51  N   UNL A   1      41.627  29.545  33.488  1.00  0.00    -0.248 NA
ATOM     52  C   UNL A   1      41.680  30.237  35.717  1.00  0.00     0.031 C 
ATOM     53  C   UNL A   1      44.384  26.542  31.728  1.00  0.00     0.029 A 
ATOM     54  C   UNL A   1      43.507  27.440  32.313  1.00  0.00     0.049 A 
ATOM     55  H   UNL A   1      41.852  28.431  31.456  1.00  0.00     0.167 HD
ATOM     56  C   UNL A   1      42.641  28.869  34.148  1.00  0.00     0.074 A 
ATOM     57  C   UNL A   1      42.648  29.354  35.513  1.00  0.00     0.031 C 
ATOM     58  C   UNL A   1      43.490  27.927  33.669  1.00  0.00     0.037 A 
BRANCH  45  59
ATOM     59  C   UNL A   1      42.539  26.424  27.752  1.00  0.00     0.064 A 
ATOM     60  C   UNL A   1      41.948  25.179  27.493  1.00  0.00     0.173 A 
ATOM     61  C   UNL A   1      43.503  26.894  26.846  1.00  0.00     0.173 A 
ATOM     62  F   UNL A   1      41.030  24.680  28.334  1.00  0.00    -0.203 F 
ATOM     63  C   UNL A   1      42.324  24.425  26.384  1.00  0.00     0.198 A 
ATOM     64  C   UNL A   1      43.857  26.150  25.724  1.00  0.00     0.198 A 
ATOM     65  F   UNL A   1      44.095  28.081  27.043  1.00  0.00    -0.203 F 
ATOM     66  F   UNL A   1      41.776  23.219  26.178  1.00  0.00    -0.200 F 
ATOM     67  C   UNL A   1      43.272  24.914  25.497  1.00  0.00     0.200 A 
ATOM     68  F   UNL A   1      44.764  26.629  24.861  1.00  0.00    -0.200 F 
ATOM     69  F   UNL A   1      43.627  24.189  24.426  1.00  0.00    -0.200 F 
ENDBRANCH  45  59
BRANCH  46  70
ATOM     70  C   UNL A   1      39.428  32.078  35.378  1.00  0.00     0.064 A 
ATOM     71  C   UNL A   1      38.551  31.506  36.309  1.00  0.00     0.173 A 
ATOM     72  C   UNL A   1      39.819  33.410  35.582  1.00  0.00     0.173 A 
ATOM     73  F   UNL A   1      38.127  30.245  36.140  1.00  0.00    -0.203 F 
ATOM     74  C   UNL A   1      38.079  32.238  37.396  1.00  0.00     0.198 A 
ATOM     75  C   UNL A   1      39.370  34.132  36.685  1.00  0.00     0.198 A 
ATOM     76  F   UNL A   1      40.656  34.005  34.718  1.00  0.00    -0.203 F 
ATOM     77  F   UNL A   1      37.210  31.680  38.250  1.00  0.00    -0.200 F 
ATOM     78  C   UNL A   1      38.495  33.547  37.588  1.00  0.00     0.200 A 
ATOM     79  F   UNL A   1      39.787  35.391  36.873  1.00  0.00    -0.200 F 
ATOM     80  F   UNL A   1      38.048  34.248  38.639  1.00  0.00    -0.200 F 
ENDBRANCH  46  70
BRANCH  58  81
ATOM     81  C   UNL A   1      44.504  27.373  34.626  1.00  0.00     0.064 A 
ATOM     82  C   UNL A   1      45.737  28.008  34.833  1.00  0.00     0.173 A 
ATOM     83  C   UNL A   1      44.227  26.213  35.365  1.00  0.00     0.173 A 
ATOM     84  F   UNL A   1      46.056  29.108  34.136  1.00  0.00    -0.203 F 
ATOM     85  C   UNL A   1      46.667  27.487  35.731  1.00  0.00     0.198 A 
ATOM     86  C   UNL A   1      45.147  25.711  36.280  1.00  0.00     0.198 A 
ATOM     87  F   UNL A   1      43.059  25.573  35.204  1.00  0.00    -0.203 F 
ATOM     88  F   UNL A   1      47.858  28.083  35.879  1.00  0.00    -0.200 F 
ATOM     89  C   UNL A   1      46.368  26.344  36.458  1.00  0.00     0.200 A 
ATOM     90  F   UNL A   1      44.853  24.613  36.990  1.00  0.00    -0.200 F 
ATOM     91  F   UNL A   1      47.262  25.848  37.324  1.00  0.00    -0.200 F 
ENDBRANCH  58  81
ENDBRANCH  32  33
ENDBRANCH  25  27
ENDBRANCH  24  25
ENDBRANCH  23  24
ENDBRANCH   1  23
TORSDOF 16
ENDMDL
MODEL 3
REMARK VINA RESULT:     -11.3      1.268      2.183
REMARK SMILES [NH3+][C@@H](CCCC(=O)OCCOC(=O)c1ccc(-c2c3nc(c(-c4c(F)c(F)c(F)c(F)c4F)c4ccc([nH]4)c(-c4c(F)c(F)c(F)c(F)c4F)c4nc(c(-c5c(F)c(F)c(F)c(F)c5F)c5ccc2[nH]5)C=C4)C=C3)cc1)c1cnc2[nH]ccc2c1
REMARK SMILES IDX 9 1 8 2 6 3 7 4 5 5 4 6 3 7 2 8 1 9 77 13 78 14 85 15 79 16
REMARK SMILES IDX 84 17 80 18 83 19 81 20 82 21 10 23 11 24 12 25 13 26 14 27
REMARK SMILES IDX 15 28 76 29 16 30 75 31 17 32 18 33 19 34 69 35 20 36 74 37
REMARK SMILES IDX 68 38 70 39 21 40 73 41 67 42 66 43 22 45 54 46 34 47 53 48
REMARK SMILES IDX 35 49 38 50 52 51 71 52 36 53 37 54 51 56 72 57 39 58 23 59
REMARK SMILES IDX 24 60 32 61 25 62 26 63 30 64 33 65 27 66 28 67 31 68 29 69
REMARK SMILES IDX 55 70 56 71 64 72 57 73 58 74 62 75 65 76 59 77 60 78 63 79
REMARK SMILES IDX 61 80 40 81 41 82 49 83 42 84 43 85 47 86 50 87 44 88 45 89
REMARK SMILES IDX 48 90 46 91
REMARK H PARENT 1 10 1 11 1 12 81 22 70 44 38 55
REMARK Flexibility Score: inf
ROOT
ATOM      1  C   UNL A   1      31.271  29.471  24.595  1.00  0.00     0.274 C 
ENDROOT
BRANCH   1   2
ATOM      2  O   UNL A   1      31.248  28.237  23.869  1.00  0.00    -0.462 OA
BRANCH   2   3
ATOM      3  C   UNL A   1      30.144  28.050  23.101  1.00  0.00     0.305 C 
ATOM      4  O   UNL A   1      29.941  28.540  22.001  1.00  0.00    -0.252 OA
BRANCH   3   5
ATOM      5  C   UNL A   1      29.247  27.045  23.773  1.00  0.00     0.123 C 
BRANCH   5   6
ATOM      6  C   UNL A   1      29.906  25.700  24.077  1.00  0.00     0.018 C 
BRANCH   6   7
ATOM      7  C   UNL A   1      29.979  25.277  25.558  1.00  0.00     0.071 C 
BRANCH   7   8
ATOM      8  C   UNL A   1      31.291  25.416  26.369  1.00  0.00     0.213 C 
BRANCH   8   9
ATOM      9  N   UNL A   1      31.330  26.849  26.752  1.00  0.00    -0.351 N 
ATOM     10  H   UNL A   1      30.385  27.170  26.965  1.00  0.00     0.345 HD
ATOM     11  H   UNL A   1      31.707  27.396  25.979  1.00  0.00     0.345 HD
ATOM     12  H   UNL A   1      31.923  26.966  27.573  1.00  0.00     0.345 HD
ENDBRANCH   8   9
BRANCH   8  13
ATOM     13  C   UNL A   1      32.676  25.003  25.823  1.00  0.00     0.028 A 
ATOM     14  C   UNL A   1      33.609  26.042  25.787  1.00  0.00     0.123 A 
ATOM     15  C   UNL A   1      32.764  24.096  24.775  1.00  0.00     0.023 A 
ATOM     16  N   UNL A   1      34.071  26.589  24.636  1.00  0.00    -0.238 NA
ATOM     17  C   UNL A   1      32.952  24.716  23.540  1.00  0.00     0.019 A 
ATOM     18  C   UNL A   1      33.573  25.957  23.555  1.00  0.00     0.137 A 
ATOM     19  C   UNL A   1      32.555  24.450  22.205  1.00  0.00     0.029 A 
ATOM     20  N   UNL A   1      33.494  26.471  22.291  1.00  0.00    -0.346 N 
ATOM     21  C   UNL A   1      32.809  25.596  21.481  1.00  0.00     0.085 A 
ATOM     22  H   UNL A   1      33.868  27.335  22.005  1.00  0.00     0.167 HD
ENDBRANCH   8  13
ENDBRANCH   7   8
ENDBRANCH   6   7
ENDBRANCH   5   6
ENDBRANCH   3   5
ENDBRANCH   2   3
ENDBRANCH   1   2
BRANCH   1  23
ATOM     23  C   UNL A   1      32.724  29.700  25.004  1.00  0.00     0.275 C 
BRANCH  23  24
ATOM     24  O   UNL A   1      32.803  29.705  26.447  1.00  0.00    -0.458 OA
BRANCH  24  25
ATOM     25  C   UNL A   1      33.140  30.878  27.030  1.00  0.00     0.338 C 
ATOM     26  O   UNL A   1      32.498  31.912  27.038  1.00  0.00    -0.246 OA
BRANCH  25  27
ATOM     27  C   UNL A   1      34.485  30.754  27.627  1.00  0.00     0.060 A 
ATOM     28  C   UNL A   1      35.312  31.864  27.824  1.00  0.00     0.016 A 
ATOM     29  C   UNL A   1      34.927  29.479  27.977  1.00  0.00     0.016 A 
ATOM     30  C   UNL A   1      36.584  31.700  28.377  1.00  0.00     0.010 A 
ATOM     31  C   UNL A   1      36.170  29.326  28.592  1.00  0.00     0.010 A 
ATOM     32  C   UNL A   1      37.007  30.436  28.808  1.00  0.00    -0.014 A 
BRANCH  32  33
ATOM     33  C   UNL A   1      38.281  30.239  29.545  1.00  0.00     0.031 A 
ATOM     34  C   UNL A   1      39.331  29.314  29.002  1.00  0.00     0.074 A 
ATOM     35  C   UNL A   1      38.442  30.800  30.760  1.00  0.00     0.049 A 
ATOM     36  N   UNL A   1      40.353  28.768  29.610  1.00  0.00    -0.248 NA
ATOM     37  C   UNL A   1      39.200  28.941  27.586  1.00  0.00     0.031 C 
ATOM     38  C   UNL A   1      37.515  31.742  31.388  1.00  0.00     0.029 A 
ATOM     39  N   UNL A   1      39.426  30.624  31.703  1.00  0.00    -0.354 N 
ATOM     40  C   UNL A   1      40.964  27.955  28.664  1.00  0.00     0.074 A 
ATOM     41  C   UNL A   1      40.196  28.076  27.443  1.00  0.00     0.031 C 
ATOM     42  C   UNL A   1      37.965  32.051  32.613  1.00  0.00     0.029 A 
ATOM     43  C   UNL A   1      39.164  31.268  32.888  1.00  0.00     0.049 A 
ATOM     44  H   UNL A   1      40.238  30.090  31.544  1.00  0.00     0.167 HD
ATOM     45  C   UNL A   1      42.063  27.176  28.813  1.00  0.00     0.037 A 
ATOM     46  C   UNL A   1      39.779  31.188  34.082  1.00  0.00     0.037 A 
ATOM     47  C   UNL A   1      42.830  27.082  30.028  1.00  0.00     0.049 A 
ATOM     48  C   UNL A   1      40.952  30.263  34.243  1.00  0.00     0.074 A 
ATOM     49  C   UNL A   1      43.981  26.352  30.271  1.00  0.00     0.029 A 
ATOM     50  N   UNL A   1      42.522  27.743  31.209  1.00  0.00    -0.354 N 
ATOM     51  N   UNL A   1      41.516  29.481  33.355  1.00  0.00    -0.248 NA
ATOM     52  C   UNL A   1      41.561  30.194  35.579  1.00  0.00     0.031 C 
ATOM     53  C   UNL A   1      44.342  26.534  31.610  1.00  0.00     0.029 A 
ATOM     54  C   UNL A   1      43.444  27.414  32.191  1.00  0.00     0.049 A 
ATOM     55  H   UNL A   1      41.761  28.355  31.332  1.00  0.00     0.167 HD
ATOM     56  C   UNL A   1      42.550  28.837  34.017  1.00  0.00     0.074 A 
ATOM     57  C   UNL A   1      42.550  29.334  35.378  1.00  0.00     0.031 C 
ATOM     58  C   UNL A   1      43.421  27.912  33.542  1.00  0.00     0.037 A 
BRANCH  45  59
ATOM     59  C   UNL A   1      42.485  26.334  27.643  1.00  0.00     0.064 A 
ATOM     60  C   UNL A   1      43.467  26.762  26.738  1.00  0.00     0.173 A 
ATOM     61  C   UNL A   1      41.928  25.060  27.454  1.00  0.00     0.173 A 
ATOM     62  F   UNL A   1      44.022  27.976  26.869  1.00  0.00    -0.203 F 
ATOM     63  C   UNL A   1      43.858  25.955  25.673  1.00  0.00     0.198 A 
ATOM     64  C   UNL A   1      42.341  24.245  26.403  1.00  0.00     0.198 A 
ATOM     65  F   UNL A   1      40.989  24.599  28.293  1.00  0.00    -0.203 F 
ATOM     66  F   UNL A   1      44.769  26.401  24.795  1.00  0.00    -0.200 F 
ATOM     67  C   UNL A   1      43.301  24.695  25.510  1.00  0.00     0.200 A 
ATOM     68  F   UNL A   1      41.810  23.023  26.254  1.00  0.00    -0.200 F 
ATOM     69  F   UNL A   1      43.685  23.918  24.488  1.00  0.00    -0.200 F 
ENDBRANCH  45  59
BRANCH  46  70
ATOM     70  C   UNL A   1      39.260  31.973  35.233  1.00  0.00     0.064 A 
ATOM     71  C   UNL A   1      39.556  33.336  35.365  1.00  0.00     0.173 A 
ATOM     72  C   UNL A   1      38.451  31.381  36.216  1.00  0.00     0.173 A 
ATOM     73  F   UNL A   1      40.349  33.937  34.466  1.00  0.00    -0.203 F 
ATOM     74  C   UNL A   1      39.070  34.076  36.440  1.00  0.00     0.198 A 
ATOM     75  C   UNL A   1      37.941  32.130  37.274  1.00  0.00     0.198 A 
ATOM     76  F   UNL A   1      38.139  30.079  36.137  1.00  0.00    -0.203 F 
ATOM     77  F   UNL A   1      39.400  35.368  36.564  1.00  0.00    -0.200 F 
ATOM     78  C   UNL A   1      38.255  33.475  37.389  1.00  0.00     0.200 A 
ATOM     79  F   UNL A   1      37.143  31.548  38.180  1.00  0.00    -0.200 F 
ATOM     80  F   UNL A   1      37.780  34.191  38.417  1.00  0.00    -0.200 F 
ENDBRANCH  46  70
BRANCH  58  81
ATOM     81  C   UNL A   1      44.452  27.393  34.500  1.00  0.00     0.064 A 
ATOM     82  C   UNL A   1      45.672  28.057  34.692  1.00  0.00     0.173 A 
ATOM     83  C   UNL A   1      44.205  26.236  35.255  1.00  0.00     0.173 A 
ATOM     84  F   UNL A   1      45.962  29.156  33.979  1.00  0.00    -0.203 F 
ATOM     85  C   UNL A   1      46.618  27.568  35.590  1.00  0.00     0.198 A 
ATOM     86  C   UNL A   1      45.142  25.767  36.171  1.00  0.00     0.198 A 
ATOM     87  F   UNL A   1      43.051  25.569  35.109  1.00  0.00    -0.203 F 
ATOM     88  F   UNL A   1      47.797  28.193  35.723  1.00  0.00    -0.200 F 
ATOM     89  C   UNL A   1      46.349  26.428  36.333  1.00  0.00     0.200 A 
ATOM     90  F   UNL A   1      44.876  24.670  36.895  1.00  0.00    -0.200 F 
ATOM     91  F   UNL A   1      47.259  25.963  37.199  1.00  0.00    -0.200 F 
ENDBRANCH  58  81
ENDBRANCH  32  33
ENDBRANCH  25  27
ENDBRANCH  24  25
ENDBRANCH  23  24
ENDBRANCH   1  23
TORSDOF 16
ENDMDL
