MODEL 1
REMARK VINA RESULT:     -11.0      0.000      0.000
REMARK SMILES Cc1ccc(C)c(S(=O)(=O)[C@H](C)C(=O)OCCOC(=O)c2ccc(-c3c4nc(c(-c5c(F)c(F)c(F)c(F)c5F)c5ccc([nH]5)c(-c5c(F)c(F)c(F)c(F)c5F)c5nc(c(-c6c(F)c(F)c(F)c(F)c6F)c6ccc3[nH]6)C=C5)C=C4)cc2)c1
REMARK SMILES IDX 16 1 15 2 13 3 14 4 11 5 12 6 8 7 9 8 10 9 7 10 1 11 2 12
REMARK SMILES IDX 3 13 84 14 4 15 5 16 6 17 17 18 18 19 19 20 20 21 21 22
REMARK SMILES IDX 22 23 83 24 23 25 82 26 24 27 25 28 26 29 76 30 27 31 81 32
REMARK SMILES IDX 75 33 77 34 28 35 80 36 74 37 73 38 29 40 61 41 41 42 60 43
REMARK SMILES IDX 42 44 45 45 59 46 78 47 43 48 44 49 58 51 79 52 46 53 30 54
REMARK SMILES IDX 31 55 39 56 32 57 33 58 37 59 40 60 34 61 35 62 38 63 36 64
REMARK SMILES IDX 62 65 63 66 71 67 64 68 65 69 69 70 72 71 66 72 67 73 70 74
REMARK SMILES IDX 68 75 47 76 48 77 56 78 49 79 50 80 54 81 57 82 51 83 52 84
REMARK SMILES IDX 55 85 53 86
REMARK H PARENT 77 39 45 50
REMARK Flexibility Score: inf
ROOT
ATOM      1  C   UNL A   1      42.866  21.206  26.087  1.00  0.00     0.274 C 
ENDROOT
BRANCH   1   2
ATOM      2  O   UNL A   1      42.890  22.315  25.183  1.00  0.00    -0.461 OA
BRANCH   2   3
ATOM      3  C   UNL A   1      44.035  22.537  24.466  1.00  0.00     0.324 C 
ATOM      4  O   UNL A   1      44.466  21.750  23.639  1.00  0.00    -0.251 OA
BRANCH   3   5
ATOM      5  C   UNL A   1      44.551  23.928  24.720  1.00  0.00     0.219 C 
ATOM      6  C   UNL A   1      43.408  24.832  25.190  1.00  0.00     0.038 C 
BRANCH   5   7
ATOM      7  S   UNL A   1      45.867  23.912  25.928  1.00  0.00     0.192 S 
ATOM      8  O   UNL A   1      46.943  24.742  25.419  1.00  0.00    -0.223 OA
ATOM      9  O   UNL A   1      46.145  22.521  26.249  1.00  0.00    -0.223 OA
BRANCH   7  10
ATOM     10  C   UNL A   1      45.297  24.589  27.503  1.00  0.00     0.071 A 
ATOM     11  C   UNL A   1      44.183  23.217  30.915  1.00  0.00     0.044 C 
ATOM     12  C   UNL A   1      44.569  24.161  29.811  1.00  0.00    -0.050 A 
ATOM     13  C   UNL A   1      44.657  25.523  30.086  1.00  0.00     0.004 A 
ATOM     14  C   UNL A   1      44.910  23.698  28.528  1.00  0.00     0.024 A 
ATOM     15  C   UNL A   1      45.067  26.409  29.094  1.00  0.00     0.005 A 
ATOM     16  C   UNL A   1      45.399  25.967  27.795  1.00  0.00    -0.032 A 
ATOM     17  C   UNL A   1      45.934  27.038  26.883  1.00  0.00     0.046 C 
ENDBRANCH   7  10
ENDBRANCH   5   7
ENDBRANCH   3   5
ENDBRANCH   2   3
ENDBRANCH   1   2
BRANCH   1  18
ATOM     18  C   UNL A   1      41.436  20.666  26.220  1.00  0.00     0.275 C 
BRANCH  18  19
ATOM     19  O   UNL A   1      40.492  21.400  27.066  1.00  0.00    -0.458 OA
BRANCH  19  20
ATOM     20  C   UNL A   1      39.735  22.494  26.776  1.00  0.00     0.338 C 
ATOM     21  O   UNL A   1      38.599  22.403  26.365  1.00  0.00    -0.246 OA
BRANCH  20  22
ATOM     22  C   UNL A   1      40.323  23.824  27.042  1.00  0.00     0.060 A 
ATOM     23  C   UNL A   1      39.754  24.960  26.437  1.00  0.00     0.016 A 
ATOM     24  C   UNL A   1      41.314  23.955  27.998  1.00  0.00     0.016 A 
ATOM     25  C   UNL A   1      40.036  26.227  26.942  1.00  0.00     0.010 A 
ATOM     26  C   UNL A   1      41.467  25.179  28.597  1.00  0.00     0.010 A 
ATOM     27  C   UNL A   1      40.849  26.323  28.067  1.00  0.00    -0.014 A 
BRANCH  27  28
ATOM     28  C   UNL A   1      41.128  27.593  28.727  1.00  0.00     0.031 A 
ATOM     29  C   UNL A   1      42.158  28.536  28.157  1.00  0.00     0.074 A 
ATOM     30  C   UNL A   1      40.199  28.042  29.596  1.00  0.00     0.049 A 
ATOM     31  N   UNL A   1      43.167  29.090  28.759  1.00  0.00    -0.248 NA
ATOM     32  C   UNL A   1      42.058  28.924  26.744  1.00  0.00     0.031 C 
ATOM     33  C   UNL A   1      38.935  27.417  30.020  1.00  0.00     0.029 A 
ATOM     34  N   UNL A   1      40.123  29.266  30.156  1.00  0.00    -0.354 N 
ATOM     35  C   UNL A   1      43.774  29.967  27.843  1.00  0.00     0.074 A 
ATOM     36  C   UNL A   1      43.109  29.734  26.589  1.00  0.00     0.031 C 
ATOM     37  C   UNL A   1      38.114  28.365  30.518  1.00  0.00     0.029 A 
ATOM     38  C   UNL A   1      38.874  29.590  30.647  1.00  0.00     0.049 A 
ATOM     39  H   UNL A   1      40.893  29.878  30.210  1.00  0.00     0.167 HD
ATOM     40  C   UNL A   1      44.682  30.921  28.225  1.00  0.00     0.037 A 
ATOM     41  C   UNL A   1      38.498  30.814  31.074  1.00  0.00     0.037 A 
ATOM     42  C   UNL A   1      45.125  30.687  29.574  1.00  0.00     0.049 A 
ATOM     43  C   UNL A   1      39.752  31.547  31.413  1.00  0.00     0.074 A 
ATOM     44  C   UNL A   1      45.817  29.674  30.206  1.00  0.00     0.029 A 
ATOM     45  N   UNL A   1      44.549  31.416  30.587  1.00  0.00    -0.354 N 
ATOM     46  N   UNL A   1      40.567  31.160  32.364  1.00  0.00    -0.248 NA
ATOM     47  C   UNL A   1      40.356  32.373  30.375  1.00  0.00     0.031 C 
ATOM     48  C   UNL A   1      45.142  29.516  31.455  1.00  0.00     0.029 A 
ATOM     49  C   UNL A   1      44.149  30.496  31.523  1.00  0.00     0.049 A 
ATOM     50  H   UNL A   1      44.445  32.394  30.631  1.00  0.00     0.167 HD
ATOM     51  C   UNL A   1      41.845  31.354  31.855  1.00  0.00     0.074 A 
ATOM     52  C   UNL A   1      41.649  32.163  30.648  1.00  0.00     0.031 C 
ATOM     53  C   UNL A   1      42.915  30.606  32.267  1.00  0.00     0.037 A 
BRANCH  40  54
ATOM     54  C   UNL A   1      45.005  32.240  27.540  1.00  0.00     0.064 A 
ATOM     55  C   UNL A   1      46.220  32.362  26.818  1.00  0.00     0.173 A 
ATOM     56  C   UNL A   1      44.346  33.457  27.800  1.00  0.00     0.173 A 
ATOM     57  F   UNL A   1      46.934  31.276  26.483  1.00  0.00    -0.203 F 
ATOM     58  C   UNL A   1      46.783  33.601  26.499  1.00  0.00     0.198 A 
ATOM     59  C   UNL A   1      44.889  34.694  27.433  1.00  0.00     0.198 A 
ATOM     60  F   UNL A   1      43.213  33.512  28.507  1.00  0.00    -0.203 F 
ATOM     61  F   UNL A   1      48.002  33.657  25.943  1.00  0.00    -0.200 F 
ATOM     62  C   UNL A   1      46.124  34.769  26.822  1.00  0.00     0.200 A 
ATOM     63  F   UNL A   1      44.236  35.820  27.755  1.00  0.00    -0.200 F 
ATOM     64  F   UNL A   1      46.691  35.960  26.586  1.00  0.00    -0.200 F 
ENDBRANCH  40  54
BRANCH  41  65
ATOM     65  C   UNL A   1      37.181  31.432  30.801  1.00  0.00     0.064 A 
ATOM     66  C   UNL A   1      36.265  31.683  31.826  1.00  0.00     0.173 A 
ATOM     67  C   UNL A   1      36.873  31.971  29.531  1.00  0.00     0.173 A 
ATOM     68  F   UNL A   1      36.511  31.244  33.068  1.00  0.00    -0.203 F 
ATOM     69  C   UNL A   1      35.100  32.425  31.596  1.00  0.00     0.198 A 
ATOM     70  C   UNL A   1      35.710  32.705  29.302  1.00  0.00     0.198 A 
ATOM     71  F   UNL A   1      37.731  31.857  28.506  1.00  0.00    -0.203 F 
ATOM     72  F   UNL A   1      34.257  32.675  32.608  1.00  0.00    -0.200 F 
ATOM     73  C   UNL A   1      34.825  32.938  30.337  1.00  0.00     0.200 A 
ATOM     74  F   UNL A   1      35.475  33.220  28.086  1.00  0.00    -0.200 F 
ATOM     75  F   UNL A   1      33.730  33.681  30.129  1.00  0.00    -0.200 F 
ENDBRANCH  41  65
BRANCH  53  76
ATOM     76  C   UNL A   1      42.744  29.617  33.393  1.00  0.00     0.064 A 
ATOM     77  C   UNL A   1      42.567  28.237  33.194  1.00  0.00     0.173 A 
ATOM     78  C   UNL A   1      43.017  30.031  34.703  1.00  0.00     0.173 A 
ATOM     79  F   UNL A   1      42.415  27.733  31.971  1.00  0.00    -0.203 F 
ATOM     80  C   UNL A   1      42.634  27.323  34.243  1.00  0.00     0.198 A 
ATOM     81  C   UNL A   1      43.114  29.113  35.749  1.00  0.00     0.198 A 
ATOM     82  F   UNL A   1      43.269  31.324  34.959  1.00  0.00    -0.203 F 
ATOM     83  F   UNL A   1      42.477  26.012  34.001  1.00  0.00    -0.200 F 
ATOM     84  C   UNL A   1      42.917  27.761  35.520  1.00  0.00     0.200 A 
ATOM     85  F   UNL A   1      43.446  29.537  36.976  1.00  0.00    -0.200 F 
ATOM     86  F   UNL A   1      43.038  26.878  36.522  1.00  0.00    -0.200 F 
ENDBRANCH  53  76
ENDBRANCH  27  28
ENDBRANCH  20  22
ENDBRANCH  19  20
ENDBRANCH  18  19
ENDBRANCH   1  18
TORSDOF 13
ENDMDL
MODEL 2
REMARK VINA RESULT:     -10.5      4.558     10.252
REMARK SMILES Cc1ccc(C)c(S(=O)(=O)[C@H](C)C(=O)OCCOC(=O)c2ccc(-c3c4nc(c(-c5c(F)c(F)c(F)c(F)c5F)c5ccc([nH]5)c(-c5c(F)c(F)c(F)c(F)c5F)c5nc(c(-c6c(F)c(F)c(F)c(F)c6F)c6ccc3[nH]6)C=C5)C=C4)cc2)c1
REMARK SMILES IDX 16 1 15 2 13 3 14 4 11 5 12 6 8 7 9 8 10 9 7 10 1 11 2 12
REMARK SMILES IDX 3 13 84 14 4 15 5 16 6 17 17 18 18 19 19 20 20 21 21 22
REMARK SMILES IDX 22 23 83 24 23 25 82 26 24 27 25 28 26 29 76 30 27 31 81 32
REMARK SMILES IDX 75 33 77 34 28 35 80 36 74 37 73 38 29 40 61 41 41 42 60 43
REMARK SMILES IDX 42 44 45 45 59 46 78 47 43 48 44 49 58 51 79 52 46 53 30 54
REMARK SMILES IDX 31 55 39 56 32 57 33 58 37 59 40 60 34 61 35 62 38 63 36 64
REMARK SMILES IDX 62 65 63 66 71 67 64 68 65 69 69 70 72 71 66 72 67 73 70 74
REMARK SMILES IDX 68 75 47 76 48 77 56 78 49 79 50 80 54 81 57 82 51 83 52 84
REMARK SMILES IDX 55 85 53 86
REMARK H PARENT 77 39 45 50
REMARK Flexibility Score: inf
ROOT
ATOM      1  C   UNL A   1      34.421  34.135  30.439  1.00  0.00     0.274 C 
ENDROOT
BRANCH   1   2
ATOM      2  O   UNL A   1      34.369  33.020  31.335  1.00  0.00    -0.461 OA
BRANCH   2   3
ATOM      3  C   UNL A   1      34.393  33.274  32.680  1.00  0.00     0.324 C 
ATOM      4  O   UNL A   1      33.466  33.796  33.276  1.00  0.00    -0.251 OA
BRANCH   3   5
ATOM      5  C   UNL A   1      35.619  32.665  33.306  1.00  0.00     0.219 C 
ATOM      6  C   UNL A   1      36.140  31.521  32.432  1.00  0.00     0.038 C 
BRANCH   5   7
ATOM      7  S   UNL A   1      36.893  33.894  33.545  1.00  0.00     0.192 S 
ATOM      8  O   UNL A   1      37.303  33.840  34.936  1.00  0.00    -0.223 OA
ATOM      9  O   UNL A   1      36.392  35.150  33.009  1.00  0.00    -0.223 OA
BRANCH   7  10
ATOM     10  C   UNL A   1      38.323  33.544  32.498  1.00  0.00     0.071 A 
ATOM     11  C   UNL A   1      39.893  35.000  29.307  1.00  0.00     0.044 C 
ATOM     12  C   UNL A   1      39.669  34.167  30.537  1.00  0.00    -0.050 A 
ATOM     13  C   UNL A   1      40.659  33.275  30.940  1.00  0.00     0.004 A 
ATOM     14  C   UNL A   1      38.515  34.312  31.328  1.00  0.00     0.024 A 
ATOM     15  C   UNL A   1      40.496  32.534  32.107  1.00  0.00     0.005 A 
ATOM     16  C   UNL A   1      39.340  32.655  32.908  1.00  0.00    -0.032 A 
ATOM     17  C   UNL A   1      39.379  31.872  34.193  1.00  0.00     0.046 C 
ENDBRANCH   7  10
ENDBRANCH   5   7
ENDBRANCH   3   5
ENDBRANCH   2   3
ENDBRANCH   1   2
BRANCH   1  18
ATOM     18  C   UNL A   1      34.409  33.643  28.985  1.00  0.00     0.275 C 
BRANCH  18  19
ATOM     19  O   UNL A   1      34.169  32.220  28.734  1.00  0.00    -0.458 OA
BRANCH  19  20
ATOM     20  C   UNL A   1      34.960  31.303  28.113  1.00  0.00     0.338 C 
ATOM     21  O   UNL A   1      34.711  30.883  27.003  1.00  0.00    -0.246 OA
BRANCH  20  22
ATOM     22  C   UNL A   1      36.188  30.871  28.811  1.00  0.00     0.060 A 
ATOM     23  C   UNL A   1      36.275  29.554  29.298  1.00  0.00     0.016 A 
ATOM     24  C   UNL A   1      37.290  31.706  28.836  1.00  0.00     0.016 A 
ATOM     25  C   UNL A   1      37.518  29.014  29.619  1.00  0.00     0.010 A 
ATOM     26  C   UNL A   1      38.526  31.132  28.995  1.00  0.00     0.010 A 
ATOM     27  C   UNL A   1      38.651  29.795  29.404  1.00  0.00    -0.014 A 
BRANCH  27  28
ATOM     28  C   UNL A   1      40.002  29.290  29.618  1.00  0.00     0.031 A 
ATOM     29  C   UNL A   1      40.516  29.064  31.019  1.00  0.00     0.074 A 
ATOM     30  C   UNL A   1      40.601  28.695  28.567  1.00  0.00     0.049 A 
ATOM     31  N   UNL A   1      41.615  29.498  31.556  1.00  0.00    -0.248 NA
ATOM     32  C   UNL A   1      39.718  28.244  31.941  1.00  0.00     0.031 C 
ATOM     33  C   UNL A   1      40.107  28.503  27.194  1.00  0.00     0.029 A 
ATOM     34  N   UNL A   1      41.738  27.970  28.573  1.00  0.00    -0.354 N 
ATOM     35  C   UNL A   1      41.705  28.938  32.843  1.00  0.00     0.074 A 
ATOM     36  C   UNL A   1      40.451  28.266  33.058  1.00  0.00     0.031 C 
ATOM     37  C   UNL A   1      40.788  27.494  26.612  1.00  0.00     0.029 A 
ATOM     38  C   UNL A   1      41.887  27.137  27.482  1.00  0.00     0.049 A 
ATOM     39  H   UNL A   1      42.407  28.031  29.294  1.00  0.00     0.167 HD
ATOM     40  C   UNL A   1      42.864  28.952  33.575  1.00  0.00     0.037 A 
ATOM     41  C   UNL A   1      42.834  26.182  27.354  1.00  0.00     0.037 A 
ATOM     42  C   UNL A   1      43.822  29.851  32.989  1.00  0.00     0.049 A 
ATOM     43  C   UNL A   1      43.936  26.552  28.289  1.00  0.00     0.074 A 
ATOM     44  C   UNL A   1      43.865  31.213  32.764  1.00  0.00     0.029 A 
ATOM     45  N   UNL A   1      44.812  29.324  32.195  1.00  0.00    -0.354 N 
ATOM     46  N   UNL A   1      44.635  27.653  28.162  1.00  0.00    -0.248 NA
ATOM     47  C   UNL A   1      43.905  25.986  29.631  1.00  0.00     0.031 C 
ATOM     48  C   UNL A   1      44.438  31.333  31.462  1.00  0.00     0.029 A 
ATOM     49  C   UNL A   1      44.777  30.049  31.031  1.00  0.00     0.049 A 
ATOM     50  H   UNL A   1      45.420  28.581  32.415  1.00  0.00     0.167 HD
ATOM     51  C   UNL A   1      44.806  28.131  29.455  1.00  0.00     0.074 A 
ATOM     52  C   UNL A   1      44.386  27.025  30.322  1.00  0.00     0.031 C 
ATOM     53  C   UNL A   1      44.978  29.462  29.725  1.00  0.00     0.037 A 
BRANCH  40  54
ATOM     54  C   UNL A   1      43.301  27.983  34.662  1.00  0.00     0.064 A 
ATOM     55  C   UNL A   1      43.637  28.490  35.943  1.00  0.00     0.173 A 
ATOM     56  C   UNL A   1      43.691  26.650  34.433  1.00  0.00     0.173 A 
ATOM     57  F   UNL A   1      43.300  29.740  36.299  1.00  0.00    -0.203 F 
ATOM     58  C   UNL A   1      44.405  27.766  36.861  1.00  0.00     0.198 A 
ATOM     59  C   UNL A   1      44.415  25.910  35.375  1.00  0.00     0.198 A 
ATOM     60  F   UNL A   1      43.485  26.043  33.260  1.00  0.00    -0.203 F 
ATOM     61  F   UNL A   1      44.813  28.350  37.998  1.00  0.00    -0.200 F 
ATOM     62  C   UNL A   1      44.808  26.480  36.569  1.00  0.00     0.200 A 
ATOM     63  F   UNL A   1      44.801  24.661  35.076  1.00  0.00    -0.200 F 
ATOM     64  F   UNL A   1      45.605  25.808  37.411  1.00  0.00    -0.200 F 
ENDBRANCH  40  54
BRANCH  41  65
ATOM     65  C   UNL A   1      42.599  24.839  26.780  1.00  0.00     0.064 A 
ATOM     66  C   UNL A   1      43.224  24.428  25.600  1.00  0.00     0.173 A 
ATOM     67  C   UNL A   1      41.892  23.847  27.498  1.00  0.00     0.173 A 
ATOM     68  F   UNL A   1      43.952  25.301  24.889  1.00  0.00    -0.203 F 
ATOM     69  C   UNL A   1      43.144  23.104  25.155  1.00  0.00     0.198 A 
ATOM     70  C   UNL A   1      41.807  22.530  27.051  1.00  0.00     0.198 A 
ATOM     71  F   UNL A   1      41.330  24.123  28.685  1.00  0.00    -0.203 F 
ATOM     72  F   UNL A   1      43.782  22.735  24.035  1.00  0.00    -0.200 F 
ATOM     73  C   UNL A   1      42.439  22.155  25.882  1.00  0.00     0.200 A 
ATOM     74  F   UNL A   1      41.147  21.619  27.783  1.00  0.00    -0.200 F 
ATOM     75  F   UNL A   1      42.396  20.880  25.474  1.00  0.00    -0.200 F 
ENDBRANCH  41  65
BRANCH  53  76
ATOM     76  C   UNL A   1      45.110  30.442  28.585  1.00  0.00     0.064 A 
ATOM     77  C   UNL A   1      44.066  31.281  28.159  1.00  0.00     0.173 A 
ATOM     78  C   UNL A   1      46.385  30.722  28.078  1.00  0.00     0.173 A 
ATOM     79  F   UNL A   1      42.842  31.168  28.669  1.00  0.00    -0.203 F 
ATOM     80  C   UNL A   1      44.275  32.325  27.260  1.00  0.00     0.198 A 
ATOM     81  C   UNL A   1      46.601  31.785  27.201  1.00  0.00     0.198 A 
ATOM     82  F   UNL A   1      47.443  30.009  28.494  1.00  0.00    -0.203 F 
ATOM     83  F   UNL A   1      43.250  33.112  26.897  1.00  0.00    -0.200 F 
ATOM     84  C   UNL A   1      45.545  32.583  26.789  1.00  0.00     0.200 A 
ATOM     85  F   UNL A   1      47.845  32.067  26.792  1.00  0.00    -0.200 F 
ATOM     86  F   UNL A   1      45.760  33.620  25.968  1.00  0.00    -0.200 F 
ENDBRANCH  53  76
ENDBRANCH  27  28
ENDBRANCH  20  22
ENDBRANCH  19  20
ENDBRANCH  18  19
ENDBRANCH   1  18
TORSDOF 13
ENDMDL
MODEL 3
REMARK VINA RESULT:     -10.0      3.095      5.472
REMARK SMILES Cc1ccc(C)c(S(=O)(=O)[C@H](C)C(=O)OCCOC(=O)c2ccc(-c3c4nc(c(-c5c(F)c(F)c(F)c(F)c5F)c5ccc([nH]5)c(-c5c(F)c(F)c(F)c(F)c5F)c5nc(c(-c6c(F)c(F)c(F)c(F)c6F)c6ccc3[nH]6)C=C5)C=C4)cc2)c1
REMARK SMILES IDX 16 1 15 2 13 3 14 4 11 5 12 6 8 7 9 8 10 9 7 10 1 11 2 12
REMARK SMILES IDX 3 13 84 14 4 15 5 16 6 17 17 18 18 19 19 20 20 21 21 22
REMARK SMILES IDX 22 23 83 24 23 25 82 26 24 27 25 28 26 29 76 30 27 31 81 32
REMARK SMILES IDX 75 33 77 34 28 35 80 36 74 37 73 38 29 40 61 41 41 42 60 43
REMARK SMILES IDX 42 44 45 45 59 46 78 47 43 48 44 49 58 51 79 52 46 53 30 54
REMARK SMILES IDX 31 55 39 56 32 57 33 58 37 59 40 60 34 61 35 62 38 63 36 64
REMARK SMILES IDX 62 65 63 66 71 67 64 68 65 69 69 70 72 71 66 72 67 73 70 74
REMARK SMILES IDX 68 75 47 76 48 77 56 78 49 79 50 80 54 81 57 82 51 83 52 84
REMARK SMILES IDX 55 85 53 86
REMARK H PARENT 77 39 45 50
REMARK Flexibility Score: inf
ROOT
ATOM      1  C   UNL A   1      37.403  21.716  24.324  1.00  0.00     0.274 C 
ENDROOT
BRANCH   1   2
ATOM      2  O   UNL A   1      35.977  21.600  24.360  1.00  0.00    -0.461 OA
BRANCH   2   3
ATOM      3  C   UNL A   1      35.235  22.614  23.817  1.00  0.00     0.324 C 
ATOM      4  O   UNL A   1      35.528  23.168  22.771  1.00  0.00    -0.251 OA
BRANCH   3   5
ATOM      5  C   UNL A   1      33.958  22.800  24.592  1.00  0.00     0.219 C 
ATOM      6  C   UNL A   1      33.376  21.437  24.977  1.00  0.00     0.038 C 
BRANCH   5   7
ATOM      7  S   UNL A   1      34.234  23.792  26.052  1.00  0.00     0.192 S 
ATOM      8  O   UNL A   1      35.602  24.275  26.005  1.00  0.00    -0.223 OA
ATOM      9  O   UNL A   1      33.805  23.007  27.198  1.00  0.00    -0.223 OA
BRANCH   7  10
ATOM     10  C   UNL A   1      33.113  25.209  26.083  1.00  0.00     0.071 A 
ATOM     11  C   UNL A   1      33.299  28.958  25.264  1.00  0.00     0.044 C 
ATOM     12  C   UNL A   1      32.772  27.603  25.644  1.00  0.00    -0.050 A 
ATOM     13  C   UNL A   1      31.402  27.437  25.829  1.00  0.00     0.004 A 
ATOM     14  C   UNL A   1      33.618  26.485  25.751  1.00  0.00     0.024 A 
ATOM     15  C   UNL A   1      30.888  26.178  26.126  1.00  0.00     0.005 A 
ATOM     16  C   UNL A   1      31.721  25.046  26.252  1.00  0.00    -0.032 A 
ATOM     17  C   UNL A   1      30.991  23.747  26.459  1.00  0.00     0.046 C 
ENDBRANCH   7  10
ENDBRANCH   5   7
ENDBRANCH   3   5
ENDBRANCH   2   3
ENDBRANCH   1   2
BRANCH   1  18
ATOM     18  C   UNL A   1      37.960  21.802  25.752  1.00  0.00     0.275 C 
BRANCH  18  19
ATOM     19  O   UNL A   1      39.381  22.112  25.926  1.00  0.00    -0.458 OA
BRANCH  19  20
ATOM     20  C   UNL A   1      40.071  22.418  27.059  1.00  0.00     0.338 C 
ATOM     21  O   UNL A   1      40.403  21.571  27.861  1.00  0.00    -0.246 OA
BRANCH  20  22
ATOM     22  C   UNL A   1      40.469  23.827  27.260  1.00  0.00     0.060 A 
ATOM     23  C   UNL A   1      39.548  24.849  26.969  1.00  0.00     0.016 A 
ATOM     24  C   UNL A   1      41.672  24.115  27.879  1.00  0.00     0.016 A 
ATOM     25  C   UNL A   1      39.748  26.128  27.483  1.00  0.00     0.010 A 
ATOM     26  C   UNL A   1      41.790  25.323  28.518  1.00  0.00     0.010 A 
ATOM     27  C   UNL A   1      40.845  26.341  28.313  1.00  0.00    -0.014 A 
BRANCH  27  28
ATOM     28  C   UNL A   1      41.090  27.617  28.975  1.00  0.00     0.031 A 
ATOM     29  C   UNL A   1      42.182  28.533  28.480  1.00  0.00     0.074 A 
ATOM     30  C   UNL A   1      40.100  28.095  29.756  1.00  0.00     0.049 A 
ATOM     31  N   UNL A   1      43.147  29.080  29.157  1.00  0.00    -0.248 NA
ATOM     32  C   UNL A   1      42.207  28.901  27.059  1.00  0.00     0.031 C 
ATOM     33  C   UNL A   1      38.794  27.499  30.081  1.00  0.00     0.029 A 
ATOM     34  N   UNL A   1      40.000  29.329  30.290  1.00  0.00    -0.354 N 
ATOM     35  C   UNL A   1      43.844  29.932  28.283  1.00  0.00     0.074 A 
ATOM     36  C   UNL A   1      43.283  29.690  26.981  1.00  0.00     0.031 C 
ATOM     37  C   UNL A   1      37.951  28.468  30.495  1.00  0.00     0.029 A 
ATOM     38  C   UNL A   1      38.720  29.682  30.669  1.00  0.00     0.049 A 
ATOM     39  H   UNL A   1      40.774  29.929  30.400  1.00  0.00     0.167 HD
ATOM     40  C   UNL A   1      44.734  30.876  28.726  1.00  0.00     0.037 A 
ATOM     41  C   UNL A   1      38.331  30.919  31.046  1.00  0.00     0.037 A 
ATOM     42  C   UNL A   1      45.058  30.657  30.111  1.00  0.00     0.049 A 
ATOM     43  C   UNL A   1      39.566  31.636  31.478  1.00  0.00     0.074 A 
ATOM     44  C   UNL A   1      45.676  29.642  30.814  1.00  0.00     0.029 A 
ATOM     45  N   UNL A   1      44.413  31.411  31.061  1.00  0.00    -0.354 N 
ATOM     46  N   UNL A   1      40.290  31.250  32.500  1.00  0.00    -0.248 NA
ATOM     47  C   UNL A   1      40.270  32.435  30.483  1.00  0.00     0.031 C 
ATOM     48  C   UNL A   1      44.896  29.515  32.003  1.00  0.00     0.029 A 
ATOM     49  C   UNL A   1      43.919  30.513  31.973  1.00  0.00     0.049 A 
ATOM     50  H   UNL A   1      44.322  32.391  31.083  1.00  0.00     0.167 HD
ATOM     51  C   UNL A   1      41.610  31.415  32.098  1.00  0.00     0.074 A 
ATOM     52  C   UNL A   1      41.531  32.207  30.867  1.00  0.00     0.031 C 
ATOM     53  C   UNL A   1      42.628  30.656  32.609  1.00  0.00     0.037 A 
BRANCH  40  54
ATOM     54  C   UNL A   1      45.137  32.179  28.052  1.00  0.00     0.064 A 
ATOM     55  C   UNL A   1      44.140  33.150  27.780  1.00  0.00     0.173 A 
ATOM     56  C   UNL A   1      46.367  32.393  27.401  1.00  0.00     0.173 A 
ATOM     57  F   UNL A   1      42.931  33.077  28.356  1.00  0.00    -0.203 F 
ATOM     58  C   UNL A   1      44.323  34.171  26.841  1.00  0.00     0.198 A 
ATOM     59  C   UNL A   1      46.562  33.447  26.501  1.00  0.00     0.198 A 
ATOM     60  F   UNL A   1      47.390  31.542  27.522  1.00  0.00    -0.203 F 
ATOM     61  F   UNL A   1      43.298  34.974  26.520  1.00  0.00    -0.200 F 
ATOM     62  C   UNL A   1      45.531  34.309  26.190  1.00  0.00     0.200 A 
ATOM     63  F   UNL A   1      47.742  33.567  25.874  1.00  0.00    -0.200 F 
ATOM     64  F   UNL A   1      45.689  35.238  25.237  1.00  0.00    -0.200 F 
ENDBRANCH  40  54
BRANCH  41  65
ATOM     65  C   UNL A   1      37.054  31.554  30.654  1.00  0.00     0.064 A 
ATOM     66  C   UNL A   1      36.085  31.893  31.602  1.00  0.00     0.173 A 
ATOM     67  C   UNL A   1      36.840  32.022  29.337  1.00  0.00     0.173 A 
ATOM     68  F   UNL A   1      36.241  31.525  32.881  1.00  0.00    -0.203 F 
ATOM     69  C   UNL A   1      34.960  32.651  31.256  1.00  0.00     0.198 A 
ATOM     70  C   UNL A   1      35.717  32.772  28.992  1.00  0.00     0.198 A 
ATOM     71  F   UNL A   1      37.755  31.821  28.376  1.00  0.00    -0.203 F 
ATOM     72  F   UNL A   1      34.065  32.987  32.196  1.00  0.00    -0.200 F 
ATOM     73  C   UNL A   1      34.779  33.093  29.953  1.00  0.00     0.200 A 
ATOM     74  F   UNL A   1      35.573  33.217  27.734  1.00  0.00    -0.200 F 
ATOM     75  F   UNL A   1      33.722  33.851  29.632  1.00  0.00    -0.200 F 
ENDBRANCH  41  65
BRANCH  53  76
ATOM     76  C   UNL A   1      42.345  29.688  33.731  1.00  0.00     0.064 A 
ATOM     77  C   UNL A   1      42.070  28.324  33.529  1.00  0.00     0.173 A 
ATOM     78  C   UNL A   1      42.607  30.085  35.049  1.00  0.00     0.173 A 
ATOM     79  F   UNL A   1      41.920  27.828  32.303  1.00  0.00    -0.203 F 
ATOM     80  C   UNL A   1      42.032  27.412  34.581  1.00  0.00     0.198 A 
ATOM     81  C   UNL A   1      42.599  29.167  36.099  1.00  0.00     0.198 A 
ATOM     82  F   UNL A   1      42.948  31.356  35.310  1.00  0.00    -0.203 F 
ATOM     83  F   UNL A   1      41.783  26.116  34.337  1.00  0.00    -0.200 F 
ATOM     84  C   UNL A   1      42.307  27.833  35.866  1.00  0.00     0.200 A 
ATOM     85  F   UNL A   1      42.922  29.570  37.336  1.00  0.00    -0.200 F 
ATOM     86  F   UNL A   1      42.326  26.948  36.873  1.00  0.00    -0.200 F 
ENDBRANCH  53  76
ENDBRANCH  27  28
ENDBRANCH  20  22
ENDBRANCH  19  20
ENDBRANCH  18  19
ENDBRANCH   1  18
TORSDOF 13
ENDMDL
