MODEL 1
REMARK VINA RESULT:     -11.5      0.000      0.000
REMARK SMILES COc1ccc(/C=C/c2ncc(C(=O)OCCOC(=O)c3ccc(-c4c5nc(c(-c6c(F)c(F)c(F)c(F)c6F)c6ccc([nH]6)c(-c6c(F)c(F)c(F)c(F)c6F)c6nc(c(-c7c(F)c(F)c(F)c(F)c7F)c7ccc4[nH]7)C=C6)C=C5)cc3)s2)cc1O
REMARK SMILES IDX 16 1 15 2 13 3 14 4 12 5 9 6 10 7 84 8 11 9 8 10 7 11 6 12
REMARK SMILES IDX 3 13 4 14 86 15 5 16 85 17 2 18 1 19 87 20 17 22 18 23 19 24
REMARK SMILES IDX 20 25 21 26 22 27 83 28 23 29 82 30 24 31 25 32 26 33 76 34
REMARK SMILES IDX 27 35 81 36 75 37 77 38 28 39 80 40 74 41 73 42 29 44 61 45
REMARK SMILES IDX 41 46 60 47 42 48 45 49 59 50 78 51 43 52 44 53 58 55 79 56
REMARK SMILES IDX 46 57 30 58 31 59 39 60 32 61 33 62 37 63 40 64 34 65 35 66
REMARK SMILES IDX 38 67 36 68 62 69 63 70 71 71 64 72 65 73 69 74 72 75 66 76
REMARK SMILES IDX 67 77 70 78 68 79 47 80 48 81 56 82 49 83 50 84 54 85 57 86
REMARK SMILES IDX 51 87 52 88 55 89 53 90
REMARK H PARENT 87 21 77 43 45 54
REMARK Flexibility Score: inf
ROOT
ATOM      1  C   UNL A   1      33.783  35.457  28.604  1.00  0.00     0.275 C 
ENDROOT
BRANCH   1   2
ATOM      2  O   UNL A   1      33.781  34.043  28.887  1.00  0.00    -0.458 OA
BRANCH   2   3
ATOM      3  C   UNL A   1      33.110  33.255  27.995  1.00  0.00     0.350 C 
ATOM      4  O   UNL A   1      32.141  33.624  27.349  1.00  0.00    -0.245 OA
BRANCH   3   5
ATOM      5  C   UNL A   1      33.764  31.972  27.869  1.00  0.00     0.132 A 
ATOM      6  C   UNL A   1      34.357  29.720  27.147  1.00  0.00     0.116 A 
ATOM      7  N   UNL A   1      35.379  30.282  27.761  1.00  0.00    -0.244 NA
ATOM      8  S   UNL A   1      32.899  30.637  27.221  1.00  0.00    -0.107 S 
ATOM      9  C   UNL A   1      35.052  31.572  28.151  1.00  0.00     0.139 A 
BRANCH   6  10
ATOM     10  C   UNL A   1      34.349  28.491  26.434  1.00  0.00     0.040 C 
ATOM     11  C   UNL A   1      33.866  28.428  25.185  1.00  0.00     0.011 C 
BRANCH  11  12
ATOM     12  C   UNL A   1      33.823  27.223  24.335  1.00  0.00    -0.022 A 
ATOM     13  C   UNL A   1      33.587  24.994  22.589  1.00  0.00     0.160 A 
ATOM     14  C   UNL A   1      33.830  24.817  23.954  1.00  0.00     0.051 A 
ATOM     15  C   UNL A   1      33.454  26.297  22.111  1.00  0.00     0.158 A 
ATOM     16  C   UNL A   1      33.941  25.915  24.820  1.00  0.00     0.012 A 
ATOM     17  C   UNL A   1      33.595  27.396  22.963  1.00  0.00     0.058 A 
BRANCH  13  18
ATOM     18  O   UNL A   1      33.461  23.828  21.891  1.00  0.00    -0.493 OA
ATOM     19  C   UNL A   1      32.796  22.738  22.517  1.00  0.00     0.278 C 
ENDBRANCH  13  18
BRANCH  15  20
ATOM     20  O   UNL A   1      33.102  26.595  20.824  1.00  0.00    -0.504 OA
ATOM     21  H   UNL A   1      33.762  26.827  20.201  1.00  0.00     0.293 HD
ENDBRANCH  15  20
ENDBRANCH  11  12
ENDBRANCH   6  10
ENDBRANCH   3   5
ENDBRANCH   2   3
ENDBRANCH   1   2
BRANCH   1  22
ATOM     22  C   UNL A   1      32.905  36.233  29.592  1.00  0.00     0.275 C 
BRANCH  22  23
ATOM     23  O   UNL A   1      32.365  35.380  30.621  1.00  0.00    -0.458 OA
BRANCH  23  24
ATOM     24  C   UNL A   1      32.613  35.781  31.888  1.00  0.00     0.338 C 
ATOM     25  O   UNL A   1      31.949  36.549  32.563  1.00  0.00    -0.246 OA
BRANCH  24  26
ATOM     26  C   UNL A   1      33.754  35.034  32.438  1.00  0.00     0.060 A 
ATOM     27  C   UNL A   1      35.008  35.640  32.362  1.00  0.00     0.016 A 
ATOM     28  C   UNL A   1      33.633  33.728  32.910  1.00  0.00     0.016 A 
ATOM     29  C   UNL A   1      36.153  34.948  32.736  1.00  0.00     0.010 A 
ATOM     30  C   UNL A   1      34.786  33.035  33.312  1.00  0.00     0.010 A 
ATOM     31  C   UNL A   1      36.056  33.635  33.214  1.00  0.00    -0.014 A 
BRANCH  31  32
ATOM     32  C   UNL A   1      37.296  32.897  33.568  1.00  0.00     0.031 A 
ATOM     33  C   UNL A   1      37.983  33.156  34.879  1.00  0.00     0.074 A 
ATOM     34  C   UNL A   1      37.781  31.958  32.733  1.00  0.00     0.049 A 
ATOM     35  N   UNL A   1      39.112  32.674  35.335  1.00  0.00    -0.248 NA
ATOM     36  C   UNL A   1      37.311  34.083  35.801  1.00  0.00     0.031 C 
ATOM     37  C   UNL A   1      37.176  31.573  31.457  1.00  0.00     0.029 A 
ATOM     38  N   UNL A   1      38.889  31.153  32.833  1.00  0.00    -0.354 N 
ATOM     39  C   UNL A   1      39.301  33.260  36.579  1.00  0.00     0.074 A 
ATOM     40  C   UNL A   1      38.177  34.145  36.802  1.00  0.00     0.031 C 
ATOM     41  C   UNL A   1      37.911  30.598  30.901  1.00  0.00     0.029 A 
ATOM     42  C   UNL A   1      39.070  30.332  31.747  1.00  0.00     0.049 A 
ATOM     43  H   UNL A   1      39.494  31.164  33.609  1.00  0.00     0.167 HD
ATOM     44  C   UNL A   1      40.320  33.075  37.454  1.00  0.00     0.037 A 
ATOM     45  C   UNL A   1      40.076  29.487  31.450  1.00  0.00     0.037 A 
ATOM     46  C   UNL A   1      41.422  32.172  37.239  1.00  0.00     0.049 A 
ATOM     47  C   UNL A   1      41.224  29.342  32.411  1.00  0.00     0.074 A 
ATOM     48  C   UNL A   1      42.492  31.901  38.074  1.00  0.00     0.029 A 
ATOM     49  N   UNL A   1      41.593  31.389  36.106  1.00  0.00    -0.354 N 
ATOM     50  N   UNL A   1      41.403  29.914  33.576  1.00  0.00    -0.248 NA
ATOM     51  C   UNL A   1      42.313  28.441  32.011  1.00  0.00     0.031 C 
ATOM     52  C   UNL A   1      43.335  30.991  37.426  1.00  0.00     0.029 A 
ATOM     53  C   UNL A   1      42.764  30.654  36.209  1.00  0.00     0.049 A 
ATOM     54  H   UNL A   1      40.974  31.359  35.341  1.00  0.00     0.167 HD
ATOM     55  C   UNL A   1      42.614  29.432  34.056  1.00  0.00     0.074 A 
ATOM     56  C   UNL A   1      43.116  28.505  33.063  1.00  0.00     0.031 C 
ATOM     57  C   UNL A   1      43.251  29.734  35.214  1.00  0.00     0.037 A 
BRANCH  44  58
ATOM     58  C   UNL A   1      40.312  33.894  38.712  1.00  0.00     0.064 A 
ATOM     59  C   UNL A   1      40.946  35.141  38.790  1.00  0.00     0.173 A 
ATOM     60  C   UNL A   1      39.627  33.434  39.848  1.00  0.00     0.173 A 
ATOM     61  F   UNL A   1      41.625  35.622  37.738  1.00  0.00    -0.203 F 
ATOM     62  C   UNL A   1      40.920  35.885  39.969  1.00  0.00     0.198 A 
ATOM     63  C   UNL A   1      39.577  34.193  41.014  1.00  0.00     0.198 A 
ATOM     64  F   UNL A   1      38.996  32.249  39.825  1.00  0.00    -0.203 F 
ATOM     65  F   UNL A   1      41.573  37.054  40.036  1.00  0.00    -0.200 F 
ATOM     66  C   UNL A   1      40.230  35.414  41.076  1.00  0.00     0.200 A 
ATOM     67  F   UNL A   1      38.899  33.741  42.078  1.00  0.00    -0.200 F 
ATOM     68  F   UNL A   1      40.201  36.134  42.206  1.00  0.00    -0.200 F 
ENDBRANCH  44  58
BRANCH  45  69
ATOM     69  C   UNL A   1      40.054  28.737  30.166  1.00  0.00     0.064 A 
ATOM     70  C   UNL A   1      40.613  29.277  29.002  1.00  0.00     0.173 A 
ATOM     71  C   UNL A   1      39.473  27.462  30.081  1.00  0.00     0.173 A 
ATOM     72  F   UNL A   1      41.155  30.505  29.025  1.00  0.00    -0.203 F 
ATOM     73  C   UNL A   1      40.585  28.576  27.797  1.00  0.00     0.198 A 
ATOM     74  C   UNL A   1      39.473  26.749  28.884  1.00  0.00     0.198 A 
ATOM     75  F   UNL A   1      38.919  26.901  31.166  1.00  0.00    -0.203 F 
ATOM     76  F   UNL A   1      41.090  29.132  26.688  1.00  0.00    -0.200 F 
ATOM     77  C   UNL A   1      40.023  27.308  27.742  1.00  0.00     0.200 A 
ATOM     78  F   UNL A   1      38.940  25.520  28.840  1.00  0.00    -0.200 F 
ATOM     79  F   UNL A   1      40.004  26.631  26.587  1.00  0.00    -0.200 F 
ENDBRANCH  45  69
BRANCH  57  80
ATOM     80  C   UNL A   1      44.551  29.033  35.483  1.00  0.00     0.064 A 
ATOM     81  C   UNL A   1      45.777  29.571  35.066  1.00  0.00     0.173 A 
ATOM     82  C   UNL A   1      44.572  27.827  36.200  1.00  0.00     0.173 A 
ATOM     83  F   UNL A   1      45.808  30.713  34.363  1.00  0.00    -0.203 F 
ATOM     84  C   UNL A   1      46.975  28.915  35.336  1.00  0.00     0.198 A 
ATOM     85  C   UNL A   1      45.774  27.189  36.493  1.00  0.00     0.198 A 
ATOM     86  F   UNL A   1      43.427  27.274  36.626  1.00  0.00    -0.203 F 
ATOM     87  F   UNL A   1      48.131  29.424  34.888  1.00  0.00    -0.200 F 
ATOM     88  C   UNL A   1      46.973  27.729  36.055  1.00  0.00     0.200 A 
ATOM     89  F   UNL A   1      45.771  26.049  37.199  1.00  0.00    -0.200 F 
ATOM     90  F   UNL A   1      48.128  27.102  36.320  1.00  0.00    -0.200 F 
ENDBRANCH  57  80
ENDBRANCH  31  32
ENDBRANCH  24  26
ENDBRANCH  23  24
ENDBRANCH  22  23
ENDBRANCH   1  22
TORSDOF 15
ENDMDL
MODEL 2
REMARK VINA RESULT:     -11.5      2.975      8.744
REMARK SMILES COc1ccc(/C=C/c2ncc(C(=O)OCCOC(=O)c3ccc(-c4c5nc(c(-c6c(F)c(F)c(F)c(F)c6F)c6ccc([nH]6)c(-c6c(F)c(F)c(F)c(F)c6F)c6nc(c(-c7c(F)c(F)c(F)c(F)c7F)c7ccc4[nH]7)C=C6)C=C5)cc3)s2)cc1O
REMARK SMILES IDX 16 1 15 2 13 3 14 4 12 5 9 6 10 7 84 8 11 9 8 10 7 11 6 12
REMARK SMILES IDX 3 13 4 14 86 15 5 16 85 17 2 18 1 19 87 20 17 22 18 23 19 24
REMARK SMILES IDX 20 25 21 26 22 27 83 28 23 29 82 30 24 31 25 32 26 33 76 34
REMARK SMILES IDX 27 35 81 36 75 37 77 38 28 39 80 40 74 41 73 42 29 44 61 45
REMARK SMILES IDX 41 46 60 47 42 48 45 49 59 50 78 51 43 52 44 53 58 55 79 56
REMARK SMILES IDX 46 57 30 58 31 59 39 60 32 61 33 62 37 63 40 64 34 65 35 66
REMARK SMILES IDX 38 67 36 68 62 69 63 70 71 71 64 72 65 73 69 74 72 75 66 76
REMARK SMILES IDX 67 77 70 78 68 79 47 80 48 81 56 82 49 83 50 84 54 85 57 86
REMARK SMILES IDX 51 87 52 88 55 89 53 90
REMARK H PARENT 87 21 77 43 45 54
REMARK Flexibility Score: inf
ROOT
ATOM      1  C   UNL A   1      31.420  28.691  25.224  1.00  0.00     0.275 C 
ENDROOT
BRANCH   1   2
ATOM      2  O   UNL A   1      32.327  28.238  24.199  1.00  0.00    -0.458 OA
BRANCH   2   3
ATOM      3  C   UNL A   1      31.750  27.779  23.048  1.00  0.00     0.350 C 
ATOM      4  O   UNL A   1      30.863  28.364  22.447  1.00  0.00    -0.245 OA
BRANCH   3   5
ATOM      5  C   UNL A   1      32.402  26.565  22.611  1.00  0.00     0.132 A 
ATOM      6  C   UNL A   1      33.177  24.258  22.471  1.00  0.00     0.116 A 
ATOM      7  N   UNL A   1      33.271  24.838  21.292  1.00  0.00    -0.244 NA
ATOM      8  S   UNL A   1      32.746  25.328  23.752  1.00  0.00    -0.107 S 
ATOM      9  C   UNL A   1      32.808  26.143  21.364  1.00  0.00     0.139 A 
BRANCH   6  10
ATOM     10  C   UNL A   1      33.364  22.881  22.772  1.00  0.00     0.040 C 
ATOM     11  C   UNL A   1      32.482  22.223  23.538  1.00  0.00     0.011 C 
BRANCH  11  12
ATOM     12  C   UNL A   1      32.551  20.795  23.903  1.00  0.00    -0.022 A 
ATOM     13  C   UNL A   1      32.517  18.013  24.479  1.00  0.00     0.160 A 
ATOM     14  C   UNL A   1      32.807  18.952  25.474  1.00  0.00     0.051 A 
ATOM     15  C   UNL A   1      32.235  18.483  23.197  1.00  0.00     0.158 A 
ATOM     16  C   UNL A   1      32.818  20.326  25.194  1.00  0.00     0.012 A 
ATOM     17  C   UNL A   1      32.276  19.850  22.905  1.00  0.00     0.058 A 
BRANCH  13  18
ATOM     18  O   UNL A   1      32.503  16.721  24.920  1.00  0.00    -0.493 OA
ATOM     19  C   UNL A   1      33.626  15.899  24.631  1.00  0.00     0.278 C 
ENDBRANCH  13  18
BRANCH  15  20
ATOM     20  O   UNL A   1      31.826  17.677  22.171  1.00  0.00    -0.504 OA
ATOM     21  H   UNL A   1      31.095  17.103  22.291  1.00  0.00     0.293 HD
ENDBRANCH  15  20
ENDBRANCH  11  12
ENDBRANCH   6  10
ENDBRANCH   3   5
ENDBRANCH   2   3
ENDBRANCH   1   2
BRANCH   1  22
ATOM     22  C   UNL A   1      31.752  30.115  25.685  1.00  0.00     0.275 C 
BRANCH  22  23
ATOM     23  O   UNL A   1      33.143  30.257  26.036  1.00  0.00    -0.458 OA
BRANCH  23  24
ATOM     24  C   UNL A   1      33.412  31.237  26.929  1.00  0.00     0.338 C 
ATOM     25  O   UNL A   1      32.669  32.137  27.282  1.00  0.00    -0.246 OA
BRANCH  24  26
ATOM     26  C   UNL A   1      34.715  30.995  27.565  1.00  0.00     0.060 A 
ATOM     27  C   UNL A   1      35.000  29.688  27.956  1.00  0.00     0.016 A 
ATOM     28  C   UNL A   1      35.594  32.030  27.882  1.00  0.00     0.016 A 
ATOM     29  C   UNL A   1      36.149  29.399  28.682  1.00  0.00     0.010 A 
ATOM     30  C   UNL A   1      36.768  31.738  28.594  1.00  0.00     0.010 A 
ATOM     31  C   UNL A   1      37.047  30.422  29.011  1.00  0.00    -0.014 A 
BRANCH  31  32
ATOM     32  C   UNL A   1      38.249  30.102  29.825  1.00  0.00     0.031 A 
ATOM     33  C   UNL A   1      39.329  29.222  29.263  1.00  0.00     0.074 A 
ATOM     34  C   UNL A   1      38.392  30.638  31.051  1.00  0.00     0.049 A 
ATOM     35  N   UNL A   1      40.412  28.765  29.841  1.00  0.00    -0.248 NA
ATOM     36  C   UNL A   1      39.173  28.799  27.864  1.00  0.00     0.031 C 
ATOM     37  C   UNL A   1      37.442  31.551  31.688  1.00  0.00     0.029 A 
ATOM     38  N   UNL A   1      39.394  30.499  31.980  1.00  0.00    -0.354 N 
ATOM     39  C   UNL A   1      41.047  27.978  28.890  1.00  0.00     0.074 A 
ATOM     40  C   UNL A   1      40.223  28.008  27.700  1.00  0.00     0.031 C 
ATOM     41  C   UNL A   1      37.912  31.901  32.895  1.00  0.00     0.029 A 
ATOM     42  C   UNL A   1      39.162  31.191  33.145  1.00  0.00     0.049 A 
ATOM     43  H   UNL A   1      40.200  29.956  31.827  1.00  0.00     0.167 HD
ATOM     44  C   UNL A   1      42.213  27.294  29.001  1.00  0.00     0.037 A 
ATOM     45  C   UNL A   1      39.861  31.222  34.295  1.00  0.00     0.037 A 
ATOM     46  C   UNL A   1      43.043  27.290  30.179  1.00  0.00     0.049 A 
ATOM     47  C   UNL A   1      41.121  30.409  34.413  1.00  0.00     0.074 A 
ATOM     48  C   UNL A   1      44.251  26.643  30.382  1.00  0.00     0.029 A 
ATOM     49  N   UNL A   1      42.753  27.969  31.354  1.00  0.00    -0.354 N 
ATOM     50  N   UNL A   1      41.704  29.652  33.516  1.00  0.00    -0.248 NA
ATOM     51  C   UNL A   1      41.814  30.445  35.708  1.00  0.00     0.031 C 
ATOM     52  C   UNL A   1      44.666  26.892  31.694  1.00  0.00     0.029 A 
ATOM     53  C   UNL A   1      43.746  27.736  32.293  1.00  0.00     0.049 A 
ATOM     54  H   UNL A   1      41.959  28.533  31.499  1.00  0.00     0.167 HD
ATOM     55  C   UNL A   1      42.838  29.138  34.128  1.00  0.00     0.074 A 
ATOM     56  C   UNL A   1      42.872  29.683  35.470  1.00  0.00     0.031 C 
ATOM     57  C   UNL A   1      43.767  28.287  33.625  1.00  0.00     0.037 A 
BRANCH  44  58
ATOM     58  C   UNL A   1      42.643  26.459  27.829  1.00  0.00     0.064 A 
ATOM     59  C   UNL A   1      43.523  26.947  26.853  1.00  0.00     0.173 A 
ATOM     60  C   UNL A   1      42.190  25.137  27.703  1.00  0.00     0.173 A 
ATOM     61  F   UNL A   1      43.976  28.208  26.920  1.00  0.00    -0.203 F 
ATOM     62  C   UNL A   1      43.911  26.150  25.778  1.00  0.00     0.198 A 
ATOM     63  C   UNL A   1      42.604  24.333  26.643  1.00  0.00     0.198 A 
ATOM     64  F   UNL A   1      41.352  24.618  28.613  1.00  0.00    -0.203 F 
ATOM     65  F   UNL A   1      44.716  26.652  24.831  1.00  0.00    -0.200 F 
ATOM     66  C   UNL A   1      43.458  24.843  25.677  1.00  0.00     0.200 A 
ATOM     67  F   UNL A   1      42.174  23.067  26.556  1.00  0.00    -0.200 F 
ATOM     68  F   UNL A   1      43.837  24.078  24.645  1.00  0.00    -0.200 F 
ENDBRANCH  44  58
BRANCH  45  69
ATOM     69  C   UNL A   1      39.362  32.029  35.440  1.00  0.00     0.064 A 
ATOM     70  C   UNL A   1      39.729  33.372  35.593  1.00  0.00     0.173 A 
ATOM     71  C   UNL A   1      38.506  31.472  36.402  1.00  0.00     0.173 A 
ATOM     72  F   UNL A   1      40.568  33.942  34.716  1.00  0.00    -0.203 F 
ATOM     73  C   UNL A   1      39.267  34.125  36.671  1.00  0.00     0.198 A 
ATOM     74  C   UNL A   1      38.020  32.234  37.461  1.00  0.00     0.198 A 
ATOM     75  F   UNL A   1      38.127  30.188  36.303  1.00  0.00    -0.203 F 
ATOM     76  F   UNL A   1      39.666  35.395  36.819  1.00  0.00    -0.200 F 
ATOM     77  C   UNL A   1      38.405  33.558  37.600  1.00  0.00     0.200 A 
ATOM     78  F   UNL A   1      37.177  31.685  38.348  1.00  0.00    -0.200 F 
ATOM     79  F   UNL A   1      37.955  34.284  38.630  1.00  0.00    -0.200 F 
ENDBRANCH  45  69
BRANCH  57  80
ATOM     80  C   UNL A   1      44.913  27.916  34.519  1.00  0.00     0.064 A 
ATOM     81  C   UNL A   1      46.079  28.692  34.581  1.00  0.00     0.173 A 
ATOM     82  C   UNL A   1      44.827  26.790  35.352  1.00  0.00     0.173 A 
ATOM     83  F   UNL A   1      46.216  29.768  33.792  1.00  0.00    -0.203 F 
ATOM     84  C   UNL A   1      47.128  28.340  35.426  1.00  0.00     0.198 A 
ATOM     85  C   UNL A   1      45.866  26.457  36.217  1.00  0.00     0.198 A 
ATOM     86  F   UNL A   1      43.730  26.017  35.334  1.00  0.00    -0.203 F 
ATOM     87  F   UNL A   1      48.252  29.070  35.436  1.00  0.00    -0.200 F 
ATOM     88  C   UNL A   1      47.018  27.228  36.249  1.00  0.00     0.200 A 
ATOM     89  F   UNL A   1      45.752  25.390  37.019  1.00  0.00    -0.200 F 
ATOM     90  F   UNL A   1      48.025  26.896  37.067  1.00  0.00    -0.200 F 
ENDBRANCH  57  80
ENDBRANCH  31  32
ENDBRANCH  24  26
ENDBRANCH  23  24
ENDBRANCH  22  23
ENDBRANCH   1  22
TORSDOF 15
ENDMDL
MODEL 3
REMARK VINA RESULT:     -11.4      7.246     12.847
REMARK SMILES COc1ccc(/C=C/c2ncc(C(=O)OCCOC(=O)c3ccc(-c4c5nc(c(-c6c(F)c(F)c(F)c(F)c6F)c6ccc([nH]6)c(-c6c(F)c(F)c(F)c(F)c6F)c6nc(c(-c7c(F)c(F)c(F)c(F)c7F)c7ccc4[nH]7)C=C6)C=C5)cc3)s2)cc1O
REMARK SMILES IDX 16 1 15 2 13 3 14 4 12 5 9 6 10 7 84 8 11 9 8 10 7 11 6 12
REMARK SMILES IDX 3 13 4 14 86 15 5 16 85 17 2 18 1 19 87 20 17 22 18 23 19 24
REMARK SMILES IDX 20 25 21 26 22 27 83 28 23 29 82 30 24 31 25 32 26 33 76 34
REMARK SMILES IDX 27 35 81 36 75 37 77 38 28 39 80 40 74 41 73 42 29 44 61 45
REMARK SMILES IDX 41 46 60 47 42 48 45 49 59 50 78 51 43 52 44 53 58 55 79 56
REMARK SMILES IDX 46 57 30 58 31 59 39 60 32 61 33 62 37 63 40 64 34 65 35 66
REMARK SMILES IDX 38 67 36 68 62 69 63 70 71 71 64 72 65 73 69 74 72 75 66 76
REMARK SMILES IDX 67 77 70 78 68 79 47 80 48 81 56 82 49 83 50 84 54 85 57 86
REMARK SMILES IDX 51 87 52 88 55 89 53 90
REMARK H PARENT 87 21 77 43 45 54
REMARK Flexibility Score: inf
ROOT
ATOM      1  C   UNL A   1      42.251  19.299  26.871  1.00  0.00     0.275 C 
ENDROOT
BRANCH   1   2
ATOM      2  O   UNL A   1      41.624  20.428  26.230  1.00  0.00    -0.458 OA
BRANCH   2   3
ATOM      3  C   UNL A   1      40.292  20.296  25.952  1.00  0.00     0.350 C 
ATOM      4  O   UNL A   1      39.744  19.229  25.724  1.00  0.00    -0.245 OA
BRANCH   3   5
ATOM      5  C   UNL A   1      39.629  21.576  26.055  1.00  0.00     0.132 A 
ATOM      6  C   UNL A   1      37.923  23.314  26.154  1.00  0.00     0.116 A 
ATOM      7  N   UNL A   1      39.046  23.752  26.689  1.00  0.00    -0.244 NA
ATOM      8  S   UNL A   1      38.059  21.775  25.390  1.00  0.00    -0.107 S 
ATOM      9  C   UNL A   1      40.010  22.756  26.655  1.00  0.00     0.139 A 
BRANCH   6  10
ATOM     10  C   UNL A   1      36.654  23.954  26.171  1.00  0.00     0.040 C 
ATOM     11  C   UNL A   1      35.529  23.236  26.302  1.00  0.00     0.011 C 
BRANCH  11  12
ATOM     12  C   UNL A   1      34.158  23.780  26.356  1.00  0.00    -0.022 A 
ATOM     13  C   UNL A   1      31.450  24.632  26.431  1.00  0.00     0.160 A 
ATOM     14  C   UNL A   1      32.432  25.409  25.809  1.00  0.00     0.051 A 
ATOM     15  C   UNL A   1      31.837  23.422  27.005  1.00  0.00     0.158 A 
ATOM     16  C   UNL A   1      33.769  24.988  25.765  1.00  0.00     0.012 A 
ATOM     17  C   UNL A   1      33.173  23.013  26.992  1.00  0.00     0.058 A 
BRANCH  13  18
ATOM     18  O   UNL A   1      30.192  25.158  26.349  1.00  0.00    -0.493 OA
ATOM     19  C   UNL A   1      29.859  25.931  25.204  1.00  0.00     0.278 C 
ENDBRANCH  13  18
BRANCH  15  20
ATOM     20  O   UNL A   1      30.954  22.525  27.539  1.00  0.00    -0.504 OA
ATOM     21  H   UNL A   1      31.209  21.996  28.269  1.00  0.00     0.293 HD
ENDBRANCH  15  20
ENDBRANCH  11  12
ENDBRANCH   6  10
ENDBRANCH   3   5
ENDBRANCH   2   3
ENDBRANCH   1   2
BRANCH   1  22
ATOM     22  C   UNL A   1      43.144  18.520  25.898  1.00  0.00     0.275 C 
BRANCH  22  23
ATOM     23  O   UNL A   1      43.352  19.236  24.665  1.00  0.00    -0.458 OA
BRANCH  23  24
ATOM     24  C   UNL A   1      44.643  19.512  24.373  1.00  0.00     0.338 C 
ATOM     25  O   UNL A   1      45.451  18.777  23.831  1.00  0.00    -0.246 OA
BRANCH  24  26
ATOM     26  C   UNL A   1      44.935  20.923  24.667  1.00  0.00     0.060 A 
ATOM     27  C   UNL A   1      45.502  21.211  25.907  1.00  0.00     0.016 A 
ATOM     28  C   UNL A   1      44.560  21.957  23.810  1.00  0.00     0.016 A 
ATOM     29  C   UNL A   1      45.685  22.526  26.315  1.00  0.00     0.010 A 
ATOM     30  C   UNL A   1      44.765  23.286  24.209  1.00  0.00     0.010 A 
ATOM     31  C   UNL A   1      45.317  23.581  25.471  1.00  0.00    -0.014 A 
BRANCH  31  32
ATOM     32  C   UNL A   1      45.480  24.981  25.942  1.00  0.00     0.031 A 
ATOM     33  C   UNL A   1      46.813  25.665  25.833  1.00  0.00     0.074 A 
ATOM     34  C   UNL A   1      44.419  25.655  26.426  1.00  0.00     0.049 A 
ATOM     35  N   UNL A   1      47.176  26.850  26.259  1.00  0.00    -0.248 NA
ATOM     36  C   UNL A   1      47.883  24.917  25.157  1.00  0.00     0.031 C 
ATOM     37  C   UNL A   1      43.060  25.122  26.531  1.00  0.00     0.029 A 
ATOM     38  N   UNL A   1      44.315  26.935  26.913  1.00  0.00    -0.354 N 
ATOM     39  C   UNL A   1      48.518  26.977  25.930  1.00  0.00     0.074 A 
ATOM     40  C   UNL A   1      48.911  25.744  25.281  1.00  0.00     0.031 C 
ATOM     41  C   UNL A   1      42.256  26.071  27.037  1.00  0.00     0.029 A 
ATOM     42  C   UNL A   1      43.051  27.254  27.349  1.00  0.00     0.049 A 
ATOM     43  H   UNL A   1      45.072  27.562  26.947  1.00  0.00     0.167 HD
ATOM     44  C   UNL A   1      49.346  28.028  26.149  1.00  0.00     0.037 A 
ATOM     45  C   UNL A   1      42.594  28.362  27.963  1.00  0.00     0.037 A 
ATOM     46  C   UNL A   1      48.942  29.264  26.770  1.00  0.00     0.049 A 
ATOM     47  C   UNL A   1      43.545  29.492  28.246  1.00  0.00     0.074 A 
ATOM     48  C   UNL A   1      49.702  30.395  27.019  1.00  0.00     0.029 A 
ATOM     49  N   UNL A   1      47.663  29.534  27.237  1.00  0.00    -0.354 N 
ATOM     50  N   UNL A   1      44.817  29.596  27.950  1.00  0.00    -0.248 NA
ATOM     51  C   UNL A   1      42.999  30.654  28.960  1.00  0.00     0.031 C 
ATOM     52  C   UNL A   1      48.896  31.328  27.680  1.00  0.00     0.029 A 
ATOM     53  C   UNL A   1      47.620  30.802  27.796  1.00  0.00     0.049 A 
ATOM     54  H   UNL A   1      46.899  28.916  27.181  1.00  0.00     0.167 HD
ATOM     55  C   UNL A   1      45.220  30.837  28.422  1.00  0.00     0.074 A 
ATOM     56  C   UNL A   1      44.051  31.459  29.011  1.00  0.00     0.031 C 
ATOM     57  C   UNL A   1      46.449  31.409  28.376  1.00  0.00     0.037 A 
BRANCH  44  58
ATOM     58  C   UNL A   1      50.785  27.875  25.749  1.00  0.00     0.064 A 
ATOM     59  C   UNL A   1      51.207  28.035  24.422  1.00  0.00     0.173 A 
ATOM     60  C   UNL A   1      51.760  27.596  26.719  1.00  0.00     0.173 A 
ATOM     61  F   UNL A   1      50.315  28.290  23.454  1.00  0.00    -0.203 F 
ATOM     62  C   UNL A   1      52.550  27.893  24.076  1.00  0.00     0.198 A 
ATOM     63  C   UNL A   1      53.105  27.484  26.376  1.00  0.00     0.198 A 
ATOM     64  F   UNL A   1      51.410  27.440  28.005  1.00  0.00    -0.203 F 
ATOM     65  F   UNL A   1      52.926  28.003  22.795  1.00  0.00    -0.200 F 
ATOM     66  C   UNL A   1      53.498  27.625  25.054  1.00  0.00     0.200 A 
ATOM     67  F   UNL A   1      54.019  27.238  27.324  1.00  0.00    -0.200 F 
ATOM     68  F   UNL A   1      54.789  27.494  24.720  1.00  0.00    -0.200 F 
ENDBRANCH  44  58
BRANCH  45  69
ATOM     69  C   UNL A   1      41.169  28.439  28.379  1.00  0.00     0.064 A 
ATOM     70  C   UNL A   1      40.192  28.967  27.526  1.00  0.00     0.173 A 
ATOM     71  C   UNL A   1      40.756  27.984  29.641  1.00  0.00     0.173 A 
ATOM     72  F   UNL A   1      40.541  29.442  26.321  1.00  0.00    -0.203 F 
ATOM     73  C   UNL A   1      38.858  29.047  27.921  1.00  0.00     0.198 A 
ATOM     74  C   UNL A   1      39.418  28.035  30.023  1.00  0.00     0.198 A 
ATOM     75  F   UNL A   1      41.653  27.473  30.498  1.00  0.00    -0.203 F 
ATOM     76  F   UNL A   1      37.950  29.595  27.103  1.00  0.00    -0.200 F 
ATOM     77  C   UNL A   1      38.471  28.572  29.166  1.00  0.00     0.200 A 
ATOM     78  F   UNL A   1      39.047  27.564  31.222  1.00  0.00    -0.200 F 
ATOM     79  F   UNL A   1      37.187  28.641  29.542  1.00  0.00    -0.200 F 
ENDBRANCH  45  69
BRANCH  57  80
ATOM     80  C   UNL A   1      46.586  32.787  28.953  1.00  0.00     0.064 A 
ATOM     81  C   UNL A   1      46.955  32.992  30.290  1.00  0.00     0.173 A 
ATOM     82  C   UNL A   1      46.382  33.917  28.147  1.00  0.00     0.173 A 
ATOM     83  F   UNL A   1      47.145  31.944  31.105  1.00  0.00    -0.203 F 
ATOM     84  C   UNL A   1      47.091  34.278  30.806  1.00  0.00     0.198 A 
ATOM     85  C   UNL A   1      46.547  35.202  28.658  1.00  0.00     0.198 A 
ATOM     86  F   UNL A   1      46.033  33.776  26.859  1.00  0.00    -0.203 F 
ATOM     87  F   UNL A   1      47.400  34.451  32.098  1.00  0.00    -0.200 F 
ATOM     88  C   UNL A   1      46.894  35.381  29.988  1.00  0.00     0.200 A 
ATOM     89  F   UNL A   1      46.369  36.266  27.863  1.00  0.00    -0.200 F 
ATOM     90  F   UNL A   1      47.033  36.618  30.484  1.00  0.00    -0.200 F 
ENDBRANCH  57  80
ENDBRANCH  31  32
ENDBRANCH  24  26
ENDBRANCH  23  24
ENDBRANCH  22  23
ENDBRANCH   1  22
TORSDOF 15
ENDMDL
