MODEL 1
REMARK VINA RESULT:     -10.1      0.000      0.000
REMARK SMILES CCC1C[NH+]([C@H](CCOC)C(=O)OCCOC(=O)c2ccc(-c3c4nc(c(-c5c(F)c(F)c(F)c(F)c5F)c5ccc([nH]5)c(-c5c(F)c(F)c(F)c(F)c5F)c5nc(c(-c6c(F)c(F)c(F)c(F)c6F)c6ccc3[nH]6)C=C5)C=C4)cc2)C1
REMARK SMILES IDX 14 1 13 2 11 3 12 4 6 5 5 6 3 7 4 8 82 9 2 11 1 12 7 13 8 14
REMARK SMILES IDX 9 15 10 16 15 17 16 18 17 19 18 20 19 21 20 22 81 23 21 24
REMARK SMILES IDX 80 25 22 26 23 27 24 28 74 29 25 30 79 31 73 32 75 33 26 34
REMARK SMILES IDX 78 35 72 36 71 37 27 39 59 40 39 41 58 42 40 43 43 44 57 45
REMARK SMILES IDX 76 46 41 47 42 48 56 50 77 51 44 52 28 53 29 54 37 55 30 56
REMARK SMILES IDX 31 57 35 58 38 59 32 60 33 61 36 62 34 63 60 64 61 65 69 66
REMARK SMILES IDX 62 67 63 68 67 69 70 70 64 71 65 72 68 73 66 74 45 75 46 76
REMARK SMILES IDX 54 77 47 78 48 79 52 80 55 81 49 82 50 83 53 84 51 85
REMARK H PARENT 5 10 75 38 43 49
REMARK Flexibility Score: inf
ROOT
ATOM      1  C   UNL A   1      31.781  28.327  26.296  1.00  0.00     0.274 C 
ENDROOT
BRANCH   1   2
ATOM      2  O   UNL A   1      31.185  27.561  25.229  1.00  0.00    -0.458 OA
BRANCH   2   3
ATOM      3  C   UNL A   1      30.951  26.245  25.464  1.00  0.00     0.365 C 
ATOM      4  O   UNL A   1      30.309  25.827  26.423  1.00  0.00    -0.245 OA
BRANCH   3   5
ATOM      5  C   UNL A   1      31.604  25.317  24.414  1.00  0.00     0.297 C 
BRANCH   5   6
ATOM      6  N   UNL A   1      31.253  23.922  24.748  1.00  0.00    -0.322 N 
ATOM      7  C   UNL A   1      31.929  21.941  24.681  1.00  0.00     0.099 C 
ATOM      8  C   UNL A   1      32.249  23.194  25.532  1.00  0.00     0.272 C 
ATOM      9  C   UNL A   1      31.393  22.960  23.641  1.00  0.00     0.272 C 
ATOM     10  H   UNL A   1      30.334  24.109  25.148  1.00  0.00     0.348 HD
BRANCH   7  11
ATOM     11  C   UNL A   1      33.115  21.092  24.250  1.00  0.00     0.012 C 
ATOM     12  C   UNL A   1      32.710  19.631  24.144  1.00  0.00     0.004 C 
ENDBRANCH   7  11
ENDBRANCH   5   6
BRANCH   5  13
ATOM     13  C   UNL A   1      32.995  25.774  23.885  1.00  0.00     0.106 C 
BRANCH  13  14
ATOM     14  C   UNL A   1      33.147  26.627  22.626  1.00  0.00     0.166 C 
BRANCH  14  15
ATOM     15  O   UNL A   1      33.636  25.899  21.510  1.00  0.00    -0.384 OA
ATOM     16  C   UNL A   1      32.615  25.598  20.564  1.00  0.00     0.194 C 
ENDBRANCH  14  15
ENDBRANCH  13  14
ENDBRANCH   5  13
ENDBRANCH   3   5
ENDBRANCH   2   3
ENDBRANCH   1   2
BRANCH   1  17
ATOM     17  C   UNL A   1      31.795  29.826  25.978  1.00  0.00     0.275 C 
BRANCH  17  18
ATOM     18  O   UNL A   1      33.134  30.350  26.017  1.00  0.00    -0.458 OA
BRANCH  18  19
ATOM     19  C   UNL A   1      33.360  31.314  26.933  1.00  0.00     0.338 C 
ATOM     20  O   UNL A   1      32.605  32.218  27.269  1.00  0.00    -0.246 OA
BRANCH  19  21
ATOM     21  C   UNL A   1      34.617  31.041  27.632  1.00  0.00     0.060 A 
ATOM     22  C   UNL A   1      34.869  29.724  28.028  1.00  0.00     0.016 A 
ATOM     23  C   UNL A   1      35.513  32.065  27.934  1.00  0.00     0.016 A 
ATOM     24  C   UNL A   1      36.030  29.416  28.721  1.00  0.00     0.010 A 
ATOM     25  C   UNL A   1      36.676  31.759  28.642  1.00  0.00     0.010 A 
ATOM     26  C   UNL A   1      36.933  30.435  29.039  1.00  0.00    -0.014 A 
BRANCH  26  27
ATOM     27  C   UNL A   1      38.127  30.111  29.842  1.00  0.00     0.031 A 
ATOM     28  C   UNL A   1      39.164  29.193  29.275  1.00  0.00     0.074 A 
ATOM     29  C   UNL A   1      38.274  30.668  31.056  1.00  0.00     0.049 A 
ATOM     30  N   UNL A   1      40.254  28.732  29.830  1.00  0.00    -0.248 NA
ATOM     31  C   UNL A   1      38.944  28.732  27.895  1.00  0.00     0.031 C 
ATOM     32  C   UNL A   1      37.339  31.613  31.668  1.00  0.00     0.029 A 
ATOM     33  N   UNL A   1      39.262  30.517  31.992  1.00  0.00    -0.354 N 
ATOM     34  C   UNL A   1      40.843  27.915  28.875  1.00  0.00     0.074 A 
ATOM     35  C   UNL A   1      39.982  27.928  27.712  1.00  0.00     0.031 C 
ATOM     36  C   UNL A   1      37.796  31.952  32.883  1.00  0.00     0.029 A 
ATOM     37  C   UNL A   1      39.032  31.222  33.146  1.00  0.00     0.049 A 
ATOM     38  H   UNL A   1      40.060  29.958  31.850  1.00  0.00     0.167 HD
ATOM     39  C   UNL A   1      42.000  27.220  28.970  1.00  0.00     0.037 A 
ATOM     40  C   UNL A   1      39.735  31.250  34.293  1.00  0.00     0.037 A 
ATOM     41  C   UNL A   1      42.840  27.219  30.139  1.00  0.00     0.049 A 
ATOM     42  C   UNL A   1      40.994  30.431  34.388  1.00  0.00     0.074 A 
ATOM     43  C   UNL A   1      44.028  26.543  30.353  1.00  0.00     0.029 A 
ATOM     44  N   UNL A   1      42.573  27.936  31.299  1.00  0.00    -0.354 N 
ATOM     45  N   UNL A   1      41.545  29.654  33.486  1.00  0.00    -0.248 NA
ATOM     46  C   UNL A   1      41.730  30.497  35.656  1.00  0.00     0.031 C 
ATOM     47  C   UNL A   1      44.459  26.820  31.656  1.00  0.00     0.029 A 
ATOM     48  C   UNL A   1      43.567  27.708  32.237  1.00  0.00     0.049 A 
ATOM     49  H   UNL A   1      41.792  28.520  31.435  1.00  0.00     0.167 HD
ATOM     50  C   UNL A   1      42.705  29.159  34.065  1.00  0.00     0.074 A 
ATOM     51  C   UNL A   1      42.783  29.735  35.392  1.00  0.00     0.031 C 
ATOM     52  C   UNL A   1      43.622  28.305  33.547  1.00  0.00     0.037 A 
BRANCH  39  53
ATOM     53  C   UNL A   1      42.398  26.377  27.794  1.00  0.00     0.064 A 
ATOM     54  C   UNL A   1      41.872  25.092  27.594  1.00  0.00     0.173 A 
ATOM     55  C   UNL A   1      43.311  26.866  26.849  1.00  0.00     0.173 A 
ATOM     56  F   UNL A   1      41.010  24.569  28.480  1.00  0.00    -0.203 F 
ATOM     57  C   UNL A   1      42.265  24.319  26.503  1.00  0.00     0.198 A 
ATOM     58  C   UNL A   1      43.682  26.102  25.746  1.00  0.00     0.198 A 
ATOM     59  F   UNL A   1      43.846  28.089  26.995  1.00  0.00    -0.203 F 
ATOM     60  F   UNL A   1      41.786  23.076  26.358  1.00  0.00    -0.200 F 
ATOM     61  C   UNL A   1      43.164  24.827  25.577  1.00  0.00     0.200 A 
ATOM     62  F   UNL A   1      44.545  26.598  24.849  1.00  0.00    -0.200 F 
ATOM     63  F   UNL A   1      43.538  24.083  24.528  1.00  0.00    -0.200 F 
ENDBRANCH  39  53
BRANCH  40  64
ATOM     64  C   UNL A   1      39.261  32.076  35.432  1.00  0.00     0.064 A 
ATOM     65  C   UNL A   1      39.611  33.429  35.539  1.00  0.00     0.173 A 
ATOM     66  C   UNL A   1      38.445  31.532  36.435  1.00  0.00     0.173 A 
ATOM     67  F   UNL A   1      40.409  33.989  34.617  1.00  0.00    -0.203 F 
ATOM     68  C   UNL A   1      39.174  34.202  36.613  1.00  0.00     0.198 A 
ATOM     69  C   UNL A   1      37.985  32.313  37.492  1.00  0.00     0.198 A 
ATOM     70  F   UNL A   1      38.081  30.242  36.379  1.00  0.00    -0.203 F 
ATOM     71  F   UNL A   1      39.557  35.482  36.713  1.00  0.00    -0.200 F 
ATOM     72  C   UNL A   1      38.357  33.646  37.585  1.00  0.00     0.200 A 
ATOM     73  F   UNL A   1      37.186  31.775  38.423  1.00  0.00    -0.200 F 
ATOM     74  F   UNL A   1      37.933  34.392  38.615  1.00  0.00    -0.200 F 
ENDBRANCH  40  64
BRANCH  52  75
ATOM     75  C   UNL A   1      44.810  27.983  34.406  1.00  0.00     0.064 A 
ATOM     76  C   UNL A   1      44.818  26.877  35.266  1.00  0.00     0.173 A 
ATOM     77  C   UNL A   1      45.963  28.780  34.343  1.00  0.00     0.173 A 
ATOM     78  F   UNL A   1      43.732  26.096  35.372  1.00  0.00    -0.203 F 
ATOM     79  C   UNL A   1      45.929  26.596  36.057  1.00  0.00     0.198 A 
ATOM     80  C   UNL A   1      47.082  28.480  35.113  1.00  0.00     0.198 A 
ATOM     81  F   UNL A   1      46.006  29.846  33.528  1.00  0.00    -0.203 F 
ATOM     82  F   UNL A   1      45.897  25.564  36.911  1.00  0.00    -0.200 F 
ATOM     83  C   UNL A   1      47.061  27.394  35.975  1.00  0.00     0.200 A 
ATOM     84  F   UNL A   1      48.180  29.243  35.022  1.00  0.00    -0.200 F 
ATOM     85  F   UNL A   1      48.131  27.120  36.735  1.00  0.00    -0.200 F 
ENDBRANCH  52  75
ENDBRANCH  26  27
ENDBRANCH  19  21
ENDBRANCH  18  19
ENDBRANCH  17  18
ENDBRANCH   1  17
TORSDOF 16
ENDMDL
MODEL 2
REMARK VINA RESULT:     -10.0      0.863      1.935
REMARK SMILES CCC1C[NH+]([C@H](CCOC)C(=O)OCCOC(=O)c2ccc(-c3c4nc(c(-c5c(F)c(F)c(F)c(F)c5F)c5ccc([nH]5)c(-c5c(F)c(F)c(F)c(F)c5F)c5nc(c(-c6c(F)c(F)c(F)c(F)c6F)c6ccc3[nH]6)C=C5)C=C4)cc2)C1
REMARK SMILES IDX 14 1 13 2 11 3 12 4 6 5 5 6 3 7 4 8 82 9 2 11 1 12 7 13 8 14
REMARK SMILES IDX 9 15 10 16 15 17 16 18 17 19 18 20 19 21 20 22 81 23 21 24
REMARK SMILES IDX 80 25 22 26 23 27 24 28 74 29 25 30 79 31 73 32 75 33 26 34
REMARK SMILES IDX 78 35 72 36 71 37 27 39 59 40 39 41 58 42 40 43 43 44 57 45
REMARK SMILES IDX 76 46 41 47 42 48 56 50 77 51 44 52 28 53 29 54 37 55 30 56
REMARK SMILES IDX 31 57 35 58 38 59 32 60 33 61 36 62 34 63 60 64 61 65 69 66
REMARK SMILES IDX 62 67 63 68 67 69 70 70 64 71 65 72 68 73 66 74 45 75 46 76
REMARK SMILES IDX 54 77 47 78 48 79 52 80 55 81 49 82 50 83 53 84 51 85
REMARK H PARENT 5 10 75 38 43 49
REMARK Flexibility Score: inf
ROOT
ATOM      1  C   UNL A   1      31.582  28.738  27.276  1.00  0.00     0.274 C 
ENDROOT
BRANCH   1   2
ATOM      2  O   UNL A   1      32.417  27.589  27.025  1.00  0.00    -0.458 OA
BRANCH   2   3
ATOM      3  C   UNL A   1      31.866  26.558  26.335  1.00  0.00     0.365 C 
ATOM      4  O   UNL A   1      30.746  26.109  26.559  1.00  0.00    -0.245 OA
BRANCH   3   5
ATOM      5  C   UNL A   1      32.807  25.982  25.252  1.00  0.00     0.297 C 
BRANCH   5   6
ATOM      6  N   UNL A   1      33.652  24.945  25.878  1.00  0.00    -0.322 N 
ATOM      7  C   UNL A   1      34.573  23.091  25.563  1.00  0.00     0.099 C 
ATOM      8  C   UNL A   1      34.831  24.549  25.111  1.00  0.00     0.272 C 
ATOM      9  C   UNL A   1      33.118  23.574  25.802  1.00  0.00     0.272 C 
ATOM     10  H   UNL A   1      33.768  25.398  26.784  1.00  0.00     0.348 HD
BRANCH   7  11
ATOM     11  C   UNL A   1      34.764  22.010  24.510  1.00  0.00     0.012 C 
ATOM     12  C   UNL A   1      35.211  20.710  25.160  1.00  0.00     0.004 C 
ENDBRANCH   7  11
ENDBRANCH   5   6
BRANCH   5  13
ATOM     13  C   UNL A   1      33.305  27.000  24.185  1.00  0.00     0.106 C 
BRANCH  13  14
ATOM     14  C   UNL A   1      33.029  26.815  22.693  1.00  0.00     0.166 C 
BRANCH  14  15
ATOM     15  O   UNL A   1      31.694  27.127  22.326  1.00  0.00    -0.384 OA
ATOM     16  C   UNL A   1      31.219  28.315  22.950  1.00  0.00     0.194 C 
ENDBRANCH  14  15
ENDBRANCH  13  14
ENDBRANCH   5  13
ENDBRANCH   3   5
ENDBRANCH   2   3
ENDBRANCH   1   2
BRANCH   1  17
ATOM     17  C   UNL A   1      31.785  29.828  26.219  1.00  0.00     0.275 C 
BRANCH  17  18
ATOM     18  O   UNL A   1      33.155  30.268  26.187  1.00  0.00    -0.458 OA
BRANCH  18  19
ATOM     19  C   UNL A   1      33.460  31.294  27.007  1.00  0.00     0.338 C 
ATOM     20  O   UNL A   1      32.771  32.271  27.271  1.00  0.00    -0.246 OA
BRANCH  19  21
ATOM     21  C   UNL A   1      34.711  31.003  27.709  1.00  0.00     0.060 A 
ATOM     22  C   UNL A   1      34.955  29.678  28.084  1.00  0.00     0.016 A 
ATOM     23  C   UNL A   1      35.610  32.018  28.035  1.00  0.00     0.016 A 
ATOM     24  C   UNL A   1      36.110  29.353  28.779  1.00  0.00     0.010 A 
ATOM     25  C   UNL A   1      36.767  31.694  28.745  1.00  0.00     0.010 A 
ATOM     26  C   UNL A   1      37.015  30.363  29.121  1.00  0.00    -0.014 A 
BRANCH  26  27
ATOM     27  C   UNL A   1      38.202  30.020  29.926  1.00  0.00     0.031 A 
ATOM     28  C   UNL A   1      39.228  29.089  29.358  1.00  0.00     0.074 A 
ATOM     29  C   UNL A   1      38.354  30.571  31.142  1.00  0.00     0.049 A 
ATOM     30  N   UNL A   1      40.310  28.611  29.914  1.00  0.00    -0.248 NA
ATOM     31  C   UNL A   1      39.005  28.635  27.977  1.00  0.00     0.031 C 
ATOM     32  C   UNL A   1      37.431  31.527  31.754  1.00  0.00     0.029 A 
ATOM     33  N   UNL A   1      39.338  30.403  32.080  1.00  0.00    -0.354 N 
ATOM     34  C   UNL A   1      40.890  27.789  28.959  1.00  0.00     0.074 A 
ATOM     35  C   UNL A   1      40.032  27.818  27.794  1.00  0.00     0.031 C 
ATOM     36  C   UNL A   1      37.890  31.856  32.972  1.00  0.00     0.029 A 
ATOM     37  C   UNL A   1      39.115  31.108  33.236  1.00  0.00     0.049 A 
ATOM     38  H   UNL A   1      40.128  29.833  31.938  1.00  0.00     0.167 HD
ATOM     39  C   UNL A   1      42.037  27.077  29.055  1.00  0.00     0.037 A 
ATOM     40  C   UNL A   1      39.815  31.122  34.385  1.00  0.00     0.037 A 
ATOM     41  C   UNL A   1      42.874  27.061  30.226  1.00  0.00     0.049 A 
ATOM     42  C   UNL A   1      41.062  30.286  34.480  1.00  0.00     0.074 A 
ATOM     43  C   UNL A   1      44.052  26.368  30.441  1.00  0.00     0.029 A 
ATOM     44  N   UNL A   1      42.614  27.778  31.387  1.00  0.00    -0.354 N 
ATOM     45  N   UNL A   1      41.604  29.504  33.577  1.00  0.00    -0.248 NA
ATOM     46  C   UNL A   1      41.796  30.337  35.750  1.00  0.00     0.031 C 
ATOM     47  C   UNL A   1      44.483  26.635  31.745  1.00  0.00     0.029 A 
ATOM     48  C   UNL A   1      43.603  27.534  32.327  1.00  0.00     0.049 A 
ATOM     49  H   UNL A   1      41.841  28.373  31.523  1.00  0.00     0.167 HD
ATOM     50  C   UNL A   1      42.756  28.991  34.157  1.00  0.00     0.074 A 
ATOM     51  C   UNL A   1      42.839  29.561  35.487  1.00  0.00     0.031 C 
ATOM     52  C   UNL A   1      43.663  28.126  33.639  1.00  0.00     0.037 A 
BRANCH  39  53
ATOM     53  C   UNL A   1      42.427  26.233  27.878  1.00  0.00     0.064 A 
ATOM     54  C   UNL A   1      41.871  24.962  27.663  1.00  0.00     0.173 A 
ATOM     55  C   UNL A   1      43.362  26.705  26.945  1.00  0.00     0.173 A 
ATOM     56  F   UNL A   1      40.986  24.456  28.536  1.00  0.00    -0.203 F 
ATOM     57  C   UNL A   1      42.255  24.188  26.571  1.00  0.00     0.198 A 
ATOM     58  C   UNL A   1      43.725  25.939  25.841  1.00  0.00     0.198 A 
ATOM     59  F   UNL A   1      43.925  27.913  27.105  1.00  0.00    -0.203 F 
ATOM     60  F   UNL A   1      41.747  22.958  26.412  1.00  0.00    -0.200 F 
ATOM     61  C   UNL A   1      43.177  24.679  25.658  1.00  0.00     0.200 A 
ATOM     62  F   UNL A   1      44.609  26.419  24.956  1.00  0.00    -0.200 F 
ATOM     63  F   UNL A   1      43.544  23.932  24.607  1.00  0.00    -0.200 F 
ENDBRANCH  39  53
BRANCH  40  64
ATOM     64  C   UNL A   1      39.350  31.952  35.525  1.00  0.00     0.064 A 
ATOM     65  C   UNL A   1      38.448  31.444  36.469  1.00  0.00     0.173 A 
ATOM     66  C   UNL A   1      39.801  33.269  35.697  1.00  0.00     0.173 A 
ATOM     67  F   UNL A   1      37.970  30.197  36.334  1.00  0.00    -0.203 F 
ATOM     68  C   UNL A   1      38.004  32.225  37.534  1.00  0.00     0.198 A 
ATOM     69  C   UNL A   1      39.379  34.040  36.778  1.00  0.00     0.198 A 
ATOM     70  F   UNL A   1      40.666  33.803  34.821  1.00  0.00    -0.203 F 
ATOM     71  F   UNL A   1      37.109  31.729  38.399  1.00  0.00    -0.200 F 
ATOM     72  C   UNL A   1      38.475  33.520  37.691  1.00  0.00     0.200 A 
ATOM     73  F   UNL A   1      39.845  35.286  36.932  1.00  0.00    -0.200 F 
ATOM     74  F   UNL A   1      38.051  34.269  38.718  1.00  0.00    -0.200 F 
ENDBRANCH  40  64
BRANCH  52  75
ATOM     75  C   UNL A   1      44.843  27.785  34.500  1.00  0.00     0.064 A 
ATOM     76  C   UNL A   1      46.012  28.559  34.487  1.00  0.00     0.173 A 
ATOM     77  C   UNL A   1      44.789  26.685  35.369  1.00  0.00     0.173 A 
ATOM     78  F   UNL A   1      46.116  29.611  33.661  1.00  0.00    -0.203 F 
ATOM     79  C   UNL A   1      47.097  28.225  35.293  1.00  0.00     0.198 A 
ATOM     80  C   UNL A   1      45.864  26.372  36.194  1.00  0.00     0.198 A 
ATOM     81  F   UNL A   1      43.688  25.918  35.423  1.00  0.00    -0.203 F 
ATOM     82  F   UNL A   1      48.224  28.947  35.227  1.00  0.00    -0.200 F 
ATOM     83  C   UNL A   1      47.020  27.136  36.148  1.00  0.00     0.200 A 
ATOM     84  F   UNL A   1      45.783  25.327  37.030  1.00  0.00    -0.200 F 
ATOM     85  F   UNL A   1      48.065  26.819  36.925  1.00  0.00    -0.200 F 
ENDBRANCH  52  75
ENDBRANCH  26  27
ENDBRANCH  19  21
ENDBRANCH  18  19
ENDBRANCH  17  18
ENDBRANCH   1  17
TORSDOF 16
ENDMDL
MODEL 3
REMARK VINA RESULT:      -9.9      1.163      7.853
REMARK SMILES CCC1C[NH+]([C@H](CCOC)C(=O)OCCOC(=O)c2ccc(-c3c4nc(c(-c5c(F)c(F)c(F)c(F)c5F)c5ccc([nH]5)c(-c5c(F)c(F)c(F)c(F)c5F)c5nc(c(-c6c(F)c(F)c(F)c(F)c6F)c6ccc3[nH]6)C=C5)C=C4)cc2)C1
REMARK SMILES IDX 14 1 13 2 11 3 12 4 6 5 5 6 3 7 4 8 82 9 2 11 1 12 7 13 8 14
REMARK SMILES IDX 9 15 10 16 15 17 16 18 17 19 18 20 19 21 20 22 81 23 21 24
REMARK SMILES IDX 80 25 22 26 23 27 24 28 74 29 25 30 79 31 73 32 75 33 26 34
REMARK SMILES IDX 78 35 72 36 71 37 27 39 59 40 39 41 58 42 40 43 43 44 57 45
REMARK SMILES IDX 76 46 41 47 42 48 56 50 77 51 44 52 28 53 29 54 37 55 30 56
REMARK SMILES IDX 31 57 35 58 38 59 32 60 33 61 36 62 34 63 60 64 61 65 69 66
REMARK SMILES IDX 62 67 63 68 67 69 70 70 64 71 65 72 68 73 66 74 45 75 46 76
REMARK SMILES IDX 54 77 47 78 48 79 52 80 55 81 49 82 50 83 53 84 51 85
REMARK H PARENT 5 10 75 38 43 49
REMARK Flexibility Score: inf
ROOT
ATOM      1  C   UNL A   1      31.728  28.746  26.871  1.00  0.00     0.274 C 
ENDROOT
BRANCH   1   2
ATOM      2  O   UNL A   1      32.072  27.817  25.823  1.00  0.00    -0.458 OA
BRANCH   2   3
ATOM      3  C   UNL A   1      31.461  26.605  25.841  1.00  0.00     0.365 C 
ATOM      4  O   UNL A   1      30.909  26.135  26.832  1.00  0.00    -0.245 OA
BRANCH   3   5
ATOM      5  C   UNL A   1      31.557  25.857  24.492  1.00  0.00     0.297 C 
BRANCH   5   6
ATOM      6  N   UNL A   1      32.976  25.818  24.084  1.00  0.00    -0.322 N 
ATOM      7  C   UNL A   1      34.579  24.546  23.643  1.00  0.00     0.099 C 
ATOM      8  C   UNL A   1      33.274  24.975  22.929  1.00  0.00     0.272 C 
ATOM      9  C   UNL A   1      33.850  24.994  24.937  1.00  0.00     0.272 C 
ATOM     10  H   UNL A   1      33.124  26.825  24.025  1.00  0.00     0.348 HD
BRANCH   7  11
ATOM     11  C   UNL A   1      34.953  23.074  23.551  1.00  0.00     0.012 C 
ATOM     12  C   UNL A   1      36.422  22.922  23.193  1.00  0.00     0.004 C 
ENDBRANCH   7  11
ENDBRANCH   5   6
BRANCH   5  13
ATOM     13  C   UNL A   1      30.365  26.077  23.516  1.00  0.00     0.106 C 
BRANCH  13  14
ATOM     14  C   UNL A   1      29.670  27.430  23.371  1.00  0.00     0.166 C 
BRANCH  14  15
ATOM     15  O   UNL A   1      30.121  28.176  22.251  1.00  0.00    -0.384 OA
ATOM     16  C   UNL A   1      31.291  28.937  22.536  1.00  0.00     0.194 C 
ENDBRANCH  14  15
ENDBRANCH  13  14
ENDBRANCH   5  13
ENDBRANCH   3   5
ENDBRANCH   2   3
ENDBRANCH   1   2
BRANCH   1  17
ATOM     17  C   UNL A   1      31.946  30.198  26.434  1.00  0.00     0.275 C 
BRANCH  17  18
ATOM     18  O   UNL A   1      33.347  30.522  26.394  1.00  0.00    -0.458 OA
BRANCH  18  19
ATOM     19  C   UNL A   1      33.746  31.501  27.232  1.00  0.00     0.338 C 
ATOM     20  O   UNL A   1      33.132  32.511  27.549  1.00  0.00    -0.246 OA
BRANCH  19  21
ATOM     21  C   UNL A   1      35.002  31.111  27.876  1.00  0.00     0.060 A 
ATOM     22  C   UNL A   1      35.106  29.804  28.361  1.00  0.00     0.016 A 
ATOM     23  C   UNL A   1      36.042  32.024  28.043  1.00  0.00     0.016 A 
ATOM     24  C   UNL A   1      36.262  29.392  29.009  1.00  0.00     0.010 A 
ATOM     25  C   UNL A   1      37.200  31.615  28.705  1.00  0.00     0.010 A 
ATOM     26  C   UNL A   1      37.309  30.300  29.192  1.00  0.00    -0.014 A 
BRANCH  26  27
ATOM     27  C   UNL A   1      38.502  29.877  29.948  1.00  0.00     0.031 A 
ATOM     28  C   UNL A   1      38.718  30.406  31.332  1.00  0.00     0.074 A 
ATOM     29  C   UNL A   1      39.358  29.003  29.392  1.00  0.00     0.049 A 
ATOM     30  N   UNL A   1      39.723  30.212  32.145  1.00  0.00    -0.248 NA
ATOM     31  C   UNL A   1      37.659  31.271  31.873  1.00  0.00     0.031 C 
ATOM     32  C   UNL A   1      39.200  28.396  28.070  1.00  0.00     0.029 A 
ATOM     33  N   UNL A   1      40.529  28.477  29.867  1.00  0.00    -0.354 N 
ATOM     34  C   UNL A   1      39.427  30.941  33.287  1.00  0.00     0.074 A 
ATOM     35  C   UNL A   1      38.157  31.597  33.057  1.00  0.00     0.031 C 
ATOM     36  C   UNL A   1      40.243  27.584  27.836  1.00  0.00     0.029 A 
ATOM     37  C   UNL A   1      41.155  27.644  28.974  1.00  0.00     0.049 A 
ATOM     38  H   UNL A   1      40.887  28.676  30.763  1.00  0.00     0.167 HD
ATOM     39  C   UNL A   1      40.156  31.048  34.422  1.00  0.00     0.037 A 
ATOM     40  C   UNL A   1      42.344  27.022  29.065  1.00  0.00     0.037 A 
ATOM     41  C   UNL A   1      41.418  30.389  34.628  1.00  0.00     0.049 A 
ATOM     42  C   UNL A   1      43.156  27.195  30.320  1.00  0.00     0.074 A 
ATOM     43  C   UNL A   1      42.251  30.434  35.732  1.00  0.00     0.029 A 
ATOM     44  N   UNL A   1      42.033  29.559  33.698  1.00  0.00    -0.354 N 
ATOM     45  N   UNL A   1      42.875  27.891  31.396  1.00  0.00    -0.248 NA
ATOM     46  C   UNL A   1      44.443  26.493  30.375  1.00  0.00     0.031 C 
ATOM     47  C   UNL A   1      43.386  29.664  35.454  1.00  0.00     0.029 A 
ATOM     48  C   UNL A   1      43.239  29.097  34.198  1.00  0.00     0.049 A 
ATOM     49  H   UNL A   1      41.664  29.333  32.813  1.00  0.00     0.167 HD
ATOM     50  C   UNL A   1      43.937  27.691  32.268  1.00  0.00     0.074 A 
ATOM     51  C   UNL A   1      44.860  26.798  31.597  1.00  0.00     0.031 C 
ATOM     52  C   UNL A   1      44.132  28.200  33.509  1.00  0.00     0.037 A 
BRANCH  39  53
ATOM     53  C   UNL A   1      39.621  31.937  35.506  1.00  0.00     0.064 A 
ATOM     54  C   UNL A   1      40.032  33.273  35.636  1.00  0.00     0.173 A 
ATOM     55  C   UNL A   1      38.675  31.451  36.420  1.00  0.00     0.173 A 
ATOM     56  F   UNL A   1      40.950  33.782  34.799  1.00  0.00    -0.203 F 
ATOM     57  C   UNL A   1      39.535  34.079  36.657  1.00  0.00     0.198 A 
ATOM     58  C   UNL A   1      38.160  32.267  37.423  1.00  0.00     0.198 A 
ATOM     59  F   UNL A   1      38.249  30.180  36.340  1.00  0.00    -0.203 F 
ATOM     60  F   UNL A   1      39.978  35.337  36.792  1.00  0.00    -0.200 F 
ATOM     61  C   UNL A   1      38.595  33.578  37.545  1.00  0.00     0.200 A 
ATOM     62  F   UNL A   1      37.246  31.783  38.276  1.00  0.00    -0.200 F 
ATOM     63  F   UNL A   1      38.116  34.356  38.526  1.00  0.00    -0.200 F 
ENDBRANCH  39  53
BRANCH  40  64
ATOM     64  C   UNL A   1      42.831  26.187  27.937  1.00  0.00     0.064 A 
ATOM     65  C   UNL A   1      42.487  24.832  27.839  1.00  0.00     0.173 A 
ATOM     66  C   UNL A   1      43.646  26.728  26.931  1.00  0.00     0.173 A 
ATOM     67  F   UNL A   1      41.728  24.264  28.788  1.00  0.00    -0.203 F 
ATOM     68  C   UNL A   1      42.951  24.047  26.786  1.00  0.00     0.198 A 
ATOM     69  C   UNL A   1      44.086  25.949  25.864  1.00  0.00     0.198 A 
ATOM     70  F   UNL A   1      44.004  28.020  26.979  1.00  0.00    -0.203 F 
ATOM     71  F   UNL A   1      42.641  22.744  26.738  1.00  0.00    -0.200 F 
ATOM     72  C   UNL A   1      43.744  24.607  25.796  1.00  0.00     0.200 A 
ATOM     73  F   UNL A   1      44.843  26.497  24.904  1.00  0.00    -0.200 F 
ATOM     74  F   UNL A   1      44.186  23.852  24.781  1.00  0.00    -0.200 F 
ENDBRANCH  40  64
BRANCH  52  75
ATOM     75  C   UNL A   1      45.370  27.762  34.235  1.00  0.00     0.064 A 
ATOM     76  C   UNL A   1      45.379  26.626  35.056  1.00  0.00     0.173 A 
ATOM     77  C   UNL A   1      46.569  28.475  34.080  1.00  0.00     0.173 A 
ATOM     78  F   UNL A   1      44.253  25.922  35.247  1.00  0.00    -0.203 F 
ATOM     79  C   UNL A   1      46.538  26.237  35.722  1.00  0.00     0.198 A 
ATOM     80  C   UNL A   1      47.731  28.066  34.724  1.00  0.00     0.198 A 
ATOM     81  F   UNL A   1      46.612  29.565  33.297  1.00  0.00    -0.203 F 
ATOM     82  F   UNL A   1      46.513  25.179  36.544  1.00  0.00    -0.200 F 
ATOM     83  C   UNL A   1      47.713  26.954  35.551  1.00  0.00     0.200 A 
ATOM     84  F   UNL A   1      48.870  28.752  34.547  1.00  0.00    -0.200 F 
ATOM     85  F   UNL A   1      48.829  26.575  36.191  1.00  0.00    -0.200 F 
ENDBRANCH  52  75
ENDBRANCH  26  27
ENDBRANCH  19  21
ENDBRANCH  18  19
ENDBRANCH  17  18
ENDBRANCH   1  17
TORSDOF 16
ENDMDL
