MODEL 1
REMARK VINA RESULT:     -12.5      0.000      0.000
REMARK SMILES O=C1NC(=S)/C(=C/c2ccc(-c3ccc(C(=O)OCCOC(=O)c4ccc(-c5c6nc(c(-c7c(F)c(F)c(F)c(F)c7F)c7ccc([nH]7)c(-c7c(F)c(F)c(F)c(F)c7F)c7nc(c(-c8c(F)c(F)c(F)c(F)c8F)c8ccc5[nH]8)C=C7)C=C6)cc4)cc3)o2)S1
REMARK SMILES IDX 19 1 18 2 16 3 17 4 15 5 12 6 13 7 88 8 14 9 87 10 11 11
REMARK SMILES IDX 8 12 9 13 89 14 10 15 7 16 1 17 2 18 3 19 90 20 4 21 6 23
REMARK SMILES IDX 5 24 20 25 21 26 22 27 23 28 24 29 25 30 86 31 26 32 85 33
REMARK SMILES IDX 27 34 28 35 29 36 79 37 30 38 84 39 78 40 80 41 31 42 83 43
REMARK SMILES IDX 77 44 76 45 32 47 64 48 44 49 63 50 45 51 48 52 62 53 81 54
REMARK SMILES IDX 46 55 47 56 61 58 82 59 49 60 33 61 34 62 42 63 35 64 36 65
REMARK SMILES IDX 40 66 43 67 37 68 38 69 41 70 39 71 65 72 66 73 74 74 67 75
REMARK SMILES IDX 68 76 72 77 75 78 69 79 70 80 73 81 71 82 50 83 51 84 59 85
REMARK SMILES IDX 52 86 53 87 57 88 60 89 54 90 55 91 58 92 56 93
REMARK H PARENT 3 22 80 46 48 57
REMARK Flexibility Score: inf
ROOT
ATOM      1  C   UNL A   1      42.278  19.587  27.082  1.00  0.00     0.275 C 
ENDROOT
BRANCH   1   2
ATOM      2  O   UNL A   1      42.024  20.898  26.531  1.00  0.00    -0.458 OA
BRANCH   2   3
ATOM      3  C   UNL A   1      41.448  21.784  27.378  1.00  0.00     0.338 C 
ATOM      4  O   UNL A   1      41.946  22.246  28.393  1.00  0.00    -0.246 OA
BRANCH   3   5
ATOM      5  C   UNL A   1      40.107  22.197  26.902  1.00  0.00     0.060 A 
ATOM      6  C   UNL A   1      37.724  23.002  25.651  1.00  0.00     0.017 A 
ATOM      7  C   UNL A   1      38.165  21.687  25.527  1.00  0.00     0.013 A 
ATOM      8  C   UNL A   1      38.449  23.895  26.457  1.00  0.00     0.013 A 
ATOM      9  C   UNL A   1      39.365  21.303  26.118  1.00  0.00     0.016 A 
ATOM     10  C   UNL A   1      39.629  23.492  27.098  1.00  0.00     0.016 A 
BRANCH   6  11
ATOM     11  C   UNL A   1      36.632  23.457  24.811  1.00  0.00     0.134 A 
ATOM     12  C   UNL A   1      34.705  24.504  24.470  1.00  0.00     0.128 A 
ATOM     13  C   UNL A   1      35.018  23.788  23.319  1.00  0.00     0.051 A 
ATOM     14  O   UNL A   1      35.726  24.303  25.374  1.00  0.00    -0.457 OA
ATOM     15  C   UNL A   1      36.242  23.123  23.537  1.00  0.00     0.051 A 
BRANCH  12  16
ATOM     16  C   UNL A   1      33.586  25.340  24.737  1.00  0.00     0.065 C 
ATOM     17  O   UNL A   1      29.986  23.094  27.469  1.00  0.00    -0.261 OA
ATOM     18  C   UNL A   1      30.687  23.822  26.794  1.00  0.00     0.289 C 
ATOM     19  N   UNL A   1      30.375  25.082  26.386  1.00  0.00    -0.307 N 
ATOM     20  S   UNL A   1      32.264  23.394  26.181  1.00  0.00    -0.025 SA
ATOM     21  C   UNL A   1      31.282  25.775  25.625  1.00  0.00     0.120 C 
ATOM     22  H   UNL A   1      29.513  25.488  26.631  1.00  0.00     0.171 HD
ATOM     23  C   UNL A   1      32.498  24.932  25.408  1.00  0.00     0.056 C 
ATOM     24  S   UNL A   1      30.919  27.304  25.072  1.00  0.00    -0.059 S 
ENDBRANCH  12  16
ENDBRANCH   6  11
ENDBRANCH   3   5
ENDBRANCH   2   3
ENDBRANCH   1   2
BRANCH   1  25
ATOM     25  C   UNL A   1      42.849  18.630  26.034  1.00  0.00     0.275 C 
BRANCH  25  26
ATOM     26  O   UNL A   1      43.106  19.310  24.790  1.00  0.00    -0.458 OA
BRANCH  26  27
ATOM     27  C   UNL A   1      44.412  19.411  24.462  1.00  0.00     0.338 C 
ATOM     28  O   UNL A   1      45.139  18.539  24.017  1.00  0.00    -0.246 OA
BRANCH  27  29
ATOM     29  C   UNL A   1      44.882  20.794  24.621  1.00  0.00     0.060 A 
ATOM     30  C   UNL A   1      45.533  21.118  25.800  1.00  0.00     0.016 A 
ATOM     31  C   UNL A   1      44.479  21.801  23.750  1.00  0.00     0.016 A 
ATOM     32  C   UNL A   1      45.625  22.441  26.211  1.00  0.00     0.010 A 
ATOM     33  C   UNL A   1      44.726  23.138  24.089  1.00  0.00     0.010 A 
ATOM     34  C   UNL A   1      45.256  23.479  25.349  1.00  0.00    -0.014 A 
BRANCH  34  35
ATOM     35  C   UNL A   1      45.425  24.901  25.773  1.00  0.00     0.031 A 
ATOM     36  C   UNL A   1      46.759  25.591  25.630  1.00  0.00     0.074 A 
ATOM     37  C   UNL A   1      44.377  25.584  26.280  1.00  0.00     0.049 A 
ATOM     38  N   UNL A   1      47.149  26.748  26.106  1.00  0.00    -0.248 NA
ATOM     39  C   UNL A   1      47.796  24.881  24.865  1.00  0.00     0.031 C 
ATOM     40  C   UNL A   1      43.015  25.064  26.430  1.00  0.00     0.029 A 
ATOM     41  N   UNL A   1      44.287  26.869  26.760  1.00  0.00    -0.354 N 
ATOM     42  C   UNL A   1      48.487  26.876  25.747  1.00  0.00     0.074 A 
ATOM     43  C   UNL A   1      48.846  25.674  25.028  1.00  0.00     0.031 C 
ATOM     44  C   UNL A   1      42.221  26.027  26.916  1.00  0.00     0.029 A 
ATOM     45  C   UNL A   1      43.035  27.193  27.227  1.00  0.00     0.049 A 
ATOM     46  H   UNL A   1      45.046  27.496  26.769  1.00  0.00     0.167 HD
ATOM     47  C   UNL A   1      49.333  27.906  25.997  1.00  0.00     0.037 A 
ATOM     48  C   UNL A   1      42.594  28.279  27.887  1.00  0.00     0.037 A 
ATOM     49  C   UNL A   1      48.953  29.118  26.678  1.00  0.00     0.049 A 
ATOM     50  C   UNL A   1      43.569  29.374  28.212  1.00  0.00     0.074 A 
ATOM     51  C   UNL A   1      49.729  30.227  26.967  1.00  0.00     0.029 A 
ATOM     52  N   UNL A   1      47.683  29.384  27.171  1.00  0.00    -0.354 N 
ATOM     53  N   UNL A   1      44.840  29.468  27.906  1.00  0.00    -0.248 NA
ATOM     54  C   UNL A   1      43.052  30.507  28.990  1.00  0.00     0.031 C 
ATOM     55  C   UNL A   1      48.947  31.137  27.685  1.00  0.00     0.029 A 
ATOM     56  C   UNL A   1      47.663  30.628  27.784  1.00  0.00     0.049 A 
ATOM     57  H   UNL A   1      46.910  28.779  27.097  1.00  0.00     0.167 HD
ATOM     58  C   UNL A   1      45.268  30.681  28.428  1.00  0.00     0.074 A 
ATOM     59  C   UNL A   1      44.116  31.294  29.054  1.00  0.00     0.031 C 
ATOM     60  C   UNL A   1      46.505  31.233  28.393  1.00  0.00     0.037 A 
BRANCH  47  61
ATOM     61  C   UNL A   1      50.769  27.756  25.570  1.00  0.00     0.064 A 
ATOM     62  C   UNL A   1      51.191  28.020  24.259  1.00  0.00     0.173 A 
ATOM     63  C   UNL A   1      51.747  27.382  26.507  1.00  0.00     0.173 A 
ATOM     64  F   UNL A   1      50.299  28.374  23.321  1.00  0.00    -0.203 F 
ATOM     65  C   UNL A   1      52.529  27.885  23.894  1.00  0.00     0.198 A 
ATOM     66  C   UNL A   1      53.089  27.283  26.148  1.00  0.00     0.198 A 
ATOM     67  F   UNL A   1      51.404  27.127  27.779  1.00  0.00    -0.203 F 
ATOM     68  F   UNL A   1      52.900  28.093  22.623  1.00  0.00    -0.200 F 
ATOM     69  C   UNL A   1      53.478  27.525  24.840  1.00  0.00     0.200 A 
ATOM     70  F   UNL A   1      54.006  26.953  27.068  1.00  0.00    -0.200 F 
ATOM     71  F   UNL A   1      54.766  27.407  24.489  1.00  0.00    -0.200 F 
ENDBRANCH  47  61
BRANCH  48  72
ATOM     72  C   UNL A   1      41.174  28.361  28.324  1.00  0.00     0.064 A 
ATOM     73  C   UNL A   1      40.192  28.906  27.487  1.00  0.00     0.173 A 
ATOM     74  C   UNL A   1      40.769  27.898  29.587  1.00  0.00     0.173 A 
ATOM     75  F   UNL A   1      40.530  29.384  26.282  1.00  0.00    -0.203 F 
ATOM     76  C   UNL A   1      38.864  29.001  27.902  1.00  0.00     0.198 A 
ATOM     77  C   UNL A   1      39.436  27.957  29.984  1.00  0.00     0.198 A 
ATOM     78  F   UNL A   1      41.668  27.364  30.429  1.00  0.00    -0.203 F 
ATOM     79  F   UNL A   1      37.955  29.575  27.102  1.00  0.00    -0.200 F 
ATOM     80  C   UNL A   1      38.486  28.518  29.146  1.00  0.00     0.200 A 
ATOM     81  F   UNL A   1      39.072  27.470  31.179  1.00  0.00    -0.200 F 
ATOM     82  F   UNL A   1      37.209  28.602  29.539  1.00  0.00    -0.200 F 
ENDBRANCH  48  72
BRANCH  60  83
ATOM     83  C   UNL A   1      46.663  32.595  29.005  1.00  0.00     0.064 A 
ATOM     84  C   UNL A   1      46.449  33.768  28.268  1.00  0.00     0.173 A 
ATOM     85  C   UNL A   1      47.012  32.724  30.359  1.00  0.00     0.173 A 
ATOM     86  F   UNL A   1      46.132  33.700  26.966  1.00  0.00    -0.203 F 
ATOM     87  C   UNL A   1      46.608  35.021  28.855  1.00  0.00     0.198 A 
ATOM     88  C   UNL A   1      47.134  33.977  30.952  1.00  0.00     0.198 A 
ATOM     89  F   UNL A   1      47.223  31.633  31.111  1.00  0.00    -0.203 F 
ATOM     90  F   UNL A   1      46.457  36.129  28.116  1.00  0.00    -0.200 F 
ATOM     91  C   UNL A   1      46.942  35.124  30.197  1.00  0.00     0.200 A 
ATOM     92  F   UNL A   1      47.440  34.074  32.253  1.00  0.00    -0.200 F 
ATOM     93  F   UNL A   1      47.087  36.331  30.762  1.00  0.00    -0.200 F 
ENDBRANCH  60  83
ENDBRANCH  34  35
ENDBRANCH  27  29
ENDBRANCH  26  27
ENDBRANCH  25  26
ENDBRANCH   1  25
TORSDOF 13
ENDMDL
MODEL 2
REMARK VINA RESULT:     -12.5      0.095      1.941
REMARK SMILES O=C1NC(=S)/C(=C/c2ccc(-c3ccc(C(=O)OCCOC(=O)c4ccc(-c5c6nc(c(-c7c(F)c(F)c(F)c(F)c7F)c7ccc([nH]7)c(-c7c(F)c(F)c(F)c(F)c7F)c7nc(c(-c8c(F)c(F)c(F)c(F)c8F)c8ccc5[nH]8)C=C7)C=C6)cc4)cc3)o2)S1
REMARK SMILES IDX 19 1 18 2 16 3 17 4 15 5 12 6 13 7 88 8 14 9 87 10 11 11
REMARK SMILES IDX 8 12 9 13 89 14 10 15 7 16 1 17 2 18 3 19 90 20 4 21 6 23
REMARK SMILES IDX 5 24 20 25 21 26 22 27 23 28 24 29 25 30 86 31 26 32 85 33
REMARK SMILES IDX 27 34 28 35 29 36 79 37 30 38 84 39 78 40 80 41 31 42 83 43
REMARK SMILES IDX 77 44 76 45 32 47 64 48 44 49 63 50 45 51 48 52 62 53 81 54
REMARK SMILES IDX 46 55 47 56 61 58 82 59 49 60 33 61 34 62 42 63 35 64 36 65
REMARK SMILES IDX 40 66 43 67 37 68 38 69 41 70 39 71 65 72 66 73 74 74 67 75
REMARK SMILES IDX 68 76 72 77 75 78 69 79 70 80 73 81 71 82 50 83 51 84 59 85
REMARK SMILES IDX 52 86 53 87 57 88 60 89 54 90 55 91 58 92 56 93
REMARK H PARENT 3 22 80 46 48 57
REMARK Flexibility Score: inf
ROOT
ATOM      1  C   UNL A   1      42.277  19.654  27.030  1.00  0.00     0.275 C 
ENDROOT
BRANCH   1   2
ATOM      2  O   UNL A   1      41.899  20.911  26.427  1.00  0.00    -0.458 OA
BRANCH   2   3
ATOM      3  C   UNL A   1      41.337  21.813  27.268  1.00  0.00     0.338 C 
ATOM      4  O   UNL A   1      41.848  22.286  28.270  1.00  0.00    -0.246 OA
BRANCH   3   5
ATOM      5  C   UNL A   1      39.994  22.228  26.798  1.00  0.00     0.060 A 
ATOM      6  C   UNL A   1      37.605  23.035  25.560  1.00  0.00     0.017 A 
ATOM      7  C   UNL A   1      38.040  21.717  25.442  1.00  0.00     0.013 A 
ATOM      8  C   UNL A   1      38.340  23.930  26.355  1.00  0.00     0.013 A 
ATOM      9  C   UNL A   1      39.242  21.332  26.027  1.00  0.00     0.016 A 
ATOM     10  C   UNL A   1      39.523  23.526  26.990  1.00  0.00     0.016 A 
BRANCH   6  11
ATOM     11  C   UNL A   1      36.508  23.489  24.726  1.00  0.00     0.134 A 
ATOM     12  C   UNL A   1      34.576  24.528  24.396  1.00  0.00     0.128 A 
ATOM     13  C   UNL A   1      34.889  23.819  23.241  1.00  0.00     0.051 A 
ATOM     14  O   UNL A   1      35.600  24.328  25.296  1.00  0.00    -0.457 OA
ATOM     15  C   UNL A   1      36.116  23.159  23.452  1.00  0.00     0.051 A 
BRANCH  12  16
ATOM     16  C   UNL A   1      33.453  25.357  24.670  1.00  0.00     0.065 C 
ATOM     17  O   UNL A   1      29.906  23.108  27.466  1.00  0.00    -0.261 OA
ATOM     18  C   UNL A   1      30.592  23.835  26.776  1.00  0.00     0.289 C 
ATOM     19  N   UNL A   1      30.265  25.089  26.361  1.00  0.00    -0.307 N 
ATOM     20  S   UNL A   1      32.165  23.414  26.147  1.00  0.00    -0.025 SA
ATOM     21  C   UNL A   1      31.157  25.783  25.583  1.00  0.00     0.120 C 
ATOM     22  H   UNL A   1      29.404  25.491  26.614  1.00  0.00     0.171 HD
ATOM     23  C   UNL A   1      32.377  24.947  25.358  1.00  0.00     0.056 C 
ATOM     24  S   UNL A   1      30.776  27.304  25.023  1.00  0.00    -0.059 S 
ENDBRANCH  12  16
ENDBRANCH   6  11
ENDBRANCH   3   5
ENDBRANCH   2   3
ENDBRANCH   1   2
BRANCH   1  25
ATOM     25  C   UNL A   1      42.831  18.671  25.996  1.00  0.00     0.275 C 
BRANCH  25  26
ATOM     26  O   UNL A   1      43.121  19.333  24.749  1.00  0.00    -0.458 OA
BRANCH  26  27
ATOM     27  C   UNL A   1      44.436  19.430  24.455  1.00  0.00     0.338 C 
ATOM     28  O   UNL A   1      45.173  18.552  24.038  1.00  0.00    -0.246 OA
BRANCH  27  29
ATOM     29  C   UNL A   1      44.902  20.813  24.613  1.00  0.00     0.060 A 
ATOM     30  C   UNL A   1      45.563  21.137  25.787  1.00  0.00     0.016 A 
ATOM     31  C   UNL A   1      44.488  21.821  23.749  1.00  0.00     0.016 A 
ATOM     32  C   UNL A   1      45.655  22.459  26.201  1.00  0.00     0.010 A 
ATOM     33  C   UNL A   1      44.734  23.159  24.089  1.00  0.00     0.010 A 
ATOM     34  C   UNL A   1      45.274  23.498  25.344  1.00  0.00    -0.014 A 
BRANCH  34  35
ATOM     35  C   UNL A   1      45.443  24.919  25.770  1.00  0.00     0.031 A 
ATOM     36  C   UNL A   1      46.778  25.609  25.633  1.00  0.00     0.074 A 
ATOM     37  C   UNL A   1      44.394  25.603  26.274  1.00  0.00     0.049 A 
ATOM     38  N   UNL A   1      47.167  26.765  26.112  1.00  0.00    -0.248 NA
ATOM     39  C   UNL A   1      47.817  24.899  24.871  1.00  0.00     0.031 C 
ATOM     40  C   UNL A   1      43.031  25.083  26.419  1.00  0.00     0.029 A 
ATOM     41  N   UNL A   1      44.303  26.887  26.755  1.00  0.00    -0.354 N 
ATOM     42  C   UNL A   1      48.506  26.893  25.758  1.00  0.00     0.074 A 
ATOM     43  C   UNL A   1      48.867  25.691  25.039  1.00  0.00     0.031 C 
ATOM     44  C   UNL A   1      42.236  26.046  26.903  1.00  0.00     0.029 A 
ATOM     45  C   UNL A   1      43.049  27.212  27.218  1.00  0.00     0.049 A 
ATOM     46  H   UNL A   1      45.062  27.514  26.768  1.00  0.00     0.167 HD
ATOM     47  C   UNL A   1      49.352  27.921  26.012  1.00  0.00     0.037 A 
ATOM     48  C   UNL A   1      42.607  28.297  27.878  1.00  0.00     0.037 A 
ATOM     49  C   UNL A   1      48.970  29.134  26.692  1.00  0.00     0.049 A 
ATOM     50  C   UNL A   1      43.581  29.391  28.207  1.00  0.00     0.074 A 
ATOM     51  C   UNL A   1      49.746  30.242  26.985  1.00  0.00     0.029 A 
ATOM     52  N   UNL A   1      47.698  29.400  27.181  1.00  0.00    -0.354 N 
ATOM     53  N   UNL A   1      44.853  29.485  27.906  1.00  0.00    -0.248 NA
ATOM     54  C   UNL A   1      43.061  30.524  28.985  1.00  0.00     0.031 C 
ATOM     55  C   UNL A   1      48.962  31.151  27.702  1.00  0.00     0.029 A 
ATOM     56  C   UNL A   1      47.677  30.643  27.795  1.00  0.00     0.049 A 
ATOM     57  H   UNL A   1      46.925  28.795  27.103  1.00  0.00     0.167 HD
ATOM     58  C   UNL A   1      45.279  30.697  28.431  1.00  0.00     0.074 A 
ATOM     59  C   UNL A   1      44.125  31.310  29.054  1.00  0.00     0.031 C 
ATOM     60  C   UNL A   1      46.517  31.248  28.401  1.00  0.00     0.037 A 
BRANCH  47  61
ATOM     61  C   UNL A   1      50.789  27.772  25.590  1.00  0.00     0.064 A 
ATOM     62  C   UNL A   1      51.798  27.397  26.489  1.00  0.00     0.173 A 
ATOM     63  C   UNL A   1      51.153  27.966  24.246  1.00  0.00     0.173 A 
ATOM     64  F   UNL A   1      51.510  27.205  27.785  1.00  0.00    -0.203 F 
ATOM     65  C   UNL A   1      53.118  27.253  26.068  1.00  0.00     0.198 A 
ATOM     66  C   UNL A   1      52.467  27.787  23.822  1.00  0.00     0.198 A 
ATOM     67  F   UNL A   1      50.228  28.315  23.339  1.00  0.00    -0.203 F 
ATOM     68  F   UNL A   1      54.074  26.945  26.956  1.00  0.00    -0.200 F 
ATOM     69  C   UNL A   1      53.450  27.440  24.734  1.00  0.00     0.200 A 
ATOM     70  F   UNL A   1      52.781  27.950  22.529  1.00  0.00    -0.200 F 
ATOM     71  F   UNL A   1      54.720  27.291  24.330  1.00  0.00    -0.200 F 
ENDBRANCH  47  61
BRANCH  48  72
ATOM     72  C   UNL A   1      41.185  28.380  28.310  1.00  0.00     0.064 A 
ATOM     73  C   UNL A   1      40.785  27.907  29.567  1.00  0.00     0.173 A 
ATOM     74  C   UNL A   1      40.197  28.930  27.478  1.00  0.00     0.173 A 
ATOM     75  F   UNL A   1      41.684  27.351  30.391  1.00  0.00    -0.203 F 
ATOM     76  C   UNL A   1      39.451  27.966  29.967  1.00  0.00     0.198 A 
ATOM     77  C   UNL A   1      38.872  29.025  27.894  1.00  0.00     0.198 A 
ATOM     78  F   UNL A   1      40.524  29.400  26.264  1.00  0.00    -0.203 F 
ATOM     79  F   UNL A   1      39.087  27.458  31.153  1.00  0.00    -0.200 F 
ATOM     80  C   UNL A   1      38.497  28.532  29.134  1.00  0.00     0.200 A 
ATOM     81  F   UNL A   1      37.959  29.591  27.094  1.00  0.00    -0.200 F 
ATOM     82  F   UNL A   1      37.217  28.596  29.523  1.00  0.00    -0.200 F 
ENDBRANCH  48  72
BRANCH  60  83
ATOM     83  C   UNL A   1      46.674  32.610  29.015  1.00  0.00     0.064 A 
ATOM     84  C   UNL A   1      47.080  32.781  30.346  1.00  0.00     0.173 A 
ATOM     85  C   UNL A   1      46.437  33.761  28.247  1.00  0.00     0.173 A 
ATOM     86  F   UNL A   1      47.303  31.713  31.128  1.00  0.00    -0.203 F 
ATOM     87  C   UNL A   1      47.212  34.053  30.895  1.00  0.00     0.198 A 
ATOM     88  C   UNL A   1      46.605  35.031  28.789  1.00  0.00     0.198 A 
ATOM     89  F   UNL A   1      46.051  33.653  26.967  1.00  0.00    -0.203 F 
ATOM     90  F   UNL A   1      47.544  34.192  32.187  1.00  0.00    -0.200 F 
ATOM     91  C   UNL A   1      46.984  35.176  30.115  1.00  0.00     0.200 A 
ATOM     92  F   UNL A   1      46.400  36.115  28.028  1.00  0.00    -0.200 F 
ATOM     93  F   UNL A   1      47.119  36.400  30.644  1.00  0.00    -0.200 F 
ENDBRANCH  60  83
ENDBRANCH  34  35
ENDBRANCH  27  29
ENDBRANCH  26  27
ENDBRANCH  25  26
ENDBRANCH   1  25
TORSDOF 13
ENDMDL
MODEL 3
REMARK VINA RESULT:     -12.4      7.018     12.561
REMARK SMILES O=C1NC(=S)/C(=C/c2ccc(-c3ccc(C(=O)OCCOC(=O)c4ccc(-c5c6nc(c(-c7c(F)c(F)c(F)c(F)c7F)c7ccc([nH]7)c(-c7c(F)c(F)c(F)c(F)c7F)c7nc(c(-c8c(F)c(F)c(F)c(F)c8F)c8ccc5[nH]8)C=C7)C=C6)cc4)cc3)o2)S1
REMARK SMILES IDX 19 1 18 2 16 3 17 4 15 5 12 6 13 7 88 8 14 9 87 10 11 11
REMARK SMILES IDX 8 12 9 13 89 14 10 15 7 16 1 17 2 18 3 19 90 20 4 21 6 23
REMARK SMILES IDX 5 24 20 25 21 26 22 27 23 28 24 29 25 30 86 31 26 32 85 33
REMARK SMILES IDX 27 34 28 35 29 36 79 37 30 38 84 39 78 40 80 41 31 42 83 43
REMARK SMILES IDX 77 44 76 45 32 47 64 48 44 49 63 50 45 51 48 52 62 53 81 54
REMARK SMILES IDX 46 55 47 56 61 58 82 59 49 60 33 61 34 62 42 63 35 64 36 65
REMARK SMILES IDX 40 66 43 67 37 68 38 69 41 70 39 71 65 72 66 73 74 74 67 75
REMARK SMILES IDX 68 76 72 77 75 78 69 79 70 80 73 81 71 82 50 83 51 84 59 85
REMARK SMILES IDX 52 86 53 87 57 88 60 89 54 90 55 91 58 92 56 93
REMARK H PARENT 3 22 80 46 48 57
REMARK Flexibility Score: inf
ROOT
ATOM      1  C   UNL A   1      34.268  35.166  28.693  1.00  0.00     0.275 C 
ENDROOT
BRANCH   1   2
ATOM      2  O   UNL A   1      34.477  33.852  29.256  1.00  0.00    -0.458 OA
BRANCH   2   3
ATOM      3  C   UNL A   1      35.463  33.123  28.680  1.00  0.00     0.338 C 
ATOM      4  O   UNL A   1      36.648  33.416  28.632  1.00  0.00    -0.246 OA
BRANCH   3   5
ATOM      5  C   UNL A   1      34.945  31.847  28.133  1.00  0.00     0.060 A 
ATOM      6  C   UNL A   1      34.182  29.501  26.790  1.00  0.00     0.017 A 
ATOM      7  C   UNL A   1      35.421  29.570  27.422  1.00  0.00     0.013 A 
ATOM      8  C   UNL A   1      33.301  30.590  26.888  1.00  0.00     0.013 A 
ATOM      9  C   UNL A   1      35.809  30.746  28.055  1.00  0.00     0.016 A 
ATOM     10  C   UNL A   1      33.671  31.756  27.574  1.00  0.00     0.016 A 
BRANCH   6  11
ATOM     11  C   UNL A   1      33.906  28.383  25.908  1.00  0.00     0.134 A 
ATOM     12  C   UNL A   1      33.867  26.220  25.413  1.00  0.00     0.128 A 
ATOM     13  C   UNL A   1      33.602  26.935  24.249  1.00  0.00     0.051 A 
ATOM     14  O   UNL A   1      34.032  27.132  26.432  1.00  0.00    -0.457 OA
ATOM     15  C   UNL A   1      33.627  28.308  24.565  1.00  0.00     0.051 A 
BRANCH  12  16
ATOM     16  C   UNL A   1      33.937  24.813  25.611  1.00  0.00     0.065 C 
ATOM     17  O   UNL A   1      29.640  22.791  27.318  1.00  0.00    -0.261 OA
ATOM     18  C   UNL A   1      30.767  23.047  26.942  1.00  0.00     0.289 C 
ATOM     19  N   UNL A   1      31.796  22.163  26.831  1.00  0.00    -0.307 N 
ATOM     20  S   UNL A   1      31.321  24.634  26.471  1.00  0.00    -0.025 SA
ATOM     21  C   UNL A   1      33.012  22.616  26.388  1.00  0.00     0.120 C 
ATOM     22  H   UNL A   1      31.669  21.216  27.066  1.00  0.00     0.171 HD
ATOM     23  C   UNL A   1      32.925  24.081  26.100  1.00  0.00     0.056 C 
ATOM     24  S   UNL A   1      34.306  21.573  26.278  1.00  0.00    -0.059 S 
ENDBRANCH  12  16
ENDBRANCH   6  11
ENDBRANCH   3   5
ENDBRANCH   2   3
ENDBRANCH   1   2
BRANCH   1  25
ATOM     25  C   UNL A   1      33.064  35.870  29.322  1.00  0.00     0.275 C 
BRANCH  25  26
ATOM     26  O   UNL A   1      32.565  35.136  30.457  1.00  0.00    -0.458 OA
BRANCH  26  27
ATOM     27  C   UNL A   1      32.764  35.739  31.650  1.00  0.00     0.338 C 
ATOM     28  O   UNL A   1      32.139  36.672  32.126  1.00  0.00    -0.246 OA
BRANCH  27  29
ATOM     29  C   UNL A   1      33.820  35.056  32.407  1.00  0.00     0.060 A 
ATOM     30  C   UNL A   1      35.079  35.635  32.417  1.00  0.00     0.016 A 
ATOM     31  C   UNL A   1      33.647  33.761  32.886  1.00  0.00     0.016 A 
ATOM     32  C   UNL A   1      36.199  34.876  32.727  1.00  0.00     0.010 A 
ATOM     33  C   UNL A   1      34.760  33.053  33.360  1.00  0.00     0.010 A 
ATOM     34  C   UNL A   1      36.060  33.581  33.239  1.00  0.00    -0.014 A 
BRANCH  34  35
ATOM     35  C   UNL A   1      37.268  32.799  33.637  1.00  0.00     0.031 A 
ATOM     36  C   UNL A   1      37.934  33.040  34.968  1.00  0.00     0.074 A 
ATOM     37  C   UNL A   1      37.768  31.860  32.806  1.00  0.00     0.049 A 
ATOM     38  N   UNL A   1      39.085  32.599  35.411  1.00  0.00    -0.248 NA
ATOM     39  C   UNL A   1      37.219  33.902  35.922  1.00  0.00     0.031 C 
ATOM     40  C   UNL A   1      37.200  31.482  31.509  1.00  0.00     0.029 A 
ATOM     41  N   UNL A   1      38.866  31.042  32.929  1.00  0.00    -0.354 N 
ATOM     42  C   UNL A   1      39.257  33.173  36.666  1.00  0.00     0.074 A 
ATOM     43  C   UNL A   1      38.099  34.006  36.908  1.00  0.00     0.031 C 
ATOM     44  C   UNL A   1      37.919  30.483  30.982  1.00  0.00     0.029 A 
ATOM     45  C   UNL A   1      39.068  30.228  31.839  1.00  0.00     0.049 A 
ATOM     46  H   UNL A   1      39.452  31.041  33.720  1.00  0.00     0.167 HD
ATOM     47  C   UNL A   1      40.287  33.016  37.534  1.00  0.00     0.037 A 
ATOM     48  C   UNL A   1      40.089  29.410  31.527  1.00  0.00     0.037 A 
ATOM     49  C   UNL A   1      41.415  32.150  37.301  1.00  0.00     0.049 A 
ATOM     50  C   UNL A   1      41.250  29.308  32.473  1.00  0.00     0.074 A 
ATOM     51  C   UNL A   1      42.503  31.907  38.121  1.00  0.00     0.029 A 
ATOM     52  N   UNL A   1      41.597  31.376  36.162  1.00  0.00    -0.354 N 
ATOM     53  N   UNL A   1      41.423  29.886  33.636  1.00  0.00    -0.248 NA
ATOM     54  C   UNL A   1      42.368  28.452  32.054  1.00  0.00     0.031 C 
ATOM     55  C   UNL A   1      43.371  31.035  37.456  1.00  0.00     0.029 A 
ATOM     56  C   UNL A   1      42.792  30.677  36.250  1.00  0.00     0.049 A 
ATOM     57  H   UNL A   1      40.971  31.331  35.404  1.00  0.00     0.167 HD
ATOM     58  C   UNL A   1      42.653  29.444  34.102  1.00  0.00     0.074 A 
ATOM     59  C   UNL A   1      43.174  28.535  33.102  1.00  0.00     0.031 C 
ATOM     60  C   UNL A   1      43.293  29.765  35.252  1.00  0.00     0.037 A 
BRANCH  47  61
ATOM     61  C   UNL A   1      40.269  33.826  38.802  1.00  0.00     0.064 A 
ATOM     62  C   UNL A   1      40.922  35.063  38.909  1.00  0.00     0.173 A 
ATOM     63  C   UNL A   1      39.547  33.372  39.918  1.00  0.00     0.173 A 
ATOM     64  F   UNL A   1      41.633  35.543  37.878  1.00  0.00    -0.203 F 
ATOM     65  C   UNL A   1      40.879  35.798  40.092  1.00  0.00     0.198 A 
ATOM     66  C   UNL A   1      39.476  34.126  41.087  1.00  0.00     0.198 A 
ATOM     67  F   UNL A   1      38.893  32.201  39.871  1.00  0.00    -0.203 F 
ATOM     68  F   UNL A   1      41.553  36.953  40.188  1.00  0.00    -0.200 F 
ATOM     69  C   UNL A   1      40.149  35.333  41.177  1.00  0.00     0.200 A 
ATOM     70  F   UNL A   1      38.754  33.683  42.127  1.00  0.00    -0.200 F 
ATOM     71  F   UNL A   1      40.100  36.048  42.310  1.00  0.00    -0.200 F 
ENDBRANCH  47  61
BRANCH  48  72
ATOM     72  C   UNL A   1      40.079  28.662  30.240  1.00  0.00     0.064 A 
ATOM     73  C   UNL A   1      39.452  27.413  30.137  1.00  0.00     0.173 A 
ATOM     74  C   UNL A   1      40.695  29.178  29.088  1.00  0.00     0.173 A 
ATOM     75  F   UNL A   1      38.870  26.866  31.213  1.00  0.00    -0.203 F 
ATOM     76  C   UNL A   1      39.457  26.702  28.938  1.00  0.00     0.198 A 
ATOM     77  C   UNL A   1      40.665  28.484  27.881  1.00  0.00     0.198 A 
ATOM     78  F   UNL A   1      41.309  30.371  29.129  1.00  0.00    -0.203 F 
ATOM     79  F   UNL A   1      38.896  25.486  28.882  1.00  0.00    -0.200 F 
ATOM     80  C   UNL A   1      40.056  27.242  27.809  1.00  0.00     0.200 A 
ATOM     81  F   UNL A   1      41.227  29.019  26.789  1.00  0.00    -0.200 F 
ATOM     82  F   UNL A   1      40.053  26.561  26.657  1.00  0.00    -0.200 F 
ENDBRANCH  48  72
BRANCH  60  83
ATOM     83  C   UNL A   1      44.606  29.085  35.518  1.00  0.00     0.064 A 
ATOM     84  C   UNL A   1      44.689  27.897  36.258  1.00  0.00     0.173 A 
ATOM     85  C   UNL A   1      45.795  29.622  35.001  1.00  0.00     0.173 A 
ATOM     86  F   UNL A   1      43.583  27.352  36.789  1.00  0.00    -0.203 F 
ATOM     87  C   UNL A   1      45.918  27.288  36.497  1.00  0.00     0.198 A 
ATOM     88  C   UNL A   1      47.018  28.990  35.210  1.00  0.00     0.198 A 
ATOM     89  F   UNL A   1      45.771  30.754  34.282  1.00  0.00    -0.203 F 
ATOM     90  F   UNL A   1      45.981  26.185  37.256  1.00  0.00    -0.200 F 
ATOM     91  C   UNL A   1      47.079  27.830  35.966  1.00  0.00     0.200 A 
ATOM     92  F   UNL A   1      48.136  29.507  34.682  1.00  0.00    -0.200 F 
ATOM     93  F   UNL A   1      48.260  27.238  36.191  1.00  0.00    -0.200 F 
ENDBRANCH  60  83
ENDBRANCH  34  35
ENDBRANCH  27  29
ENDBRANCH  26  27
ENDBRANCH  25  26
ENDBRANCH   1  25
TORSDOF 13
ENDMDL
