MODEL 1
REMARK VINA RESULT:     -12.6      0.000      0.000
REMARK SMILES O=C(OCCOC(=O)c1ccccc1/C=C1\SC(=S)N(Cc2ccccc2)C1=O)c1ccc(-c2c3nc(c(-c4c(F)c(F)c(F)c(F)c4F)c4ccc([nH]4)c(-c4c(F)c(F)c(F)c(F)c4F)c4nc(c(-c5c(F)c(F)c(F)c(F)c5F)c5ccc2[nH]5)C=C4)C=C3)cc1
REMARK SMILES IDX 5 1 4 2 3 3 2 4 1 5 30 6 31 7 92 8 32 9 91 10 33 11 34 12
REMARK SMILES IDX 35 13 85 14 36 15 90 16 84 17 86 18 37 19 89 20 83 21 82 22
REMARK SMILES IDX 38 24 70 25 50 26 69 27 51 28 54 29 68 30 87 31 52 32 53 33
REMARK SMILES IDX 67 35 88 36 55 37 39 38 40 39 48 40 41 41 42 42 46 43 49 44
REMARK SMILES IDX 43 45 44 46 47 47 45 48 71 49 72 50 80 51 73 52 74 53 78 54
REMARK SMILES IDX 81 55 75 56 76 57 79 58 77 59 56 60 57 61 65 62 58 63 59 64
REMARK SMILES IDX 63 65 66 66 60 67 61 68 64 69 62 70 6 71 7 72 8 73 9 74
REMARK SMILES IDX 10 75 14 76 11 77 13 78 12 79 15 80 16 81 17 82 28 83 18 84
REMARK SMILES IDX 20 85 29 86 19 87 21 88 22 89 23 90 27 91 24 92 26 93 25 94
REMARK H PARENT 86 23 54 34
REMARK Flexibility Score: inf
ROOT
ATOM      1  C   UNL A   1      35.631  23.026  24.739  1.00  0.00     0.275 C 
ENDROOT
BRANCH   1   2
ATOM      2  C   UNL A   1      36.786  23.689  25.482  1.00  0.00     0.275 C 
BRANCH   2   3
ATOM      3  O   UNL A   1      37.921  22.834  25.702  1.00  0.00    -0.458 OA
BRANCH   3   4
ATOM      4  C   UNL A   1      39.123  23.075  26.275  1.00  0.00     0.338 C 
ATOM      5  O   UNL A   1      39.907  22.132  26.392  1.00  0.00    -0.246 OA
BRANCH   4   6
ATOM      6  C   UNL A   1      39.556  24.391  26.856  1.00  0.00     0.060 A 
ATOM      7  C   UNL A   1      40.312  25.377  26.217  1.00  0.00     0.016 A 
ATOM      8  C   UNL A   1      39.170  24.635  28.190  1.00  0.00     0.016 A 
ATOM      9  C   UNL A   1      40.629  26.582  26.861  1.00  0.00     0.010 A 
ATOM     10  C   UNL A   1      39.481  25.836  28.838  1.00  0.00     0.010 A 
ATOM     11  C   UNL A   1      40.218  26.819  28.174  1.00  0.00    -0.014 A 
BRANCH  11  12
ATOM     12  C   UNL A   1      40.638  28.054  28.883  1.00  0.00     0.031 A 
ATOM     13  C   UNL A   1      42.013  28.126  29.449  1.00  0.00     0.074 A 
ATOM     14  C   UNL A   1      39.808  29.108  28.993  1.00  0.00     0.049 A 
ATOM     15  N   UNL A   1      42.573  29.106  30.104  1.00  0.00    -0.248 NA
ATOM     16  C   UNL A   1      42.882  26.961  29.228  1.00  0.00     0.031 C 
ATOM     17  C   UNL A   1      38.493  29.157  28.393  1.00  0.00     0.029 A 
ATOM     18  N   UNL A   1      39.909  30.314  29.636  1.00  0.00    -0.354 N 
ATOM     19  C   UNL A   1      43.872  28.694  30.340  1.00  0.00     0.074 A 
ATOM     20  C   UNL A   1      44.005  27.355  29.809  1.00  0.00     0.031 C 
ATOM     21  C   UNL A   1      37.865  30.293  28.724  1.00  0.00     0.029 A 
ATOM     22  C   UNL A   1      38.745  31.052  29.597  1.00  0.00     0.049 A 
ATOM     23  H   UNL A   1      40.731  30.623  30.079  1.00  0.00     0.167 HD
ATOM     24  C   UNL A   1      44.864  29.397  30.928  1.00  0.00     0.037 A 
ATOM     25  C   UNL A   1      38.416  32.194  30.229  1.00  0.00     0.037 A 
ATOM     26  C   UNL A   1      44.695  30.718  31.470  1.00  0.00     0.049 A 
ATOM     27  C   UNL A   1      39.490  32.874  31.026  1.00  0.00     0.074 A 
ATOM     28  C   UNL A   1      45.636  31.529  32.072  1.00  0.00     0.029 A 
ATOM     29  N   UNL A   1      43.490  31.410  31.495  1.00  0.00    -0.354 N 
ATOM     30  N   UNL A   1      40.737  32.504  31.194  1.00  0.00    -0.248 NA
ATOM     31  C   UNL A   1      39.137  34.130  31.697  1.00  0.00     0.031 C 
ATOM     32  C   UNL A   1      44.989  32.688  32.517  1.00  0.00     0.029 A 
ATOM     33  C   UNL A   1      43.653  32.620  32.149  1.00  0.00     0.049 A 
ATOM     34  H   UNL A   1      42.645  31.088  31.105  1.00  0.00     0.167 HD
ATOM     35  C   UNL A   1      41.329  33.496  31.954  1.00  0.00     0.074 A 
ATOM     36  C   UNL A   1      40.304  34.490  32.211  1.00  0.00     0.031 C 
ATOM     37  C   UNL A   1      42.609  33.584  32.393  1.00  0.00     0.037 A 
BRANCH  24  38
ATOM     38  C   UNL A   1      46.196  28.727  31.035  1.00  0.00     0.064 A 
ATOM     39  C   UNL A   1      46.543  27.954  32.155  1.00  0.00     0.173 A 
ATOM     40  C   UNL A   1      47.141  28.867  30.010  1.00  0.00     0.173 A 
ATOM     41  F   UNL A   1      45.681  27.816  33.173  1.00  0.00    -0.203 F 
ATOM     42  C   UNL A   1      47.797  27.359  32.248  1.00  0.00     0.198 A 
ATOM     43  C   UNL A   1      48.386  28.251  30.098  1.00  0.00     0.198 A 
ATOM     44  F   UNL A   1      46.859  29.606  28.928  1.00  0.00    -0.203 F 
ATOM     45  F   UNL A   1      48.125  26.661  33.344  1.00  0.00    -0.200 F 
ATOM     46  C   UNL A   1      48.715  27.502  31.218  1.00  0.00     0.200 A 
ATOM     47  F   UNL A   1      49.271  28.391  29.103  1.00  0.00    -0.200 F 
ATOM     48  F   UNL A   1      49.922  26.928  31.310  1.00  0.00    -0.200 F 
ENDBRANCH  24  38
BRANCH  25  49
ATOM     49  C   UNL A   1      37.028  32.732  30.168  1.00  0.00     0.064 A 
ATOM     50  C   UNL A   1      36.601  33.560  29.121  1.00  0.00     0.173 A 
ATOM     51  C   UNL A   1      36.104  32.456  31.191  1.00  0.00     0.173 A 
ATOM     52  F   UNL A   1      37.443  33.865  28.124  1.00  0.00    -0.203 F 
ATOM     53  C   UNL A   1      35.322  34.121  29.118  1.00  0.00     0.198 A 
ATOM     54  C   UNL A   1      34.819  32.996  31.173  1.00  0.00     0.198 A 
ATOM     55  F   UNL A   1      36.451  31.661  32.214  1.00  0.00    -0.203 F 
ATOM     56  F   UNL A   1      34.963  34.956  28.134  1.00  0.00    -0.200 F 
ATOM     57  C   UNL A   1      34.433  33.839  30.144  1.00  0.00     0.200 A 
ATOM     58  F   UNL A   1      33.959  32.707  32.161  1.00  0.00    -0.200 F 
ATOM     59  F   UNL A   1      33.211  34.387  30.145  1.00  0.00    -0.200 F 
ENDBRANCH  25  49
BRANCH  37  60
ATOM     60  C   UNL A   1      42.966  34.809  33.176  1.00  0.00     0.064 A 
ATOM     61  C   UNL A   1      43.380  35.986  32.539  1.00  0.00     0.173 A 
ATOM     62  C   UNL A   1      42.856  34.813  34.574  1.00  0.00     0.173 A 
ATOM     63  F   UNL A   1      43.524  36.019  31.205  1.00  0.00    -0.203 F 
ATOM     64  C   UNL A   1      43.692  37.122  33.278  1.00  0.00     0.198 A 
ATOM     65  C   UNL A   1      43.137  35.960  35.307  1.00  0.00     0.198 A 
ATOM     66  F   UNL A   1      42.462  33.708  35.224  1.00  0.00    -0.203 F 
ATOM     67  F   UNL A   1      44.134  38.224  32.655  1.00  0.00    -0.200 F 
ATOM     68  C   UNL A   1      43.560  37.111  34.659  1.00  0.00     0.200 A 
ATOM     69  F   UNL A   1      42.996  35.952  36.639  1.00  0.00    -0.200 F 
ATOM     70  F   UNL A   1      43.849  38.211  35.369  1.00  0.00    -0.200 F 
ENDBRANCH  37  60
ENDBRANCH  11  12
ENDBRANCH   4   6
ENDBRANCH   3   4
ENDBRANCH   2   3
ENDBRANCH   1   2
BRANCH   1  71
ATOM     71  O   UNL A   1      35.744  21.599  24.722  1.00  0.00    -0.458 OA
BRANCH  71  72
ATOM     72  C   UNL A   1      34.873  20.923  25.518  1.00  0.00     0.338 C 
ATOM     73  O   UNL A   1      34.578  21.189  26.665  1.00  0.00    -0.246 OA
BRANCH  72  74
ATOM     74  C   UNL A   1      34.249  19.827  24.740  1.00  0.00     0.067 A 
ATOM     75  C   UNL A   1      34.962  18.622  24.654  1.00  0.00     0.016 A 
ATOM     76  C   UNL A   1      32.974  19.941  24.157  1.00  0.00    -0.010 A 
ATOM     77  C   UNL A   1      34.389  17.513  24.032  1.00  0.00     0.001 A 
ATOM     78  C   UNL A   1      32.438  18.833  23.487  1.00  0.00     0.009 A 
ATOM     79  C   UNL A   1      33.129  17.620  23.446  1.00  0.00     0.001 A 
BRANCH  76  80
ATOM     80  C   UNL A   1      32.114  21.100  24.416  1.00  0.00     0.030 C 
ATOM     81  C   UNL A   1      32.050  22.283  23.805  1.00  0.00     0.081 C 
ATOM     82  S   UNL A   1      32.806  22.837  22.384  1.00  0.00    -0.054 SA
ATOM     83  C   UNL A   1      31.340  23.385  24.495  1.00  0.00     0.266 C 
ATOM     84  C   UNL A   1      32.226  24.491  22.632  1.00  0.00     0.148 C 
ATOM     85  N   UNL A   1      31.448  24.551  23.769  1.00  0.00    -0.288 N 
ATOM     86  O   UNL A   1      30.812  23.261  25.593  1.00  0.00    -0.268 OA
ATOM     87  S   UNL A   1      32.639  25.730  21.597  1.00  0.00    -0.052 S 
BRANCH  85  88
ATOM     88  C   UNL A   1      30.755  25.732  24.277  1.00  0.00     0.163 C 
BRANCH  88  89
ATOM     89  C   UNL A   1      31.619  26.476  25.272  1.00  0.00    -0.028 A 
ATOM     90  C   UNL A   1      33.012  26.491  25.133  1.00  0.00     0.005 A 
ATOM     91  C   UNL A   1      31.034  27.225  26.307  1.00  0.00     0.005 A 
ATOM     92  C   UNL A   1      33.800  27.246  26.003  1.00  0.00     0.000 A 
ATOM     93  C   UNL A   1      31.822  27.985  27.170  1.00  0.00     0.000 A 
ATOM     94  C   UNL A   1      33.205  27.997  27.016  1.00  0.00     0.000 A 
ENDBRANCH  88  89
ENDBRANCH  85  88
ENDBRANCH  76  80
ENDBRANCH  72  74
ENDBRANCH  71  72
ENDBRANCH   1  71
TORSDOF 14
ENDMDL
MODEL 2
REMARK VINA RESULT:     -12.5      3.297      8.351
REMARK SMILES O=C(OCCOC(=O)c1ccccc1/C=C1\SC(=S)N(Cc2ccccc2)C1=O)c1ccc(-c2c3nc(c(-c4c(F)c(F)c(F)c(F)c4F)c4ccc([nH]4)c(-c4c(F)c(F)c(F)c(F)c4F)c4nc(c(-c5c(F)c(F)c(F)c(F)c5F)c5ccc2[nH]5)C=C4)C=C3)cc1
REMARK SMILES IDX 5 1 4 2 3 3 2 4 1 5 30 6 31 7 92 8 32 9 91 10 33 11 34 12
REMARK SMILES IDX 35 13 85 14 36 15 90 16 84 17 86 18 37 19 89 20 83 21 82 22
REMARK SMILES IDX 38 24 70 25 50 26 69 27 51 28 54 29 68 30 87 31 52 32 53 33
REMARK SMILES IDX 67 35 88 36 55 37 39 38 40 39 48 40 41 41 42 42 46 43 49 44
REMARK SMILES IDX 43 45 44 46 47 47 45 48 71 49 72 50 80 51 73 52 74 53 78 54
REMARK SMILES IDX 81 55 75 56 76 57 79 58 77 59 56 60 57 61 65 62 58 63 59 64
REMARK SMILES IDX 63 65 66 66 60 67 61 68 64 69 62 70 6 71 7 72 8 73 9 74
REMARK SMILES IDX 10 75 14 76 11 77 13 78 12 79 15 80 16 81 17 82 28 83 18 84
REMARK SMILES IDX 20 85 29 86 19 87 21 88 22 89 23 90 27 91 24 92 26 93 25 94
REMARK H PARENT 86 23 54 34
REMARK Flexibility Score: inf
ROOT
ATOM      1  C   UNL A   1      38.070  20.901  25.333  1.00  0.00     0.275 C 
ENDROOT
BRANCH   1   2
ATOM      2  C   UNL A   1      38.775  19.579  25.044  1.00  0.00     0.275 C 
BRANCH   2   3
ATOM      3  O   UNL A   1      39.790  19.224  25.999  1.00  0.00    -0.458 OA
BRANCH   3   4
ATOM      4  C   UNL A   1      41.104  19.539  26.064  1.00  0.00     0.338 C 
ATOM      5  O   UNL A   1      41.923  18.656  25.808  1.00  0.00    -0.246 OA
BRANCH   4   6
ATOM      6  C   UNL A   1      41.655  20.867  26.501  1.00  0.00     0.060 A 
ATOM      7  C   UNL A   1      41.965  21.252  27.808  1.00  0.00     0.016 A 
ATOM      8  C   UNL A   1      41.858  21.818  25.481  1.00  0.00     0.016 A 
ATOM      9  C   UNL A   1      42.503  22.518  28.084  1.00  0.00     0.010 A 
ATOM     10  C   UNL A   1      42.397  23.082  25.749  1.00  0.00     0.010 A 
ATOM     11  C   UNL A   1      42.721  23.440  27.059  1.00  0.00    -0.014 A 
BRANCH  11  12
ATOM     12  C   UNL A   1      43.200  24.811  27.369  1.00  0.00     0.031 A 
ATOM     13  C   UNL A   1      42.224  25.817  27.871  1.00  0.00     0.074 A 
ATOM     14  C   UNL A   1      44.497  25.141  27.230  1.00  0.00     0.049 A 
ATOM     15  N   UNL A   1      42.436  27.063  28.195  1.00  0.00    -0.248 NA
ATOM     16  C   UNL A   1      40.840  25.360  28.062  1.00  0.00     0.031 C 
ATOM     17  C   UNL A   1      45.525  24.201  26.839  1.00  0.00     0.029 A 
ATOM     18  N   UNL A   1      45.183  26.318  27.375  1.00  0.00    -0.354 N 
ATOM     19  C   UNL A   1      41.222  27.530  28.665  1.00  0.00     0.074 A 
ATOM     20  C   UNL A   1      40.263  26.455  28.534  1.00  0.00     0.031 C 
ATOM     21  C   UNL A   1      46.706  24.820  26.712  1.00  0.00     0.029 A 
ATOM     22  C   UNL A   1      46.505  26.231  26.995  1.00  0.00     0.049 A 
ATOM     23  H   UNL A   1      44.772  27.144  27.717  1.00  0.00     0.167 HD
ATOM     24  C   UNL A   1      40.953  28.748  29.182  1.00  0.00     0.037 A 
ATOM     25  C   UNL A   1      47.438  27.191  26.855  1.00  0.00     0.037 A 
ATOM     26  C   UNL A   1      41.920  29.808  29.276  1.00  0.00     0.049 A 
ATOM     27  C   UNL A   1      47.062  28.582  27.275  1.00  0.00     0.074 A 
ATOM     28  C   UNL A   1      41.762  31.076  29.800  1.00  0.00     0.029 A 
ATOM     29  N   UNL A   1      43.227  29.724  28.810  1.00  0.00    -0.354 N 
ATOM     30  N   UNL A   1      45.925  29.002  27.775  1.00  0.00    -0.248 NA
ATOM     31  C   UNL A   1      48.084  29.624  27.142  1.00  0.00     0.031 C 
ATOM     32  C   UNL A   1      42.954  31.781  29.595  1.00  0.00     0.029 A 
ATOM     33  C   UNL A   1      43.872  30.937  28.988  1.00  0.00     0.049 A 
ATOM     34  H   UNL A   1      43.635  28.920  28.412  1.00  0.00     0.167 HD
ATOM     35  C   UNL A   1      46.104  30.345  28.055  1.00  0.00     0.074 A 
ATOM     36  C   UNL A   1      47.466  30.669  27.672  1.00  0.00     0.031 C 
ATOM     37  C   UNL A   1      45.227  31.228  28.589  1.00  0.00     0.037 A 
BRANCH  24  38
ATOM     38  C   UNL A   1      39.554  28.992  29.650  1.00  0.00     0.064 A 
ATOM     39  C   UNL A   1      38.557  29.451  28.775  1.00  0.00     0.173 A 
ATOM     40  C   UNL A   1      39.208  28.772  30.990  1.00  0.00     0.173 A 
ATOM     41  F   UNL A   1      38.848  29.704  27.491  1.00  0.00    -0.203 F 
ATOM     42  C   UNL A   1      37.266  29.696  29.233  1.00  0.00     0.198 A 
ATOM     43  C   UNL A   1      37.911  28.997  31.438  1.00  0.00     0.198 A 
ATOM     44  F   UNL A   1      40.132  28.346  31.864  1.00  0.00    -0.203 F 
ATOM     45  F   UNL A   1      36.338  30.176  28.393  1.00  0.00    -0.200 F 
ATOM     46  C   UNL A   1      36.942  29.464  30.562  1.00  0.00     0.200 A 
ATOM     47  F   UNL A   1      37.600  28.772  32.722  1.00  0.00    -0.200 F 
ATOM     48  F   UNL A   1      35.699  29.700  31.001  1.00  0.00    -0.200 F 
ENDBRANCH  24  38
BRANCH  25  49
ATOM     49  C   UNL A   1      48.772  26.885  26.267  1.00  0.00     0.064 A 
ATOM     50  C   UNL A   1      49.030  27.039  24.898  1.00  0.00     0.173 A 
ATOM     51  C   UNL A   1      49.813  26.385  27.068  1.00  0.00     0.173 A 
ATOM     52  F   UNL A   1      48.070  27.501  24.085  1.00  0.00    -0.203 F 
ATOM     53  C   UNL A   1      50.259  26.672  24.348  1.00  0.00     0.198 A 
ATOM     54  C   UNL A   1      51.050  26.044  26.522  1.00  0.00     0.198 A 
ATOM     55  F   UNL A   1      49.630  26.225  28.387  1.00  0.00    -0.203 F 
ATOM     56  F   UNL A   1      50.456  26.778  23.027  1.00  0.00    -0.200 F 
ATOM     57  C   UNL A   1      51.268  26.175  25.159  1.00  0.00     0.200 A 
ATOM     58  F   UNL A   1      52.025  25.578  27.314  1.00  0.00    -0.200 F 
ATOM     59  F   UNL A   1      52.443  25.813  24.628  1.00  0.00    -0.200 F 
ENDBRANCH  25  49
BRANCH  37  60
ATOM     60  C   UNL A   1      45.728  32.622  28.807  1.00  0.00     0.064 A 
ATOM     61  C   UNL A   1      46.386  32.984  29.990  1.00  0.00     0.173 A 
ATOM     62  C   UNL A   1      45.581  33.592  27.805  1.00  0.00     0.173 A 
ATOM     63  F   UNL A   1      46.525  32.094  30.985  1.00  0.00    -0.203 F 
ATOM     64  C   UNL A   1      46.862  34.278  30.172  1.00  0.00     0.198 A 
ATOM     65  C   UNL A   1      46.087  34.875  27.977  1.00  0.00     0.198 A 
ATOM     66  F   UNL A   1      44.958  33.289  26.656  1.00  0.00    -0.203 F 
ATOM     67  F   UNL A   1      47.445  34.618  31.330  1.00  0.00    -0.200 F 
ATOM     68  C   UNL A   1      46.721  35.218  29.161  1.00  0.00     0.200 A 
ATOM     69  F   UNL A   1      45.963  35.779  26.995  1.00  0.00    -0.200 F 
ATOM     70  F   UNL A   1      47.192  36.461  29.333  1.00  0.00    -0.200 F 
ENDBRANCH  37  60
ENDBRANCH  11  12
ENDBRANCH   4   6
ENDBRANCH   3   4
ENDBRANCH   2   3
ENDBRANCH   1   2
BRANCH   1  71
ATOM     71  O   UNL A   1      36.817  21.009  24.651  1.00  0.00    -0.458 OA
BRANCH  71  72
ATOM     72  C   UNL A   1      35.707  20.959  25.435  1.00  0.00     0.338 C 
ATOM     73  O   UNL A   1      35.490  21.616  26.432  1.00  0.00    -0.246 OA
BRANCH  72  74
ATOM     74  C   UNL A   1      34.727  20.021  24.838  1.00  0.00     0.067 A 
ATOM     75  C   UNL A   1      35.157  18.703  24.626  1.00  0.00     0.016 A 
ATOM     76  C   UNL A   1      33.403  20.393  24.545  1.00  0.00    -0.010 A 
ATOM     77  C   UNL A   1      34.257  17.739  24.170  1.00  0.00     0.001 A 
ATOM     78  C   UNL A   1      32.528  19.424  24.033  1.00  0.00     0.009 A 
ATOM     79  C   UNL A   1      32.945  18.100  23.871  1.00  0.00     0.001 A 
BRANCH  76  80
ATOM     80  C   UNL A   1      32.861  21.691  24.958  1.00  0.00     0.030 C 
ATOM     81  C   UNL A   1      32.731  22.830  24.277  1.00  0.00     0.081 C 
ATOM     82  S   UNL A   1      32.968  23.166  22.626  1.00  0.00    -0.054 SA
ATOM     83  C   UNL A   1      32.480  24.074  25.043  1.00  0.00     0.266 C 
ATOM     84  C   UNL A   1      32.746  24.904  22.871  1.00  0.00     0.148 C 
ATOM     85  N   UNL A   1      32.463  25.159  24.197  1.00  0.00    -0.288 N 
ATOM     86  O   UNL A   1      32.388  24.103  26.264  1.00  0.00    -0.268 OA
ATOM     87  S   UNL A   1      32.903  25.994  21.621  1.00  0.00    -0.052 S 
BRANCH  85  88
ATOM     88  C   UNL A   1      32.170  26.467  24.778  1.00  0.00     0.163 C 
BRANCH  88  89
ATOM     89  C   UNL A   1      30.834  26.985  24.289  1.00  0.00    -0.028 A 
ATOM     90  C   UNL A   1      30.743  28.225  23.647  1.00  0.00     0.005 A 
ATOM     91  C   UNL A   1      29.676  26.197  24.406  1.00  0.00     0.005 A 
ATOM     92  C   UNL A   1      29.525  28.662  23.124  1.00  0.00     0.000 A 
ATOM     93  C   UNL A   1      28.461  26.632  23.876  1.00  0.00     0.000 A 
ATOM     94  C   UNL A   1      28.387  27.864  23.233  1.00  0.00     0.000 A 
ENDBRANCH  88  89
ENDBRANCH  85  88
ENDBRANCH  76  80
ENDBRANCH  72  74
ENDBRANCH  71  72
ENDBRANCH   1  71
TORSDOF 14
ENDMDL
MODEL 3
REMARK VINA RESULT:     -12.5      0.111      1.571
REMARK SMILES O=C(OCCOC(=O)c1ccccc1/C=C1\SC(=S)N(Cc2ccccc2)C1=O)c1ccc(-c2c3nc(c(-c4c(F)c(F)c(F)c(F)c4F)c4ccc([nH]4)c(-c4c(F)c(F)c(F)c(F)c4F)c4nc(c(-c5c(F)c(F)c(F)c(F)c5F)c5ccc2[nH]5)C=C4)C=C3)cc1
REMARK SMILES IDX 5 1 4 2 3 3 2 4 1 5 30 6 31 7 92 8 32 9 91 10 33 11 34 12
REMARK SMILES IDX 35 13 85 14 36 15 90 16 84 17 86 18 37 19 89 20 83 21 82 22
REMARK SMILES IDX 38 24 70 25 50 26 69 27 51 28 54 29 68 30 87 31 52 32 53 33
REMARK SMILES IDX 67 35 88 36 55 37 39 38 40 39 48 40 41 41 42 42 46 43 49 44
REMARK SMILES IDX 43 45 44 46 47 47 45 48 71 49 72 50 80 51 73 52 74 53 78 54
REMARK SMILES IDX 81 55 75 56 76 57 79 58 77 59 56 60 57 61 65 62 58 63 59 64
REMARK SMILES IDX 63 65 66 66 60 67 61 68 64 69 62 70 6 71 7 72 8 73 9 74
REMARK SMILES IDX 10 75 14 76 11 77 13 78 12 79 15 80 16 81 17 82 28 83 18 84
REMARK SMILES IDX 20 85 29 86 19 87 21 88 22 89 23 90 27 91 24 92 26 93 25 94
REMARK H PARENT 86 23 54 34
REMARK Flexibility Score: inf
ROOT
ATOM      1  C   UNL A   1      35.832  22.946  24.552  1.00  0.00     0.275 C 
ENDROOT
BRANCH   1   2
ATOM      2  C   UNL A   1      36.913  23.630  25.382  1.00  0.00     0.275 C 
BRANCH   2   3
ATOM      3  O   UNL A   1      38.100  22.842  25.579  1.00  0.00    -0.458 OA
BRANCH   3   4
ATOM      4  C   UNL A   1      39.193  23.049  26.350  1.00  0.00     0.338 C 
ATOM      5  O   UNL A   1      39.867  22.070  26.672  1.00  0.00    -0.246 OA
BRANCH   4   6
ATOM      6  C   UNL A   1      39.612  24.376  26.917  1.00  0.00     0.060 A 
ATOM      7  C   UNL A   1      40.347  25.367  26.262  1.00  0.00     0.016 A 
ATOM      8  C   UNL A   1      39.235  24.625  28.252  1.00  0.00     0.016 A 
ATOM      9  C   UNL A   1      40.654  26.582  26.893  1.00  0.00     0.010 A 
ATOM     10  C   UNL A   1      39.536  25.836  28.887  1.00  0.00     0.010 A 
ATOM     11  C   UNL A   1      40.252  26.824  28.209  1.00  0.00    -0.014 A 
BRANCH  11  12
ATOM     12  C   UNL A   1      40.661  28.070  28.903  1.00  0.00     0.031 A 
ATOM     13  C   UNL A   1      42.038  28.163  29.463  1.00  0.00     0.074 A 
ATOM     14  C   UNL A   1      39.820  29.116  29.007  1.00  0.00     0.049 A 
ATOM     15  N   UNL A   1      42.589  29.156  30.105  1.00  0.00    -0.248 NA
ATOM     16  C   UNL A   1      42.919  27.006  29.249  1.00  0.00     0.031 C 
ATOM     17  C   UNL A   1      38.501  29.144  28.411  1.00  0.00     0.029 A 
ATOM     18  N   UNL A   1      39.910  30.329  29.637  1.00  0.00    -0.354 N 
ATOM     19  C   UNL A   1      43.894  28.761  30.340  1.00  0.00     0.074 A 
ATOM     20  C   UNL A   1      44.040  27.418  29.822  1.00  0.00     0.031 C 
ATOM     21  C   UNL A   1      37.863  30.276  28.735  1.00  0.00     0.029 A 
ATOM     22  C   UNL A   1      38.738  31.054  29.597  1.00  0.00     0.049 A 
ATOM     23  H   UNL A   1      40.730  30.652  30.074  1.00  0.00     0.167 HD
ATOM     24  C   UNL A   1      44.880  29.480  30.917  1.00  0.00     0.037 A 
ATOM     25  C   UNL A   1      38.398  32.198  30.218  1.00  0.00     0.037 A 
ATOM     26  C   UNL A   1      44.699  30.804  31.447  1.00  0.00     0.049 A 
ATOM     27  C   UNL A   1      39.468  32.898  31.004  1.00  0.00     0.074 A 
ATOM     28  C   UNL A   1      45.633  31.633  32.036  1.00  0.00     0.029 A 
ATOM     29  N   UNL A   1      43.486  31.483  31.470  1.00  0.00    -0.354 N 
ATOM     30  N   UNL A   1      40.720  32.544  31.170  1.00  0.00    -0.248 NA
ATOM     31  C   UNL A   1      39.104  34.156  31.664  1.00  0.00     0.031 C 
ATOM     32  C   UNL A   1      44.975  32.788  32.472  1.00  0.00     0.029 A 
ATOM     33  C   UNL A   1      43.639  32.702  32.111  1.00  0.00     0.049 A 
ATOM     34  H   UNL A   1      42.643  31.148  31.087  1.00  0.00     0.167 HD
ATOM     35  C   UNL A   1      41.304  33.550  31.918  1.00  0.00     0.074 A 
ATOM     36  C   UNL A   1      40.268  34.535  32.169  1.00  0.00     0.031 C 
ATOM     37  C   UNL A   1      42.584  33.656  32.350  1.00  0.00     0.037 A 
BRANCH  24  38
ATOM     38  C   UNL A   1      46.220  28.826  31.025  1.00  0.00     0.064 A 
ATOM     39  C   UNL A   1      47.183  28.953  30.011  1.00  0.00     0.173 A 
ATOM     40  C   UNL A   1      46.542  28.057  32.151  1.00  0.00     0.173 A 
ATOM     41  F   UNL A   1      46.909  29.655  28.902  1.00  0.00    -0.203 F 
ATOM     42  C   UNL A   1      48.416  28.317  30.118  1.00  0.00     0.198 A 
ATOM     43  C   UNL A   1      47.785  27.442  32.263  1.00  0.00     0.198 A 
ATOM     44  F   UNL A   1      45.649  27.898  33.138  1.00  0.00    -0.203 F 
ATOM     45  F   UNL A   1      49.306  28.414  29.120  1.00  0.00    -0.200 F 
ATOM     46  C   UNL A   1      48.719  27.567  31.245  1.00  0.00     0.200 A 
ATOM     47  F   UNL A   1      48.075  26.717  33.352  1.00  0.00    -0.200 F 
ATOM     48  F   UNL A   1      49.907  26.956  31.345  1.00  0.00    -0.200 F 
ENDBRANCH  24  38
BRANCH  25  49
ATOM     49  C   UNL A   1      37.004  32.719  30.158  1.00  0.00     0.064 A 
ATOM     50  C   UNL A   1      36.563  33.531  29.104  1.00  0.00     0.173 A 
ATOM     51  C   UNL A   1      36.088  32.445  31.189  1.00  0.00     0.173 A 
ATOM     52  F   UNL A   1      37.397  33.834  28.099  1.00  0.00    -0.203 F 
ATOM     53  C   UNL A   1      35.278  34.078  29.101  1.00  0.00     0.198 A 
ATOM     54  C   UNL A   1      34.797  32.970  31.171  1.00  0.00     0.198 A 
ATOM     55  F   UNL A   1      36.449  31.666  32.219  1.00  0.00    -0.203 F 
ATOM     56  F   UNL A   1      34.905  34.897  28.109  1.00  0.00    -0.200 F 
ATOM     57  C   UNL A   1      34.397  33.798  30.134  1.00  0.00     0.200 A 
ATOM     58  F   UNL A   1      33.946  32.684  32.166  1.00  0.00    -0.200 F 
ATOM     59  F   UNL A   1      33.168  34.332  30.135  1.00  0.00    -0.200 F 
ENDBRANCH  25  49
BRANCH  37  60
ATOM     60  C   UNL A   1      42.931  34.893  33.119  1.00  0.00     0.064 A 
ATOM     61  C   UNL A   1      42.856  34.926  34.518  1.00  0.00     0.173 A 
ATOM     62  C   UNL A   1      43.377  36.042  32.451  1.00  0.00     0.173 A 
ATOM     63  F   UNL A   1      42.410  33.857  35.197  1.00  0.00    -0.203 F 
ATOM     64  C   UNL A   1      43.198  36.076  35.222  1.00  0.00     0.198 A 
ATOM     65  C   UNL A   1      43.748  37.179  33.159  1.00  0.00     0.198 A 
ATOM     66  F   UNL A   1      43.463  36.054  31.112  1.00  0.00    -0.203 F 
ATOM     67  F   UNL A   1      43.074  36.104  36.556  1.00  0.00    -0.200 F 
ATOM     68  C   UNL A   1      43.653  37.197  34.542  1.00  0.00     0.200 A 
ATOM     69  F   UNL A   1      44.200  38.256  32.502  1.00  0.00    -0.200 F 
ATOM     70  F   UNL A   1      43.994  38.300  35.222  1.00  0.00    -0.200 F 
ENDBRANCH  37  60
ENDBRANCH  11  12
ENDBRANCH   4   6
ENDBRANCH   3   4
ENDBRANCH   2   3
ENDBRANCH   1   2
BRANCH   1  71
ATOM     71  O   UNL A   1      35.897  21.519  24.644  1.00  0.00    -0.458 OA
BRANCH  71  72
ATOM     72  C   UNL A   1      34.971  20.933  25.449  1.00  0.00     0.338 C 
ATOM     73  O   UNL A   1      34.639  21.292  26.560  1.00  0.00    -0.246 OA
BRANCH  72  74
ATOM     74  C   UNL A   1      34.338  19.804  24.726  1.00  0.00     0.067 A 
ATOM     75  C   UNL A   1      35.079  18.617  24.628  1.00  0.00     0.016 A 
ATOM     76  C   UNL A   1      33.034  19.873  24.205  1.00  0.00    -0.010 A 
ATOM     77  C   UNL A   1      34.506  17.480  24.058  1.00  0.00     0.001 A 
ATOM     78  C   UNL A   1      32.495  18.737  23.585  1.00  0.00     0.009 A 
ATOM     79  C   UNL A   1      33.216  17.541  23.534  1.00  0.00     0.001 A 
BRANCH  76  80
ATOM     80  C   UNL A   1      32.156  21.015  24.483  1.00  0.00     0.030 C 
ATOM     81  C   UNL A   1      32.056  22.196  23.874  1.00  0.00     0.081 C 
ATOM     82  S   UNL A   1      32.770  22.765  22.438  1.00  0.00    -0.054 SA
ATOM     83  C   UNL A   1      31.339  23.284  24.580  1.00  0.00     0.266 C 
ATOM     84  C   UNL A   1      32.163  24.407  22.699  1.00  0.00     0.148 C 
ATOM     85  N   UNL A   1      31.408  24.451  23.853  1.00  0.00    -0.288 N 
ATOM     86  O   UNL A   1      30.837  23.148  25.689  1.00  0.00    -0.268 OA
ATOM     87  S   UNL A   1      32.528  25.654  21.656  1.00  0.00    -0.052 S 
BRANCH  85  88
ATOM     88  C   UNL A   1      30.702  25.618  24.375  1.00  0.00     0.163 C 
BRANCH  88  89
ATOM     89  C   UNL A   1      31.579  26.389  25.338  1.00  0.00    -0.028 A 
ATOM     90  C   UNL A   1      32.972  26.376  25.199  1.00  0.00     0.005 A 
ATOM     91  C   UNL A   1      31.007  27.190  26.342  1.00  0.00     0.005 A 
ATOM     92  C   UNL A   1      33.773  27.154  26.036  1.00  0.00     0.000 A 
ATOM     93  C   UNL A   1      31.808  27.973  27.172  1.00  0.00     0.000 A 
ATOM     94  C   UNL A   1      33.191  27.956  27.018  1.00  0.00     0.000 A 
ENDBRANCH  88  89
ENDBRANCH  85  88
ENDBRANCH  76  80
ENDBRANCH  72  74
ENDBRANCH  71  72
ENDBRANCH   1  71
TORSDOF 14
ENDMDL
