MODEL 1
REMARK VINA RESULT:     -11.9      0.000      0.000
REMARK SMILES Cc1cc(NC(=O)c2ccc(Br)nc2)sc1C(=O)OCCOC(=O)c1ccc(-c2c3nc(c(-c4c(F)c(F)c(F)c(F)c4F)c4ccc([nH]4)c(-c4c(F)c(F)c(F)c(F)c4F)c4nc(c(-c5c(F)c(F)c(F)c(F)c5F)c5ccc2[nH]5)C=C4)C=C3)cc1
REMARK SMILES IDX 20 1 19 2 17 3 18 4 16 5 1 6 2 7 3 8 4 9 15 10 5 11 6 12
REMARK SMILES IDX 7 14 8 15 9 16 14 17 10 18 13 19 11 20 12 21 21 22 22 23
REMARK SMILES IDX 23 24 24 25 25 26 26 27 87 28 27 29 86 30 28 31 29 32 30 33
REMARK SMILES IDX 80 34 31 35 85 36 79 37 81 38 32 39 84 40 78 41 77 42 33 44
REMARK SMILES IDX 65 45 45 46 64 47 46 48 49 49 63 50 82 51 47 52 48 53 62 55
REMARK SMILES IDX 83 56 50 57 34 58 35 59 43 60 36 61 37 62 41 63 44 64 38 65
REMARK SMILES IDX 39 66 42 67 40 68 66 69 67 70 75 71 68 72 69 73 73 74 76 75
REMARK SMILES IDX 70 76 71 77 74 78 72 79 51 80 52 81 60 82 53 83 54 84 58 85
REMARK SMILES IDX 61 86 55 87 56 88 59 89 57 90
REMARK H PARENT 5 13 81 43 49 54
REMARK Flexibility Score: inf
ROOT
ATOM      1  C   UNL A   1      31.808  30.737  26.795  1.00  0.00     0.275 C 
ENDROOT
BRANCH   1   2
ATOM      2  O   UNL A   1      31.352  30.252  25.519  1.00  0.00    -0.458 OA
BRANCH   2   3
ATOM      3  C   UNL A   1      32.084  29.268  24.921  1.00  0.00     0.348 C 
ATOM      4  O   UNL A   1      33.230  29.416  24.530  1.00  0.00    -0.245 OA
BRANCH   3   5
ATOM      5  C   UNL A   1      31.335  28.016  24.914  1.00  0.00     0.117 A 
ATOM      6  C   UNL A   1      30.488  27.735  22.473  1.00  0.00     0.046 C 
ATOM      7  C   UNL A   1      30.588  27.381  23.923  1.00  0.00    -0.023 A 
ATOM      8  C   UNL A   1      29.864  26.266  24.470  1.00  0.00     0.042 A 
ATOM      9  C   UNL A   1      30.208  25.989  25.768  1.00  0.00     0.096 A 
ATOM     10  S   UNL A   1      31.312  27.104  26.385  1.00  0.00    -0.111 S 
BRANCH   9  11
ATOM     11  N   UNL A   1      29.848  24.992  26.644  1.00  0.00    -0.313 N 
ATOM     12  C   UNL A   1      30.318  23.695  26.648  1.00  0.00     0.257 C 
ATOM     13  H   UNL A   1      29.190  25.226  27.337  1.00  0.00     0.171 HD
ATOM     14  O   UNL A   1      29.737  22.799  27.252  1.00  0.00    -0.269 OA
BRANCH  12  15
ATOM     15  C   UNL A   1      31.603  23.394  25.990  1.00  0.00     0.058 A 
ATOM     16  C   UNL A   1      32.822  23.688  26.608  1.00  0.00     0.018 A 
ATOM     17  C   UNL A   1      31.614  22.890  24.702  1.00  0.00     0.126 A 
ATOM     18  C   UNL A   1      33.998  23.564  25.876  1.00  0.00     0.037 A 
ATOM     19  N   UNL A   1      32.747  22.755  23.971  1.00  0.00    -0.249 NA
ATOM     20  C   UNL A   1      33.911  23.112  24.567  1.00  0.00     0.106 A 
ATOM     21  Br  UNL A   1      35.493  23.040  23.526  1.00  0.00    -0.029 Br
ENDBRANCH  12  15
ENDBRANCH   9  11
ENDBRANCH   3   5
ENDBRANCH   2   3
ENDBRANCH   1   2
BRANCH   1  22
ATOM     22  C   UNL A   1      31.651  32.258  26.881  1.00  0.00     0.275 C 
BRANCH  22  23
ATOM     23  O   UNL A   1      32.931  32.918  26.811  1.00  0.00    -0.458 OA
BRANCH  23  24
ATOM     24  C   UNL A   1      33.256  33.667  27.890  1.00  0.00     0.338 C 
ATOM     25  O   UNL A   1      32.591  34.550  28.407  1.00  0.00    -0.246 OA
BRANCH  24  26
ATOM     26  C   UNL A   1      34.494  33.143  28.490  1.00  0.00     0.060 A 
ATOM     27  C   UNL A   1      34.417  31.900  29.115  1.00  0.00     0.016 A 
ATOM     28  C   UNL A   1      35.686  33.866  28.506  1.00  0.00     0.016 A 
ATOM     29  C   UNL A   1      35.524  31.359  29.758  1.00  0.00     0.010 A 
ATOM     30  C   UNL A   1      36.805  33.323  29.154  1.00  0.00     0.010 A 
ATOM     31  C   UNL A   1      36.729  32.069  29.789  1.00  0.00    -0.014 A 
BRANCH  31  32
ATOM     32  C   UNL A   1      37.881  31.509  30.539  1.00  0.00     0.031 A 
ATOM     33  C   UNL A   1      38.794  30.519  29.876  1.00  0.00     0.074 A 
ATOM     34  C   UNL A   1      38.139  31.928  31.792  1.00  0.00     0.049 A 
ATOM     35  N   UNL A   1      39.806  29.857  30.379  1.00  0.00    -0.248 NA
ATOM     36  C   UNL A   1      38.535  30.236  28.457  1.00  0.00     0.031 C 
ATOM     37  C   UNL A   1      37.364  32.931  32.522  1.00  0.00     0.029 A 
ATOM     38  N   UNL A   1      39.130  31.566  32.670  1.00  0.00    -0.354 N 
ATOM     39  C   UNL A   1      40.287  29.061  29.348  1.00  0.00     0.074 A 
ATOM     40  C   UNL A   1      39.450  29.314  28.193  1.00  0.00     0.031 C 
ATOM     41  C   UNL A   1      37.914  33.111  33.733  1.00  0.00     0.029 A 
ATOM     42  C   UNL A   1      39.046  32.201  33.885  1.00  0.00     0.049 A 
ATOM     43  H   UNL A   1      39.835  30.914  32.450  1.00  0.00     0.167 HD
ATOM     44  C   UNL A   1      41.333  28.201  29.365  1.00  0.00     0.037 A 
ATOM     45  C   UNL A   1      39.780  32.043  35.003  1.00  0.00     0.037 A 
ATOM     46  C   UNL A   1      42.180  27.972  30.507  1.00  0.00     0.049 A 
ATOM     47  C   UNL A   1      40.903  31.043  35.012  1.00  0.00     0.074 A 
ATOM     48  C   UNL A   1      43.264  27.119  30.622  1.00  0.00     0.029 A 
ATOM     49  N   UNL A   1      42.039  28.606  31.732  1.00  0.00    -0.354 N 
ATOM     50  N   UNL A   1      41.331  30.270  34.043  1.00  0.00    -0.248 NA
ATOM     51  C   UNL A   1      41.640  30.885  36.274  1.00  0.00     0.031 C 
ATOM     52  C   UNL A   1      43.757  27.211  31.927  1.00  0.00     0.029 A 
ATOM     53  C   UNL A   1      43.007  28.152  32.615  1.00  0.00     0.049 A 
ATOM     54  H   UNL A   1      41.353  29.279  31.945  1.00  0.00     0.167 HD
ATOM     55  C   UNL A   1      42.392  29.548  34.570  1.00  0.00     0.074 A 
ATOM     56  C   UNL A   1      42.557  29.987  35.940  1.00  0.00     0.031 C 
ATOM     57  C   UNL A   1      43.159  28.603  33.974  1.00  0.00     0.037 A 
BRANCH  44  58
ATOM     58  C   UNL A   1      41.600  27.414  28.116  1.00  0.00     0.064 A 
ATOM     59  C   UNL A   1      42.494  27.864  27.134  1.00  0.00     0.173 A 
ATOM     60  C   UNL A   1      40.970  26.176  27.915  1.00  0.00     0.173 A 
ATOM     61  F   UNL A   1      43.109  29.048  27.274  1.00  0.00    -0.203 F 
ATOM     62  C   UNL A   1      42.730  27.114  25.984  1.00  0.00     0.198 A 
ATOM     63  C   UNL A   1      41.229  25.417  26.777  1.00  0.00     0.198 A 
ATOM     64  F   UNL A   1      40.109  25.698  28.826  1.00  0.00    -0.203 F 
ATOM     65  F   UNL A   1      43.555  27.584  25.038  1.00  0.00    -0.200 F 
ATOM     66  C   UNL A   1      42.103  25.889  25.809  1.00  0.00     0.200 A 
ATOM     67  F   UNL A   1      40.629  24.230  26.615  1.00  0.00    -0.200 F 
ATOM     68  F   UNL A   1      42.335  25.167  24.704  1.00  0.00    -0.200 F 
ENDBRANCH  44  58
BRANCH  45  69
ATOM     69  C   UNL A   1      39.453  32.834  36.219  1.00  0.00     0.064 A 
ATOM     70  C   UNL A   1      40.086  34.058  36.478  1.00  0.00     0.173 A 
ATOM     71  C   UNL A   1      38.506  32.378  37.147  1.00  0.00     0.173 A 
ATOM     72  F   UNL A   1      41.018  34.521  35.633  1.00  0.00    -0.203 F 
ATOM     73  C   UNL A   1      39.789  34.791  37.625  1.00  0.00     0.198 A 
ATOM     74  C   UNL A   1      38.190  33.125  38.280  1.00  0.00     0.198 A 
ATOM     75  F   UNL A   1      37.878  31.210  36.949  1.00  0.00    -0.203 F 
ATOM     76  F   UNL A   1      40.437  35.938  37.869  1.00  0.00    -0.200 F 
ATOM     77  C   UNL A   1      38.836  34.329  38.521  1.00  0.00     0.200 A 
ATOM     78  F   UNL A   1      37.263  32.679  39.137  1.00  0.00    -0.200 F 
ATOM     79  F   UNL A   1      38.548  35.037  39.620  1.00  0.00    -0.200 F 
ENDBRANCH  45  69
BRANCH  57  80
ATOM     80  C   UNL A   1      44.260  27.997  34.793  1.00  0.00     0.064 A 
ATOM     81  C   UNL A   1      45.522  28.601  34.885  1.00  0.00     0.173 A 
ATOM     82  C   UNL A   1      44.038  26.818  35.521  1.00  0.00     0.173 A 
ATOM     83  F   UNL A   1      45.787  29.721  34.195  1.00  0.00    -0.203 F 
ATOM     84  C   UNL A   1      46.530  28.035  35.662  1.00  0.00     0.198 A 
ATOM     85  C   UNL A   1      45.041  26.270  36.316  1.00  0.00     0.198 A 
ATOM     86  F   UNL A   1      42.847  26.205  35.469  1.00  0.00    -0.203 F 
ATOM     87  F   UNL A   1      47.742  28.607  35.703  1.00  0.00    -0.200 F 
ATOM     88  C   UNL A   1      46.287  26.875  36.380  1.00  0.00     0.200 A 
ATOM     89  F   UNL A   1      44.801  25.153  37.018  1.00  0.00    -0.200 F 
ATOM     90  F   UNL A   1      47.257  26.334  37.131  1.00  0.00    -0.200 F 
ENDBRANCH  57  80
ENDBRANCH  31  32
ENDBRANCH  24  26
ENDBRANCH  23  24
ENDBRANCH  22  23
ENDBRANCH   1  22
TORSDOF 13
ENDMDL
MODEL 2
REMARK VINA RESULT:     -11.9      1.637      2.095
REMARK SMILES Cc1cc(NC(=O)c2ccc(Br)nc2)sc1C(=O)OCCOC(=O)c1ccc(-c2c3nc(c(-c4c(F)c(F)c(F)c(F)c4F)c4ccc([nH]4)c(-c4c(F)c(F)c(F)c(F)c4F)c4nc(c(-c5c(F)c(F)c(F)c(F)c5F)c5ccc2[nH]5)C=C4)C=C3)cc1
REMARK SMILES IDX 20 1 19 2 17 3 18 4 16 5 1 6 2 7 3 8 4 9 15 10 5 11 6 12
REMARK SMILES IDX 7 14 8 15 9 16 14 17 10 18 13 19 11 20 12 21 21 22 22 23
REMARK SMILES IDX 23 24 24 25 25 26 26 27 87 28 27 29 86 30 28 31 29 32 30 33
REMARK SMILES IDX 80 34 31 35 85 36 79 37 81 38 32 39 84 40 78 41 77 42 33 44
REMARK SMILES IDX 65 45 45 46 64 47 46 48 49 49 63 50 82 51 47 52 48 53 62 55
REMARK SMILES IDX 83 56 50 57 34 58 35 59 43 60 36 61 37 62 41 63 44 64 38 65
REMARK SMILES IDX 39 66 42 67 40 68 66 69 67 70 75 71 68 72 69 73 73 74 76 75
REMARK SMILES IDX 70 76 71 77 74 78 72 79 51 80 52 81 60 82 53 83 54 84 58 85
REMARK SMILES IDX 61 86 55 87 56 88 59 89 57 90
REMARK H PARENT 5 13 81 43 49 54
REMARK Flexibility Score: inf
ROOT
ATOM      1  C   UNL A   1      31.319  29.412  24.751  1.00  0.00     0.275 C 
ENDROOT
BRANCH   1   2
ATOM      2  O   UNL A   1      31.306  27.983  24.930  1.00  0.00    -0.458 OA
BRANCH   2   3
ATOM      3  C   UNL A   1      30.622  27.240  24.014  1.00  0.00     0.348 C 
ATOM      4  O   UNL A   1      29.543  27.564  23.545  1.00  0.00    -0.245 OA
BRANCH   3   5
ATOM      5  C   UNL A   1      31.408  26.076  23.619  1.00  0.00     0.117 A 
ATOM      6  C   UNL A   1      33.102  26.956  21.856  1.00  0.00     0.046 C 
ATOM      7  C   UNL A   1      32.405  25.905  22.661  1.00  0.00    -0.023 A 
ATOM      8  C   UNL A   1      32.725  24.512  22.505  1.00  0.00     0.042 A 
ATOM      9  C   UNL A   1      32.115  23.715  23.438  1.00  0.00     0.096 A 
ATOM     10  S   UNL A   1      31.080  24.589  24.442  1.00  0.00    -0.111 S 
BRANCH   9  11
ATOM     11  N   UNL A   1      32.191  22.371  23.721  1.00  0.00    -0.313 N 
ATOM     12  C   UNL A   1      33.332  21.661  24.029  1.00  0.00     0.257 C 
ATOM     13  H   UNL A   1      31.347  21.865  23.701  1.00  0.00     0.171 HD
ATOM     14  O   UNL A   1      33.367  20.436  23.969  1.00  0.00    -0.269 OA
BRANCH  12  15
ATOM     15  C   UNL A   1      34.513  22.383  24.535  1.00  0.00     0.058 A 
ATOM     16  C   UNL A   1      35.623  22.622  23.720  1.00  0.00     0.018 A 
ATOM     17  C   UNL A   1      34.570  22.763  25.865  1.00  0.00     0.126 A 
ATOM     18  C   UNL A   1      36.784  23.134  24.290  1.00  0.00     0.037 A 
ATOM     19  N   UNL A   1      35.687  23.268  26.442  1.00  0.00    -0.249 NA
ATOM     20  C   UNL A   1      36.773  23.426  25.648  1.00  0.00     0.106 A 
ATOM     21  Br  UNL A   1      38.379  24.024  26.458  1.00  0.00    -0.029 Br
ENDBRANCH  12  15
ENDBRANCH   9  11
ENDBRANCH   3   5
ENDBRANCH   2   3
ENDBRANCH   1   2
BRANCH   1  22
ATOM     22  C   UNL A   1      31.643  30.117  26.072  1.00  0.00     0.275 C 
BRANCH  22  23
ATOM     23  O   UNL A   1      33.049  30.418  26.170  1.00  0.00    -0.458 OA
BRANCH  23  24
ATOM     24  C   UNL A   1      33.364  31.457  26.976  1.00  0.00     0.338 C 
ATOM     25  O   UNL A   1      32.670  32.425  27.245  1.00  0.00    -0.246 OA
BRANCH  24  26
ATOM     26  C   UNL A   1      34.640  31.176  27.654  1.00  0.00     0.060 A 
ATOM     27  C   UNL A   1      34.845  29.873  28.102  1.00  0.00     0.016 A 
ATOM     28  C   UNL A   1      35.589  32.165  27.910  1.00  0.00     0.016 A 
ATOM     29  C   UNL A   1      35.998  29.536  28.803  1.00  0.00     0.010 A 
ATOM     30  C   UNL A   1      36.753  31.829  28.617  1.00  0.00     0.010 A 
ATOM     31  C   UNL A   1      36.961  30.513  29.073  1.00  0.00    -0.014 A 
BRANCH  31  32
ATOM     32  C   UNL A   1      38.152  30.153  29.883  1.00  0.00     0.031 A 
ATOM     33  C   UNL A   1      39.195  29.238  29.311  1.00  0.00     0.074 A 
ATOM     34  C   UNL A   1      38.324  30.688  31.106  1.00  0.00     0.049 A 
ATOM     35  N   UNL A   1      40.266  28.742  29.879  1.00  0.00    -0.248 NA
ATOM     36  C   UNL A   1      39.010  28.825  27.912  1.00  0.00     0.031 C 
ATOM     37  C   UNL A   1      37.414  31.638  31.745  1.00  0.00     0.029 A 
ATOM     38  N   UNL A   1      39.328  30.514  32.026  1.00  0.00    -0.354 N 
ATOM     39  C   UNL A   1      40.867  27.940  28.918  1.00  0.00     0.074 A 
ATOM     40  C   UNL A   1      40.036  28.005  27.734  1.00  0.00     0.031 C 
ATOM     41  C   UNL A   1      37.906  31.970  32.950  1.00  0.00     0.029 A 
ATOM     42  C   UNL A   1      39.134  31.218  33.189  1.00  0.00     0.049 A 
ATOM     43  H   UNL A   1      40.111  29.939  31.867  1.00  0.00     0.167 HD
ATOM     44  C   UNL A   1      42.008  27.218  29.018  1.00  0.00     0.037 A 
ATOM     45  C   UNL A   1      39.852  31.231  34.329  1.00  0.00     0.037 A 
ATOM     46  C   UNL A   1      42.845  27.175  30.189  1.00  0.00     0.049 A 
ATOM     47  C   UNL A   1      41.087  30.379  34.431  1.00  0.00     0.074 A 
ATOM     48  C   UNL A   1      44.021  26.472  30.385  1.00  0.00     0.029 A 
ATOM     49  N   UNL A   1      42.596  27.873  31.361  1.00  0.00    -0.354 N 
ATOM     50  N   UNL A   1      41.631  29.597  33.530  1.00  0.00    -0.248 NA
ATOM     51  C   UNL A   1      41.803  30.403  35.715  1.00  0.00     0.031 C 
ATOM     52  C   UNL A   1      44.465  26.716  31.689  1.00  0.00     0.029 A 
ATOM     53  C   UNL A   1      43.588  27.604  32.292  1.00  0.00     0.049 A 
ATOM     54  H   UNL A   1      41.829  28.471  31.511  1.00  0.00     0.167 HD
ATOM     55  C   UNL A   1      42.757  29.050  34.128  1.00  0.00     0.074 A 
ATOM     56  C   UNL A   1      42.831  29.602  35.465  1.00  0.00     0.031 C 
ATOM     57  C   UNL A   1      43.648  28.166  33.617  1.00  0.00     0.037 A 
BRANCH  44  58
ATOM     58  C   UNL A   1      42.401  26.382  27.836  1.00  0.00     0.064 A 
ATOM     59  C   UNL A   1      43.306  26.846  26.870  1.00  0.00     0.173 A 
ATOM     60  C   UNL A   1      41.884  25.086  27.685  1.00  0.00     0.173 A 
ATOM     61  F   UNL A   1      43.816  28.083  26.962  1.00  0.00    -0.203 F 
ATOM     62  C   UNL A   1      43.661  26.051  25.782  1.00  0.00     0.198 A 
ATOM     63  C   UNL A   1      42.261  24.285  26.610  1.00  0.00     0.198 A 
ATOM     64  F   UNL A   1      41.018  24.594  28.582  1.00  0.00    -0.203 F 
ATOM     65  F   UNL A   1      44.494  26.530  24.847  1.00  0.00    -0.200 F 
ATOM     66  C   UNL A   1      43.144  24.770  25.657  1.00  0.00     0.200 A 
ATOM     67  F   UNL A   1      41.767  23.044  26.496  1.00  0.00    -0.200 F 
ATOM     68  F   UNL A   1      43.489  24.005  24.611  1.00  0.00    -0.200 F 
ENDBRANCH  44  58
BRANCH  45  69
ATOM     69  C   UNL A   1      39.400  32.060  35.476  1.00  0.00     0.064 A 
ATOM     70  C   UNL A   1      39.817  33.391  35.617  1.00  0.00     0.173 A 
ATOM     71  C   UNL A   1      38.545  31.536  36.457  1.00  0.00     0.173 A 
ATOM     72  F   UNL A   1      40.657  33.928  34.720  1.00  0.00    -0.203 F 
ATOM     73  C   UNL A   1      39.404  34.163  36.702  1.00  0.00     0.198 A 
ATOM     74  C   UNL A   1      38.111  32.317  37.526  1.00  0.00     0.198 A 
ATOM     75  F   UNL A   1      38.122  30.267  36.372  1.00  0.00    -0.203 F 
ATOM     76  F   UNL A   1      39.850  35.419  36.835  1.00  0.00    -0.200 F 
ATOM     77  C   UNL A   1      38.545  33.628  37.651  1.00  0.00     0.200 A 
ATOM     78  F   UNL A   1      37.274  31.799  38.434  1.00  0.00    -0.200 F 
ATOM     79  F   UNL A   1      38.145  34.373  38.690  1.00  0.00    -0.200 F 
ENDBRANCH  45  69
BRANCH  57  80
ATOM     80  C   UNL A   1      44.792  27.759  34.497  1.00  0.00     0.064 A 
ATOM     81  C   UNL A   1      45.986  28.493  34.534  1.00  0.00     0.173 A 
ATOM     82  C   UNL A   1      44.677  26.644  35.341  1.00  0.00     0.173 A 
ATOM     83  F   UNL A   1      46.149  29.558  33.734  1.00  0.00    -0.203 F 
ATOM     84  C   UNL A   1      47.034  28.112  35.368  1.00  0.00     0.198 A 
ATOM     85  C   UNL A   1      45.718  26.281  36.192  1.00  0.00     0.198 A 
ATOM     86  F   UNL A   1      43.553  25.912  35.347  1.00  0.00    -0.203 F 
ATOM     87  F   UNL A   1      48.182  28.803  35.356  1.00  0.00    -0.200 F 
ATOM     88  C   UNL A   1      46.897  27.011  36.200  1.00  0.00     0.200 A 
ATOM     89  F   UNL A   1      45.580  25.223  37.003  1.00  0.00    -0.200 F 
ATOM     90  F   UNL A   1      47.905  26.649  37.005  1.00  0.00    -0.200 F 
ENDBRANCH  57  80
ENDBRANCH  31  32
ENDBRANCH  24  26
ENDBRANCH  23  24
ENDBRANCH  22  23
ENDBRANCH   1  22
TORSDOF 13
ENDMDL
MODEL 3
REMARK VINA RESULT:     -11.7      5.633      9.760
REMARK SMILES Cc1cc(NC(=O)c2ccc(Br)nc2)sc1C(=O)OCCOC(=O)c1ccc(-c2c3nc(c(-c4c(F)c(F)c(F)c(F)c4F)c4ccc([nH]4)c(-c4c(F)c(F)c(F)c(F)c4F)c4nc(c(-c5c(F)c(F)c(F)c(F)c5F)c5ccc2[nH]5)C=C4)C=C3)cc1
REMARK SMILES IDX 20 1 19 2 17 3 18 4 16 5 1 6 2 7 3 8 4 9 15 10 5 11 6 12
REMARK SMILES IDX 7 14 8 15 9 16 14 17 10 18 13 19 11 20 12 21 21 22 22 23
REMARK SMILES IDX 23 24 24 25 25 26 26 27 87 28 27 29 86 30 28 31 29 32 30 33
REMARK SMILES IDX 80 34 31 35 85 36 79 37 81 38 32 39 84 40 78 41 77 42 33 44
REMARK SMILES IDX 65 45 45 46 64 47 46 48 49 49 63 50 82 51 47 52 48 53 62 55
REMARK SMILES IDX 83 56 50 57 34 58 35 59 43 60 36 61 37 62 41 63 44 64 38 65
REMARK SMILES IDX 39 66 42 67 40 68 66 69 67 70 75 71 68 72 69 73 73 74 76 75
REMARK SMILES IDX 70 76 71 77 74 78 72 79 51 80 52 81 60 82 53 83 54 84 58 85
REMARK SMILES IDX 61 86 55 87 56 88 59 89 57 90
REMARK H PARENT 5 13 81 43 49 54
REMARK Flexibility Score: inf
ROOT
ATOM      1  C   UNL A   1      40.358  20.207  26.132  1.00  0.00     0.275 C 
ENDROOT
BRANCH   1   2
ATOM      2  O   UNL A   1      41.500  20.773  26.801  1.00  0.00    -0.458 OA
BRANCH   2   3
ATOM      3  C   UNL A   1      42.604  21.039  26.047  1.00  0.00     0.348 C 
ATOM      4  O   UNL A   1      43.103  20.243  25.268  1.00  0.00    -0.245 OA
BRANCH   3   5
ATOM      5  C   UNL A   1      43.024  22.424  26.237  1.00  0.00     0.117 A 
ATOM      6  C   UNL A   1      42.779  22.873  28.784  1.00  0.00     0.046 C 
ATOM      7  C   UNL A   1      43.038  23.249  27.360  1.00  0.00    -0.023 A 
ATOM      8  C   UNL A   1      43.346  24.603  26.990  1.00  0.00     0.042 A 
ATOM      9  C   UNL A   1      43.719  24.728  25.677  1.00  0.00     0.096 A 
ATOM     10  S   UNL A   1      43.610  23.266  24.843  1.00  0.00    -0.111 S 
BRANCH   9  11
ATOM     11  N   UNL A   1      44.171  25.787  24.923  1.00  0.00    -0.313 N 
ATOM     12  C   UNL A   1      45.231  26.615  25.226  1.00  0.00     0.257 C 
ATOM     13  H   UNL A   1      43.689  25.973  24.086  1.00  0.00     0.171 HD
ATOM     14  O   UNL A   1      45.379  27.701  24.675  1.00  0.00    -0.269 OA
BRANCH  12  15
ATOM     15  C   UNL A   1      46.265  26.145  26.165  1.00  0.00     0.058 A 
ATOM     16  C   UNL A   1      46.401  26.705  27.438  1.00  0.00     0.018 A 
ATOM     17  C   UNL A   1      47.180  25.189  25.758  1.00  0.00     0.126 A 
ATOM     18  C   UNL A   1      47.505  26.366  28.213  1.00  0.00     0.037 A 
ATOM     19  N   UNL A   1      48.260  24.838  26.497  1.00  0.00    -0.249 NA
ATOM     20  C   UNL A   1      48.409  25.446  27.698  1.00  0.00     0.106 A 
ATOM     21  Br  UNL A   1      49.970  25.055  28.698  1.00  0.00    -0.029 Br
ENDBRANCH  12  15
ENDBRANCH   9  11
ENDBRANCH   3   5
ENDBRANCH   2   3
ENDBRANCH   1   2
BRANCH   1  22
ATOM     22  C   UNL A   1      39.229  21.237  26.028  1.00  0.00     0.275 C 
BRANCH  22  23
ATOM     23  O   UNL A   1      39.567  22.452  26.726  1.00  0.00    -0.458 OA
BRANCH  23  24
ATOM     24  C   UNL A   1      38.854  23.544  26.368  1.00  0.00     0.338 C 
ATOM     25  O   UNL A   1      37.834  23.577  25.698  1.00  0.00    -0.246 OA
BRANCH  24  26
ATOM     26  C   UNL A   1      39.394  24.725  27.061  1.00  0.00     0.060 A 
ATOM     27  C   UNL A   1      39.124  24.838  28.423  1.00  0.00     0.016 A 
ATOM     28  C   UNL A   1      40.088  25.735  26.396  1.00  0.00     0.016 A 
ATOM     29  C   UNL A   1      39.546  25.951  29.141  1.00  0.00     0.010 A 
ATOM     30  C   UNL A   1      40.516  26.860  27.117  1.00  0.00     0.010 A 
ATOM     31  C   UNL A   1      40.241  26.977  28.493  1.00  0.00    -0.014 A 
BRANCH  31  32
ATOM     32  C   UNL A   1      40.623  28.190  29.259  1.00  0.00     0.031 A 
ATOM     33  C   UNL A   1      42.023  28.335  29.779  1.00  0.00     0.074 A 
ATOM     34  C   UNL A   1      39.732  29.183  29.439  1.00  0.00     0.049 A 
ATOM     35  N   UNL A   1      42.536  29.276  30.532  1.00  0.00    -0.248 NA
ATOM     36  C   UNL A   1      42.976  27.279  29.403  1.00  0.00     0.031 C 
ATOM     37  C   UNL A   1      38.362  29.189  28.928  1.00  0.00     0.029 A 
ATOM     38  N   UNL A   1      39.851  30.382  30.097  1.00  0.00    -0.354 N 
ATOM     39  C   UNL A   1      43.861  28.914  30.740  1.00  0.00     0.074 A 
ATOM     40  C   UNL A   1      44.071  27.661  30.044  1.00  0.00     0.031 C 
ATOM     41  C   UNL A   1      37.769  30.339  29.284  1.00  0.00     0.029 A 
ATOM     42  C   UNL A   1      38.697  31.127  30.090  1.00  0.00     0.049 A 
ATOM     43  H   UNL A   1      40.683  30.679  30.531  1.00  0.00     0.167 HD
ATOM     44  C   UNL A   1      44.812  29.569  31.446  1.00  0.00     0.037 A 
ATOM     45  C   UNL A   1      38.413  32.298  30.692  1.00  0.00     0.037 A 
ATOM     46  C   UNL A   1      44.607  30.828  32.115  1.00  0.00     0.049 A 
ATOM     47  C   UNL A   1      39.472  32.980  31.514  1.00  0.00     0.074 A 
ATOM     48  C   UNL A   1      45.510  31.570  32.857  1.00  0.00     0.029 A 
ATOM     49  N   UNL A   1      43.413  31.534  32.118  1.00  0.00    -0.354 N 
ATOM     50  N   UNL A   1      40.712  32.615  31.733  1.00  0.00    -0.248 NA
ATOM     51  C   UNL A   1      39.089  34.233  32.181  1.00  0.00     0.031 C 
ATOM     52  C   UNL A   1      44.852  32.708  33.337  1.00  0.00     0.029 A 
ATOM     53  C   UNL A   1      43.551  32.696  32.861  1.00  0.00     0.049 A 
ATOM     54  H   UNL A   1      42.589  31.252  31.659  1.00  0.00     0.167 HD
ATOM     55  C   UNL A   1      41.261  33.595  32.547  1.00  0.00     0.074 A 
ATOM     56  C   UNL A   1      40.225  34.583  32.769  1.00  0.00     0.031 C 
ATOM     57  C   UNL A   1      42.510  33.670  33.068  1.00  0.00     0.037 A 
BRANCH  44  58
ATOM     58  C   UNL A   1      46.158  28.917  31.562  1.00  0.00     0.064 A 
ATOM     59  C   UNL A   1      46.460  28.023  32.599  1.00  0.00     0.173 A 
ATOM     60  C   UNL A   1      47.150  29.172  30.602  1.00  0.00     0.173 A 
ATOM     61  F   UNL A   1      45.550  27.758  33.549  1.00  0.00    -0.203 F 
ATOM     62  C   UNL A   1      47.716  27.425  32.685  1.00  0.00     0.198 A 
ATOM     63  C   UNL A   1      48.395  28.553  30.677  1.00  0.00     0.198 A 
ATOM     64  F   UNL A   1      46.910  30.017  29.589  1.00  0.00    -0.203 F 
ATOM     65  F   UNL A   1      47.998  26.607  33.708  1.00  0.00    -0.200 F 
ATOM     66  C   UNL A   1      48.679  27.685  31.721  1.00  0.00     0.200 A 
ATOM     67  F   UNL A   1      49.320  28.799  29.740  1.00  0.00    -0.200 F 
ATOM     68  F   UNL A   1      49.885  27.106  31.803  1.00  0.00    -0.200 F 
ENDBRANCH  44  58
BRANCH  45  69
ATOM     69  C   UNL A   1      37.053  32.885  30.562  1.00  0.00     0.064 A 
ATOM     70  C   UNL A   1      36.071  32.660  31.537  1.00  0.00     0.173 A 
ATOM     71  C   UNL A   1      36.709  33.678  29.458  1.00  0.00     0.173 A 
ATOM     72  F   UNL A   1      36.345  31.886  32.597  1.00  0.00    -0.203 F 
ATOM     73  C   UNL A   1      34.792  33.199  31.406  1.00  0.00     0.198 A 
ATOM     74  C   UNL A   1      35.439  34.239  29.342  1.00  0.00     0.198 A 
ATOM     75  F   UNL A   1      37.610  33.917  28.495  1.00  0.00    -0.203 F 
ATOM     76  F   UNL A   1      33.860  32.936  32.331  1.00  0.00    -0.200 F 
ATOM     77  C   UNL A   1      34.480  33.994  30.313  1.00  0.00     0.200 A 
ATOM     78  F   UNL A   1      35.145  35.014  28.290  1.00  0.00    -0.200 F 
ATOM     79  F   UNL A   1      33.252  34.517  30.192  1.00  0.00    -0.200 F 
ENDBRANCH  45  69
BRANCH  57  80
ATOM     80  C   UNL A   1      42.832  34.869  33.909  1.00  0.00     0.064 A 
ATOM     81  C   UNL A   1      43.226  36.085  33.331  1.00  0.00     0.173 A 
ATOM     82  C   UNL A   1      42.710  34.812  35.305  1.00  0.00     0.173 A 
ATOM     83  F   UNL A   1      43.372  36.185  32.001  1.00  0.00    -0.203 F 
ATOM     84  C   UNL A   1      43.507  37.195  34.124  1.00  0.00     0.198 A 
ATOM     85  C   UNL A   1      42.968  35.931  36.092  1.00  0.00     0.198 A 
ATOM     86  F   UNL A   1      42.332  33.673  35.905  1.00  0.00    -0.203 F 
ATOM     87  F   UNL A   1      43.922  38.335  33.553  1.00  0.00    -0.200 F 
ATOM     88  C   UNL A   1      43.372  37.119  35.502  1.00  0.00     0.200 A 
ATOM     89  F   UNL A   1      42.827  35.859  37.423  1.00  0.00    -0.200 F 
ATOM     90  F   UNL A   1      43.638  38.190  36.262  1.00  0.00    -0.200 F 
ENDBRANCH  57  80
ENDBRANCH  31  32
ENDBRANCH  24  26
ENDBRANCH  23  24
ENDBRANCH  22  23
ENDBRANCH   1  22
TORSDOF 13
ENDMDL
