MODEL 1
REMARK VINA RESULT:     -13.6      0.000      0.000
REMARK SMILES C[NH+]1CCC([NH+]2CCC(Oc3ccc4ccccc4c3)(C(=O)OCCOC(=O)c3ccc(-c4c5nc(c(-c6c(F)c(F)c(F)c(F)c6F)c6ccc([nH]6)c(-c6c(F)c(F)c(F)c(F)c6F)c6nc(c(-c7c(F)c(F)c(F)c(F)c7F)c7ccc4[nH]7)C=C6)C=C5)cc3)CC2)CC1
REMARK SMILES IDX 24 1 23 2 21 3 22 4 9 5 6 6 7 7 93 8 8 10 92 11 5 12 1 13
REMARK SMILES IDX 2 14 3 15 95 16 4 18 94 19 10 20 11 21 12 22 20 23 13 24
REMARK SMILES IDX 19 25 14 26 18 27 15 28 17 29 16 30 25 31 26 32 27 33 28 34
REMARK SMILES IDX 29 35 30 36 91 37 31 38 90 39 32 40 33 41 34 42 84 43 35 44
REMARK SMILES IDX 89 45 83 46 85 47 36 48 88 49 82 50 81 51 37 53 69 54 49 55
REMARK SMILES IDX 68 56 50 57 53 58 67 59 86 60 51 61 52 62 66 64 87 65 54 66
REMARK SMILES IDX 38 67 39 68 47 69 40 70 41 71 45 72 48 73 42 74 43 75 46 76
REMARK SMILES IDX 44 77 70 78 71 79 79 80 72 81 73 82 77 83 80 84 74 85 75 86
REMARK SMILES IDX 78 87 76 88 55 89 56 90 64 91 57 92 58 93 62 94 65 95 59 96
REMARK SMILES IDX 60 97 63 98 61 99
REMARK H PARENT 6 9 2 17 85 52 53 63
REMARK Flexibility Score: inf
ROOT
ATOM      1  C   UNL A   1      31.548  28.240  26.580  1.00  0.00     0.274 C 
ENDROOT
BRANCH   1   2
ATOM      2  O   UNL A   1      31.917  27.057  25.837  1.00  0.00    -0.459 OA
BRANCH   2   3
ATOM      3  C   UNL A   1      30.944  26.114  25.676  1.00  0.00     0.351 C 
ATOM      4  O   UNL A   1      30.045  25.916  26.490  1.00  0.00    -0.247 OA
BRANCH   3   5
ATOM      5  C   UNL A   1      31.142  25.255  24.410  1.00  0.00     0.216 C 
ATOM      6  N   UNL A   1      33.575  23.608  24.690  1.00  0.00    -0.332 N 
ATOM      7  C   UNL A   1      32.347  23.250  25.415  1.00  0.00     0.267 C 
ATOM      8  C   UNL A   1      33.672  25.063  24.524  1.00  0.00     0.267 C 
ATOM      9  H   UNL A   1      33.499  23.173  23.771  1.00  0.00     0.348 HD
ATOM     10  C   UNL A   1      31.106  23.744  24.670  1.00  0.00     0.122 C 
ATOM     11  C   UNL A   1      32.483  25.635  23.751  1.00  0.00     0.122 C 
BRANCH   6  12
ATOM     12  C   UNL A   1      34.818  23.043  25.286  1.00  0.00     0.195 C 
ATOM     13  C   UNL A   1      38.894  21.709  25.752  1.00  0.00     0.332 C 
ATOM     14  N   UNL A   1      37.628  22.213  25.225  1.00  0.00    -0.337 N 
ATOM     15  C   UNL A   1      37.244  23.470  25.879  1.00  0.00     0.268 C 
ATOM     16  C   UNL A   1      36.572  21.207  25.360  1.00  0.00     0.268 C 
ATOM     17  H   UNL A   1      37.756  22.407  24.232  1.00  0.00     0.347 HD
ATOM     18  C   UNL A   1      35.978  24.052  25.240  1.00  0.00     0.126 C 
ATOM     19  C   UNL A   1      35.276  21.691  24.712  1.00  0.00     0.126 C 
ENDBRANCH   6  12
BRANCH   5  20
ATOM     20  O   UNL A   1      29.937  25.668  23.704  1.00  0.00    -0.475 OA
BRANCH  20  21
ATOM     21  C   UNL A   1      29.873  26.962  23.288  1.00  0.00     0.121 A 
ATOM     22  C   UNL A   1      30.864  27.481  22.466  1.00  0.00     0.047 A 
ATOM     23  C   UNL A   1      28.740  27.714  23.597  1.00  0.00     0.055 A 
ATOM     24  C   UNL A   1      30.759  28.791  22.001  1.00  0.00     0.012 A 
ATOM     25  C   UNL A   1      28.614  29.031  23.126  1.00  0.00    -0.015 A 
ATOM     26  C   UNL A   1      29.643  29.578  22.323  1.00  0.00    -0.018 A 
ATOM     27  C   UNL A   1      27.489  29.818  23.422  1.00  0.00     0.009 A 
ATOM     28  C   UNL A   1      29.525  30.893  21.850  1.00  0.00     0.009 A 
ATOM     29  C   UNL A   1      27.383  31.124  22.939  1.00  0.00     0.001 A 
ATOM     30  C   UNL A   1      28.401  31.661  22.155  1.00  0.00     0.001 A 
ENDBRANCH  20  21
ENDBRANCH   5  20
ENDBRANCH   3   5
ENDBRANCH   2   3
ENDBRANCH   1   2
BRANCH   1  31
ATOM     31  C   UNL A   1      31.551  29.474  25.681  1.00  0.00     0.275 C 
BRANCH  31  32
ATOM     32  O   UNL A   1      32.854  30.075  25.719  1.00  0.00    -0.458 OA
BRANCH  32  33
ATOM     33  C   UNL A   1      33.077  30.952  26.721  1.00  0.00     0.338 C 
ATOM     34  O   UNL A   1      32.297  31.806  27.127  1.00  0.00    -0.246 OA
BRANCH  33  35
ATOM     35  C   UNL A   1      34.403  30.707  27.339  1.00  0.00     0.060 A 
ATOM     36  C   UNL A   1      34.830  29.415  27.660  1.00  0.00     0.016 A 
ATOM     37  C   UNL A   1      35.187  31.800  27.723  1.00  0.00     0.016 A 
ATOM     38  C   UNL A   1      35.964  29.222  28.449  1.00  0.00     0.010 A 
ATOM     39  C   UNL A   1      36.379  31.597  28.425  1.00  0.00     0.010 A 
ATOM     40  C   UNL A   1      36.772  30.307  28.818  1.00  0.00    -0.014 A 
BRANCH  40  41
ATOM     41  C   UNL A   1      38.032  30.102  29.584  1.00  0.00     0.031 A 
ATOM     42  C   UNL A   1      39.145  29.260  29.023  1.00  0.00     0.074 A 
ATOM     43  C   UNL A   1      38.172  30.646  30.808  1.00  0.00     0.049 A 
ATOM     44  N   UNL A   1      40.183  28.744  29.631  1.00  0.00    -0.248 NA
ATOM     45  C   UNL A   1      39.076  28.948  27.587  1.00  0.00     0.031 C 
ATOM     46  C   UNL A   1      37.201  31.523  31.464  1.00  0.00     0.029 A 
ATOM     47  N   UNL A   1      39.187  30.532  31.726  1.00  0.00    -0.354 N 
ATOM     48  C   UNL A   1      40.852  27.994  28.672  1.00  0.00     0.074 A 
ATOM     49  C   UNL A   1      40.114  28.135  27.434  1.00  0.00     0.031 C 
ATOM     50  C   UNL A   1      37.678  31.890  32.662  1.00  0.00     0.029 A 
ATOM     51  C   UNL A   1      38.935  31.194  32.902  1.00  0.00     0.049 A 
ATOM     52  H   UNL A   1      40.015  30.026  31.557  1.00  0.00     0.167 HD
ATOM     53  C   UNL A   1      41.975  27.250  28.821  1.00  0.00     0.037 A 
ATOM     54  C   UNL A   1      39.601  31.195  34.071  1.00  0.00     0.037 A 
ATOM     55  C   UNL A   1      42.742  27.165  30.038  1.00  0.00     0.049 A 
ATOM     56  C   UNL A   1      40.827  30.346  34.222  1.00  0.00     0.074 A 
ATOM     57  C   UNL A   1      43.905  26.455  30.280  1.00  0.00     0.029 A 
ATOM     58  N   UNL A   1      42.431  27.834  31.213  1.00  0.00    -0.354 N 
ATOM     59  N   UNL A   1      41.401  29.564  33.340  1.00  0.00    -0.248 NA
ATOM     60  C   UNL A   1      41.480  30.355  35.537  1.00  0.00     0.031 C 
ATOM     61  C   UNL A   1      44.285  26.673  31.610  1.00  0.00     0.029 A 
ATOM     62  C   UNL A   1      43.377  27.546  32.185  1.00  0.00     0.049 A 
ATOM     63  H   UNL A   1      41.654  28.425  31.339  1.00  0.00     0.167 HD
ATOM     64  C   UNL A   1      42.477  28.983  33.993  1.00  0.00     0.074 A 
ATOM     65  C   UNL A   1      42.491  29.521  35.338  1.00  0.00     0.031 C 
ATOM     66  C   UNL A   1      43.367  28.079  33.522  1.00  0.00     0.037 A 
BRANCH  53  67
ATOM     67  C   UNL A   1      42.438  26.432  27.651  1.00  0.00     0.064 A 
ATOM     68  C   UNL A   1      43.413  26.898  26.759  1.00  0.00     0.173 A 
ATOM     69  C   UNL A   1      41.948  25.129  27.469  1.00  0.00     0.173 A 
ATOM     70  F   UNL A   1      43.902  28.140  26.883  1.00  0.00    -0.203 F 
ATOM     71  C   UNL A   1      43.875  26.092  25.721  1.00  0.00     0.198 A 
ATOM     72  C   UNL A   1      42.426  24.319  26.443  1.00  0.00     0.198 A 
ATOM     73  F   UNL A   1      41.016  24.635  28.298  1.00  0.00    -0.203 F 
ATOM     74  F   UNL A   1      44.790  26.565  24.864  1.00  0.00    -0.200 F 
ATOM     75  C   UNL A   1      43.388  24.801  25.569  1.00  0.00     0.200 A 
ATOM     76  F   UNL A   1      41.962  23.070  26.305  1.00  0.00    -0.200 F 
ATOM     77  F   UNL A   1      43.845  24.023  24.578  1.00  0.00    -0.200 F 
ENDBRANCH  53  67
BRANCH  54  78
ATOM     78  C   UNL A   1      39.069  31.990  35.206  1.00  0.00     0.064 A 
ATOM     79  C   UNL A   1      38.323  31.381  36.221  1.00  0.00     0.173 A 
ATOM     80  C   UNL A   1      39.345  33.360  35.324  1.00  0.00     0.173 A 
ATOM     81  F   UNL A   1      38.015  30.078  36.137  1.00  0.00    -0.203 F 
ATOM     82  C   UNL A   1      37.876  32.112  37.320  1.00  0.00     0.198 A 
ATOM     83  C   UNL A   1      38.922  34.084  36.435  1.00  0.00     0.198 A 
ATOM     84  F   UNL A   1      40.059  33.986  34.377  1.00  0.00    -0.203 F 
ATOM     85  F   UNL A   1      37.147  31.513  38.270  1.00  0.00    -0.200 F 
ATOM     86  C   UNL A   1      38.187  33.460  37.431  1.00  0.00     0.200 A 
ATOM     87  F   UNL A   1      39.240  35.382  36.548  1.00  0.00    -0.200 F 
ATOM     88  F   UNL A   1      37.778  34.158  38.499  1.00  0.00    -0.200 F 
ENDBRANCH  54  78
BRANCH  66  89
ATOM     89  C   UNL A   1      44.432  27.621  34.470  1.00  0.00     0.064 A 
ATOM     90  C   UNL A   1      45.642  28.318  34.594  1.00  0.00     0.173 A 
ATOM     91  C   UNL A   1      44.237  26.487  35.269  1.00  0.00     0.173 A 
ATOM     92  F   UNL A   1      45.879  29.400  33.835  1.00  0.00    -0.203 F 
ATOM     93  C   UNL A   1      46.630  27.882  35.472  1.00  0.00     0.198 A 
ATOM     94  C   UNL A   1      45.219  26.063  36.160  1.00  0.00     0.198 A 
ATOM     95  F   UNL A   1      43.094  25.789  35.185  1.00  0.00    -0.203 F 
ATOM     96  F   UNL A   1      47.796  28.538  35.546  1.00  0.00    -0.200 F 
ATOM     97  C   UNL A   1      46.417  26.757  36.255  1.00  0.00     0.200 A 
ATOM     98  F   UNL A   1      45.010  24.980  36.920  1.00  0.00    -0.200 F 
ATOM     99  F   UNL A   1      47.370  26.336  37.098  1.00  0.00    -0.200 F 
ENDBRANCH  66  89
ENDBRANCH  40  41
ENDBRANCH  33  35
ENDBRANCH  32  33
ENDBRANCH  31  32
ENDBRANCH   1  31
TORSDOF 14
ENDMDL
MODEL 2
REMARK VINA RESULT:     -13.5      1.609      4.885
REMARK SMILES C[NH+]1CCC([NH+]2CCC(Oc3ccc4ccccc4c3)(C(=O)OCCOC(=O)c3ccc(-c4c5nc(c(-c6c(F)c(F)c(F)c(F)c6F)c6ccc([nH]6)c(-c6c(F)c(F)c(F)c(F)c6F)c6nc(c(-c7c(F)c(F)c(F)c(F)c7F)c7ccc4[nH]7)C=C6)C=C5)cc3)CC2)CC1
REMARK SMILES IDX 24 1 23 2 21 3 22 4 9 5 6 6 7 7 93 8 8 10 92 11 5 12 1 13
REMARK SMILES IDX 2 14 3 15 95 16 4 18 94 19 10 20 11 21 12 22 20 23 13 24
REMARK SMILES IDX 19 25 14 26 18 27 15 28 17 29 16 30 25 31 26 32 27 33 28 34
REMARK SMILES IDX 29 35 30 36 91 37 31 38 90 39 32 40 33 41 34 42 84 43 35 44
REMARK SMILES IDX 89 45 83 46 85 47 36 48 88 49 82 50 81 51 37 53 69 54 49 55
REMARK SMILES IDX 68 56 50 57 53 58 67 59 86 60 51 61 52 62 66 64 87 65 54 66
REMARK SMILES IDX 38 67 39 68 47 69 40 70 41 71 45 72 48 73 42 74 43 75 46 76
REMARK SMILES IDX 44 77 70 78 71 79 79 80 72 81 73 82 77 83 80 84 74 85 75 86
REMARK SMILES IDX 78 87 76 88 55 89 56 90 64 91 57 92 58 93 62 94 65 95 59 96
REMARK SMILES IDX 60 97 63 98 61 99
REMARK H PARENT 6 9 2 17 85 52 53 63
REMARK Flexibility Score: inf
ROOT
ATOM      1  C   UNL A   1      32.002  27.960  27.145  1.00  0.00     0.274 C 
ENDROOT
BRANCH   1   2
ATOM      2  O   UNL A   1      32.767  26.980  26.409  1.00  0.00    -0.459 OA
BRANCH   2   3
ATOM      3  C   UNL A   1      32.162  25.777  26.190  1.00  0.00     0.351 C 
ATOM      4  O   UNL A   1      31.593  25.130  27.067  1.00  0.00    -0.247 OA
BRANCH   3   5
ATOM      5  C   UNL A   1      32.347  25.264  24.747  1.00  0.00     0.216 C 
ATOM      6  N   UNL A   1      30.797  26.947  22.882  1.00  0.00    -0.332 N 
ATOM      7  C   UNL A   1      32.057  27.441  23.458  1.00  0.00     0.267 C 
ATOM      8  C   UNL A   1      30.116  26.049  23.821  1.00  0.00     0.267 C 
ATOM      9  H   UNL A   1      31.055  26.421  22.047  1.00  0.00     0.348 HD
ATOM     10  C   UNL A   1      32.995  26.283  23.801  1.00  0.00     0.122 C 
ATOM     11  C   UNL A   1      30.975  24.837  24.187  1.00  0.00     0.122 C 
BRANCH   6  12
ATOM     12  C   UNL A   1      29.889  28.023  22.398  1.00  0.00     0.195 C 
ATOM     13  C   UNL A   1      27.655  31.709  22.194  1.00  0.00     0.332 C 
ATOM     14  N   UNL A   1      28.498  30.594  22.619  1.00  0.00    -0.337 N 
ATOM     15  C   UNL A   1      29.683  30.467  21.761  1.00  0.00     0.268 C 
ATOM     16  C   UNL A   1      27.733  29.345  22.647  1.00  0.00     0.268 C 
ATOM     17  H   UNL A   1      28.822  30.789  23.567  1.00  0.00     0.347 HD
ATOM     18  C   UNL A   1      30.619  29.373  22.284  1.00  0.00     0.126 C 
ATOM     19  C   UNL A   1      28.584  28.201  23.195  1.00  0.00     0.126 C 
ENDBRANCH   6  12
BRANCH   5  20
ATOM     20  O   UNL A   1      33.285  24.189  25.041  1.00  0.00    -0.475 OA
BRANCH  20  21
ATOM     21  C   UNL A   1      32.988  22.955  24.553  1.00  0.00     0.121 A 
ATOM     22  C   UNL A   1      32.730  22.782  23.200  1.00  0.00     0.047 A 
ATOM     23  C   UNL A   1      33.069  21.855  25.407  1.00  0.00     0.055 A 
ATOM     24  C   UNL A   1      32.482  21.504  22.702  1.00  0.00     0.012 A 
ATOM     25  C   UNL A   1      32.834  20.560  24.918  1.00  0.00    -0.015 A 
ATOM     26  C   UNL A   1      32.528  20.385  23.548  1.00  0.00    -0.018 A 
ATOM     27  C   UNL A   1      32.902  19.431  25.751  1.00  0.00     0.009 A 
ATOM     28  C   UNL A   1      32.290  19.094  23.052  1.00  0.00     0.009 A 
ATOM     29  C   UNL A   1      32.669  18.152  25.242  1.00  0.00     0.001 A 
ATOM     30  C   UNL A   1      32.361  17.984  23.894  1.00  0.00     0.001 A 
ENDBRANCH  20  21
ENDBRANCH   5  20
ENDBRANCH   3   5
ENDBRANCH   2   3
ENDBRANCH   1   2
BRANCH   1  31
ATOM     31  C   UNL A   1      31.771  29.215  26.308  1.00  0.00     0.275 C 
BRANCH  31  32
ATOM     32  O   UNL A   1      33.035  29.852  26.064  1.00  0.00    -0.458 OA
BRANCH  32  33
ATOM     33  C   UNL A   1      33.347  30.885  26.875  1.00  0.00     0.338 C 
ATOM     34  O   UNL A   1      32.642  31.856  27.121  1.00  0.00    -0.246 OA
BRANCH  33  35
ATOM     35  C   UNL A   1      34.671  30.662  27.509  1.00  0.00     0.060 A 
ATOM     36  C   UNL A   1      35.164  29.374  27.735  1.00  0.00     0.016 A 
ATOM     37  C   UNL A   1      35.379  31.761  28.005  1.00  0.00     0.016 A 
ATOM     38  C   UNL A   1      36.288  29.179  28.536  1.00  0.00     0.010 A 
ATOM     39  C   UNL A   1      36.564  31.567  28.722  1.00  0.00     0.010 A 
ATOM     40  C   UNL A   1      37.022  30.272  29.018  1.00  0.00    -0.014 A 
BRANCH  40  41
ATOM     41  C   UNL A   1      38.273  30.074  29.800  1.00  0.00     0.031 A 
ATOM     42  C   UNL A   1      39.394  29.229  29.259  1.00  0.00     0.074 A 
ATOM     43  C   UNL A   1      38.398  30.628  31.022  1.00  0.00     0.049 A 
ATOM     44  N   UNL A   1      40.425  28.718  29.883  1.00  0.00    -0.248 NA
ATOM     45  C   UNL A   1      39.341  28.906  27.825  1.00  0.00     0.031 C 
ATOM     46  C   UNL A   1      37.419  31.509  31.660  1.00  0.00     0.029 A 
ATOM     47  N   UNL A   1      39.402  30.521  31.953  1.00  0.00    -0.354 N 
ATOM     48  C   UNL A   1      41.106  27.961  28.939  1.00  0.00     0.074 A 
ATOM     49  C   UNL A   1      40.382  28.092  27.691  1.00  0.00     0.031 C 
ATOM     50  C   UNL A   1      37.881  31.885  32.860  1.00  0.00     0.029 A 
ATOM     51  C   UNL A   1      39.136  31.193  33.121  1.00  0.00     0.049 A 
ATOM     52  H   UNL A   1      40.232  30.014  31.798  1.00  0.00     0.167 HD
ATOM     53  C   UNL A   1      42.227  27.219  29.107  1.00  0.00     0.037 A 
ATOM     54  C   UNL A   1      39.788  31.203  34.297  1.00  0.00     0.037 A 
ATOM     55  C   UNL A   1      42.979  27.145  30.334  1.00  0.00     0.049 A 
ATOM     56  C   UNL A   1      41.012  30.356  34.469  1.00  0.00     0.074 A 
ATOM     57  C   UNL A   1      44.140  26.437  30.595  1.00  0.00     0.029 A 
ATOM     58  N   UNL A   1      42.654  27.822  31.499  1.00  0.00    -0.354 N 
ATOM     59  N   UNL A   1      41.597  29.568  33.601  1.00  0.00    -0.248 NA
ATOM     60  C   UNL A   1      41.650  30.376  35.792  1.00  0.00     0.031 C 
ATOM     61  C   UNL A   1      44.504  26.666  31.927  1.00  0.00     0.029 A 
ATOM     62  C   UNL A   1      43.588  27.543  32.484  1.00  0.00     0.049 A 
ATOM     63  H   UNL A   1      41.875  28.414  31.611  1.00  0.00     0.167 HD
ATOM     64  C   UNL A   1      42.666  28.993  34.271  1.00  0.00     0.074 A 
ATOM     65  C   UNL A   1      42.664  29.541  35.612  1.00  0.00     0.031 C 
ATOM     66  C   UNL A   1      43.562  28.085  33.817  1.00  0.00     0.037 A 
BRANCH  53  67
ATOM     67  C   UNL A   1      42.704  26.392  27.949  1.00  0.00     0.064 A 
ATOM     68  C   UNL A   1      42.228  25.095  27.717  1.00  0.00     0.173 A 
ATOM     69  C   UNL A   1      43.598  26.942  27.016  1.00  0.00     0.173 A 
ATOM     70  F   UNL A   1      41.384  24.521  28.586  1.00  0.00    -0.203 F 
ATOM     71  C   UNL A   1      42.636  24.374  26.597  1.00  0.00     0.198 A 
ATOM     72  C   UNL A   1      43.987  26.227  25.887  1.00  0.00     0.198 A 
ATOM     73  F   UNL A   1      44.080  28.182  27.191  1.00  0.00    -0.203 F 
ATOM     74  F   UNL A   1      42.188  23.126  26.406  1.00  0.00    -0.200 F 
ATOM     75  C   UNL A   1      43.507  24.944  25.678  1.00  0.00     0.200 A 
ATOM     76  F   UNL A   1      44.821  26.783  24.997  1.00  0.00    -0.200 F 
ATOM     77  F   UNL A   1      43.886  24.253  24.595  1.00  0.00    -0.200 F 
ENDBRANCH  53  67
BRANCH  54  78
ATOM     78  C   UNL A   1      39.242  32.006  35.420  1.00  0.00     0.064 A 
ATOM     79  C   UNL A   1      38.432  31.416  36.397  1.00  0.00     0.173 A 
ATOM     80  C   UNL A   1      39.566  33.363  35.566  1.00  0.00     0.173 A 
ATOM     81  F   UNL A   1      38.077  30.127  36.284  1.00  0.00    -0.203 F 
ATOM     82  C   UNL A   1      37.970  32.153  37.485  1.00  0.00     0.198 A 
ATOM     83  C   UNL A   1      39.127  34.091  36.667  1.00  0.00     0.198 A 
ATOM     84  F   UNL A   1      40.341  33.970  34.655  1.00  0.00    -0.203 F 
ATOM     85  F   UNL A   1      37.180  31.573  38.398  1.00  0.00    -0.200 F 
ATOM     86  C   UNL A   1      38.328  33.486  37.625  1.00  0.00     0.200 A 
ATOM     87  F   UNL A   1      39.490  35.374  36.808  1.00  0.00    -0.200 F 
ATOM     88  F   UNL A   1      37.904  34.189  38.685  1.00  0.00    -0.200 F 
ENDBRANCH  54  78
BRANCH  66  89
ATOM     89  C   UNL A   1      44.616  27.636  34.781  1.00  0.00     0.064 A 
ATOM     90  C   UNL A   1      44.429  26.504  35.587  1.00  0.00     0.173 A 
ATOM     91  C   UNL A   1      45.826  28.335  34.892  1.00  0.00     0.173 A 
ATOM     92  F   UNL A   1      43.278  25.816  35.527  1.00  0.00    -0.203 F 
ATOM     93  C   UNL A   1      45.411  26.099  36.485  1.00  0.00     0.198 A 
ATOM     94  C   UNL A   1      46.814  27.915  35.778  1.00  0.00     0.198 A 
ATOM     95  F   UNL A   1      46.049  29.424  34.140  1.00  0.00    -0.203 F 
ATOM     96  F   UNL A   1      45.198  25.037  37.276  1.00  0.00    -0.200 F 
ATOM     97  C   UNL A   1      46.603  26.802  36.578  1.00  0.00     0.200 A 
ATOM     98  F   UNL A   1      47.967  28.593  35.863  1.00  0.00    -0.200 F 
ATOM     99  F   UNL A   1      47.547  26.412  37.447  1.00  0.00    -0.200 F 
ENDBRANCH  66  89
ENDBRANCH  40  41
ENDBRANCH  33  35
ENDBRANCH  32  33
ENDBRANCH  31  32
ENDBRANCH   1  31
TORSDOF 14
ENDMDL
MODEL 3
REMARK VINA RESULT:     -13.5      4.152      9.043
REMARK SMILES C[NH+]1CCC([NH+]2CCC(Oc3ccc4ccccc4c3)(C(=O)OCCOC(=O)c3ccc(-c4c5nc(c(-c6c(F)c(F)c(F)c(F)c6F)c6ccc([nH]6)c(-c6c(F)c(F)c(F)c(F)c6F)c6nc(c(-c7c(F)c(F)c(F)c(F)c7F)c7ccc4[nH]7)C=C6)C=C5)cc3)CC2)CC1
REMARK SMILES IDX 24 1 23 2 21 3 22 4 9 5 6 6 7 7 93 8 8 10 92 11 5 12 1 13
REMARK SMILES IDX 2 14 3 15 95 16 4 18 94 19 10 20 11 21 12 22 20 23 13 24
REMARK SMILES IDX 19 25 14 26 18 27 15 28 17 29 16 30 25 31 26 32 27 33 28 34
REMARK SMILES IDX 29 35 30 36 91 37 31 38 90 39 32 40 33 41 34 42 84 43 35 44
REMARK SMILES IDX 89 45 83 46 85 47 36 48 88 49 82 50 81 51 37 53 69 54 49 55
REMARK SMILES IDX 68 56 50 57 53 58 67 59 86 60 51 61 52 62 66 64 87 65 54 66
REMARK SMILES IDX 38 67 39 68 47 69 40 70 41 71 45 72 48 73 42 74 43 75 46 76
REMARK SMILES IDX 44 77 70 78 71 79 79 80 72 81 73 82 77 83 80 84 74 85 75 86
REMARK SMILES IDX 78 87 76 88 55 89 56 90 64 91 57 92 58 93 62 94 65 95 59 96
REMARK SMILES IDX 60 97 63 98 61 99
REMARK H PARENT 6 9 2 17 85 52 53 63
REMARK Flexibility Score: inf
ROOT
ATOM      1  C   UNL A   1      36.352  22.996  23.576  1.00  0.00     0.274 C 
ENDROOT
BRANCH   1   2
ATOM      2  O   UNL A   1      35.405  23.817  24.294  1.00  0.00    -0.459 OA
BRANCH   2   3
ATOM      3  C   UNL A   1      34.334  24.273  23.581  1.00  0.00     0.351 C 
ATOM      4  O   UNL A   1      34.416  24.726  22.441  1.00  0.00    -0.247 OA
BRANCH   3   5
ATOM      5  C   UNL A   1      33.019  24.250  24.388  1.00  0.00     0.216 C 
ATOM      6  N   UNL A   1      32.136  21.460  24.779  1.00  0.00    -0.332 N 
ATOM      7  C   UNL A   1      33.256  22.003  25.562  1.00  0.00     0.267 C 
ATOM      8  C   UNL A   1      32.085  22.081  23.450  1.00  0.00     0.267 C 
ATOM      9  H   UNL A   1      31.288  21.703  25.291  1.00  0.00     0.348 HD
ATOM     10  C   UNL A   1      33.125  23.517  25.732  1.00  0.00     0.122 C 
ATOM     11  C   UNL A   1      31.915  23.599  23.529  1.00  0.00     0.122 C 
BRANCH   6  12
ATOM     12  C   UNL A   1      32.123  19.974  24.688  1.00  0.00     0.195 C 
ATOM     13  C   UNL A   1      33.453  15.877  24.429  1.00  0.00     0.332 C 
ATOM     14  N   UNL A   1      33.385  17.336  24.479  1.00  0.00    -0.337 N 
ATOM     15  C   UNL A   1      32.850  17.799  25.766  1.00  0.00     0.268 C 
ATOM     16  C   UNL A   1      32.592  17.857  23.363  1.00  0.00     0.268 C 
ATOM     17  H   UNL A   1      34.334  17.699  24.390  1.00  0.00     0.347 HD
ATOM     18  C   UNL A   1      32.891  19.328  25.855  1.00  0.00     0.126 C 
ATOM     19  C   UNL A   1      32.610  19.385  23.352  1.00  0.00     0.126 C 
ENDBRANCH   6  12
BRANCH   5  20
ATOM     20  O   UNL A   1      32.902  25.684  24.610  1.00  0.00    -0.475 OA
BRANCH  20  21
ATOM     21  C   UNL A   1      31.749  26.282  24.207  1.00  0.00     0.121 A 
ATOM     22  C   UNL A   1      30.523  25.817  24.663  1.00  0.00     0.047 A 
ATOM     23  C   UNL A   1      31.825  27.440  23.432  1.00  0.00     0.055 A 
ATOM     24  C   UNL A   1      29.352  26.473  24.287  1.00  0.00     0.012 A 
ATOM     25  C   UNL A   1      30.655  28.119  23.056  1.00  0.00    -0.015 A 
ATOM     26  C   UNL A   1      29.401  27.622  23.483  1.00  0.00    -0.018 A 
ATOM     27  C   UNL A   1      30.696  29.285  22.273  1.00  0.00     0.009 A 
ATOM     28  C   UNL A   1      28.228  28.294  23.110  1.00  0.00     0.009 A 
ATOM     29  C   UNL A   1      29.519  29.945  21.914  1.00  0.00     0.001 A 
ATOM     30  C   UNL A   1      28.287  29.449  22.330  1.00  0.00     0.001 A 
ENDBRANCH  20  21
ENDBRANCH   5  20
ENDBRANCH   3   5
ENDBRANCH   2   3
ENDBRANCH   1   2
BRANCH   1  31
ATOM     31  C   UNL A   1      36.553  21.654  24.274  1.00  0.00     0.275 C 
BRANCH  31  32
ATOM     32  O   UNL A   1      37.010  21.890  25.615  1.00  0.00    -0.458 OA
BRANCH  32  33
ATOM     33  C   UNL A   1      38.301  21.590  25.865  1.00  0.00     0.338 C 
ATOM     34  O   UNL A   1      38.868  20.536  25.603  1.00  0.00    -0.246 OA
BRANCH  33  35
ATOM     35  C   UNL A   1      38.998  22.758  26.460  1.00  0.00     0.060 A 
ATOM     36  C   UNL A   1      38.612  24.068  26.159  1.00  0.00     0.016 A 
ATOM     37  C   UNL A   1      40.142  22.544  27.235  1.00  0.00     0.016 A 
ATOM     38  C   UNL A   1      39.417  25.143  26.533  1.00  0.00     0.010 A 
ATOM     39  C   UNL A   1      40.891  23.631  27.697  1.00  0.00     0.010 A 
ATOM     40  C   UNL A   1      40.552  24.945  27.332  1.00  0.00    -0.014 A 
BRANCH  40  41
ATOM     41  C   UNL A   1      41.367  26.095  27.810  1.00  0.00     0.031 A 
ATOM     42  C   UNL A   1      40.768  27.141  28.710  1.00  0.00     0.074 A 
ATOM     43  C   UNL A   1      42.647  26.226  27.411  1.00  0.00     0.049 A 
ATOM     44  N   UNL A   1      41.214  28.336  29.007  1.00  0.00    -0.248 NA
ATOM     45  C   UNL A   1      39.490  26.802  29.355  1.00  0.00     0.031 C 
ATOM     46  C   UNL A   1      43.379  25.270  26.579  1.00  0.00     0.029 A 
ATOM     47  N   UNL A   1      43.558  27.226  27.645  1.00  0.00    -0.354 N 
ATOM     48  C   UNL A   1      40.244  28.915  29.815  1.00  0.00     0.074 A 
ATOM     49  C   UNL A   1      39.191  27.935  29.980  1.00  0.00     0.031 C 
ATOM     50  C   UNL A   1      44.630  25.713  26.396  1.00  0.00     0.029 A 
ATOM     51  C   UNL A   1      44.759  27.029  27.009  1.00  0.00     0.049 A 
ATOM     52  H   UNL A   1      43.369  28.007  28.214  1.00  0.00     0.167 HD
ATOM     53  C   UNL A   1      40.236  30.156  30.359  1.00  0.00     0.037 A 
ATOM     54  C   UNL A   1      45.825  27.838  26.872  1.00  0.00     0.037 A 
ATOM     55  C   UNL A   1      41.317  31.103  30.245  1.00  0.00     0.049 A 
ATOM     56  C   UNL A   1      45.785  29.216  27.461  1.00  0.00     0.074 A 
ATOM     57  C   UNL A   1      41.410  32.377  30.780  1.00  0.00     0.029 A 
ATOM     58  N   UNL A   1      42.503  30.868  29.567  1.00  0.00    -0.354 N 
ATOM     59  N   UNL A   1      44.826  29.792  28.143  1.00  0.00    -0.248 NA
ATOM     60  C   UNL A   1      46.962  30.066  27.235  1.00  0.00     0.031 C 
ATOM     61  C   UNL A   1      42.642  32.923  30.403  1.00  0.00     0.029 A 
ATOM     62  C   UNL A   1      43.330  31.976  29.663  1.00  0.00     0.049 A 
ATOM     63  H   UNL A   1      42.725  30.037  29.088  1.00  0.00     0.167 HD
ATOM     64  C   UNL A   1      45.278  31.073  28.423  1.00  0.00     0.074 A 
ATOM     65  C   UNL A   1      46.608  31.181  27.858  1.00  0.00     0.031 C 
ATOM     66  C   UNL A   1      44.644  32.071  29.081  1.00  0.00     0.037 A 
BRANCH  53  67
ATOM     67  C   UNL A   1      39.008  30.590  31.104  1.00  0.00     0.064 A 
ATOM     68  C   UNL A   1      38.883  30.421  32.490  1.00  0.00     0.173 A 
ATOM     69  C   UNL A   1      37.974  31.254  30.426  1.00  0.00     0.173 A 
ATOM     70  F   UNL A   1      39.837  29.781  33.180  1.00  0.00    -0.203 F 
ATOM     71  C   UNL A   1      37.762  30.894  33.168  1.00  0.00     0.198 A 
ATOM     72  C   UNL A   1      36.865  31.744  31.110  1.00  0.00     0.198 A 
ATOM     73  F   UNL A   1      38.048  31.444  29.100  1.00  0.00    -0.203 F 
ATOM     74  F   UNL A   1      37.650  30.701  34.490  1.00  0.00    -0.200 F 
ATOM     75  C   UNL A   1      36.759  31.563  32.480  1.00  0.00     0.200 A 
ATOM     76  F   UNL A   1      35.903  32.397  30.445  1.00  0.00    -0.200 F 
ATOM     77  F   UNL A   1      35.689  32.029  33.139  1.00  0.00    -0.200 F 
ENDBRANCH  53  67
BRANCH  54  78
ATOM     78  C   UNL A   1      46.993  27.369  26.085  1.00  0.00     0.064 A 
ATOM     79  C   UNL A   1      47.073  27.607  24.708  1.00  0.00     0.173 A 
ATOM     80  C   UNL A   1      48.073  26.725  26.706  1.00  0.00     0.173 A 
ATOM     81  F   UNL A   1      46.052  28.198  24.070  1.00  0.00    -0.203 F 
ATOM     82  C   UNL A   1      48.197  27.224  23.979  1.00  0.00     0.198 A 
ATOM     83  C   UNL A   1      49.207  26.367  25.981  1.00  0.00     0.198 A 
ATOM     84  F   UNL A   1      48.042  26.478  28.023  1.00  0.00    -0.203 F 
ATOM     85  F   UNL A   1      48.243  27.444  22.659  1.00  0.00    -0.200 F 
ATOM     86  C   UNL A   1      49.267  26.616  24.619  1.00  0.00     0.200 A 
ATOM     87  F   UNL A   1      50.246  25.796  26.607  1.00  0.00    -0.200 F 
ATOM     88  F   UNL A   1      50.358  26.268  23.922  1.00  0.00    -0.200 F 
ENDBRANCH  54  78
BRANCH  66  89
ATOM     89  C   UNL A   1      45.386  33.363  29.228  1.00  0.00     0.064 A 
ATOM     90  C   UNL A   1      45.248  34.392  28.287  1.00  0.00     0.173 A 
ATOM     91  C   UNL A   1      46.232  33.579  30.325  1.00  0.00     0.173 A 
ATOM     92  F   UNL A   1      44.463  34.222  27.211  1.00  0.00    -0.203 F 
ATOM     93  C   UNL A   1      45.948  35.586  28.427  1.00  0.00     0.198 A 
ATOM     94  C   UNL A   1      46.917  34.782  30.473  1.00  0.00     0.198 A 
ATOM     95  F   UNL A   1      46.394  32.623  31.252  1.00  0.00    -0.203 F 
ATOM     96  F   UNL A   1      45.834  36.543  27.495  1.00  0.00    -0.200 F 
ATOM     97  C   UNL A   1      46.779  35.781  29.521  1.00  0.00     0.200 A 
ATOM     98  F   UNL A   1      47.715  34.971  31.533  1.00  0.00    -0.200 F 
ATOM     99  F   UNL A   1      47.455  36.931  29.653  1.00  0.00    -0.200 F 
ENDBRANCH  66  89
ENDBRANCH  40  41
ENDBRANCH  33  35
ENDBRANCH  32  33
ENDBRANCH  31  32
ENDBRANCH   1  31
TORSDOF 14
ENDMDL
