MODEL 1
REMARK VINA RESULT:     -12.2      0.000      0.000
REMARK SMILES CC[C@@]1(C(=O)OCCOC(=O)c2ccc(-c3c4nc(c(-c5c(F)c(F)c(F)c(F)c5F)c5ccc([nH]5)c(-c5c(F)c(F)c(F)c(F)c5F)c5nc(c(-c6c(F)c(F)c(F)c(F)c6F)c6ccc3[nH]6)C=C5)C=C4)cc2)CCC[N@@H+](Cc2ccc(C3CC3)cc2)C1
REMARK SMILES IDX 7 1 6 2 4 3 5 4 3 5 75 6 89 7 76 8 78 9 77 10 2 12 1 13
REMARK SMILES IDX 79 14 80 15 81 16 88 17 82 18 87 19 83 20 84 21 85 22 86 23
REMARK SMILES IDX 8 24 9 25 10 26 11 27 12 28 13 29 74 30 14 31 73 32 15 33
REMARK SMILES IDX 16 34 17 35 67 36 18 37 72 38 66 39 68 40 19 41 71 42 65 43
REMARK SMILES IDX 64 44 20 46 52 47 32 48 51 49 33 50 36 51 50 52 69 53 34 54
REMARK SMILES IDX 35 55 49 57 70 58 37 59 21 60 22 61 30 62 23 63 24 64 28 65
REMARK SMILES IDX 31 66 25 67 26 68 29 69 27 70 53 71 54 72 62 73 55 74 56 75
REMARK SMILES IDX 60 76 63 77 57 78 58 79 61 80 59 81 38 82 39 83 47 84 40 85
REMARK SMILES IDX 41 86 45 87 48 88 42 89 43 90 46 91 44 92
REMARK H PARENT 78 11 68 45 36 56
REMARK Flexibility Score: inf
ROOT
ATOM      1  C   UNL A   1      31.608  28.274  26.010  1.00  0.00     0.274 C 
ENDROOT
BRANCH   1   2
ATOM      2  O   UNL A   1      31.745  28.599  24.613  1.00  0.00    -0.461 OA
BRANCH   2   3
ATOM      3  C   UNL A   1      30.692  29.240  24.042  1.00  0.00     0.317 C 
ATOM      4  O   UNL A   1      30.329  30.365  24.374  1.00  0.00    -0.251 OA
BRANCH   3   5
ATOM      5  C   UNL A   1      29.973  28.416  22.952  1.00  0.00     0.117 C 
ATOM      6  C   UNL A   1      28.801  27.572  23.504  1.00  0.00     0.030 C 
ATOM      7  C   UNL A   1      30.989  27.495  22.243  1.00  0.00     0.281 C 
ATOM      8  C   UNL A   1      29.247  26.279  24.197  1.00  0.00     0.063 C 
ATOM      9  N   UNL A   1      31.421  26.338  23.039  1.00  0.00    -0.330 N 
ATOM     10  C   UNL A   1      30.272  25.492  23.380  1.00  0.00     0.262 C 
ATOM     11  H   UNL A   1      31.818  26.707  23.903  1.00  0.00     0.348 HD
BRANCH   5  12
ATOM     12  C   UNL A   1      29.434  29.499  21.951  1.00  0.00     0.021 C 
ATOM     13  C   UNL A   1      27.946  29.826  22.003  1.00  0.00     0.005 C 
ENDBRANCH   5  12
BRANCH   9  14
ATOM     14  C   UNL A   1      32.517  25.565  22.414  1.00  0.00     0.299 C 
BRANCH  14  15
ATOM     15  C   UNL A   1      33.608  25.042  23.328  1.00  0.00     0.006 A 
ATOM     16  C   UNL A   1      33.948  25.710  24.507  1.00  0.00     0.010 A 
ATOM     17  C   UNL A   1      34.297  23.864  23.017  1.00  0.00     0.010 A 
ATOM     18  C   UNL A   1      34.908  25.175  25.377  1.00  0.00     0.004 A 
ATOM     19  C   UNL A   1      35.237  23.325  23.900  1.00  0.00     0.004 A 
ATOM     20  C   UNL A   1      35.555  23.954  25.114  1.00  0.00    -0.045 A 
BRANCH  20  21
ATOM     21  C   UNL A   1      36.526  23.372  26.127  1.00  0.00     0.019 C 
ATOM     22  C   UNL A   1      37.854  22.803  25.680  1.00  0.00     0.009 C 
ATOM     23  C   UNL A   1      37.814  24.071  26.485  1.00  0.00     0.009 C 
ENDBRANCH  20  21
ENDBRANCH  14  15
ENDBRANCH   9  14
ENDBRANCH   3   5
ENDBRANCH   2   3
ENDBRANCH   1   2
BRANCH   1  24
ATOM     24  C   UNL A   1      31.884  29.493  26.885  1.00  0.00     0.275 C 
BRANCH  24  25
ATOM     25  O   UNL A   1      33.017  30.210  26.368  1.00  0.00    -0.458 OA
BRANCH  25  26
ATOM     26  C   UNL A   1      33.436  31.258  27.112  1.00  0.00     0.338 C 
ATOM     27  O   UNL A   1      32.870  32.328  27.262  1.00  0.00    -0.246 OA
BRANCH  26  28
ATOM     28  C   UNL A   1      34.755  30.960  27.711  1.00  0.00     0.060 A 
ATOM     29  C   UNL A   1      35.133  29.661  28.063  1.00  0.00     0.016 A 
ATOM     30  C   UNL A   1      35.603  32.027  28.004  1.00  0.00     0.016 A 
ATOM     31  C   UNL A   1      36.311  29.434  28.777  1.00  0.00     0.010 A 
ATOM     32  C   UNL A   1      36.827  31.788  28.631  1.00  0.00     0.010 A 
ATOM     33  C   UNL A   1      37.185  30.493  29.046  1.00  0.00    -0.014 A 
BRANCH  33  34
ATOM     34  C   UNL A   1      38.483  30.300  29.745  1.00  0.00     0.031 A 
ATOM     35  C   UNL A   1      39.502  29.361  29.163  1.00  0.00     0.074 A 
ATOM     36  C   UNL A   1      38.714  30.874  30.942  1.00  0.00     0.049 A 
ATOM     37  N   UNL A   1      40.492  28.740  29.751  1.00  0.00    -0.248 NA
ATOM     38  C   UNL A   1      39.367  29.060  27.729  1.00  0.00     0.031 C 
ATOM     39  C   UNL A   1      37.851  31.857  31.597  1.00  0.00     0.029 A 
ATOM     40  N   UNL A   1      39.735  30.678  31.840  1.00  0.00    -0.354 N 
ATOM     41  C   UNL A   1      41.050  27.918  28.780  1.00  0.00     0.074 A 
ATOM     42  C   UNL A   1      40.301  28.134  27.560  1.00  0.00     0.031 C 
ATOM     43  C   UNL A   1      38.370  32.171  32.793  1.00  0.00     0.029 A 
ATOM     44  C   UNL A   1      39.544  31.339  33.030  1.00  0.00     0.049 A 
ATOM     45  H   UNL A   1      40.523  30.118  31.652  1.00  0.00     0.167 HD
ATOM     46  C   UNL A   1      42.084  27.054  28.910  1.00  0.00     0.037 A 
ATOM     47  C   UNL A   1      40.193  31.235  34.205  1.00  0.00     0.037 A 
ATOM     48  C   UNL A   1      42.855  26.895  30.116  1.00  0.00     0.049 A 
ATOM     49  C   UNL A   1      41.317  30.247  34.340  1.00  0.00     0.074 A 
ATOM     50  C   UNL A   1      43.934  26.060  30.350  1.00  0.00     0.029 A 
ATOM     51  N   UNL A   1      42.637  27.604  31.288  1.00  0.00    -0.354 N 
ATOM     52  N   UNL A   1      41.796  29.416  33.448  1.00  0.00    -0.248 NA
ATOM     53  C   UNL A   1      41.975  30.166  35.651  1.00  0.00     0.031 C 
ATOM     54  C   UNL A   1      44.351  26.244  31.672  1.00  0.00     0.029 A 
ATOM     55  C   UNL A   1      43.559  27.223  32.249  1.00  0.00     0.049 A 
ATOM     56  H   UNL A   1      41.931  28.278  31.418  1.00  0.00     0.167 HD
ATOM     57  C   UNL A   1      42.828  28.733  34.077  1.00  0.00     0.074 A 
ATOM     58  C   UNL A   1      42.904  29.247  35.429  1.00  0.00     0.031 C 
ATOM     59  C   UNL A   1      43.637  27.768  33.579  1.00  0.00     0.037 A 
BRANCH  46  60
ATOM     60  C   UNL A   1      42.422  26.183  27.736  1.00  0.00     0.064 A 
ATOM     61  C   UNL A   1      43.448  26.508  26.839  1.00  0.00     0.173 A 
ATOM     62  C   UNL A   1      41.735  24.974  27.538  1.00  0.00     0.173 A 
ATOM     63  F   UNL A   1      44.128  27.656  26.980  1.00  0.00    -0.203 F 
ATOM     64  C   UNL A   1      43.761  25.665  25.775  1.00  0.00     0.198 A 
ATOM     65  C   UNL A   1      42.069  24.122  26.489  1.00  0.00     0.198 A 
ATOM     66  F   UNL A   1      40.748  24.612  28.373  1.00  0.00    -0.203 F 
ATOM     67  F   UNL A   1      44.723  26.013  24.908  1.00  0.00    -0.200 F 
ATOM     68  C   UNL A   1      43.078  24.470  25.605  1.00  0.00     0.200 A 
ATOM     69  F   UNL A   1      41.415  22.961  26.336  1.00  0.00    -0.200 F 
ATOM     70  F   UNL A   1      43.388  23.656  24.588  1.00  0.00    -0.200 F 
ENDBRANCH  46  60
BRANCH  47  71
ATOM     71  C   UNL A   1      39.753  32.058  35.361  1.00  0.00     0.064 A 
ATOM     72  C   UNL A   1      38.763  31.593  36.236  1.00  0.00     0.173 A 
ATOM     73  C   UNL A   1      40.327  33.311  35.628  1.00  0.00     0.173 A 
ATOM     74  F   UNL A   1      38.169  30.413  36.006  1.00  0.00    -0.203 F 
ATOM     75  C   UNL A   1      38.361  32.351  37.333  1.00  0.00     0.198 A 
ATOM     76  C   UNL A   1      39.944  34.055  36.742  1.00  0.00     0.198 A 
ATOM     77  F   UNL A   1      41.279  33.800  34.820  1.00  0.00    -0.203 F 
ATOM     78  F   UNL A   1      37.389  31.897  38.137  1.00  0.00    -0.200 F 
ATOM     79  C   UNL A   1      38.958  33.577  37.591  1.00  0.00     0.200 A 
ATOM     80  F   UNL A   1      40.534  35.231  36.995  1.00  0.00    -0.200 F 
ATOM     81  F   UNL A   1      38.579  34.298  38.654  1.00  0.00    -0.200 F 
ENDBRANCH  47  71
BRANCH  59  82
ATOM     82  C   UNL A   1      44.718  27.247  34.475  1.00  0.00     0.064 A 
ATOM     83  C   UNL A   1      45.952  27.900  34.598  1.00  0.00     0.173 A 
ATOM     84  C   UNL A   1      44.488  26.111  35.266  1.00  0.00     0.173 A 
ATOM     85  F   UNL A   1      46.221  28.980  33.849  1.00  0.00    -0.203 F 
ATOM     86  C   UNL A   1      46.923  27.428  35.476  1.00  0.00     0.198 A 
ATOM     87  C   UNL A   1      45.453  25.655  36.159  1.00  0.00     0.198 A 
ATOM     88  F   UNL A   1      43.321  25.455  35.184  1.00  0.00    -0.203 F 
ATOM     89  F   UNL A   1      48.107  28.050  35.560  1.00  0.00    -0.200 F 
ATOM     90  C   UNL A   1      46.670  26.312  36.262  1.00  0.00     0.200 A 
ATOM     91  F   UNL A   1      45.204  24.582  36.922  1.00  0.00    -0.200 F 
ATOM     92  F   UNL A   1      47.602  25.866  37.115  1.00  0.00    -0.200 F 
ENDBRANCH  59  82
ENDBRANCH  33  34
ENDBRANCH  26  28
ENDBRANCH  25  26
ENDBRANCH  24  25
ENDBRANCH   1  24
TORSDOF 15
ENDMDL
MODEL 2
REMARK VINA RESULT:     -12.1      0.963      3.730
REMARK SMILES CC[C@@]1(C(=O)OCCOC(=O)c2ccc(-c3c4nc(c(-c5c(F)c(F)c(F)c(F)c5F)c5ccc([nH]5)c(-c5c(F)c(F)c(F)c(F)c5F)c5nc(c(-c6c(F)c(F)c(F)c(F)c6F)c6ccc3[nH]6)C=C5)C=C4)cc2)CCC[N@@H+](Cc2ccc(C3CC3)cc2)C1
REMARK SMILES IDX 7 1 6 2 4 3 5 4 3 5 75 6 89 7 76 8 78 9 77 10 2 12 1 13
REMARK SMILES IDX 79 14 80 15 81 16 88 17 82 18 87 19 83 20 84 21 85 22 86 23
REMARK SMILES IDX 8 24 9 25 10 26 11 27 12 28 13 29 74 30 14 31 73 32 15 33
REMARK SMILES IDX 16 34 17 35 67 36 18 37 72 38 66 39 68 40 19 41 71 42 65 43
REMARK SMILES IDX 64 44 20 46 52 47 32 48 51 49 33 50 36 51 50 52 69 53 34 54
REMARK SMILES IDX 35 55 49 57 70 58 37 59 21 60 22 61 30 62 23 63 24 64 28 65
REMARK SMILES IDX 31 66 25 67 26 68 29 69 27 70 53 71 54 72 62 73 55 74 56 75
REMARK SMILES IDX 60 76 63 77 57 78 58 79 61 80 59 81 38 82 39 83 47 84 40 85
REMARK SMILES IDX 41 86 45 87 48 88 42 89 43 90 46 91 44 92
REMARK H PARENT 78 11 68 45 36 56
REMARK Flexibility Score: inf
ROOT
ATOM      1  C   UNL A   1      32.031  28.204  27.001  1.00  0.00     0.274 C 
ENDROOT
BRANCH   1   2
ATOM      2  O   UNL A   1      32.345  27.579  25.740  1.00  0.00    -0.461 OA
BRANCH   2   3
ATOM      3  C   UNL A   1      33.261  26.576  25.782  1.00  0.00     0.317 C 
ATOM      4  O   UNL A   1      34.410  26.729  26.187  1.00  0.00    -0.251 OA
BRANCH   3   5
ATOM      5  C   UNL A   1      32.734  25.226  25.251  1.00  0.00     0.117 C 
ATOM      6  C   UNL A   1      33.507  24.719  24.012  1.00  0.00     0.030 C 
ATOM      7  C   UNL A   1      31.233  25.350  24.912  1.00  0.00     0.281 C 
ATOM      8  C   UNL A   1      33.091  25.403  22.705  1.00  0.00     0.063 C 
ATOM      9  N   UNL A   1      30.946  26.110  23.689  1.00  0.00    -0.330 N 
ATOM     10  C   UNL A   1      31.574  25.470  22.528  1.00  0.00     0.262 C 
ATOM     11  H   UNL A   1      31.361  27.034  23.811  1.00  0.00     0.348 HD
BRANCH   5  12
ATOM     12  C   UNL A   1      32.937  24.239  26.455  1.00  0.00     0.021 C 
ATOM     13  C   UNL A   1      34.159  23.329  26.420  1.00  0.00     0.005 C 
ENDBRANCH   5  12
BRANCH   9  14
ATOM     14  C   UNL A   1      29.504  26.364  23.473  1.00  0.00     0.299 C 
BRANCH  14  15
ATOM     15  C   UNL A   1      29.056  27.811  23.403  1.00  0.00     0.006 A 
ATOM     16  C   UNL A   1      29.973  28.860  23.503  1.00  0.00     0.010 A 
ATOM     17  C   UNL A   1      27.705  28.133  23.223  1.00  0.00     0.010 A 
ATOM     18  C   UNL A   1      29.553  30.190  23.365  1.00  0.00     0.004 A 
ATOM     19  C   UNL A   1      27.297  29.460  23.063  1.00  0.00     0.004 A 
ATOM     20  C   UNL A   1      28.210  30.526  23.109  1.00  0.00    -0.045 A 
BRANCH  20  21
ATOM     21  C   UNL A   1      27.816  31.975  22.882  1.00  0.00     0.019 C 
ATOM     22  C   UNL A   1      28.869  33.059  22.842  1.00  0.00     0.009 C 
ATOM     23  C   UNL A   1      28.127  32.689  21.590  1.00  0.00     0.009 C 
ENDBRANCH  20  21
ENDBRANCH  14  15
ENDBRANCH   9  14
ENDBRANCH   3   5
ENDBRANCH   2   3
ENDBRANCH   1   2
BRANCH   1  24
ATOM     24  C   UNL A   1      31.738  29.690  26.818  1.00  0.00     0.275 C 
BRANCH  24  25
ATOM     25  O   UNL A   1      32.918  30.360  26.348  1.00  0.00    -0.458 OA
BRANCH  25  26
ATOM     26  C   UNL A   1      33.333  31.408  27.093  1.00  0.00     0.338 C 
ATOM     27  O   UNL A   1      32.766  32.478  27.238  1.00  0.00    -0.246 OA
BRANCH  26  28
ATOM     28  C   UNL A   1      34.648  31.109  27.701  1.00  0.00     0.060 A 
ATOM     29  C   UNL A   1      35.004  29.819  28.102  1.00  0.00     0.016 A 
ATOM     30  C   UNL A   1      35.516  32.172  27.951  1.00  0.00     0.016 A 
ATOM     31  C   UNL A   1      36.179  29.599  28.822  1.00  0.00     0.010 A 
ATOM     32  C   UNL A   1      36.737  31.935  28.584  1.00  0.00     0.010 A 
ATOM     33  C   UNL A   1      37.073  30.651  29.048  1.00  0.00    -0.014 A 
BRANCH  33  34
ATOM     34  C   UNL A   1      38.369  30.462  29.751  1.00  0.00     0.031 A 
ATOM     35  C   UNL A   1      39.403  29.546  29.159  1.00  0.00     0.074 A 
ATOM     36  C   UNL A   1      38.586  31.018  30.959  1.00  0.00     0.049 A 
ATOM     37  N   UNL A   1      40.397  28.927  29.742  1.00  0.00    -0.248 NA
ATOM     38  C   UNL A   1      39.280  29.269  27.719  1.00  0.00     0.031 C 
ATOM     39  C   UNL A   1      37.707  31.979  31.626  1.00  0.00     0.029 A 
ATOM     40  N   UNL A   1      39.604  30.818  31.860  1.00  0.00    -0.354 N 
ATOM     41  C   UNL A   1      40.971  28.130  28.760  1.00  0.00     0.074 A 
ATOM     42  C   UNL A   1      40.227  28.358  27.540  1.00  0.00     0.031 C 
ATOM     43  C   UNL A   1      38.215  32.277  32.831  1.00  0.00     0.029 A 
ATOM     44  C   UNL A   1      39.398  31.456  33.060  1.00  0.00     0.049 A 
ATOM     45  H   UNL A   1      40.401  30.272  31.667  1.00  0.00     0.167 HD
ATOM     46  C   UNL A   1      42.015  27.276  28.881  1.00  0.00     0.037 A 
ATOM     47  C   UNL A   1      40.042  31.340  34.237  1.00  0.00     0.037 A 
ATOM     48  C   UNL A   1      42.781  27.105  30.089  1.00  0.00     0.049 A 
ATOM     49  C   UNL A   1      41.177  30.363  34.362  1.00  0.00     0.074 A 
ATOM     50  C   UNL A   1      43.869  26.280  30.314  1.00  0.00     0.029 A 
ATOM     51  N   UNL A   1      42.547  27.791  31.272  1.00  0.00    -0.354 N 
ATOM     52  N   UNL A   1      41.672  29.555  33.458  1.00  0.00    -0.248 NA
ATOM     53  C   UNL A   1      41.828  30.267  35.675  1.00  0.00     0.031 C 
ATOM     54  C   UNL A   1      44.276  26.446  31.643  1.00  0.00     0.029 A 
ATOM     55  C   UNL A   1      43.469  27.405  32.231  1.00  0.00     0.049 A 
ATOM     56  H   UNL A   1      41.833  28.454  31.409  1.00  0.00     0.167 HD
ATOM     57  C   UNL A   1      42.708  28.873  34.082  1.00  0.00     0.074 A 
ATOM     58  C   UNL A   1      42.770  29.364  35.443  1.00  0.00     0.031 C 
ATOM     59  C   UNL A   1      43.532  27.927  33.572  1.00  0.00     0.037 A 
BRANCH  46  60
ATOM     60  C   UNL A   1      42.371  26.430  27.694  1.00  0.00     0.064 A 
ATOM     61  C   UNL A   1      43.392  26.788  26.805  1.00  0.00     0.173 A 
ATOM     62  C   UNL A   1      41.706  25.212  27.476  1.00  0.00     0.173 A 
ATOM     63  F   UNL A   1      44.051  27.946  26.965  1.00  0.00    -0.203 F 
ATOM     64  C   UNL A   1      43.723  25.968  25.728  1.00  0.00     0.198 A 
ATOM     65  C   UNL A   1      42.058  24.383  26.414  1.00  0.00     0.198 A 
ATOM     66  F   UNL A   1      40.725  24.819  28.302  1.00  0.00    -0.203 F 
ATOM     67  F   UNL A   1      44.679  26.347  24.868  1.00  0.00    -0.200 F 
ATOM     68  C   UNL A   1      43.061  24.763  25.538  1.00  0.00     0.200 A 
ATOM     69  F   UNL A   1      41.426  23.213  26.241  1.00  0.00    -0.200 F 
ATOM     70  F   UNL A   1      43.388  23.972  24.508  1.00  0.00    -0.200 F 
ENDBRANCH  46  60
BRANCH  47  71
ATOM     71  C   UNL A   1      39.585  32.137  35.404  1.00  0.00     0.064 A 
ATOM     72  C   UNL A   1      38.645  31.616  36.304  1.00  0.00     0.173 A 
ATOM     73  C   UNL A   1      40.092  33.420  35.659  1.00  0.00     0.173 A 
ATOM     74  F   UNL A   1      38.114  30.404  36.088  1.00  0.00    -0.203 F 
ATOM     75  C   UNL A   1      38.228  32.350  37.411  1.00  0.00     0.198 A 
ATOM     76  C   UNL A   1      39.696  34.141  36.783  1.00  0.00     0.198 A 
ATOM     77  F   UNL A   1      40.994  33.962  34.828  1.00  0.00    -0.203 F 
ATOM     78  F   UNL A   1      37.304  31.842  38.239  1.00  0.00    -0.200 F 
ATOM     79  C   UNL A   1      38.760  33.608  37.656  1.00  0.00     0.200 A 
ATOM     80  F   UNL A   1      40.223  35.349  37.022  1.00  0.00    -0.200 F 
ATOM     81  F   UNL A   1      38.367  34.306  38.729  1.00  0.00    -0.200 F 
ENDBRANCH  47  71
BRANCH  59  82
ATOM     82  C   UNL A   1      44.614  27.404  34.465  1.00  0.00     0.064 A 
ATOM     83  C   UNL A   1      45.857  28.042  34.568  1.00  0.00     0.173 A 
ATOM     84  C   UNL A   1      44.377  26.282  35.273  1.00  0.00     0.173 A 
ATOM     85  F   UNL A   1      46.134  29.108  33.802  1.00  0.00    -0.203 F 
ATOM     86  C   UNL A   1      46.830  27.569  35.444  1.00  0.00     0.198 A 
ATOM     87  C   UNL A   1      45.344  25.825  36.163  1.00  0.00     0.198 A 
ATOM     88  F   UNL A   1      43.201  25.640  35.210  1.00  0.00    -0.203 F 
ATOM     89  F   UNL A   1      48.024  28.177  35.508  1.00  0.00    -0.200 F 
ATOM     90  C   UNL A   1      46.570  26.467  36.246  1.00  0.00     0.200 A 
ATOM     91  F   UNL A   1      45.087  24.766  36.943  1.00  0.00    -0.200 F 
ATOM     92  F   UNL A   1      47.504  26.021  37.097  1.00  0.00    -0.200 F 
ENDBRANCH  59  82
ENDBRANCH  33  34
ENDBRANCH  26  28
ENDBRANCH  25  26
ENDBRANCH  24  25
ENDBRANCH   1  24
TORSDOF 15
ENDMDL
MODEL 3
REMARK VINA RESULT:     -12.0      1.619      2.137
REMARK SMILES CC[C@@]1(C(=O)OCCOC(=O)c2ccc(-c3c4nc(c(-c5c(F)c(F)c(F)c(F)c5F)c5ccc([nH]5)c(-c5c(F)c(F)c(F)c(F)c5F)c5nc(c(-c6c(F)c(F)c(F)c(F)c6F)c6ccc3[nH]6)C=C5)C=C4)cc2)CCC[N@@H+](Cc2ccc(C3CC3)cc2)C1
REMARK SMILES IDX 7 1 6 2 4 3 5 4 3 5 75 6 89 7 76 8 78 9 77 10 2 12 1 13
REMARK SMILES IDX 79 14 80 15 81 16 88 17 82 18 87 19 83 20 84 21 85 22 86 23
REMARK SMILES IDX 8 24 9 25 10 26 11 27 12 28 13 29 74 30 14 31 73 32 15 33
REMARK SMILES IDX 16 34 17 35 67 36 18 37 72 38 66 39 68 40 19 41 71 42 65 43
REMARK SMILES IDX 64 44 20 46 52 47 32 48 51 49 33 50 36 51 50 52 69 53 34 54
REMARK SMILES IDX 35 55 49 57 70 58 37 59 21 60 22 61 30 62 23 63 24 64 28 65
REMARK SMILES IDX 31 66 25 67 26 68 29 69 27 70 53 71 54 72 62 73 55 74 56 75
REMARK SMILES IDX 60 76 63 77 57 78 58 79 61 80 59 81 38 82 39 83 47 84 40 85
REMARK SMILES IDX 41 86 45 87 48 88 42 89 43 90 46 91 44 92
REMARK H PARENT 78 11 68 45 36 56
REMARK Flexibility Score: inf
ROOT
ATOM      1  C   UNL A   1      31.856  28.645  27.260  1.00  0.00     0.274 C 
ENDROOT
BRANCH   1   2
ATOM      2  O   UNL A   1      31.382  27.668  26.312  1.00  0.00    -0.461 OA
BRANCH   2   3
ATOM      3  C   UNL A   1      32.308  27.174  25.450  1.00  0.00     0.317 C 
ATOM      4  O   UNL A   1      33.413  26.773  25.806  1.00  0.00    -0.251 OA
BRANCH   3   5
ATOM      5  C   UNL A   1      31.857  27.182  23.974  1.00  0.00     0.117 C 
ATOM      6  C   UNL A   1      30.343  26.924  23.800  1.00  0.00     0.030 C 
ATOM      7  C   UNL A   1      32.659  26.128  23.179  1.00  0.00     0.281 C 
ATOM      8  C   UNL A   1      29.953  25.446  23.918  1.00  0.00     0.063 C 
ATOM      9  N   UNL A   1      32.265  24.738  23.444  1.00  0.00    -0.330 N 
ATOM     10  C   UNL A   1      30.857  24.528  23.094  1.00  0.00     0.262 C 
ATOM     11  H   UNL A   1      32.374  24.587  24.446  1.00  0.00     0.348 HD
BRANCH   5  12
ATOM     12  C   UNL A   1      32.219  28.626  23.474  1.00  0.00     0.021 C 
ATOM     13  C   UNL A   1      33.557  28.811  22.768  1.00  0.00     0.005 C 
ENDBRANCH   5  12
BRANCH   9  14
ATOM     14  C   UNL A   1      33.153  23.740  22.808  1.00  0.00     0.299 C 
BRANCH  14  15
ATOM     15  C   UNL A   1      32.939  22.285  23.177  1.00  0.00     0.006 A 
ATOM     16  C   UNL A   1      32.232  21.420  22.339  1.00  0.00     0.010 A 
ATOM     17  C   UNL A   1      33.460  21.767  24.369  1.00  0.00     0.010 A 
ATOM     18  C   UNL A   1      32.105  20.062  22.660  1.00  0.00     0.004 A 
ATOM     19  C   UNL A   1      33.349  20.406  24.672  1.00  0.00     0.004 A 
ATOM     20  C   UNL A   1      32.686  19.511  23.818  1.00  0.00    -0.045 A 
BRANCH  20  21
ATOM     21  C   UNL A   1      32.595  18.018  24.080  1.00  0.00     0.019 C 
ATOM     22  C   UNL A   1      33.514  17.054  23.364  1.00  0.00     0.009 C 
ATOM     23  C   UNL A   1      33.666  17.278  24.842  1.00  0.00     0.009 C 
ENDBRANCH  20  21
ENDBRANCH  14  15
ENDBRANCH   9  14
ENDBRANCH   3   5
ENDBRANCH   2   3
ENDBRANCH   1   2
BRANCH   1  24
ATOM     24  C   UNL A   1      31.791  30.053  26.674  1.00  0.00     0.275 C 
BRANCH  24  25
ATOM     25  O   UNL A   1      33.122  30.535  26.428  1.00  0.00    -0.458 OA
BRANCH  25  26
ATOM     26  C   UNL A   1      33.540  31.537  27.233  1.00  0.00     0.338 C 
ATOM     27  O   UNL A   1      32.982  32.602  27.434  1.00  0.00    -0.246 OA
BRANCH  26  28
ATOM     28  C   UNL A   1      34.848  31.192  27.833  1.00  0.00     0.060 A 
ATOM     29  C   UNL A   1      35.133  29.907  28.303  1.00  0.00     0.016 A 
ATOM     30  C   UNL A   1      35.785  32.211  28.002  1.00  0.00     0.016 A 
ATOM     31  C   UNL A   1      36.309  29.657  29.013  1.00  0.00     0.010 A 
ATOM     32  C   UNL A   1      37.003  31.936  28.625  1.00  0.00     0.010 A 
ATOM     33  C   UNL A   1      37.270  30.662  29.158  1.00  0.00    -0.014 A 
BRANCH  33  34
ATOM     34  C   UNL A   1      38.568  30.434  29.847  1.00  0.00     0.031 A 
ATOM     35  C   UNL A   1      39.569  29.492  29.241  1.00  0.00     0.074 A 
ATOM     36  C   UNL A   1      38.813  30.979  31.055  1.00  0.00     0.049 A 
ATOM     37  N   UNL A   1      40.552  28.843  29.811  1.00  0.00    -0.248 NA
ATOM     38  C   UNL A   1      39.423  29.224  27.801  1.00  0.00     0.031 C 
ATOM     39  C   UNL A   1      37.968  31.961  31.735  1.00  0.00     0.029 A 
ATOM     40  N   UNL A   1      39.835  30.747  31.944  1.00  0.00    -0.354 N 
ATOM     41  C   UNL A   1      41.093  28.034  28.819  1.00  0.00     0.074 A 
ATOM     42  C   UNL A   1      40.342  28.288  27.608  1.00  0.00     0.031 C 
ATOM     43  C   UNL A   1      38.498  32.241  32.935  1.00  0.00     0.029 A 
ATOM     44  C   UNL A   1      39.660  31.386  33.148  1.00  0.00     0.049 A 
ATOM     45  H   UNL A   1      40.613  30.180  31.740  1.00  0.00     0.167 HD
ATOM     46  C   UNL A   1      42.114  27.151  28.926  1.00  0.00     0.037 A 
ATOM     47  C   UNL A   1      40.312  31.247  34.318  1.00  0.00     0.037 A 
ATOM     48  C   UNL A   1      42.887  26.954  30.125  1.00  0.00     0.049 A 
ATOM     49  C   UNL A   1      41.420  30.238  34.427  1.00  0.00     0.074 A 
ATOM     50  C   UNL A   1      43.954  26.097  30.336  1.00  0.00     0.029 A 
ATOM     51  N   UNL A   1      42.685  27.641  31.313  1.00  0.00    -0.354 N 
ATOM     52  N   UNL A   1      41.883  29.420  33.514  1.00  0.00    -0.248 NA
ATOM     53  C   UNL A   1      42.082  30.119  35.732  1.00  0.00     0.031 C 
ATOM     54  C   UNL A   1      44.379  26.246  31.660  1.00  0.00     0.029 A 
ATOM     55  C   UNL A   1      43.606  27.225  32.261  1.00  0.00     0.049 A 
ATOM     56  H   UNL A   1      41.991  28.323  31.460  1.00  0.00     0.167 HD
ATOM     57  C   UNL A   1      42.906  28.707  34.124  1.00  0.00     0.074 A 
ATOM     58  C   UNL A   1      42.997  29.191  35.487  1.00  0.00     0.031 C 
ATOM     59  C   UNL A   1      43.697  27.740  33.602  1.00  0.00     0.037 A 
BRANCH  46  60
ATOM     60  C   UNL A   1      42.433  26.300  27.732  1.00  0.00     0.064 A 
ATOM     61  C   UNL A   1      43.433  26.649  26.816  1.00  0.00     0.173 A 
ATOM     62  C   UNL A   1      41.753  25.087  27.533  1.00  0.00     0.173 A 
ATOM     63  F   UNL A   1      44.105  27.801  26.957  1.00  0.00    -0.203 F 
ATOM     64  C   UNL A   1      43.730  25.824  25.733  1.00  0.00     0.198 A 
ATOM     65  C   UNL A   1      42.071  24.253  26.465  1.00  0.00     0.198 A 
ATOM     66  F   UNL A   1      40.791  24.702  28.386  1.00  0.00    -0.203 F 
ATOM     67  F   UNL A   1      44.667  26.194  24.849  1.00  0.00    -0.200 F 
ATOM     68  C   UNL A   1      43.055  24.624  25.562  1.00  0.00     0.200 A 
ATOM     69  F   UNL A   1      41.427  23.087  26.311  1.00  0.00    -0.200 F 
ATOM     70  F   UNL A   1      43.350  23.828  24.527  1.00  0.00    -0.200 F 
ENDBRANCH  46  60
BRANCH  47  71
ATOM     71  C   UNL A   1      39.890  32.051  35.493  1.00  0.00     0.064 A 
ATOM     72  C   UNL A   1      38.874  31.598  36.345  1.00  0.00     0.173 A 
ATOM     73  C   UNL A   1      40.506  33.273  35.803  1.00  0.00     0.173 A 
ATOM     74  F   UNL A   1      38.239  30.448  36.074  1.00  0.00    -0.203 F 
ATOM     75  C   UNL A   1      38.488  32.338  37.459  1.00  0.00     0.198 A 
ATOM     76  C   UNL A   1      40.140  33.998  36.935  1.00  0.00     0.198 A 
ATOM     77  F   UNL A   1      41.485  33.750  35.019  1.00  0.00    -0.203 F 
ATOM     78  F   UNL A   1      37.491  31.898  38.240  1.00  0.00    -0.200 F 
ATOM     79  C   UNL A   1      39.127  33.533  37.759  1.00  0.00     0.200 A 
ATOM     80  F   UNL A   1      40.769  35.144  37.228  1.00  0.00    -0.200 F 
ATOM     81  F   UNL A   1      38.763  34.236  38.839  1.00  0.00    -0.200 F 
ENDBRANCH  47  71
BRANCH  59  82
ATOM     82  C   UNL A   1      44.775  27.183  34.482  1.00  0.00     0.064 A 
ATOM     83  C   UNL A   1      46.033  27.791  34.580  1.00  0.00     0.173 A 
ATOM     84  C   UNL A   1      44.517  26.060  35.282  1.00  0.00     0.173 A 
ATOM     85  F   UNL A   1      46.329  28.857  33.823  1.00  0.00    -0.203 F 
ATOM     86  C   UNL A   1      47.001  27.287  35.444  1.00  0.00     0.198 A 
ATOM     87  C   UNL A   1      45.479  25.571  36.160  1.00  0.00     0.198 A 
ATOM     88  F   UNL A   1      43.325  25.446  35.223  1.00  0.00    -0.203 F 
ATOM     89  F   UNL A   1      48.209  27.865  35.505  1.00  0.00    -0.200 F 
ATOM     90  C   UNL A   1      46.721  26.184  36.239  1.00  0.00     0.200 A 
ATOM     91  F   UNL A   1      45.204  24.512  36.932  1.00  0.00    -0.200 F 
ATOM     92  F   UNL A   1      47.651  25.707  37.077  1.00  0.00    -0.200 F 
ENDBRANCH  59  82
ENDBRANCH  33  34
ENDBRANCH  26  28
ENDBRANCH  25  26
ENDBRANCH  24  25
ENDBRANCH   1  24
TORSDOF 15
ENDMDL
