MODEL 1
REMARK VINA RESULT:     -11.8      0.000      0.000
REMARK SMILES Cc1ccc(S(=O)(=O)N[C@H]2C=C[C@@H](C(=O)OCCOC(=O)c3ccc(-c4c5nc(c(-c6c(F)c(F)c(F)c(F)c6F)c6ccc([nH]6)c(-c6c(F)c(F)c(F)c(F)c6F)c6nc(c(-c7c(F)c(F)c(F)c(F)c7F)c7ccc4[nH]7)C=C6)C=C5)cc3)C2)c(C)c1
REMARK SMILES IDX 17 1 16 2 14 3 15 4 13 5 10 6 11 7 85 8 12 9 9 10 6 12 7 13
REMARK SMILES IDX 8 14 5 15 1 16 2 17 3 18 88 19 4 20 86 21 87 22 18 23 19 24
REMARK SMILES IDX 20 25 21 26 22 27 23 28 84 29 24 30 83 31 25 32 26 33 27 34
REMARK SMILES IDX 77 35 28 36 82 37 76 38 78 39 29 40 81 41 75 42 74 43 30 45
REMARK SMILES IDX 62 46 42 47 61 48 43 49 46 50 60 51 79 52 44 53 45 54 59 56
REMARK SMILES IDX 80 57 47 58 31 59 32 60 40 61 33 62 34 63 38 64 41 65 35 66
REMARK SMILES IDX 36 67 39 68 37 69 63 70 64 71 72 72 65 73 66 74 70 75 73 76
REMARK SMILES IDX 67 77 68 78 71 79 69 80 48 81 49 82 57 83 50 84 51 85 55 86
REMARK SMILES IDX 58 87 52 88 53 89 56 90 54 91
REMARK H PARENT 9 11 78 44 46 55
REMARK Flexibility Score: inf
ROOT
ATOM      1  C   UNL A   1      33.934  35.322  28.497  1.00  0.00     0.274 C 
ENDROOT
BRANCH   1   2
ATOM      2  O   UNL A   1      33.693  33.908  28.598  1.00  0.00    -0.462 OA
BRANCH   2   3
ATOM      3  C   UNL A   1      34.654  33.083  28.110  1.00  0.00     0.312 C 
ATOM      4  O   UNL A   1      35.717  33.460  27.625  1.00  0.00    -0.252 OA
BRANCH   3   5
ATOM      5  C   UNL A   1      34.320  31.608  28.281  1.00  0.00     0.123 C 
ATOM      6  C   UNL A   1      33.741  29.552  27.104  1.00  0.00     0.093 C 
ATOM      7  C   UNL A   1      35.174  29.583  27.510  1.00  0.00    -0.011 C 
ATOM      8  C   UNL A   1      33.289  31.002  27.327  1.00  0.00     0.043 C 
ATOM      9  C   UNL A   1      35.507  30.718  28.130  1.00  0.00    -0.015 C 
BRANCH   6  10
ATOM     10  N   UNL A   1      33.502  29.200  25.716  1.00  0.00    -0.204 NA
ATOM     11  H   UNL A   1      32.928  29.956  25.344  1.00  0.00     0.142 HD
BRANCH  10  12
ATOM     12  S   UNL A   1      32.788  27.798  25.165  1.00  0.00     0.241 S 
ATOM     13  O   UNL A   1      32.398  27.033  26.334  1.00  0.00    -0.207 OA
ATOM     14  O   UNL A   1      33.691  27.260  24.177  1.00  0.00    -0.207 OA
BRANCH  12  15
ATOM     15  C   UNL A   1      31.318  28.319  24.298  1.00  0.00     0.085 A 
ATOM     16  C   UNL A   1      27.653  29.702  22.493  1.00  0.00     0.044 C 
ATOM     17  C   UNL A   1      28.930  29.236  23.126  1.00  0.00    -0.051 A 
ATOM     18  C   UNL A   1      29.833  30.145  23.675  1.00  0.00     0.005 A 
ATOM     19  C   UNL A   1      29.253  27.872  23.127  1.00  0.00     0.008 A 
ATOM     20  C   UNL A   1      31.024  29.692  24.248  1.00  0.00     0.022 A 
ATOM     21  C   UNL A   1      30.448  27.392  23.697  1.00  0.00    -0.031 A 
ATOM     22  C   UNL A   1      30.708  25.915  23.584  1.00  0.00     0.046 C 
ENDBRANCH  12  15
ENDBRANCH  10  12
ENDBRANCH   6  10
ENDBRANCH   3   5
ENDBRANCH   2   3
ENDBRANCH   1   2
BRANCH   1  23
ATOM     23  C   UNL A   1      32.918  36.100  29.338  1.00  0.00     0.275 C 
BRANCH  23  24
ATOM     24  O   UNL A   1      32.430  35.325  30.453  1.00  0.00    -0.458 OA
BRANCH  24  25
ATOM     25  C   UNL A   1      32.738  35.822  31.673  1.00  0.00     0.338 C 
ATOM     26  O   UNL A   1      32.147  36.692  32.292  1.00  0.00    -0.246 OA
BRANCH  25  27
ATOM     27  C   UNL A   1      33.848  35.065  32.272  1.00  0.00     0.060 A 
ATOM     28  C   UNL A   1      35.130  35.592  32.130  1.00  0.00     0.016 A 
ATOM     29  C   UNL A   1      33.667  33.804  32.834  1.00  0.00     0.016 A 
ATOM     30  C   UNL A   1      36.246  34.860  32.509  1.00  0.00     0.010 A 
ATOM     31  C   UNL A   1      34.791  33.076  33.251  1.00  0.00     0.010 A 
ATOM     32  C   UNL A   1      36.089  33.593  33.076  1.00  0.00    -0.014 A 
BRANCH  32  33
ATOM     33  C   UNL A   1      37.299  32.813  33.442  1.00  0.00     0.031 A 
ATOM     34  C   UNL A   1      37.981  33.056  34.758  1.00  0.00     0.074 A 
ATOM     35  C   UNL A   1      37.745  31.848  32.615  1.00  0.00     0.049 A 
ATOM     36  N   UNL A   1      39.096  32.549  35.219  1.00  0.00    -0.248 NA
ATOM     37  C   UNL A   1      37.322  33.992  35.682  1.00  0.00     0.031 C 
ATOM     38  C   UNL A   1      37.126  31.472  31.342  1.00  0.00     0.029 A 
ATOM     39  N   UNL A   1      38.819  31.001  32.723  1.00  0.00    -0.354 N 
ATOM     40  C   UNL A   1      39.283  33.118  36.471  1.00  0.00     0.074 A 
ATOM     41  C   UNL A   1      38.178  34.026  36.693  1.00  0.00     0.031 C 
ATOM     42  C   UNL A   1      37.824  30.466  30.793  1.00  0.00     0.029 A 
ATOM     43  C   UNL A   1      38.975  30.171  31.639  1.00  0.00     0.049 A 
ATOM     44  H   UNL A   1      39.421  30.988  33.503  1.00  0.00     0.167 HD
ATOM     45  C   UNL A   1      40.286  32.896  37.355  1.00  0.00     0.037 A 
ATOM     46  C   UNL A   1      39.959  29.302  31.342  1.00  0.00     0.037 A 
ATOM     47  C   UNL A   1      41.372  31.977  37.134  1.00  0.00     0.049 A 
ATOM     48  C   UNL A   1      41.102  29.138  32.309  1.00  0.00     0.074 A 
ATOM     49  C   UNL A   1      42.447  31.696  37.958  1.00  0.00     0.029 A 
ATOM     50  N   UNL A   1      41.516  31.183  36.005  1.00  0.00    -0.354 N 
ATOM     51  N   UNL A   1      41.287  29.704  33.476  1.00  0.00    -0.248 NA
ATOM     52  C   UNL A   1      42.176  28.217  31.911  1.00  0.00     0.031 C 
ATOM     53  C   UNL A   1      43.262  30.759  37.313  1.00  0.00     0.029 A 
ATOM     54  C   UNL A   1      42.668  30.419  36.109  1.00  0.00     0.049 A 
ATOM     55  H   UNL A   1      40.892  31.164  35.245  1.00  0.00     0.167 HD
ATOM     56  C   UNL A   1      42.480  29.189  33.963  1.00  0.00     0.074 A 
ATOM     57  C   UNL A   1      42.964  28.248  32.976  1.00  0.00     0.031 C 
ATOM     58  C   UNL A   1      43.122  29.473  35.124  1.00  0.00     0.037 A 
BRANCH  45  59
ATOM     59  C   UNL A   1      40.271  33.672  38.639  1.00  0.00     0.064 A 
ATOM     60  C   UNL A   1      41.025  34.844  38.800  1.00  0.00     0.173 A 
ATOM     61  C   UNL A   1      39.442  33.276  39.700  1.00  0.00     0.173 A 
ATOM     62  F   UNL A   1      41.846  35.258  37.822  1.00  0.00    -0.203 F 
ATOM     63  C   UNL A   1      40.960  35.581  39.981  1.00  0.00     0.198 A 
ATOM     64  C   UNL A   1      39.360  34.029  40.867  1.00  0.00     0.198 A 
ATOM     65  F   UNL A   1      38.696  32.165  39.595  1.00  0.00    -0.203 F 
ATOM     66  F   UNL A   1      41.716  36.678  40.125  1.00  0.00    -0.200 F 
ATOM     67  C   UNL A   1      40.120  35.179  41.008  1.00  0.00     0.200 A 
ATOM     68  F   UNL A   1      38.537  33.646  41.854  1.00  0.00    -0.200 F 
ATOM     69  F   UNL A   1      40.048  35.898  42.137  1.00  0.00    -0.200 F 
ENDBRANCH  45  59
BRANCH  46  70
ATOM     70  C   UNL A   1      39.940  28.552  30.057  1.00  0.00     0.064 A 
ATOM     71  C   UNL A   1      39.357  27.281  29.968  1.00  0.00     0.173 A 
ATOM     72  C   UNL A   1      40.545  29.072  28.903  1.00  0.00     0.173 A 
ATOM     73  F   UNL A   1      38.787  26.727  31.049  1.00  0.00    -0.203 F 
ATOM     74  C   UNL A   1      39.408  26.546  28.785  1.00  0.00     0.198 A 
ATOM     75  C   UNL A   1      40.564  28.352  27.711  1.00  0.00     0.198 A 
ATOM     76  F   UNL A   1      41.120  30.283  28.933  1.00  0.00    -0.203 F 
ATOM     77  F   UNL A   1      38.901  25.305  28.747  1.00  0.00    -0.200 F 
ATOM     78  C   UNL A   1      40.008  27.084  27.656  1.00  0.00     0.200 A 
ATOM     79  F   UNL A   1      41.134  28.882  26.620  1.00  0.00    -0.200 F 
ATOM     80  F   UNL A   1      40.064  26.374  26.521  1.00  0.00    -0.200 F 
ENDBRANCH  46  70
BRANCH  58  81
ATOM     81  C   UNL A   1      44.388  28.718  35.407  1.00  0.00     0.064 A 
ATOM     82  C   UNL A   1      45.642  29.208  35.013  1.00  0.00     0.173 A 
ATOM     83  C   UNL A   1      44.344  27.501  36.104  1.00  0.00     0.173 A 
ATOM     84  F   UNL A   1      45.734  30.358  34.330  1.00  0.00    -0.203 F 
ATOM     85  C   UNL A   1      46.805  28.490  35.280  1.00  0.00     0.198 A 
ATOM     86  C   UNL A   1      45.511  26.803  36.397  1.00  0.00     0.198 A 
ATOM     87  F   UNL A   1      43.170  26.995  36.508  1.00  0.00    -0.203 F 
ATOM     88  F   UNL A   1      47.987  28.948  34.847  1.00  0.00    -0.200 F 
ATOM     89  C   UNL A   1      46.739  27.292  35.977  1.00  0.00     0.200 A 
ATOM     90  F   UNL A   1      45.448  25.653  37.083  1.00  0.00    -0.200 F 
ATOM     91  F   UNL A   1      47.859  26.605  36.237  1.00  0.00    -0.200 F 
ENDBRANCH  58  81
ENDBRANCH  32  33
ENDBRANCH  25  27
ENDBRANCH  24  25
ENDBRANCH  23  24
ENDBRANCH   1  23
TORSDOF 14
ENDMDL
MODEL 2
REMARK VINA RESULT:     -11.6      6.051     11.583
REMARK SMILES Cc1ccc(S(=O)(=O)N[C@H]2C=C[C@@H](C(=O)OCCOC(=O)c3ccc(-c4c5nc(c(-c6c(F)c(F)c(F)c(F)c6F)c6ccc([nH]6)c(-c6c(F)c(F)c(F)c(F)c6F)c6nc(c(-c7c(F)c(F)c(F)c(F)c7F)c7ccc4[nH]7)C=C6)C=C5)cc3)C2)c(C)c1
REMARK SMILES IDX 17 1 16 2 14 3 15 4 13 5 10 6 11 7 85 8 12 9 9 10 6 12 7 13
REMARK SMILES IDX 8 14 5 15 1 16 2 17 3 18 88 19 4 20 86 21 87 22 18 23 19 24
REMARK SMILES IDX 20 25 21 26 22 27 23 28 84 29 24 30 83 31 25 32 26 33 27 34
REMARK SMILES IDX 77 35 28 36 82 37 76 38 78 39 29 40 81 41 75 42 74 43 30 45
REMARK SMILES IDX 62 46 42 47 61 48 43 49 46 50 60 51 79 52 44 53 45 54 59 56
REMARK SMILES IDX 80 57 47 58 31 59 32 60 40 61 33 62 34 63 38 64 41 65 35 66
REMARK SMILES IDX 36 67 39 68 37 69 63 70 64 71 72 72 65 73 66 74 70 75 73 76
REMARK SMILES IDX 67 77 68 78 71 79 69 80 48 81 49 82 57 83 50 84 51 85 55 86
REMARK SMILES IDX 58 87 52 88 53 89 56 90 54 91
REMARK H PARENT 9 11 78 44 46 55
REMARK Flexibility Score: inf
ROOT
ATOM      1  C   UNL A   1      40.980  19.820  26.821  1.00  0.00     0.274 C 
ENDROOT
BRANCH   1   2
ATOM      2  O   UNL A   1      42.418  19.809  26.793  1.00  0.00    -0.462 OA
BRANCH   2   3
ATOM      3  C   UNL A   1      43.010  18.997  25.881  1.00  0.00     0.312 C 
ATOM      4  O   UNL A   1      42.749  17.807  25.733  1.00  0.00    -0.252 OA
BRANCH   3   5
ATOM      5  C   UNL A   1      44.004  19.726  24.987  1.00  0.00     0.123 C 
ATOM      6  C   UNL A   1      45.569  21.592  24.864  1.00  0.00     0.093 C 
ATOM      7  C   UNL A   1      46.261  20.291  25.083  1.00  0.00    -0.011 C 
ATOM      8  C   UNL A   1      44.097  21.246  25.126  1.00  0.00     0.043 C 
ATOM      9  C   UNL A   1      45.409  19.267  25.180  1.00  0.00    -0.015 C 
BRANCH   6  10
ATOM     10  N   UNL A   1      45.964  22.658  25.767  1.00  0.00    -0.204 NA
ATOM     11  H   UNL A   1      45.101  22.954  26.224  1.00  0.00     0.142 HD
BRANCH  10  12
ATOM     12  S   UNL A   1      46.740  24.071  25.343  1.00  0.00     0.241 S 
ATOM     13  O   UNL A   1      47.186  23.914  23.971  1.00  0.00    -0.207 OA
ATOM     14  O   UNL A   1      47.667  24.346  26.412  1.00  0.00    -0.207 OA
BRANCH  12  15
ATOM     15  C   UNL A   1      45.486  25.341  25.401  1.00  0.00     0.085 A 
ATOM     16  C   UNL A   1      42.390  28.337  25.223  1.00  0.00     0.044 C 
ATOM     17  C   UNL A   1      43.456  27.284  25.280  1.00  0.00    -0.051 A 
ATOM     18  C   UNL A   1      43.143  25.936  25.115  1.00  0.00     0.005 A 
ATOM     19  C   UNL A   1      44.782  27.646  25.553  1.00  0.00     0.008 A 
ATOM     20  C   UNL A   1      44.149  24.969  25.184  1.00  0.00     0.022 A 
ATOM     21  C   UNL A   1      45.812  26.689  25.630  1.00  0.00    -0.031 A 
ATOM     22  C   UNL A   1      47.183  27.196  25.986  1.00  0.00     0.046 C 
ENDBRANCH  12  15
ENDBRANCH  10  12
ENDBRANCH   6  10
ENDBRANCH   3   5
ENDBRANCH   2   3
ENDBRANCH   1   2
BRANCH   1  23
ATOM     23  C   UNL A   1      40.440  21.065  26.111  1.00  0.00     0.275 C 
BRANCH  23  24
ATOM     24  O   UNL A   1      39.799  21.977  27.028  1.00  0.00    -0.458 OA
BRANCH  24  25
ATOM     25  C   UNL A   1      39.021  22.917  26.447  1.00  0.00     0.338 C 
ATOM     26  O   UNL A   1      38.159  22.751  25.599  1.00  0.00    -0.246 OA
BRANCH  25  27
ATOM     27  C   UNL A   1      39.240  24.227  27.078  1.00  0.00     0.060 A 
ATOM     28  C   UNL A   1      39.869  25.208  26.314  1.00  0.00     0.016 A 
ATOM     29  C   UNL A   1      38.969  24.456  28.425  1.00  0.00     0.016 A 
ATOM     30  C   UNL A   1      40.269  26.407  26.886  1.00  0.00     0.010 A 
ATOM     31  C   UNL A   1      39.341  25.681  28.998  1.00  0.00     0.010 A 
ATOM     32  C   UNL A   1      40.008  26.659  28.235  1.00  0.00    -0.014 A 
BRANCH  32  33
ATOM     33  C   UNL A   1      40.478  27.934  28.834  1.00  0.00     0.031 A 
ATOM     34  C   UNL A   1      41.933  28.121  29.160  1.00  0.00     0.074 A 
ATOM     35  C   UNL A   1      39.605  28.941  29.028  1.00  0.00     0.049 A 
ATOM     36  N   UNL A   1      42.523  29.118  29.769  1.00  0.00    -0.248 NA
ATOM     37  C   UNL A   1      42.847  27.046  28.744  1.00  0.00     0.031 C 
ATOM     38  C   UNL A   1      38.181  28.903  28.687  1.00  0.00     0.029 A 
ATOM     39  N   UNL A   1      39.786  30.196  29.552  1.00  0.00    -0.354 N 
ATOM     40  C   UNL A   1      43.869  28.782  29.829  1.00  0.00     0.074 A 
ATOM     41  C   UNL A   1      44.009  27.480  29.212  1.00  0.00     0.031 C 
ATOM     42  C   UNL A   1      37.621  30.082  29.002  1.00  0.00     0.029 A 
ATOM     43  C   UNL A   1      38.629  30.932  29.627  1.00  0.00     0.049 A 
ATOM     44  H   UNL A   1      40.662  30.537  29.847  1.00  0.00     0.167 HD
ATOM     45  C   UNL A   1      44.893  29.501  30.348  1.00  0.00     0.037 A 
ATOM     46  C   UNL A   1      38.397  32.139  30.176  1.00  0.00     0.037 A 
ATOM     47  C   UNL A   1      44.748  30.805  30.943  1.00  0.00     0.049 A 
ATOM     48  C   UNL A   1      39.542  32.878  30.818  1.00  0.00     0.074 A 
ATOM     49  C   UNL A   1      45.720  31.606  31.515  1.00  0.00     0.029 A 
ATOM     50  N   UNL A   1      43.551  31.501  31.035  1.00  0.00    -0.354 N 
ATOM     51  N   UNL A   1      40.805  32.538  30.899  1.00  0.00    -0.248 NA
ATOM     52  C   UNL A   1      39.225  34.166  31.450  1.00  0.00     0.031 C 
ATOM     53  C   UNL A   1      45.107  32.771  31.987  1.00  0.00     0.029 A 
ATOM     54  C   UNL A   1      43.761  32.718  31.664  1.00  0.00     0.049 A 
ATOM     55  H   UNL A   1      42.684  31.179  30.702  1.00  0.00     0.167 HD
ATOM     56  C   UNL A   1      41.437  33.580  31.564  1.00  0.00     0.074 A 
ATOM     57  C   UNL A   1      40.423  34.573  31.845  1.00  0.00     0.031 C 
ATOM     58  C   UNL A   1      42.741  33.702  31.916  1.00  0.00     0.037 A 
BRANCH  45  59
ATOM     59  C   UNL A   1      46.264  28.891  30.316  1.00  0.00     0.064 A 
ATOM     60  C   UNL A   1      47.138  29.100  29.240  1.00  0.00     0.173 A 
ATOM     61  C   UNL A   1      46.732  28.140  31.406  1.00  0.00     0.173 A 
ATOM     62  F   UNL A   1      46.735  29.797  28.167  1.00  0.00    -0.203 F 
ATOM     63  C   UNL A   1      48.427  28.568  29.250  1.00  0.00     0.198 A 
ATOM     64  C   UNL A   1      48.028  27.634  31.424  1.00  0.00     0.198 A 
ATOM     65  F   UNL A   1      45.937  27.915  32.463  1.00  0.00    -0.203 F 
ATOM     66  F   UNL A   1      49.233  28.752  28.196  1.00  0.00    -0.200 F 
ATOM     67  C   UNL A   1      48.873  27.845  30.346  1.00  0.00     0.200 A 
ATOM     68  F   UNL A   1      48.463  26.946  32.490  1.00  0.00    -0.200 F 
ATOM     69  F   UNL A   1      50.118  27.348  30.361  1.00  0.00    -0.200 F 
ENDBRANCH  45  59
BRANCH  46  70
ATOM     70  C   UNL A   1      37.024  32.710  30.191  1.00  0.00     0.064 A 
ATOM     71  C   UNL A   1      36.567  33.527  29.149  1.00  0.00     0.173 A 
ATOM     72  C   UNL A   1      36.156  32.488  31.271  1.00  0.00     0.173 A 
ATOM     73  F   UNL A   1      37.367  33.791  28.104  1.00  0.00    -0.203 F 
ATOM     74  C   UNL A   1      35.309  34.125  29.200  1.00  0.00     0.198 A 
ATOM     75  C   UNL A   1      34.885  33.057  31.305  1.00  0.00     0.198 A 
ATOM     76  F   UNL A   1      36.543  31.716  32.297  1.00  0.00    -0.203 F 
ATOM     77  F   UNL A   1      34.925  34.956  28.221  1.00  0.00    -0.200 F 
ATOM     78  C   UNL A   1      34.468  33.887  30.277  1.00  0.00     0.200 A 
ATOM     79  F   UNL A   1      34.072  32.813  32.342  1.00  0.00    -0.200 F 
ATOM     80  F   UNL A   1      33.262  34.468  30.330  1.00  0.00    -0.200 F 
ENDBRANCH  46  70
BRANCH  58  81
ATOM     81  C   UNL A   1      43.149  34.976  32.596  1.00  0.00     0.064 A 
ATOM     82  C   UNL A   1      43.155  35.097  33.994  1.00  0.00     0.173 A 
ATOM     83  C   UNL A   1      43.562  36.082  31.838  1.00  0.00     0.173 A 
ATOM     84  F   UNL A   1      42.752  34.074  34.762  1.00  0.00    -0.203 F 
ATOM     85  C   UNL A   1      43.531  36.289  34.606  1.00  0.00     0.198 A 
ATOM     86  C   UNL A   1      43.968  37.261  32.454  1.00  0.00     0.198 A 
ATOM     87  F   UNL A   1      43.580  36.014  30.499  1.00  0.00    -0.203 F 
ATOM     88  F   UNL A   1      43.477  36.400  35.940  1.00  0.00    -0.200 F 
ATOM     89  C   UNL A   1      43.943  37.367  33.836  1.00  0.00     0.200 A 
ATOM     90  F   UNL A   1      44.380  38.297  31.711  1.00  0.00    -0.200 F 
ATOM     91  F   UNL A   1      44.309  38.512  34.428  1.00  0.00    -0.200 F 
ENDBRANCH  58  81
ENDBRANCH  32  33
ENDBRANCH  25  27
ENDBRANCH  24  25
ENDBRANCH  23  24
ENDBRANCH   1  23
TORSDOF 14
ENDMDL
MODEL 3
REMARK VINA RESULT:     -11.4      2.675      8.553
REMARK SMILES Cc1ccc(S(=O)(=O)N[C@H]2C=C[C@@H](C(=O)OCCOC(=O)c3ccc(-c4c5nc(c(-c6c(F)c(F)c(F)c(F)c6F)c6ccc([nH]6)c(-c6c(F)c(F)c(F)c(F)c6F)c6nc(c(-c7c(F)c(F)c(F)c(F)c7F)c7ccc4[nH]7)C=C6)C=C5)cc3)C2)c(C)c1
REMARK SMILES IDX 17 1 16 2 14 3 15 4 13 5 10 6 11 7 85 8 12 9 9 10 6 12 7 13
REMARK SMILES IDX 8 14 5 15 1 16 2 17 3 18 88 19 4 20 86 21 87 22 18 23 19 24
REMARK SMILES IDX 20 25 21 26 22 27 23 28 84 29 24 30 83 31 25 32 26 33 27 34
REMARK SMILES IDX 77 35 28 36 82 37 76 38 78 39 29 40 81 41 75 42 74 43 30 45
REMARK SMILES IDX 62 46 42 47 61 48 43 49 46 50 60 51 79 52 44 53 45 54 59 56
REMARK SMILES IDX 80 57 47 58 31 59 32 60 40 61 33 62 34 63 38 64 41 65 35 66
REMARK SMILES IDX 36 67 39 68 37 69 63 70 64 71 72 72 65 73 66 74 70 75 73 76
REMARK SMILES IDX 67 77 68 78 71 79 69 80 48 81 49 82 57 83 50 84 51 85 55 86
REMARK SMILES IDX 58 87 52 88 53 89 56 90 54 91
REMARK H PARENT 9 11 78 44 46 55
REMARK Flexibility Score: inf
ROOT
ATOM      1  C   UNL A   1      31.159  29.354  24.525  1.00  0.00     0.274 C 
ENDROOT
BRANCH   1   2
ATOM      2  O   UNL A   1      30.919  28.012  24.985  1.00  0.00    -0.462 OA
BRANCH   2   3
ATOM      3  C   UNL A   1      30.392  27.139  24.090  1.00  0.00     0.312 C 
ATOM      4  O   UNL A   1      30.298  27.348  22.884  1.00  0.00    -0.252 OA
BRANCH   3   5
ATOM      5  C   UNL A   1      29.977  25.816  24.718  1.00  0.00     0.123 C 
ATOM      6  C   UNL A   1      30.674  23.521  25.160  1.00  0.00     0.093 C 
ATOM      7  C   UNL A   1      30.812  24.392  26.361  1.00  0.00    -0.011 C 
ATOM      8  C   UNL A   1      30.439  24.531  24.029  1.00  0.00     0.043 C 
ATOM      9  C   UNL A   1      30.460  25.657  26.120  1.00  0.00    -0.015 C 
BRANCH   6  10
ATOM     10  N   UNL A   1      31.846  22.727  24.838  1.00  0.00    -0.204 NA
ATOM     11  H   UNL A   1      31.708  21.840  25.323  1.00  0.00     0.142 HD
BRANCH  10  12
ATOM     12  S   UNL A   1      33.431  23.147  25.137  1.00  0.00     0.241 S 
ATOM     13  O   UNL A   1      34.263  22.148  24.493  1.00  0.00    -0.207 OA
ATOM     14  O   UNL A   1      33.510  23.394  26.556  1.00  0.00    -0.207 OA
BRANCH  12  15
ATOM     15  C   UNL A   1      33.672  24.715  24.320  1.00  0.00     0.085 A 
ATOM     16  C   UNL A   1      33.993  28.621  22.521  1.00  0.00     0.044 C 
ATOM     17  C   UNL A   1      33.882  27.270  23.161  1.00  0.00    -0.051 A 
ATOM     18  C   UNL A   1      34.075  27.106  24.532  1.00  0.00     0.005 A 
ATOM     19  C   UNL A   1      33.630  26.141  22.370  1.00  0.00     0.008 A 
ATOM     20  C   UNL A   1      33.981  25.837  25.107  1.00  0.00     0.022 A 
ATOM     21  C   UNL A   1      33.533  24.851  22.928  1.00  0.00    -0.031 A 
ATOM     22  C   UNL A   1      33.318  23.713  21.968  1.00  0.00     0.046 C 
ENDBRANCH  12  15
ENDBRANCH  10  12
ENDBRANCH   6  10
ENDBRANCH   3   5
ENDBRANCH   2   3
ENDBRANCH   1   2
BRANCH   1  23
ATOM     23  C   UNL A   1      31.407  30.291  25.710  1.00  0.00     0.275 C 
BRANCH  23  24
ATOM     24  O   UNL A   1      32.791  30.294  26.118  1.00  0.00    -0.458 OA
BRANCH  24  25
ATOM     25  C   UNL A   1      33.150  31.326  26.914  1.00  0.00     0.338 C 
ATOM     26  O   UNL A   1      32.475  32.293  27.229  1.00  0.00    -0.246 OA
BRANCH  25  27
ATOM     27  C   UNL A   1      34.473  31.082  27.509  1.00  0.00     0.060 A 
ATOM     28  C   UNL A   1      34.773  29.774  27.882  1.00  0.00     0.016 A 
ATOM     29  C   UNL A   1      35.346  32.119  27.827  1.00  0.00     0.016 A 
ATOM     30  C   UNL A   1      35.922  29.487  28.606  1.00  0.00     0.010 A 
ATOM     31  C   UNL A   1      36.525  31.828  28.528  1.00  0.00     0.010 A 
ATOM     32  C   UNL A   1      36.813  30.512  28.936  1.00  0.00    -0.014 A 
BRANCH  32  33
ATOM     33  C   UNL A   1      38.017  30.187  29.742  1.00  0.00     0.031 A 
ATOM     34  C   UNL A   1      39.095  29.312  29.165  1.00  0.00     0.074 A 
ATOM     35  C   UNL A   1      38.166  30.727  30.966  1.00  0.00     0.049 A 
ATOM     36  N   UNL A   1      40.172  28.839  29.738  1.00  0.00    -0.248 NA
ATOM     37  C   UNL A   1      38.943  28.918  27.755  1.00  0.00     0.031 C 
ATOM     38  C   UNL A   1      37.222  31.646  31.605  1.00  0.00     0.029 A 
ATOM     39  N   UNL A   1      39.171  30.588  31.891  1.00  0.00    -0.354 N 
ATOM     40  C   UNL A   1      40.812  28.076  28.771  1.00  0.00     0.074 A 
ATOM     41  C   UNL A   1      39.995  28.132  27.577  1.00  0.00     0.031 C 
ATOM     42  C   UNL A   1      37.696  31.995  32.812  1.00  0.00     0.029 A 
ATOM     43  C   UNL A   1      38.940  31.275  33.059  1.00  0.00     0.049 A 
ATOM     44  H   UNL A   1      39.980  30.049  31.733  1.00  0.00     0.167 HD
ATOM     45  C   UNL A   1      41.981  27.398  28.871  1.00  0.00     0.037 A 
ATOM     46  C   UNL A   1      39.632  31.287  34.213  1.00  0.00     0.037 A 
ATOM     47  C   UNL A   1      42.797  27.362  30.057  1.00  0.00     0.049 A 
ATOM     48  C   UNL A   1      40.884  30.457  34.320  1.00  0.00     0.074 A 
ATOM     49  C   UNL A   1      43.987  26.688  30.267  1.00  0.00     0.029 A 
ATOM     50  N   UNL A   1      42.510  28.040  31.233  1.00  0.00    -0.354 N 
ATOM     51  N   UNL A   1      41.465  29.714  33.411  1.00  0.00    -0.248 NA
ATOM     52  C   UNL A   1      41.572  30.464  35.619  1.00  0.00     0.031 C 
ATOM     53  C   UNL A   1      44.401  26.926  31.581  1.00  0.00     0.029 A 
ATOM     54  C   UNL A   1      43.495  27.789  32.175  1.00  0.00     0.049 A 
ATOM     55  H   UNL A   1      41.723  28.613  31.377  1.00  0.00     0.167 HD
ATOM     56  C   UNL A   1      42.598  29.188  34.016  1.00  0.00     0.074 A 
ATOM     57  C   UNL A   1      42.635  29.715  35.364  1.00  0.00     0.031 C 
ATOM     58  C   UNL A   1      43.524  28.340  33.504  1.00  0.00     0.037 A 
BRANCH  45  59
ATOM     59  C   UNL A   1      42.442  26.617  27.675  1.00  0.00     0.064 A 
ATOM     60  C   UNL A   1      43.378  27.140  26.771  1.00  0.00     0.173 A 
ATOM     61  C   UNL A   1      41.992  25.304  27.467  1.00  0.00     0.173 A 
ATOM     62  F   UNL A   1      43.829  28.395  26.916  1.00  0.00    -0.203 F 
ATOM     63  C   UNL A   1      43.835  26.382  25.695  1.00  0.00     0.198 A 
ATOM     64  C   UNL A   1      42.470  24.541  26.406  1.00  0.00     0.198 A 
ATOM     65  F   UNL A   1      41.100  24.755  28.306  1.00  0.00    -0.203 F 
ATOM     66  F   UNL A   1      44.703  26.914  24.824  1.00  0.00    -0.200 F 
ATOM     67  C   UNL A   1      43.388  25.081  25.519  1.00  0.00     0.200 A 
ATOM     68  F   UNL A   1      42.048  23.279  26.247  1.00  0.00    -0.200 F 
ATOM     69  F   UNL A   1      43.841  24.348  24.492  1.00  0.00    -0.200 F 
ENDBRANCH  45  59
BRANCH  46  70
ATOM     70  C   UNL A   1      39.141  32.071  35.378  1.00  0.00     0.064 A 
ATOM     71  C   UNL A   1      39.483  33.420  35.542  1.00  0.00     0.173 A 
ATOM     72  C   UNL A   1      38.356  31.474  36.377  1.00  0.00     0.173 A 
ATOM     73  F   UNL A   1      40.253  34.031  34.628  1.00  0.00    -0.203 F 
ATOM     74  C   UNL A   1      39.088  34.132  36.672  1.00  0.00     0.198 A 
ATOM     75  C   UNL A   1      37.931  32.197  37.489  1.00  0.00     0.198 A 
ATOM     76  F   UNL A   1      38.001  30.186  36.273  1.00  0.00    -0.203 F 
ATOM     77  F   UNL A   1      39.487  35.402  36.834  1.00  0.00    -0.200 F 
ATOM     78  C   UNL A   1      38.309  33.522  37.643  1.00  0.00     0.200 A 
ATOM     79  F   UNL A   1      37.168  31.605  38.418  1.00  0.00    -0.200 F 
ATOM     80  F   UNL A   1      37.936  34.204  38.734  1.00  0.00    -0.200 F 
ENDBRANCH  46  70
BRANCH  58  81
ATOM     81  C   UNL A   1      44.679  27.974  34.390  1.00  0.00     0.064 A 
ATOM     82  C   UNL A   1      45.849  28.747  34.433  1.00  0.00     0.173 A 
ATOM     83  C   UNL A   1      44.603  26.849  35.224  1.00  0.00     0.173 A 
ATOM     84  F   UNL A   1      45.977  29.823  33.641  1.00  0.00    -0.203 F 
ATOM     85  C   UNL A   1      46.913  28.389  35.256  1.00  0.00     0.198 A 
ATOM     86  C   UNL A   1      45.654  26.512  36.070  1.00  0.00     0.198 A 
ATOM     87  F   UNL A   1      43.503  26.081  35.225  1.00  0.00    -0.203 F 
ATOM     88  F   UNL A   1      48.042  29.110  35.241  1.00  0.00    -0.200 F 
ATOM     89  C   UNL A   1      46.812  27.276  36.079  1.00  0.00     0.200 A 
ATOM     90  F   UNL A   1      45.551  25.445  36.874  1.00  0.00    -0.200 F 
ATOM     91  F   UNL A   1      47.835  26.935  36.874  1.00  0.00    -0.200 F 
ENDBRANCH  58  81
ENDBRANCH  32  33
ENDBRANCH  25  27
ENDBRANCH  24  25
ENDBRANCH  23  24
ENDBRANCH   1  23
TORSDOF 14
ENDMDL
