MODEL 1
REMARK VINA RESULT:     -12.5      0.000      0.000
REMARK SMILES Cc1ccc2n[nH]cc2c1C(=O)OCCOC(=O)c1ccc(-c2c3nc(c(-c4c(F)c(F)c(F)c(F)c4F)c4ccc([nH]4)c(-c4c(F)c(F)c(F)c(F)c4F)c4nc(c(-c5c(F)c(F)c(F)c(F)c5F)c5ccc2[nH]5)C=C4)C=C3)cc1
REMARK SMILES IDX 15 1 14 2 13 3 11 4 12 5 10 6 1 7 2 8 3 9 4 10 9 11 5 12
REMARK SMILES IDX 8 13 6 14 7 15 16 17 17 18 18 19 19 20 20 21 81 22 21 23
REMARK SMILES IDX 80 24 22 25 23 26 24 27 74 28 25 29 79 30 73 31 75 32 26 33
REMARK SMILES IDX 78 34 72 35 71 36 27 38 59 39 39 40 58 41 40 42 43 43 57 44
REMARK SMILES IDX 76 45 41 46 42 47 56 49 77 50 44 51 28 52 29 53 37 54 30 55
REMARK SMILES IDX 31 56 35 57 38 58 32 59 33 60 36 61 34 62 60 63 61 64 69 65
REMARK SMILES IDX 62 66 63 67 67 68 70 69 64 70 65 71 68 72 66 73 45 74 46 75
REMARK SMILES IDX 54 76 47 77 48 78 52 79 55 80 49 81 50 82 53 83 51 84
REMARK H PARENT 7 16 75 37 43 48
REMARK Flexibility Score: inf
ROOT
ATOM      1  C   UNL A   1      38.710  21.413  25.613  1.00  0.00     0.275 C 
ENDROOT
BRANCH   1   2
ATOM      2  C   UNL A   1      37.416  21.642  24.819  1.00  0.00     0.275 C 
BRANCH   2   3
ATOM      3  O   UNL A   1      36.338  20.759  25.231  1.00  0.00    -0.458 OA
BRANCH   3   4
ATOM      4  C   UNL A   1      35.185  21.346  25.644  1.00  0.00     0.339 C 
ATOM      5  O   UNL A   1      35.006  21.737  26.781  1.00  0.00    -0.246 OA
BRANCH   4   6
ATOM      6  C   UNL A   1      34.171  21.471  24.561  1.00  0.00     0.074 A 
ATOM      7  C   UNL A   1      32.949  19.334  25.175  1.00  0.00     0.045 C 
ATOM      8  C   UNL A   1      33.168  20.511  24.258  1.00  0.00    -0.036 A 
ATOM      9  C   UNL A   1      32.266  20.650  23.137  1.00  0.00     0.006 A 
ATOM     10  C   UNL A   1      32.236  21.753  22.259  1.00  0.00     0.031 A 
ATOM     11  C   UNL A   1      34.008  22.610  23.751  1.00  0.00     0.034 A 
ATOM     12  C   UNL A   1      33.110  22.772  22.632  1.00  0.00     0.093 A 
ATOM     13  C   UNL A   1      34.545  23.846  23.926  1.00  0.00     0.114 A 
ATOM     14  N   UNL A   1      33.248  23.996  22.090  1.00  0.00    -0.176 NA
ATOM     15  N   UNL A   1      34.077  24.633  22.925  1.00  0.00    -0.284 N 
ATOM     16  H   UNL A   1      34.323  25.581  22.822  1.00  0.00     0.189 HD
ENDBRANCH   4   6
ENDBRANCH   3   4
ENDBRANCH   2   3
ENDBRANCH   1   2
BRANCH   1  17
ATOM     17  O   UNL A   1      38.908  22.513  26.514  1.00  0.00    -0.458 OA
BRANCH  17  18
ATOM     18  C   UNL A   1      40.010  22.424  27.300  1.00  0.00     0.338 C 
ATOM     19  O   UNL A   1      40.525  21.411  27.711  1.00  0.00    -0.246 OA
BRANCH  18  20
ATOM     20  C   UNL A   1      40.676  23.754  27.252  1.00  0.00     0.060 A 
ATOM     21  C   UNL A   1      41.802  24.078  28.029  1.00  0.00     0.016 A 
ATOM     22  C   UNL A   1      39.926  24.761  26.676  1.00  0.00     0.016 A 
ATOM     23  C   UNL A   1      42.001  25.399  28.463  1.00  0.00     0.010 A 
ATOM     24  C   UNL A   1      40.169  26.064  27.074  1.00  0.00     0.010 A 
ATOM     25  C   UNL A   1      41.099  26.390  28.086  1.00  0.00    -0.014 A 
BRANCH  25  26
ATOM     26  C   UNL A   1      41.056  27.740  28.728  1.00  0.00     0.031 A 
ATOM     27  C   UNL A   1      42.103  28.685  28.246  1.00  0.00     0.074 A 
ATOM     28  C   UNL A   1      40.049  28.276  29.485  1.00  0.00     0.049 A 
ATOM     29  N   UNL A   1      43.145  29.082  28.902  1.00  0.00    -0.248 NA
ATOM     30  C   UNL A   1      42.071  29.173  26.856  1.00  0.00     0.031 C 
ATOM     31  C   UNL A   1      38.758  27.697  29.866  1.00  0.00     0.029 A 
ATOM     32  N   UNL A   1      39.921  29.558  29.980  1.00  0.00    -0.354 N 
ATOM     33  C   UNL A   1      43.801  29.967  28.058  1.00  0.00     0.074 A 
ATOM     34  C   UNL A   1      43.247  29.782  26.749  1.00  0.00     0.031 C 
ATOM     35  C   UNL A   1      37.900  28.661  30.284  1.00  0.00     0.029 A 
ATOM     36  C   UNL A   1      38.633  29.904  30.424  1.00  0.00     0.049 A 
ATOM     37  H   UNL A   1      40.677  30.186  30.021  1.00  0.00     0.167 HD
ATOM     38  C   UNL A   1      44.555  30.997  28.521  1.00  0.00     0.037 A 
ATOM     39  C   UNL A   1      38.210  31.099  30.926  1.00  0.00     0.037 A 
ATOM     40  C   UNL A   1      44.851  30.853  29.918  1.00  0.00     0.049 A 
ATOM     41  C   UNL A   1      39.421  31.807  31.387  1.00  0.00     0.074 A 
ATOM     42  C   UNL A   1      45.445  29.861  30.673  1.00  0.00     0.029 A 
ATOM     43  N   UNL A   1      44.144  31.625  30.806  1.00  0.00    -0.354 N 
ATOM     44  N   UNL A   1      40.126  31.452  32.420  1.00  0.00    -0.248 NA
ATOM     45  C   UNL A   1      40.054  32.745  30.478  1.00  0.00     0.031 C 
ATOM     46  C   UNL A   1      44.675  29.796  31.869  1.00  0.00     0.029 A 
ATOM     47  C   UNL A   1      43.710  30.801  31.816  1.00  0.00     0.049 A 
ATOM     48  H   UNL A   1      43.978  32.592  30.732  1.00  0.00     0.167 HD
ATOM     49  C   UNL A   1      41.426  31.736  32.051  1.00  0.00     0.074 A 
ATOM     50  C   UNL A   1      41.309  32.652  30.919  1.00  0.00     0.031 C 
ATOM     51  C   UNL A   1      42.453  30.964  32.508  1.00  0.00     0.037 A 
BRANCH  38  52
ATOM     52  C   UNL A   1      44.729  32.282  27.764  1.00  0.00     0.064 A 
ATOM     53  C   UNL A   1      45.890  32.492  27.004  1.00  0.00     0.173 A 
ATOM     54  C   UNL A   1      43.888  33.408  27.928  1.00  0.00     0.173 A 
ATOM     55  F   UNL A   1      46.781  31.503  26.841  1.00  0.00    -0.203 F 
ATOM     56  C   UNL A   1      46.188  33.740  26.453  1.00  0.00     0.198 A 
ATOM     57  C   UNL A   1      44.153  34.632  27.322  1.00  0.00     0.198 A 
ATOM     58  F   UNL A   1      42.835  33.390  28.758  1.00  0.00    -0.203 F 
ATOM     59  F   UNL A   1      47.352  33.923  25.814  1.00  0.00    -0.200 F 
ATOM     60  C   UNL A   1      45.315  34.805  26.601  1.00  0.00     0.200 A 
ATOM     61  F   UNL A   1      43.304  35.654  27.499  1.00  0.00    -0.200 F 
ATOM     62  F   UNL A   1      45.616  36.009  26.098  1.00  0.00    -0.200 F 
ENDBRANCH  38  52
BRANCH  39  63
ATOM     63  C   UNL A   1      36.896  31.805  30.977  1.00  0.00     0.064 A 
ATOM     64  C   UNL A   1      36.180  31.916  32.191  1.00  0.00     0.173 A 
ATOM     65  C   UNL A   1      36.500  32.677  29.950  1.00  0.00     0.173 A 
ATOM     66  F   UNL A   1      36.493  31.138  33.238  1.00  0.00    -0.203 F 
ATOM     67  C   UNL A   1      35.190  32.886  32.387  1.00  0.00     0.198 A 
ATOM     68  C   UNL A   1      35.504  33.645  30.146  1.00  0.00     0.198 A 
ATOM     69  F   UNL A   1      37.144  32.673  28.774  1.00  0.00    -0.203 F 
ATOM     70  F   UNL A   1      34.603  33.014  33.587  1.00  0.00    -0.200 F 
ATOM     71  C   UNL A   1      34.868  33.765  31.370  1.00  0.00     0.200 A 
ATOM     72  F   UNL A   1      35.214  34.511  29.164  1.00  0.00    -0.200 F 
ATOM     73  F   UNL A   1      33.981  34.749  31.580  1.00  0.00    -0.200 F 
ENDBRANCH  39  63
BRANCH  51  74
ATOM     74  C   UNL A   1      42.183  30.032  33.665  1.00  0.00     0.064 A 
ATOM     75  C   UNL A   1      41.770  28.692  33.542  1.00  0.00     0.173 A 
ATOM     76  C   UNL A   1      42.503  30.481  34.954  1.00  0.00     0.173 A 
ATOM     77  F   UNL A   1      41.525  28.146  32.346  1.00  0.00    -0.203 F 
ATOM     78  C   UNL A   1      41.657  27.859  34.656  1.00  0.00     0.198 A 
ATOM     79  C   UNL A   1      42.431  29.635  36.058  1.00  0.00     0.198 A 
ATOM     80  F   UNL A   1      42.940  31.738  35.138  1.00  0.00    -0.203 F 
ATOM     81  F   UNL A   1      41.251  26.589  34.507  1.00  0.00    -0.200 F 
ATOM     82  C   UNL A   1      42.001  28.328  35.911  1.00  0.00     0.200 A 
ATOM     83  F   UNL A   1      42.812  30.082  37.263  1.00  0.00    -0.200 F 
ATOM     84  F   UNL A   1      41.945  27.513  36.973  1.00  0.00    -0.200 F 
ENDBRANCH  51  74
ENDBRANCH  25  26
ENDBRANCH  18  20
ENDBRANCH  17  18
ENDBRANCH   1  17
TORSDOF 11
ENDMDL
MODEL 2
REMARK VINA RESULT:     -12.4      2.941      4.830
REMARK SMILES Cc1ccc2n[nH]cc2c1C(=O)OCCOC(=O)c1ccc(-c2c3nc(c(-c4c(F)c(F)c(F)c(F)c4F)c4ccc([nH]4)c(-c4c(F)c(F)c(F)c(F)c4F)c4nc(c(-c5c(F)c(F)c(F)c(F)c5F)c5ccc2[nH]5)C=C4)C=C3)cc1
REMARK SMILES IDX 15 1 14 2 13 3 11 4 12 5 10 6 1 7 2 8 3 9 4 10 9 11 5 12
REMARK SMILES IDX 8 13 6 14 7 15 16 17 17 18 18 19 19 20 20 21 81 22 21 23
REMARK SMILES IDX 80 24 22 25 23 26 24 27 74 28 25 29 79 30 73 31 75 32 26 33
REMARK SMILES IDX 78 34 72 35 71 36 27 38 59 39 39 40 58 41 40 42 43 43 57 44
REMARK SMILES IDX 76 45 41 46 42 47 56 49 77 50 44 51 28 52 29 53 37 54 30 55
REMARK SMILES IDX 31 56 35 57 38 58 32 59 33 60 36 61 34 62 60 63 61 64 69 65
REMARK SMILES IDX 62 66 63 67 67 68 70 69 64 70 65 71 68 72 66 73 45 74 46 75
REMARK SMILES IDX 54 76 47 77 48 78 52 79 55 80 49 81 50 82 53 83 51 84
REMARK H PARENT 7 16 75 37 43 48
REMARK Flexibility Score: inf
ROOT
ATOM      1  C   UNL A   1      40.598  21.052  26.097  1.00  0.00     0.275 C 
ENDROOT
BRANCH   1   2
ATOM      2  C   UNL A   1      42.082  21.168  26.472  1.00  0.00     0.275 C 
BRANCH   2   3
ATOM      3  O   UNL A   1      42.749  22.270  25.801  1.00  0.00    -0.458 OA
BRANCH   3   4
ATOM      4  C   UNL A   1      44.042  22.508  26.145  1.00  0.00     0.339 C 
ATOM      5  O   UNL A   1      44.963  21.784  25.820  1.00  0.00    -0.246 OA
BRANCH   4   6
ATOM      6  C   UNL A   1      44.214  23.750  26.948  1.00  0.00     0.074 A 
ATOM      7  C   UNL A   1      43.779  25.317  25.001  1.00  0.00     0.045 C 
ATOM      8  C   UNL A   1      44.184  25.074  26.433  1.00  0.00    -0.036 A 
ATOM      9  C   UNL A   1      44.444  26.237  27.251  1.00  0.00     0.006 A 
ATOM     10  C   UNL A   1      44.702  26.206  28.637  1.00  0.00     0.031 A 
ATOM     11  C   UNL A   1      44.332  23.781  28.349  1.00  0.00     0.034 A 
ATOM     12  C   UNL A   1      44.585  24.931  29.186  1.00  0.00     0.093 A 
ATOM     13  C   UNL A   1      44.093  22.775  29.233  1.00  0.00     0.114 A 
ATOM     14  N   UNL A   1      44.651  24.567  30.480  1.00  0.00    -0.176 NA
ATOM     15  N   UNL A   1      44.296  23.278  30.477  1.00  0.00    -0.284 N 
ATOM     16  H   UNL A   1      44.192  22.744  31.298  1.00  0.00     0.189 HD
ENDBRANCH   4   6
ENDBRANCH   3   4
ENDBRANCH   2   3
ENDBRANCH   1   2
BRANCH   1  17
ATOM     17  O   UNL A   1      39.819  21.830  27.018  1.00  0.00    -0.458 OA
BRANCH  17  18
ATOM     18  C   UNL A   1      39.297  22.974  26.510  1.00  0.00     0.338 C 
ATOM     19  O   UNL A   1      38.177  23.132  26.087  1.00  0.00    -0.246 OA
BRANCH  18  20
ATOM     20  C   UNL A   1      40.215  24.075  26.911  1.00  0.00     0.060 A 
ATOM     21  C   UNL A   1      40.842  24.135  28.167  1.00  0.00     0.016 A 
ATOM     22  C   UNL A   1      40.141  25.209  26.126  1.00  0.00     0.016 A 
ATOM     23  C   UNL A   1      41.131  25.378  28.752  1.00  0.00     0.010 A 
ATOM     24  C   UNL A   1      40.480  26.422  26.699  1.00  0.00     0.010 A 
ATOM     25  C   UNL A   1      40.827  26.549  28.062  1.00  0.00    -0.014 A 
BRANCH  25  26
ATOM     26  C   UNL A   1      40.819  27.897  28.709  1.00  0.00     0.031 A 
ATOM     27  C   UNL A   1      41.879  28.823  28.218  1.00  0.00     0.074 A 
ATOM     28  C   UNL A   1      39.833  28.450  29.480  1.00  0.00     0.049 A 
ATOM     29  N   UNL A   1      42.937  29.197  28.863  1.00  0.00    -0.248 NA
ATOM     30  C   UNL A   1      41.840  29.316  26.830  1.00  0.00     0.031 C 
ATOM     31  C   UNL A   1      38.535  27.896  29.874  1.00  0.00     0.029 A 
ATOM     32  N   UNL A   1      39.736  29.733  29.981  1.00  0.00    -0.354 N 
ATOM     33  C   UNL A   1      43.600  30.071  28.013  1.00  0.00     0.074 A 
ATOM     34  C   UNL A   1      43.027  29.902  26.711  1.00  0.00     0.031 C 
ATOM     35  C   UNL A   1      37.701  28.876  30.306  1.00  0.00     0.029 A 
ATOM     36  C   UNL A   1      38.461  30.103  30.442  1.00  0.00     0.049 A 
ATOM     37  H   UNL A   1      40.505  30.345  30.015  1.00  0.00     0.167 HD
ATOM     38  C   UNL A   1      44.380  31.084  28.470  1.00  0.00     0.037 A 
ATOM     39  C   UNL A   1      38.068  31.305  30.953  1.00  0.00     0.037 A 
ATOM     40  C   UNL A   1      44.690  30.930  29.864  1.00  0.00     0.049 A 
ATOM     41  C   UNL A   1      39.298  31.986  31.401  1.00  0.00     0.074 A 
ATOM     42  C   UNL A   1      45.273  29.923  30.607  1.00  0.00     0.029 A 
ATOM     43  N   UNL A   1      44.010  31.712  30.763  1.00  0.00    -0.354 N 
ATOM     44  N   UNL A   1      40.009  31.614  32.424  1.00  0.00    -0.248 NA
ATOM     45  C   UNL A   1      39.939  32.915  30.488  1.00  0.00     0.031 C 
ATOM     46  C   UNL A   1      44.516  29.869  31.812  1.00  0.00     0.029 A 
ATOM     47  C   UNL A   1      43.572  30.894  31.775  1.00  0.00     0.049 A 
ATOM     48  H   UNL A   1      43.862  32.683  30.694  1.00  0.00     0.167 HD
ATOM     49  C   UNL A   1      41.309  31.873  32.040  1.00  0.00     0.074 A 
ATOM     50  C   UNL A   1      41.197  32.795  30.914  1.00  0.00     0.031 C 
ATOM     51  C   UNL A   1      42.326  31.079  32.483  1.00  0.00     0.037 A 
BRANCH  38  52
ATOM     52  C   UNL A   1      44.571  32.368  27.716  1.00  0.00     0.064 A 
ATOM     53  C   UNL A   1      45.729  32.560  26.948  1.00  0.00     0.173 A 
ATOM     54  C   UNL A   1      43.750  33.508  27.889  1.00  0.00     0.173 A 
ATOM     55  F   UNL A   1      46.602  31.556  26.776  1.00  0.00    -0.203 F 
ATOM     56  C   UNL A   1      46.045  33.805  26.398  1.00  0.00     0.198 A 
ATOM     57  C   UNL A   1      44.033  34.729  27.285  1.00  0.00     0.198 A 
ATOM     58  F   UNL A   1      42.704  33.506  28.727  1.00  0.00    -0.203 F 
ATOM     59  F   UNL A   1      47.207  33.969  25.751  1.00  0.00    -0.200 F 
ATOM     60  C   UNL A   1      45.192  34.884  26.556  1.00  0.00     0.200 A 
ATOM     61  F   UNL A   1      43.203  35.766  27.472  1.00  0.00    -0.200 F 
ATOM     62  F   UNL A   1      45.510  36.084  26.053  1.00  0.00    -0.200 F 
ENDBRANCH  38  52
BRANCH  39  63
ATOM     63  C   UNL A   1      36.769  32.037  31.022  1.00  0.00     0.064 A 
ATOM     64  C   UNL A   1      36.122  32.248  32.261  1.00  0.00     0.173 A 
ATOM     65  C   UNL A   1      36.331  32.840  29.956  1.00  0.00     0.173 A 
ATOM     66  F   UNL A   1      36.480  31.541  33.343  1.00  0.00    -0.203 F 
ATOM     67  C   UNL A   1      35.158  33.248  32.439  1.00  0.00     0.198 A 
ATOM     68  C   UNL A   1      35.361  33.837  30.134  1.00  0.00     0.198 A 
ATOM     69  F   UNL A   1      36.910  32.740  28.752  1.00  0.00    -0.203 F 
ATOM     70  F   UNL A   1      34.639  33.472  33.655  1.00  0.00    -0.200 F 
ATOM     71  C   UNL A   1      34.795  34.056  31.378  1.00  0.00     0.200 A 
ATOM     72  F   UNL A   1      35.031  34.636  29.109  1.00  0.00    -0.200 F 
ATOM     73  F   UNL A   1      33.935  35.069  31.564  1.00  0.00    -0.200 F 
ENDBRANCH  39  63
BRANCH  51  74
ATOM     74  C   UNL A   1      42.052  30.149  33.640  1.00  0.00     0.064 A 
ATOM     75  C   UNL A   1      41.646  28.806  33.517  1.00  0.00     0.173 A 
ATOM     76  C   UNL A   1      42.359  30.602  34.931  1.00  0.00     0.173 A 
ATOM     77  F   UNL A   1      41.413  28.256  32.320  1.00  0.00    -0.203 F 
ATOM     78  C   UNL A   1      41.528  27.976  34.631  1.00  0.00     0.198 A 
ATOM     79  C   UNL A   1      42.283  29.759  36.036  1.00  0.00     0.198 A 
ATOM     80  F   UNL A   1      42.788  31.861  35.115  1.00  0.00    -0.203 F 
ATOM     81  F   UNL A   1      41.129  26.703  34.482  1.00  0.00    -0.200 F 
ATOM     82  C   UNL A   1      41.860  28.448  35.888  1.00  0.00     0.200 A 
ATOM     83  F   UNL A   1      42.652  30.210  37.243  1.00  0.00    -0.200 F 
ATOM     84  F   UNL A   1      41.799  27.636  36.952  1.00  0.00    -0.200 F 
ENDBRANCH  51  74
ENDBRANCH  25  26
ENDBRANCH  18  20
ENDBRANCH  17  18
ENDBRANCH   1  17
TORSDOF 11
ENDMDL
MODEL 3
REMARK VINA RESULT:     -12.3      4.252      9.327
REMARK SMILES Cc1ccc2n[nH]cc2c1C(=O)OCCOC(=O)c1ccc(-c2c3nc(c(-c4c(F)c(F)c(F)c(F)c4F)c4ccc([nH]4)c(-c4c(F)c(F)c(F)c(F)c4F)c4nc(c(-c5c(F)c(F)c(F)c(F)c5F)c5ccc2[nH]5)C=C4)C=C3)cc1
REMARK SMILES IDX 15 1 14 2 13 3 11 4 12 5 10 6 1 7 2 8 3 9 4 10 9 11 5 12
REMARK SMILES IDX 8 13 6 14 7 15 16 17 17 18 18 19 19 20 20 21 81 22 21 23
REMARK SMILES IDX 80 24 22 25 23 26 24 27 74 28 25 29 79 30 73 31 75 32 26 33
REMARK SMILES IDX 78 34 72 35 71 36 27 38 59 39 39 40 58 41 40 42 43 43 57 44
REMARK SMILES IDX 76 45 41 46 42 47 56 49 77 50 44 51 28 52 29 53 37 54 30 55
REMARK SMILES IDX 31 56 35 57 38 58 32 59 33 60 36 61 34 62 60 63 61 64 69 65
REMARK SMILES IDX 62 66 63 67 67 68 70 69 64 70 65 71 68 72 66 73 45 74 46 75
REMARK SMILES IDX 54 76 47 77 48 78 52 79 55 80 49 81 50 82 53 83 51 84
REMARK H PARENT 7 16 75 37 43 48
REMARK Flexibility Score: inf
ROOT
ATOM      1  C   UNL A   1      33.962  30.404  26.995  1.00  0.00     0.275 C 
ENDROOT
BRANCH   1   2
ATOM      2  C   UNL A   1      32.437  30.232  26.966  1.00  0.00     0.275 C 
BRANCH   2   3
ATOM      3  O   UNL A   1      31.883  30.334  25.627  1.00  0.00    -0.458 OA
BRANCH   3   4
ATOM      4  C   UNL A   1      32.216  29.354  24.747  1.00  0.00     0.339 C 
ATOM      5  O   UNL A   1      33.280  29.319  24.160  1.00  0.00    -0.246 OA
BRANCH   4   6
ATOM      6  C   UNL A   1      31.152  28.325  24.587  1.00  0.00     0.074 A 
ATOM      7  C   UNL A   1      30.281  29.269  22.399  1.00  0.00     0.045 C 
ATOM      8  C   UNL A   1      30.178  28.303  23.552  1.00  0.00    -0.036 A 
ATOM      9  C   UNL A   1      29.116  27.324  23.499  1.00  0.00     0.006 A 
ATOM     10  C   UNL A   1      28.949  26.265  24.415  1.00  0.00     0.031 A 
ATOM     11  C   UNL A   1      31.030  27.175  25.387  1.00  0.00     0.034 A 
ATOM     12  C   UNL A   1      29.982  26.181  25.347  1.00  0.00     0.093 A 
ATOM     13  C   UNL A   1      31.934  26.667  26.267  1.00  0.00     0.114 A 
ATOM     14  N   UNL A   1      30.195  25.234  26.279  1.00  0.00    -0.176 NA
ATOM     15  N   UNL A   1      31.402  25.526  26.774  1.00  0.00    -0.284 N 
ATOM     16  H   UNL A   1      31.861  24.967  27.442  1.00  0.00     0.189 HD
ENDBRANCH   4   6
ENDBRANCH   3   4
ENDBRANCH   2   3
ENDBRANCH   1   2
BRANCH   1  17
ATOM     17  O   UNL A   1      34.337  31.066  28.211  1.00  0.00    -0.458 OA
BRANCH  17  18
ATOM     18  C   UNL A   1      35.441  31.850  28.126  1.00  0.00     0.338 C 
ATOM     19  O   UNL A   1      35.512  32.947  27.626  1.00  0.00    -0.246 OA
BRANCH  18  20
ATOM     20  C   UNL A   1      36.438  31.286  29.076  1.00  0.00     0.060 A 
ATOM     21  C   UNL A   1      37.610  31.964  29.452  1.00  0.00     0.016 A 
ATOM     22  C   UNL A   1      36.333  29.926  29.292  1.00  0.00     0.016 A 
ATOM     23  C   UNL A   1      38.771  31.241  29.771  1.00  0.00     0.010 A 
ATOM     24  C   UNL A   1      37.474  29.233  29.658  1.00  0.00     0.010 A 
ATOM     25  C   UNL A   1      38.741  29.849  29.750  1.00  0.00    -0.014 A 
BRANCH  25  26
ATOM     26  C   UNL A   1      39.977  29.007  29.780  1.00  0.00     0.031 A 
ATOM     27  C   UNL A   1      40.486  28.709  31.149  1.00  0.00     0.074 A 
ATOM     28  C   UNL A   1      40.526  28.288  28.754  1.00  0.00     0.049 A 
ATOM     29  N   UNL A   1      41.547  29.203  31.702  1.00  0.00    -0.248 NA
ATOM     30  C   UNL A   1      39.697  27.862  32.060  1.00  0.00     0.031 C 
ATOM     31  C   UNL A   1      40.067  28.137  27.370  1.00  0.00     0.029 A 
ATOM     32  N   UNL A   1      41.584  27.402  28.780  1.00  0.00    -0.354 N 
ATOM     33  C   UNL A   1      41.620  28.614  32.957  1.00  0.00     0.074 A 
ATOM     34  C   UNL A   1      40.343  28.016  33.212  1.00  0.00     0.031 C 
ATOM     35  C   UNL A   1      40.650  27.062  26.782  1.00  0.00     0.029 A 
ATOM     36  C   UNL A   1      41.697  26.568  27.654  1.00  0.00     0.049 A 
ATOM     37  H   UNL A   1      42.216  27.357  29.533  1.00  0.00     0.167 HD
ATOM     38  C   UNL A   1      42.798  28.401  33.597  1.00  0.00     0.037 A 
ATOM     39  C   UNL A   1      42.615  25.586  27.425  1.00  0.00     0.037 A 
ATOM     40  C   UNL A   1      43.873  29.136  32.992  1.00  0.00     0.049 A 
ATOM     41  C   UNL A   1      43.759  25.872  28.314  1.00  0.00     0.074 A 
ATOM     42  C   UNL A   1      44.078  30.472  32.710  1.00  0.00     0.029 A 
ATOM     43  N   UNL A   1      44.752  28.447  32.195  1.00  0.00    -0.354 N 
ATOM     44  N   UNL A   1      44.571  26.875  28.161  1.00  0.00    -0.248 NA
ATOM     45  C   UNL A   1      43.806  25.208  29.604  1.00  0.00     0.031 C 
ATOM     46  C   UNL A   1      44.697  30.487  31.428  1.00  0.00     0.029 A 
ATOM     47  C   UNL A   1      44.911  29.166  31.036  1.00  0.00     0.049 A 
ATOM     48  H   UNL A   1      45.188  27.592  32.414  1.00  0.00     0.167 HD
ATOM     49  C   UNL A   1      44.874  27.260  29.451  1.00  0.00     0.074 A 
ATOM     50  C   UNL A   1      44.495  26.123  30.286  1.00  0.00     0.031 C 
ATOM     51  C   UNL A   1      45.119  28.571  29.737  1.00  0.00     0.037 A 
BRANCH  38  52
ATOM     52  C   UNL A   1      43.007  27.268  34.561  1.00  0.00     0.064 A 
ATOM     53  C   UNL A   1      43.119  27.532  35.933  1.00  0.00     0.173 A 
ATOM     54  C   UNL A   1      43.313  25.946  34.160  1.00  0.00     0.173 A 
ATOM     55  F   UNL A   1      42.908  28.770  36.405  1.00  0.00    -0.203 F 
ATOM     56  C   UNL A   1      43.513  26.544  36.839  1.00  0.00     0.198 A 
ATOM     57  C   UNL A   1      43.641  24.947  35.072  1.00  0.00     0.198 A 
ATOM     58  F   UNL A   1      43.402  25.600  32.867  1.00  0.00    -0.203 F 
ATOM     59  F   UNL A   1      43.699  26.861  38.128  1.00  0.00    -0.200 F 
ATOM     60  C   UNL A   1      43.762  25.251  36.410  1.00  0.00     0.200 A 
ATOM     61  F   UNL A   1      43.900  23.708  34.630  1.00  0.00    -0.200 F 
ATOM     62  F   UNL A   1      44.169  24.313  37.275  1.00  0.00    -0.200 F 
ENDBRANCH  38  52
BRANCH  39  63
ATOM     63  C   UNL A   1      42.625  24.334  26.613  1.00  0.00     0.064 A 
ATOM     64  C   UNL A   1      43.403  24.239  25.437  1.00  0.00     0.173 A 
ATOM     65  C   UNL A   1      42.177  23.117  27.152  1.00  0.00     0.173 A 
ATOM     66  F   UNL A   1      43.892  25.344  24.855  1.00  0.00    -0.203 F 
ATOM     67  C   UNL A   1      43.772  23.007  24.883  1.00  0.00     0.198 A 
ATOM     68  C   UNL A   1      42.542  21.883  26.593  1.00  0.00     0.198 A 
ATOM     69  F   UNL A   1      41.464  23.101  28.287  1.00  0.00    -0.203 F 
ATOM     70  F   UNL A   1      44.589  22.965  23.820  1.00  0.00    -0.200 F 
ATOM     71  C   UNL A   1      43.358  21.829  25.476  1.00  0.00     0.200 A 
ATOM     72  F   UNL A   1      42.159  20.743  27.186  1.00  0.00    -0.200 F 
ATOM     73  F   UNL A   1      43.778  20.647  24.999  1.00  0.00    -0.200 F 
ENDBRANCH  39  63
BRANCH  51  74
ATOM     74  C   UNL A   1      45.382  29.513  28.587  1.00  0.00     0.064 A 
ATOM     75  C   UNL A   1      44.398  30.270  27.922  1.00  0.00     0.173 A 
ATOM     76  C   UNL A   1      46.718  29.768  28.243  1.00  0.00     0.173 A 
ATOM     77  F   UNL A   1      43.103  30.161  28.240  1.00  0.00    -0.203 F 
ATOM     78  C   UNL A   1      44.736  31.209  26.947  1.00  0.00     0.198 A 
ATOM     79  C   UNL A   1      47.054  30.737  27.301  1.00  0.00     0.198 A 
ATOM     80  F   UNL A   1      47.708  29.109  28.864  1.00  0.00    -0.203 F 
ATOM     81  F   UNL A   1      43.774  31.908  26.325  1.00  0.00    -0.200 F 
ATOM     82  C   UNL A   1      46.064  31.451  26.647  1.00  0.00     0.200 A 
ATOM     83  F   UNL A   1      48.345  31.000  27.050  1.00  0.00    -0.200 F 
ATOM     84  F   UNL A   1      46.392  32.391  25.751  1.00  0.00    -0.200 F 
ENDBRANCH  51  74
ENDBRANCH  25  26
ENDBRANCH  18  20
ENDBRANCH  17  18
ENDBRANCH   1  17
TORSDOF 11
ENDMDL
