MODEL 1
REMARK VINA RESULT:     -12.0      0.000      0.000
REMARK SMILES Cc1cscc1C(=O)N[C@H](C(=O)OCCOC(=O)c1ccc(-c2c3nc(c(-c4c(F)c(F)c(F)c(F)c4F)c4ccc([nH]4)c(-c4c(F)c(F)c(F)c(F)c4F)c4nc(c(-c5c(F)c(F)c(F)c(F)c5F)c5ccc2[nH]5)C=C4)C=C3)cc1)c1ccccc1
REMARK SMILES IDX 14 1 13 2 11 3 12 4 10 5 9 6 7 7 8 8 6 10 1 11 2 12 3 13
REMARK SMILES IDX 4 14 5 15 82 16 83 17 87 18 84 19 86 20 85 21 15 22 16 23
REMARK SMILES IDX 17 24 18 25 19 26 20 27 81 28 21 29 80 30 22 31 23 32 24 33
REMARK SMILES IDX 74 34 25 35 79 36 73 37 75 38 26 39 78 40 72 41 71 42 27 44
REMARK SMILES IDX 59 45 39 46 58 47 40 48 43 49 57 50 76 51 41 52 42 53 56 55
REMARK SMILES IDX 77 56 44 57 28 58 29 59 37 60 30 61 31 62 35 63 38 64 32 65
REMARK SMILES IDX 33 66 36 67 34 68 60 69 61 70 69 71 62 72 63 73 67 74 70 75
REMARK SMILES IDX 64 76 65 77 68 78 66 79 45 80 46 81 54 82 47 83 48 84 52 85
REMARK SMILES IDX 55 86 49 87 50 88 53 89 51 90
REMARK H PARENT 9 9 75 43 43 54
REMARK Flexibility Score: inf
ROOT
ATOM      1  C   UNL A   1      32.705  29.177  24.668  1.00  0.00     0.274 C 
ENDROOT
BRANCH   1   2
ATOM      2  O   UNL A   1      32.666  27.839  25.198  1.00  0.00    -0.460 OA
BRANCH   2   3
ATOM      3  C   UNL A   1      33.392  26.920  24.498  1.00  0.00     0.333 C 
ATOM      4  O   UNL A   1      33.730  27.075  23.327  1.00  0.00    -0.249 OA
BRANCH   3   5
ATOM      5  C   UNL A   1      33.721  25.659  25.313  1.00  0.00     0.223 C 
BRANCH   5   6
ATOM      6  N   UNL A   1      32.580  25.056  26.017  1.00  0.00    -0.335 N 
ATOM      7  C   UNL A   1      32.018  23.876  26.389  1.00  0.00     0.253 C 
ATOM      8  O   UNL A   1      31.027  24.059  27.112  1.00  0.00    -0.269 OA
ATOM      9  H   UNL A   1      32.005  25.785  26.343  1.00  0.00     0.165 HD
BRANCH   7  10
ATOM     10  C   UNL A   1      32.430  22.488  26.093  1.00  0.00     0.053 A 
ATOM     11  C   UNL A   1      34.444  21.782  27.637  1.00  0.00     0.046 C 
ATOM     12  C   UNL A   1      33.435  21.563  26.585  1.00  0.00    -0.028 A 
ATOM     13  C   UNL A   1      33.424  20.355  25.902  1.00  0.00     0.069 A 
ATOM     14  S   UNL A   1      32.265  20.288  24.671  1.00  0.00    -0.151 S 
ATOM     15  C   UNL A   1      31.767  21.872  25.027  1.00  0.00     0.079 A 
ENDBRANCH   7  10
ENDBRANCH   5   6
BRANCH   5  16
ATOM     16  C   UNL A   1      34.767  24.684  24.784  1.00  0.00    -0.014 A 
ATOM     17  C   UNL A   1      35.946  24.476  25.533  1.00  0.00     0.006 A 
ATOM     18  C   UNL A   1      34.605  23.937  23.611  1.00  0.00     0.006 A 
ATOM     19  C   UNL A   1      36.929  23.577  25.114  1.00  0.00     0.000 A 
ATOM     20  C   UNL A   1      35.593  23.039  23.187  1.00  0.00     0.000 A 
ATOM     21  C   UNL A   1      36.755  22.862  23.935  1.00  0.00     0.000 A 
ENDBRANCH   5  16
ENDBRANCH   3   5
ENDBRANCH   2   3
ENDBRANCH   1   2
BRANCH   1  22
ATOM     22  C   UNL A   1      31.831  30.084  25.533  1.00  0.00     0.275 C 
BRANCH  22  23
ATOM     23  O   UNL A   1      32.360  30.136  26.874  1.00  0.00    -0.458 OA
BRANCH  23  24
ATOM     24  C   UNL A   1      33.022  31.272  27.189  1.00  0.00     0.338 C 
ATOM     25  O   UNL A   1      32.613  32.421  27.061  1.00  0.00    -0.246 OA
BRANCH  24  26
ATOM     26  C   UNL A   1      34.378  30.966  27.682  1.00  0.00     0.060 A 
ATOM     27  C   UNL A   1      34.771  29.650  27.929  1.00  0.00     0.016 A 
ATOM     28  C   UNL A   1      35.234  32.017  28.016  1.00  0.00     0.016 A 
ATOM     29  C   UNL A   1      35.997  29.377  28.543  1.00  0.00     0.010 A 
ATOM     30  C   UNL A   1      36.472  31.748  28.609  1.00  0.00     0.010 A 
ATOM     31  C   UNL A   1      36.849  30.427  28.910  1.00  0.00    -0.014 A 
BRANCH  31  32
ATOM     32  C   UNL A   1      38.061  30.168  29.730  1.00  0.00     0.031 A 
ATOM     33  C   UNL A   1      39.152  29.297  29.167  1.00  0.00     0.074 A 
ATOM     34  C   UNL A   1      38.214  30.721  30.946  1.00  0.00     0.049 A 
ATOM     35  N   UNL A   1      40.217  28.810  29.751  1.00  0.00    -0.248 NA
ATOM     36  C   UNL A   1      39.026  28.933  27.746  1.00  0.00     0.031 C 
ATOM     37  C   UNL A   1      37.285  31.660  31.570  1.00  0.00     0.029 A 
ATOM     38  N   UNL A   1      39.216  30.573  31.874  1.00  0.00    -0.354 N 
ATOM     39  C   UNL A   1      40.868  28.055  28.783  1.00  0.00     0.074 A 
ATOM     40  C   UNL A   1      40.081  28.150  27.572  1.00  0.00     0.031 C 
ATOM     41  C   UNL A   1      37.763  32.011  32.776  1.00  0.00     0.029 A 
ATOM     42  C   UNL A   1      38.997  31.272  33.036  1.00  0.00     0.049 A 
ATOM     43  H   UNL A   1      40.014  30.017  31.722  1.00  0.00     0.167 HD
ATOM     44  C   UNL A   1      42.013  27.340  28.898  1.00  0.00     0.037 A 
ATOM     45  C   UNL A   1      39.692  31.283  34.191  1.00  0.00     0.037 A 
ATOM     46  C   UNL A   1      42.802  27.260  30.099  1.00  0.00     0.049 A 
ATOM     47  C   UNL A   1      40.920  30.419  34.322  1.00  0.00     0.074 A 
ATOM     48  C   UNL A   1      43.957  26.532  30.330  1.00  0.00     0.029 A 
ATOM     49  N   UNL A   1      42.520  27.944  31.273  1.00  0.00    -0.354 N 
ATOM     50  N   UNL A   1      41.489  29.647  33.429  1.00  0.00    -0.248 NA
ATOM     51  C   UNL A   1      41.590  30.412  35.631  1.00  0.00     0.031 C 
ATOM     52  C   UNL A   1      44.352  26.747  31.655  1.00  0.00     0.029 A 
ATOM     53  C   UNL A   1      43.468  27.643  32.236  1.00  0.00     0.049 A 
ATOM     54  H   UNL A   1      41.757  28.552  31.401  1.00  0.00     0.167 HD
ATOM     55  C   UNL A   1      42.586  29.074  34.059  1.00  0.00     0.074 A 
ATOM     56  C   UNL A   1      42.616  29.602  35.407  1.00  0.00     0.031 C 
ATOM     57  C   UNL A   1      43.484  28.183  33.570  1.00  0.00     0.037 A 
BRANCH  44  58
ATOM     58  C   UNL A   1      42.447  26.541  27.706  1.00  0.00     0.064 A 
ATOM     59  C   UNL A   1      43.407  27.018  26.801  1.00  0.00     0.173 A 
ATOM     60  C   UNL A   1      41.896  25.272  27.470  1.00  0.00     0.173 A 
ATOM     61  F   UNL A   1      43.949  28.234  26.971  1.00  0.00    -0.203 F 
ATOM     62  C   UNL A   1      43.779  26.264  25.690  1.00  0.00     0.198 A 
ATOM     63  C   UNL A   1      42.289  24.511  26.373  1.00  0.00     0.198 A 
ATOM     64  F   UNL A   1      40.976  24.769  28.307  1.00  0.00    -0.203 F 
ATOM     65  F   UNL A   1      44.662  26.759  24.812  1.00  0.00    -0.200 F 
ATOM     66  C   UNL A   1      43.224  25.011  25.480  1.00  0.00     0.200 A 
ATOM     67  F   UNL A   1      41.757  23.296  26.176  1.00  0.00    -0.200 F 
ATOM     68  F   UNL A   1      43.582  24.288  24.409  1.00  0.00    -0.200 F 
ENDBRANCH  44  58
BRANCH  45  69
ATOM     69  C   UNL A   1      39.218  32.107  35.336  1.00  0.00     0.064 A 
ATOM     70  C   UNL A   1      39.574  33.457  35.453  1.00  0.00     0.173 A 
ATOM     71  C   UNL A   1      38.416  31.555  36.346  1.00  0.00     0.173 A 
ATOM     72  F   UNL A   1      40.369  34.023  34.533  1.00  0.00    -0.203 F 
ATOM     73  C   UNL A   1      39.152  34.221  36.542  1.00  0.00     0.198 A 
ATOM     74  C   UNL A   1      37.969  32.326  37.416  1.00  0.00     0.198 A 
ATOM     75  F   UNL A   1      38.056  30.264  36.289  1.00  0.00    -0.203 F 
ATOM     76  F   UNL A   1      39.545  35.497  36.653  1.00  0.00    -0.200 F 
ATOM     77  C   UNL A   1      38.344  33.658  37.517  1.00  0.00     0.200 A 
ATOM     78  F   UNL A   1      37.182  31.779  38.351  1.00  0.00    -0.200 F 
ATOM     79  F   UNL A   1      37.935  34.394  38.559  1.00  0.00    -0.200 F 
ENDBRANCH  45  69
BRANCH  57  80
ATOM     80  C   UNL A   1      44.585  27.741  34.489  1.00  0.00     0.064 A 
ATOM     81  C   UNL A   1      44.432  26.633  35.335  1.00  0.00     0.173 A 
ATOM     82  C   UNL A   1      45.818  28.409  34.492  1.00  0.00     0.173 A 
ATOM     83  F   UNL A   1      43.266  25.971  35.377  1.00  0.00    -0.203 F 
ATOM     84  C   UNL A   1      45.471  26.219  36.164  1.00  0.00     0.198 A 
ATOM     85  C   UNL A   1      46.862  27.978  35.307  1.00  0.00     0.198 A 
ATOM     86  F   UNL A   1      46.015  29.470  33.697  1.00  0.00    -0.203 F 
ATOM     87  F   UNL A   1      45.291  25.181  36.993  1.00  0.00    -0.200 F 
ATOM     88  C   UNL A   1      46.685  26.888  36.146  1.00  0.00     0.200 A 
ATOM     89  F   UNL A   1      48.039  28.619  35.279  1.00  0.00    -0.200 F 
ATOM     90  F   UNL A   1      47.686  26.485  36.942  1.00  0.00    -0.200 F 
ENDBRANCH  57  80
ENDBRANCH  31  32
ENDBRANCH  24  26
ENDBRANCH  23  24
ENDBRANCH  22  23
ENDBRANCH   1  22
TORSDOF 14
ENDMDL
MODEL 2
REMARK VINA RESULT:     -11.9      1.442      2.706
REMARK SMILES Cc1cscc1C(=O)N[C@H](C(=O)OCCOC(=O)c1ccc(-c2c3nc(c(-c4c(F)c(F)c(F)c(F)c4F)c4ccc([nH]4)c(-c4c(F)c(F)c(F)c(F)c4F)c4nc(c(-c5c(F)c(F)c(F)c(F)c5F)c5ccc2[nH]5)C=C4)C=C3)cc1)c1ccccc1
REMARK SMILES IDX 14 1 13 2 11 3 12 4 10 5 9 6 7 7 8 8 6 10 1 11 2 12 3 13
REMARK SMILES IDX 4 14 5 15 82 16 83 17 87 18 84 19 86 20 85 21 15 22 16 23
REMARK SMILES IDX 17 24 18 25 19 26 20 27 81 28 21 29 80 30 22 31 23 32 24 33
REMARK SMILES IDX 74 34 25 35 79 36 73 37 75 38 26 39 78 40 72 41 71 42 27 44
REMARK SMILES IDX 59 45 39 46 58 47 40 48 43 49 57 50 76 51 41 52 42 53 56 55
REMARK SMILES IDX 77 56 44 57 28 58 29 59 37 60 30 61 31 62 35 63 38 64 32 65
REMARK SMILES IDX 33 66 36 67 34 68 60 69 61 70 69 71 62 72 63 73 67 74 70 75
REMARK SMILES IDX 64 76 65 77 68 78 66 79 45 80 46 81 54 82 47 83 48 84 52 85
REMARK SMILES IDX 55 86 49 87 50 88 53 89 51 90
REMARK H PARENT 9 9 75 43 43 54
REMARK Flexibility Score: inf
ROOT
ATOM      1  C   UNL A   1      33.070  29.294  24.824  1.00  0.00     0.274 C 
ENDROOT
BRANCH   1   2
ATOM      2  O   UNL A   1      32.667  27.912  24.808  1.00  0.00    -0.460 OA
BRANCH   2   3
ATOM      3  C   UNL A   1      32.201  27.460  23.609  1.00  0.00     0.333 C 
ATOM      4  O   UNL A   1      32.920  27.271  22.631  1.00  0.00    -0.249 OA
BRANCH   3   5
ATOM      5  C   UNL A   1      30.679  27.235  23.595  1.00  0.00     0.223 C 
BRANCH   5   6
ATOM      6  N   UNL A   1      30.141  26.541  24.774  1.00  0.00    -0.335 N 
ATOM      7  C   UNL A   1      30.332  25.487  25.610  1.00  0.00     0.253 C 
ATOM      8  O   UNL A   1      29.521  25.505  26.548  1.00  0.00    -0.269 OA
ATOM      9  H   UNL A   1      29.336  27.024  25.070  1.00  0.00     0.165 HD
BRANCH   7  10
ATOM     10  C   UNL A   1      31.342  24.408  25.569  1.00  0.00     0.053 A 
ATOM     11  C   UNL A   1      31.853  23.725  23.077  1.00  0.00     0.046 C 
ATOM     12  C   UNL A   1      32.015  23.638  24.539  1.00  0.00    -0.028 A 
ATOM     13  C   UNL A   1      32.869  22.680  25.067  1.00  0.00     0.069 A 
ATOM     14  S   UNL A   1      32.883  22.649  26.759  1.00  0.00    -0.151 S 
ATOM     15  C   UNL A   1      31.745  23.908  26.811  1.00  0.00     0.079 A 
ENDBRANCH   7  10
ENDBRANCH   5   6
BRANCH   5  16
ATOM     16  C   UNL A   1      29.777  28.299  22.980  1.00  0.00    -0.014 A 
ATOM     17  C   UNL A   1      28.390  28.251  23.243  1.00  0.00     0.006 A 
ATOM     18  C   UNL A   1      30.253  29.362  22.203  1.00  0.00     0.006 A 
ATOM     19  C   UNL A   1      27.516  29.212  22.731  1.00  0.00     0.000 A 
ATOM     20  C   UNL A   1      29.375  30.323  21.684  1.00  0.00     0.000 A 
ATOM     21  C   UNL A   1      28.009  30.246  21.943  1.00  0.00     0.000 A 
ENDBRANCH   5  16
ENDBRANCH   3   5
ENDBRANCH   2   3
ENDBRANCH   1   2
BRANCH   1  22
ATOM     22  C   UNL A   1      31.997  30.121  25.529  1.00  0.00     0.275 C 
BRANCH  22  23
ATOM     23  O   UNL A   1      32.326  30.257  26.927  1.00  0.00    -0.458 OA
BRANCH  23  24
ATOM     24  C   UNL A   1      33.031  31.366  27.248  1.00  0.00     0.338 C 
ATOM     25  O   UNL A   1      32.671  32.530  27.115  1.00  0.00    -0.246 OA
BRANCH  24  26
ATOM     26  C   UNL A   1      34.369  31.005  27.754  1.00  0.00     0.060 A 
ATOM     27  C   UNL A   1      34.683  29.682  28.070  1.00  0.00     0.016 A 
ATOM     28  C   UNL A   1      35.288  32.018  28.029  1.00  0.00     0.016 A 
ATOM     29  C   UNL A   1      35.893  29.369  28.695  1.00  0.00     0.010 A 
ATOM     30  C   UNL A   1      36.511  31.706  28.633  1.00  0.00     0.010 A 
ATOM     31  C   UNL A   1      36.809  30.383  29.004  1.00  0.00    -0.014 A 
BRANCH  31  32
ATOM     32  C   UNL A   1      38.008  30.095  29.834  1.00  0.00     0.031 A 
ATOM     33  C   UNL A   1      39.096  29.221  29.269  1.00  0.00     0.074 A 
ATOM     34  C   UNL A   1      38.151  30.624  31.062  1.00  0.00     0.049 A 
ATOM     35  N   UNL A   1      40.147  28.711  29.858  1.00  0.00    -0.248 NA
ATOM     36  C   UNL A   1      38.983  28.884  27.841  1.00  0.00     0.031 C 
ATOM     37  C   UNL A   1      37.225  31.563  31.691  1.00  0.00     0.029 A 
ATOM     38  N   UNL A   1      39.139  30.448  32.000  1.00  0.00    -0.354 N 
ATOM     39  C   UNL A   1      40.801  27.966  28.885  1.00  0.00     0.074 A 
ATOM     40  C   UNL A   1      40.031  28.092  27.666  1.00  0.00     0.031 C 
ATOM     41  C   UNL A   1      37.692  31.886  32.909  1.00  0.00     0.029 A 
ATOM     42  C   UNL A   1      38.914  31.128  33.171  1.00  0.00     0.049 A 
ATOM     43  H   UNL A   1      39.933  29.885  31.848  1.00  0.00     0.167 HD
ATOM     44  C   UNL A   1      41.937  27.235  29.001  1.00  0.00     0.037 A 
ATOM     45  C   UNL A   1      39.594  31.111  34.335  1.00  0.00     0.037 A 
ATOM     46  C   UNL A   1      42.709  27.125  30.211  1.00  0.00     0.049 A 
ATOM     47  C   UNL A   1      40.810  30.230  34.466  1.00  0.00     0.074 A 
ATOM     48  C   UNL A   1      43.852  26.379  30.443  1.00  0.00     0.029 A 
ATOM     49  N   UNL A   1      42.420  27.790  31.393  1.00  0.00    -0.354 N 
ATOM     50  N   UNL A   1      41.381  29.467  33.566  1.00  0.00    -0.248 NA
ATOM     51  C   UNL A   1      41.463  30.191  35.783  1.00  0.00     0.031 C 
ATOM     52  C   UNL A   1      44.233  26.565  31.777  1.00  0.00     0.029 A 
ATOM     53  C   UNL A   1      43.352  27.461  32.363  1.00  0.00     0.049 A 
ATOM     54  H   UNL A   1      41.663  28.406  31.523  1.00  0.00     0.167 HD
ATOM     55  C   UNL A   1      42.463  28.870  34.200  1.00  0.00     0.074 A 
ATOM     56  C   UNL A   1      42.482  29.374  35.557  1.00  0.00     0.031 C 
ATOM     57  C   UNL A   1      43.357  27.977  33.706  1.00  0.00     0.037 A 
BRANCH  44  58
ATOM     58  C   UNL A   1      42.376  26.453  27.800  1.00  0.00     0.064 A 
ATOM     59  C   UNL A   1      43.334  26.946  26.902  1.00  0.00     0.173 A 
ATOM     60  C   UNL A   1      41.833  25.183  27.550  1.00  0.00     0.173 A 
ATOM     61  F   UNL A   1      43.869  28.162  27.087  1.00  0.00    -0.203 F 
ATOM     62  C   UNL A   1      43.712  26.207  25.783  1.00  0.00     0.198 A 
ATOM     63  C   UNL A   1      42.231  24.437  26.445  1.00  0.00     0.198 A 
ATOM     64  F   UNL A   1      40.916  24.665  28.381  1.00  0.00    -0.203 F 
ATOM     65  F   UNL A   1      44.592  26.717  24.911  1.00  0.00    -0.200 F 
ATOM     66  C   UNL A   1      43.164  24.952  25.558  1.00  0.00     0.200 A 
ATOM     67  F   UNL A   1      41.707  23.221  26.233  1.00  0.00    -0.200 F 
ATOM     68  F   UNL A   1      43.528  24.244  24.480  1.00  0.00    -0.200 F 
ENDBRANCH  44  58
BRANCH  45  69
ATOM     69  C   UNL A   1      39.115  31.919  35.488  1.00  0.00     0.064 A 
ATOM     70  C   UNL A   1      39.491  33.261  35.638  1.00  0.00     0.173 A 
ATOM     71  C   UNL A   1      38.288  31.361  36.474  1.00  0.00     0.173 A 
ATOM     72  F   UNL A   1      40.310  33.832  34.743  1.00  0.00    -0.203 F 
ATOM     73  C   UNL A   1      39.064  34.011  36.735  1.00  0.00     0.198 A 
ATOM     74  C   UNL A   1      37.837  32.119  37.553  1.00  0.00     0.198 A 
ATOM     75  F   UNL A   1      37.908  30.078  36.386  1.00  0.00    -0.203 F 
ATOM     76  F   UNL A   1      39.476  35.277  36.878  1.00  0.00    -0.200 F 
ATOM     77  C   UNL A   1      38.231  33.441  37.686  1.00  0.00     0.200 A 
ATOM     78  F   UNL A   1      37.026  31.566  38.464  1.00  0.00    -0.200 F 
ATOM     79  F   UNL A   1      37.818  34.163  38.736  1.00  0.00    -0.200 F 
ENDBRANCH  45  69
BRANCH  57  80
ATOM     80  C   UNL A   1      44.441  27.506  34.630  1.00  0.00     0.064 A 
ATOM     81  C   UNL A   1      44.288  26.349  35.408  1.00  0.00     0.173 A 
ATOM     82  C   UNL A   1      45.659  28.197  34.707  1.00  0.00     0.173 A 
ATOM     83  F   UNL A   1      43.136  25.663  35.380  1.00  0.00    -0.203 F 
ATOM     84  C   UNL A   1      45.312  25.910  36.244  1.00  0.00     0.198 A 
ATOM     85  C   UNL A   1      46.689  27.742  35.527  1.00  0.00     0.198 A 
ATOM     86  F   UNL A   1      45.855  29.305  33.978  1.00  0.00    -0.203 F 
ATOM     87  F   UNL A   1      45.131  24.823  37.007  1.00  0.00    -0.200 F 
ATOM     88  C   UNL A   1      46.512  26.602  36.298  1.00  0.00     0.200 A 
ATOM     89  F   UNL A   1      47.852  28.405  35.570  1.00  0.00    -0.200 F 
ATOM     90  F   UNL A   1      47.498  26.175  37.099  1.00  0.00    -0.200 F 
ENDBRANCH  57  80
ENDBRANCH  31  32
ENDBRANCH  24  26
ENDBRANCH  23  24
ENDBRANCH  22  23
ENDBRANCH   1  22
TORSDOF 14
ENDMDL
MODEL 3
REMARK VINA RESULT:     -11.9      1.681      3.129
REMARK SMILES Cc1cscc1C(=O)N[C@H](C(=O)OCCOC(=O)c1ccc(-c2c3nc(c(-c4c(F)c(F)c(F)c(F)c4F)c4ccc([nH]4)c(-c4c(F)c(F)c(F)c(F)c4F)c4nc(c(-c5c(F)c(F)c(F)c(F)c5F)c5ccc2[nH]5)C=C4)C=C3)cc1)c1ccccc1
REMARK SMILES IDX 14 1 13 2 11 3 12 4 10 5 9 6 7 7 8 8 6 10 1 11 2 12 3 13
REMARK SMILES IDX 4 14 5 15 82 16 83 17 87 18 84 19 86 20 85 21 15 22 16 23
REMARK SMILES IDX 17 24 18 25 19 26 20 27 81 28 21 29 80 30 22 31 23 32 24 33
REMARK SMILES IDX 74 34 25 35 79 36 73 37 75 38 26 39 78 40 72 41 71 42 27 44
REMARK SMILES IDX 59 45 39 46 58 47 40 48 43 49 57 50 76 51 41 52 42 53 56 55
REMARK SMILES IDX 77 56 44 57 28 58 29 59 37 60 30 61 31 62 35 63 38 64 32 65
REMARK SMILES IDX 33 66 36 67 34 68 60 69 61 70 69 71 62 72 63 73 67 74 70 75
REMARK SMILES IDX 64 76 65 77 68 78 66 79 45 80 46 81 54 82 47 83 48 84 52 85
REMARK SMILES IDX 55 86 49 87 50 88 53 89 51 90
REMARK H PARENT 9 9 75 43 43 54
REMARK Flexibility Score: inf
ROOT
ATOM      1  C   UNL A   1      31.744  28.722  27.252  1.00  0.00     0.274 C 
ENDROOT
BRANCH   1   2
ATOM      2  O   UNL A   1      32.678  27.833  26.612  1.00  0.00    -0.460 OA
BRANCH   2   3
ATOM      3  C   UNL A   1      32.148  26.654  26.177  1.00  0.00     0.333 C 
ATOM      4  O   UNL A   1      31.400  25.957  26.857  1.00  0.00    -0.249 OA
BRANCH   3   5
ATOM      5  C   UNL A   1      32.601  26.272  24.758  1.00  0.00     0.223 C 
BRANCH   5   6
ATOM      6  N   UNL A   1      32.660  27.387  23.801  1.00  0.00    -0.335 N 
ATOM      7  C   UNL A   1      31.908  28.289  23.117  1.00  0.00     0.253 C 
ATOM      8  O   UNL A   1      32.622  29.093  22.500  1.00  0.00    -0.269 OA
ATOM      9  H   UNL A   1      33.604  27.537  23.567  1.00  0.00     0.165 HD
BRANCH   7  10
ATOM     10  C   UNL A   1      30.440  28.448  23.048  1.00  0.00     0.053 A 
ATOM     11  C   UNL A   1      29.240  26.296  23.978  1.00  0.00     0.046 C 
ATOM     12  C   UNL A   1      29.279  27.650  23.396  1.00  0.00    -0.028 A 
ATOM     13  C   UNL A   1      28.086  28.277  23.067  1.00  0.00     0.069 A 
ATOM     14  S   UNL A   1      28.299  29.786  22.333  1.00  0.00    -0.151 S 
ATOM     15  C   UNL A   1      29.985  29.621  22.437  1.00  0.00     0.079 A 
ENDBRANCH   7  10
ENDBRANCH   5   6
BRANCH   5  16
ATOM     16  C   UNL A   1      33.659  25.188  24.582  1.00  0.00    -0.014 A 
ATOM     17  C   UNL A   1      33.638  24.399  23.411  1.00  0.00     0.006 A 
ATOM     18  C   UNL A   1      34.691  24.959  25.500  1.00  0.00     0.006 A 
ATOM     19  C   UNL A   1      34.595  23.409  23.181  1.00  0.00     0.000 A 
ATOM     20  C   UNL A   1      35.648  23.962  25.272  1.00  0.00     0.000 A 
ATOM     21  C   UNL A   1      35.598  23.185  24.117  1.00  0.00     0.000 A 
ENDBRANCH   5  16
ENDBRANCH   3   5
ENDBRANCH   2   3
ENDBRANCH   1   2
BRANCH   1  22
ATOM     22  C   UNL A   1      31.748  30.063  26.522  1.00  0.00     0.275 C 
BRANCH  22  23
ATOM     23  O   UNL A   1      33.107  30.505  26.321  1.00  0.00    -0.458 OA
BRANCH  23  24
ATOM     24  C   UNL A   1      33.553  31.420  27.210  1.00  0.00     0.338 C 
ATOM     25  O   UNL A   1      32.988  32.454  27.548  1.00  0.00    -0.246 OA
BRANCH  24  26
ATOM     26  C   UNL A   1      34.886  31.045  27.719  1.00  0.00     0.060 A 
ATOM     27  C   UNL A   1      35.183  29.721  28.045  1.00  0.00     0.016 A 
ATOM     28  C   UNL A   1      35.818  32.049  27.990  1.00  0.00     0.016 A 
ATOM     29  C   UNL A   1      36.388  29.396  28.672  1.00  0.00     0.010 A 
ATOM     30  C   UNL A   1      37.036  31.725  28.597  1.00  0.00     0.010 A 
ATOM     31  C   UNL A   1      37.317  30.400  28.976  1.00  0.00    -0.014 A 
BRANCH  31  32
ATOM     32  C   UNL A   1      38.511  30.102  29.809  1.00  0.00     0.031 A 
ATOM     33  C   UNL A   1      39.588  29.210  29.251  1.00  0.00     0.074 A 
ATOM     34  C   UNL A   1      38.661  30.638  31.033  1.00  0.00     0.049 A 
ATOM     35  N   UNL A   1      40.632  28.690  29.844  1.00  0.00    -0.248 NA
ATOM     36  C   UNL A   1      39.472  28.864  27.825  1.00  0.00     0.031 C 
ATOM     37  C   UNL A   1      37.747  31.593  31.654  1.00  0.00     0.029 A 
ATOM     38  N   UNL A   1      39.646  30.455  31.973  1.00  0.00    -0.354 N 
ATOM     39  C   UNL A   1      41.276  27.929  28.877  1.00  0.00     0.074 A 
ATOM     40  C   UNL A   1      40.509  28.056  27.656  1.00  0.00     0.031 C 
ATOM     41  C   UNL A   1      38.217  31.919  32.870  1.00  0.00     0.029 A 
ATOM     42  C   UNL A   1      39.429  31.147  33.139  1.00  0.00     0.049 A 
ATOM     43  H   UNL A   1      40.432  29.881  31.825  1.00  0.00     0.167 HD
ATOM     44  C   UNL A   1      42.402  27.184  28.999  1.00  0.00     0.037 A 
ATOM     45  C   UNL A   1      40.108  31.129  34.303  1.00  0.00     0.037 A 
ATOM     46  C   UNL A   1      43.172  27.072  30.210  1.00  0.00     0.049 A 
ATOM     47  C   UNL A   1      41.312  30.232  34.441  1.00  0.00     0.074 A 
ATOM     48  C   UNL A   1      44.305  26.312  30.448  1.00  0.00     0.029 A 
ATOM     49  N   UNL A   1      42.891  27.750  31.387  1.00  0.00    -0.354 N 
ATOM     50  N   UNL A   1      41.873  29.456  33.548  1.00  0.00    -0.248 NA
ATOM     51  C   UNL A   1      41.964  30.194  35.759  1.00  0.00     0.031 C 
ATOM     52  C   UNL A   1      44.688  26.503  31.781  1.00  0.00     0.029 A 
ATOM     53  C   UNL A   1      43.818  27.415  32.360  1.00  0.00     0.049 A 
ATOM     54  H   UNL A   1      42.142  28.376  31.512  1.00  0.00     0.167 HD
ATOM     55  C   UNL A   1      42.947  28.848  34.186  1.00  0.00     0.074 A 
ATOM     56  C   UNL A   1      42.972  29.362  35.540  1.00  0.00     0.031 C 
ATOM     57  C   UNL A   1      43.829  27.940  33.700  1.00  0.00     0.037 A 
BRANCH  44  58
ATOM     58  C   UNL A   1      42.831  26.387  27.804  1.00  0.00     0.064 A 
ATOM     59  C   UNL A   1      43.749  26.887  26.869  1.00  0.00     0.173 A 
ATOM     60  C   UNL A   1      42.320  25.097  27.598  1.00  0.00     0.173 A 
ATOM     61  F   UNL A   1      44.252  28.123  27.011  1.00  0.00    -0.203 F 
ATOM     62  C   UNL A   1      44.119  26.134  25.756  1.00  0.00     0.198 A 
ATOM     63  C   UNL A   1      42.710  24.337  26.499  1.00  0.00     0.198 A 
ATOM     64  F   UNL A   1      41.442  24.571  28.465  1.00  0.00    -0.203 F 
ATOM     65  F   UNL A   1      44.959  26.650  24.849  1.00  0.00    -0.200 F 
ATOM     66  C   UNL A   1      43.602  24.859  25.574  1.00  0.00     0.200 A 
ATOM     67  F   UNL A   1      42.217  23.102  26.329  1.00  0.00    -0.200 F 
ATOM     68  F   UNL A   1      43.957  24.137  24.503  1.00  0.00    -0.200 F 
ENDBRANCH  44  58
BRANCH  45  69
ATOM     69  C   UNL A   1      39.640  31.952  35.451  1.00  0.00     0.064 A 
ATOM     70  C   UNL A   1      38.666  31.472  36.337  1.00  0.00     0.173 A 
ATOM     71  C   UNL A   1      40.143  33.242  35.673  1.00  0.00     0.173 A 
ATOM     72  F   UNL A   1      38.127  30.259  36.148  1.00  0.00    -0.203 F 
ATOM     73  C   UNL A   1      38.208  32.255  37.397  1.00  0.00     0.198 A 
ATOM     74  C   UNL A   1      39.708  34.012  36.750  1.00  0.00     0.198 A 
ATOM     75  F   UNL A   1      41.068  33.755  34.848  1.00  0.00    -0.203 F 
ATOM     76  F   UNL A   1      37.244  31.791  38.202  1.00  0.00    -0.200 F 
ATOM     77  C   UNL A   1      38.736  33.521  37.607  1.00  0.00     0.200 A 
ATOM     78  F   UNL A   1      40.227  35.230  36.952  1.00  0.00    -0.200 F 
ATOM     79  F   UNL A   1      38.299  34.270  38.628  1.00  0.00    -0.200 F 
ENDBRANCH  45  69
BRANCH  57  80
ATOM     80  C   UNL A   1      44.906  27.462  34.628  1.00  0.00     0.064 A 
ATOM     81  C   UNL A   1      46.136  28.129  34.729  1.00  0.00     0.173 A 
ATOM     82  C   UNL A   1      44.690  26.349  35.454  1.00  0.00     0.173 A 
ATOM     83  F   UNL A   1      46.394  29.190  33.949  1.00  0.00    -0.203 F 
ATOM     84  C   UNL A   1      47.117  27.689  35.612  1.00  0.00     0.198 A 
ATOM     85  C   UNL A   1      45.666  25.925  36.352  1.00  0.00     0.198 A 
ATOM     86  F   UNL A   1      43.529  25.681  35.398  1.00  0.00    -0.203 F 
ATOM     87  F   UNL A   1      48.299  28.319  35.666  1.00  0.00    -0.200 F 
ATOM     88  C   UNL A   1      46.880  26.592  36.426  1.00  0.00     0.200 A 
ATOM     89  F   UNL A   1      45.431  24.871  37.146  1.00  0.00    -0.200 F 
ATOM     90  F   UNL A   1      47.825  26.172  37.280  1.00  0.00    -0.200 F 
ENDBRANCH  57  80
ENDBRANCH  31  32
ENDBRANCH  24  26
ENDBRANCH  23  24
ENDBRANCH  22  23
ENDBRANCH   1  22
TORSDOF 14
ENDMDL
