MODEL 1
REMARK VINA RESULT:     -13.3      0.000      0.000
REMARK SMILES O=C1NC(=O)/C(=C/c2ccc(OCc3cn(-c4ccc(C(=O)OCCOC(=O)c5ccc(-c6c7nc(c(-c8c(F)c(F)c(F)c(F)c8F)c8ccc([nH]8)c(-c8c(F)c(F)c(F)c(F)c8F)c8nc(c(-c9c(F)c(F)c(F)c(F)c9F)c9ccc6[nH]9)C=C8)C=C7)cc5)cc4)nn3)cc2)S1
REMARK SMILES IDX 23 1 21 2 22 3 20 4 17 5 18 6 93 7 19 8 92 9 16 10 14 11
REMARK SMILES IDX 15 12 95 13 94 14 13 15 12 16 11 17 8 18 9 19 97 20 10 21
REMARK SMILES IDX 96 22 7 23 1 24 2 25 3 26 98 27 4 28 6 30 5 31 24 32 25 33
REMARK SMILES IDX 26 34 27 35 28 36 29 37 30 38 91 39 31 40 90 41 32 42 33 43
REMARK SMILES IDX 34 44 84 45 35 46 89 47 83 48 85 49 36 50 88 51 82 52 81 53
REMARK SMILES IDX 37 55 69 56 49 57 68 58 50 59 53 60 67 61 86 62 51 63 52 64
REMARK SMILES IDX 66 66 87 67 54 68 38 69 39 70 47 71 40 72 41 73 45 74 48 75
REMARK SMILES IDX 42 76 43 77 46 78 44 79 70 80 71 81 79 82 72 83 73 84 77 85
REMARK SMILES IDX 80 86 74 87 75 88 78 89 76 90 55 91 56 92 64 93 57 94 58 95
REMARK SMILES IDX 62 96 65 97 59 98 60 99 63 100 61 101
REMARK H PARENT 3 29 85 54 53 65
REMARK Flexibility Score: inf
ROOT
ATOM      1  O   UNL A   1      42.348  19.047  25.826  1.00  0.00    -0.458 OA
ENDROOT
BRANCH   1   2
ATOM      2  C   UNL A   1      41.921  20.098  26.569  1.00  0.00     0.338 C 
ATOM      3  O   UNL A   1      42.565  20.702  27.414  1.00  0.00    -0.246 OA
BRANCH   2   4
ATOM      4  C   UNL A   1      40.563  20.507  26.150  1.00  0.00     0.060 A 
ATOM      5  C   UNL A   1      37.967  21.328  25.568  1.00  0.00     0.066 A 
ATOM      6  C   UNL A   1      38.878  22.239  26.124  1.00  0.00     0.029 A 
ATOM      7  C   UNL A   1      38.373  20.031  25.235  1.00  0.00     0.029 A 
ATOM      8  C   UNL A   1      40.164  21.817  26.442  1.00  0.00     0.018 A 
ATOM      9  C   UNL A   1      39.684  19.629  25.504  1.00  0.00     0.018 A 
BRANCH   5  10
ATOM     10  N   UNL A   1      36.623  21.729  25.421  1.00  0.00    -0.220 N 
ATOM     11  C   UNL A   1      34.455  21.784  25.180  1.00  0.00     0.120 A 
ATOM     12  C   UNL A   1      35.563  21.005  24.919  1.00  0.00     0.144 A 
ATOM     13  N   UNL A   1      34.869  22.940  25.786  1.00  0.00    -0.131 NA
ATOM     14  N   UNL A   1      36.178  22.895  25.935  1.00  0.00    -0.062 NA
BRANCH  11  15
ATOM     15  C   UNL A   1      32.998  21.498  25.020  1.00  0.00     0.289 C 
BRANCH  15  16
ATOM     16  O   UNL A   1      32.487  21.625  23.682  1.00  0.00    -0.487 OA
BRANCH  16  17
ATOM     17  C   UNL A   1      31.973  22.834  23.298  1.00  0.00     0.119 A 
ATOM     18  C   UNL A   1      31.287  25.466  22.587  1.00  0.00    -0.024 A 
ATOM     19  C   UNL A   1      32.414  24.857  22.028  1.00  0.00     0.012 A 
ATOM     20  C   UNL A   1      30.458  24.717  23.426  1.00  0.00     0.012 A 
ATOM     21  C   UNL A   1      32.755  23.549  22.389  1.00  0.00     0.047 A 
ATOM     22  C   UNL A   1      30.785  23.400  23.755  1.00  0.00     0.047 A 
BRANCH  18  23
ATOM     23  C   UNL A   1      30.957  26.859  22.282  1.00  0.00     0.029 C 
ATOM     24  O   UNL A   1      31.535  30.218  25.990  1.00  0.00    -0.261 OA
ATOM     25  C   UNL A   1      31.322  29.594  24.971  1.00  0.00     0.290 C 
ATOM     26  N   UNL A   1      30.786  30.100  23.826  1.00  0.00    -0.282 N 
ATOM     27  S   UNL A   1      31.660  27.889  24.754  1.00  0.00    -0.022 SA
ATOM     28  C   UNL A   1      30.614  29.258  22.770  1.00  0.00     0.265 C 
ATOM     29  H   UNL A   1      30.532  31.048  23.764  1.00  0.00     0.174 HD
ATOM     30  C   UNL A   1      31.060  27.888  23.136  1.00  0.00     0.083 C 
ATOM     31  O   UNL A   1      30.143  29.584  21.691  1.00  0.00    -0.268 OA
ENDBRANCH  18  23
ENDBRANCH  16  17
ENDBRANCH  15  16
ENDBRANCH  11  15
ENDBRANCH   5  10
ENDBRANCH   2   4
ENDBRANCH   1   2
BRANCH   1  32
ATOM     32  C   UNL A   1      43.554  18.429  26.296  1.00  0.00     0.275 C 
BRANCH  32  33
ATOM     33  C   UNL A   1      44.689  18.597  25.294  1.00  0.00     0.275 C 
BRANCH  33  34
ATOM     34  O   UNL A   1      45.265  19.905  25.318  1.00  0.00    -0.458 OA
BRANCH  34  35
ATOM     35  C   UNL A   1      44.785  20.754  24.380  1.00  0.00     0.338 C 
ATOM     36  O   UNL A   1      44.628  20.535  23.190  1.00  0.00    -0.246 OA
BRANCH  35  37
ATOM     37  C   UNL A   1      44.706  22.105  24.947  1.00  0.00     0.060 A 
ATOM     38  C   UNL A   1      45.521  22.415  26.039  1.00  0.00     0.016 A 
ATOM     39  C   UNL A   1      43.658  22.950  24.552  1.00  0.00     0.016 A 
ATOM     40  C   UNL A   1      45.212  23.526  26.802  1.00  0.00     0.010 A 
ATOM     41  C   UNL A   1      43.343  24.048  25.323  1.00  0.00     0.010 A 
ATOM     42  C   UNL A   1      44.091  24.302  26.470  1.00  0.00    -0.014 A 
BRANCH  42  43
ATOM     43  C   UNL A   1      43.856  25.535  27.207  1.00  0.00     0.031 A 
ATOM     44  C   UNL A   1      44.871  26.565  26.868  1.00  0.00     0.074 A 
ATOM     45  C   UNL A   1      42.771  25.753  27.979  1.00  0.00     0.049 A 
ATOM     46  N   UNL A   1      45.744  27.085  27.663  1.00  0.00    -0.248 NA
ATOM     47  C   UNL A   1      45.073  26.920  25.450  1.00  0.00     0.031 C 
ATOM     48  C   UNL A   1      41.614  24.870  28.151  1.00  0.00     0.029 A 
ATOM     49  N   UNL A   1      42.415  26.855  28.706  1.00  0.00    -0.354 N 
ATOM     50  C   UNL A   1      46.457  27.998  26.892  1.00  0.00     0.074 A 
ATOM     51  C   UNL A   1      46.143  27.714  25.520  1.00  0.00     0.031 C 
ATOM     52  C   UNL A   1      40.601  25.558  28.726  1.00  0.00     0.029 A 
ATOM     53  C   UNL A   1      41.070  26.887  29.076  1.00  0.00     0.049 A 
ATOM     54  H   UNL A   1      43.053  27.565  28.947  1.00  0.00     0.167 HD
ATOM     55  C   UNL A   1      46.970  29.112  27.480  1.00  0.00     0.037 A 
ATOM     56  C   UNL A   1      40.388  27.949  29.582  1.00  0.00     0.037 A 
ATOM     57  C   UNL A   1      47.076  28.919  28.906  1.00  0.00     0.049 A 
ATOM     58  C   UNL A   1      41.390  28.890  30.128  1.00  0.00     0.074 A 
ATOM     59  C   UNL A   1      47.792  28.098  29.751  1.00  0.00     0.029 A 
ATOM     60  N   UNL A   1      46.004  29.383  29.617  1.00  0.00    -0.354 N 
ATOM     61  N   UNL A   1      42.103  28.653  31.191  1.00  0.00    -0.248 NA
ATOM     62  C   UNL A   1      41.886  29.952  29.266  1.00  0.00     0.031 C 
ATOM     63  C   UNL A   1      46.941  27.863  30.874  1.00  0.00     0.029 A 
ATOM     64  C   UNL A   1      45.770  28.603  30.712  1.00  0.00     0.049 A 
ATOM     65  H   UNL A   1      45.472  30.175  29.372  1.00  0.00     0.167 HD
ATOM     66  C   UNL A   1      43.348  29.173  30.887  1.00  0.00     0.074 A 
ATOM     67  C   UNL A   1      43.108  30.099  29.784  1.00  0.00     0.031 C 
ATOM     68  C   UNL A   1      44.475  28.554  31.351  1.00  0.00     0.037 A 
BRANCH  55  69
ATOM     69  C   UNL A   1      46.822  30.502  26.882  1.00  0.00     0.064 A 
ATOM     70  C   UNL A   1      47.924  31.380  26.937  1.00  0.00     0.173 A 
ATOM     71  C   UNL A   1      45.582  31.114  26.583  1.00  0.00     0.173 A 
ATOM     72  F   UNL A   1      49.146  30.922  27.247  1.00  0.00    -0.203 F 
ATOM     73  C   UNL A   1      47.780  32.764  26.785  1.00  0.00     0.198 A 
ATOM     74  C   UNL A   1      45.451  32.487  26.382  1.00  0.00     0.198 A 
ATOM     75  F   UNL A   1      44.425  30.444  26.591  1.00  0.00    -0.203 F 
ATOM     76  F   UNL A   1      48.833  33.568  26.979  1.00  0.00    -0.200 F 
ATOM     77  C   UNL A   1      46.542  33.316  26.512  1.00  0.00     0.200 A 
ATOM     78  F   UNL A   1      44.235  33.003  26.150  1.00  0.00    -0.200 F 
ATOM     79  F   UNL A   1      46.388  34.644  26.428  1.00  0.00    -0.200 F 
ENDBRANCH  55  69
BRANCH  56  80
ATOM     80  C   UNL A   1      38.973  28.361  29.380  1.00  0.00     0.064 A 
ATOM     81  C   UNL A   1      38.114  28.575  30.477  1.00  0.00     0.173 A 
ATOM     82  C   UNL A   1      38.528  28.856  28.141  1.00  0.00     0.173 A 
ATOM     83  F   UNL A   1      38.473  28.174  31.706  1.00  0.00    -0.203 F 
ATOM     84  C   UNL A   1      36.910  29.277  30.347  1.00  0.00     0.198 A 
ATOM     85  C   UNL A   1      37.323  29.553  28.012  1.00  0.00     0.198 A 
ATOM     86  F   UNL A   1      39.297  28.767  27.048  1.00  0.00    -0.203 F 
ATOM     87  F   UNL A   1      36.159  29.526  31.430  1.00  0.00    -0.200 F 
ATOM     88  C   UNL A   1      36.523  29.779  29.118  1.00  0.00     0.200 A 
ATOM     89  F   UNL A   1      36.978  30.065  26.823  1.00  0.00    -0.200 F 
ATOM     90  F   UNL A   1      35.409  30.515  29.004  1.00  0.00    -0.200 F 
ENDBRANCH  56  80
BRANCH  68  91
ATOM     91  C   UNL A   1      44.316  27.644  32.536  1.00  0.00     0.064 A 
ATOM     92  C   UNL A   1      44.100  26.256  32.469  1.00  0.00     0.173 A 
ATOM     93  C   UNL A   1      44.447  28.215  33.810  1.00  0.00     0.173 A 
ATOM     94  F   UNL A   1      44.057  25.616  31.293  1.00  0.00    -0.203 F 
ATOM     95  C   UNL A   1      43.955  25.494  33.629  1.00  0.00     0.198 A 
ATOM     96  C   UNL A   1      44.349  27.445  34.963  1.00  0.00     0.198 A 
ATOM     97  F   UNL A   1      44.698  29.528  33.935  1.00  0.00    -0.203 F 
ATOM     98  F   UNL A   1      43.707  24.179  33.542  1.00  0.00    -0.200 F 
ATOM     99  C   UNL A   1      44.085  26.089  34.874  1.00  0.00     0.200 A 
ATOM    100  F   UNL A   1      44.520  28.019  36.161  1.00  0.00    -0.200 F 
ATOM    101  F   UNL A   1      43.970  25.353  35.988  1.00  0.00    -0.200 F 
ENDBRANCH  68  91
ENDBRANCH  42  43
ENDBRANCH  35  37
ENDBRANCH  34  35
ENDBRANCH  33  34
ENDBRANCH  32  33
ENDBRANCH   1  32
TORSDOF 16
ENDMDL
MODEL 2
REMARK VINA RESULT:     -13.2      2.131      4.242
REMARK SMILES O=C1NC(=O)/C(=C/c2ccc(OCc3cn(-c4ccc(C(=O)OCCOC(=O)c5ccc(-c6c7nc(c(-c8c(F)c(F)c(F)c(F)c8F)c8ccc([nH]8)c(-c8c(F)c(F)c(F)c(F)c8F)c8nc(c(-c9c(F)c(F)c(F)c(F)c9F)c9ccc6[nH]9)C=C8)C=C7)cc5)cc4)nn3)cc2)S1
REMARK SMILES IDX 23 1 21 2 22 3 20 4 17 5 18 6 93 7 19 8 92 9 16 10 14 11
REMARK SMILES IDX 15 12 95 13 94 14 13 15 12 16 11 17 8 18 9 19 97 20 10 21
REMARK SMILES IDX 96 22 7 23 1 24 2 25 3 26 98 27 4 28 6 30 5 31 24 32 25 33
REMARK SMILES IDX 26 34 27 35 28 36 29 37 30 38 91 39 31 40 90 41 32 42 33 43
REMARK SMILES IDX 34 44 84 45 35 46 89 47 83 48 85 49 36 50 88 51 82 52 81 53
REMARK SMILES IDX 37 55 69 56 49 57 68 58 50 59 53 60 67 61 86 62 51 63 52 64
REMARK SMILES IDX 66 66 87 67 54 68 38 69 39 70 47 71 40 72 41 73 45 74 48 75
REMARK SMILES IDX 42 76 43 77 46 78 44 79 70 80 71 81 79 82 72 83 73 84 77 85
REMARK SMILES IDX 80 86 74 87 75 88 78 89 76 90 55 91 56 92 64 93 57 94 58 95
REMARK SMILES IDX 62 96 65 97 59 98 60 99 63 100 61 101
REMARK H PARENT 3 29 85 54 53 65
REMARK Flexibility Score: inf
ROOT
ATOM      1  O   UNL A   1      41.443  20.126  25.631  1.00  0.00    -0.458 OA
ENDROOT
BRANCH   1   2
ATOM      2  C   UNL A   1      41.020  20.924  26.642  1.00  0.00     0.338 C 
ATOM      3  O   UNL A   1      41.605  21.139  27.693  1.00  0.00    -0.246 OA
BRANCH   2   4
ATOM      4  C   UNL A   1      39.763  21.607  26.268  1.00  0.00     0.060 A 
ATOM      5  C   UNL A   1      37.450  22.860  25.353  1.00  0.00     0.066 A 
ATOM      6  C   UNL A   1      37.698  21.521  25.015  1.00  0.00     0.029 A 
ATOM      7  C   UNL A   1      38.319  23.548  26.208  1.00  0.00     0.029 A 
ATOM      8  C   UNL A   1      38.869  20.908  25.447  1.00  0.00     0.018 A 
ATOM      9  C   UNL A   1      39.466  22.910  26.686  1.00  0.00     0.018 A 
BRANCH   5  10
ATOM     10  N   UNL A   1      36.350  23.510  24.758  1.00  0.00    -0.220 N 
ATOM     11  C   UNL A   1      34.619  24.029  23.534  1.00  0.00     0.120 A 
ATOM     12  C   UNL A   1      35.756  23.247  23.542  1.00  0.00     0.144 A 
ATOM     13  N   UNL A   1      34.577  24.747  24.699  1.00  0.00    -0.131 NA
ATOM     14  N   UNL A   1      35.622  24.421  25.436  1.00  0.00    -0.062 NA
BRANCH  11  15
ATOM     15  C   UNL A   1      33.479  24.088  22.572  1.00  0.00     0.289 C 
BRANCH  15  16
ATOM     16  O   UNL A   1      32.277  23.422  22.997  1.00  0.00    -0.487 OA
BRANCH  16  17
ATOM     17  C   UNL A   1      32.379  22.145  23.475  1.00  0.00     0.119 A 
ATOM     18  C   UNL A   1      32.254  19.443  24.240  1.00  0.00    -0.024 A 
ATOM     19  C   UNL A   1      32.207  19.794  22.889  1.00  0.00     0.012 A 
ATOM     20  C   UNL A   1      32.460  20.442  25.194  1.00  0.00     0.012 A 
ATOM     21  C   UNL A   1      32.264  21.140  22.512  1.00  0.00     0.047 A 
ATOM     22  C   UNL A   1      32.551  21.781  24.809  1.00  0.00     0.047 A 
BRANCH  18  23
ATOM     23  C   UNL A   1      32.117  18.046  24.659  1.00  0.00     0.029 C 
ATOM     24  O   UNL A   1      36.368  15.480  25.502  1.00  0.00    -0.261 OA
ATOM     25  C   UNL A   1      35.237  15.895  25.354  1.00  0.00     0.290 C 
ATOM     26  N   UNL A   1      34.098  15.157  25.462  1.00  0.00    -0.282 N 
ATOM     27  S   UNL A   1      34.825  17.552  24.964  1.00  0.00    -0.022 SA
ATOM     28  C   UNL A   1      32.905  15.783  25.265  1.00  0.00     0.265 C 
ATOM     29  H   UNL A   1      34.136  14.198  25.678  1.00  0.00     0.174 HD
ATOM     30  C   UNL A   1      33.132  17.215  24.938  1.00  0.00     0.083 C 
ATOM     31  O   UNL A   1      31.815  15.237  25.330  1.00  0.00    -0.268 OA
ENDBRANCH  18  23
ENDBRANCH  16  17
ENDBRANCH  15  16
ENDBRANCH  11  15
ENDBRANCH   5  10
ENDBRANCH   2   4
ENDBRANCH   1   2
BRANCH   1  32
ATOM     32  C   UNL A   1      42.270  19.026  26.038  1.00  0.00     0.275 C 
BRANCH  32  33
ATOM     33  C   UNL A   1      43.677  19.152  25.468  1.00  0.00     0.275 C 
BRANCH  33  34
ATOM     34  O   UNL A   1      43.776  20.142  24.441  1.00  0.00    -0.458 OA
BRANCH  34  35
ATOM     35  C   UNL A   1      44.801  21.012  24.587  1.00  0.00     0.338 C 
ATOM     36  O   UNL A   1      45.967  20.846  24.270  1.00  0.00    -0.246 OA
BRANCH  35  37
ATOM     37  C   UNL A   1      44.370  22.128  25.437  1.00  0.00     0.060 A 
ATOM     38  C   UNL A   1      43.386  22.992  24.948  1.00  0.00     0.016 A 
ATOM     39  C   UNL A   1      45.118  22.443  26.581  1.00  0.00     0.016 A 
ATOM     40  C   UNL A   1      43.228  24.226  25.552  1.00  0.00     0.010 A 
ATOM     41  C   UNL A   1      44.970  23.680  27.171  1.00  0.00     0.010 A 
ATOM     42  C   UNL A   1      44.061  24.582  26.623  1.00  0.00    -0.014 A 
BRANCH  42  43
ATOM     43  C   UNL A   1      43.796  25.830  27.325  1.00  0.00     0.031 A 
ATOM     44  C   UNL A   1      44.779  26.877  26.948  1.00  0.00     0.074 A 
ATOM     45  C   UNL A   1      42.711  26.041  28.099  1.00  0.00     0.049 A 
ATOM     46  N   UNL A   1      45.644  27.444  27.719  1.00  0.00    -0.248 NA
ATOM     47  C   UNL A   1      44.961  27.194  25.518  1.00  0.00     0.031 C 
ATOM     48  C   UNL A   1      41.581  25.131  28.307  1.00  0.00     0.029 A 
ATOM     49  N   UNL A   1      42.330  27.153  28.796  1.00  0.00    -0.354 N 
ATOM     50  C   UNL A   1      46.325  28.353  26.916  1.00  0.00     0.074 A 
ATOM     51  C   UNL A   1      46.008  28.020  25.555  1.00  0.00     0.031 C 
ATOM     52  C   UNL A   1      40.554  25.808  28.870  1.00  0.00     0.029 A 
ATOM     53  C   UNL A   1      40.988  27.159  29.176  1.00  0.00     0.049 A 
ATOM     54  H   UNL A   1      42.950  27.888  29.010  1.00  0.00     0.167 HD
ATOM     55  C   UNL A   1      46.811  29.498  27.466  1.00  0.00     0.037 A 
ATOM     56  C   UNL A   1      40.280  28.216  29.656  1.00  0.00     0.037 A 
ATOM     57  C   UNL A   1      46.932  29.351  28.896  1.00  0.00     0.049 A 
ATOM     58  C   UNL A   1      41.259  29.201  30.166  1.00  0.00     0.074 A 
ATOM     59  C   UNL A   1      47.678  28.576  29.759  1.00  0.00     0.029 A 
ATOM     60  N   UNL A   1      45.854  29.807  29.602  1.00  0.00    -0.354 N 
ATOM     61  N   UNL A   1      41.987  29.016  31.229  1.00  0.00    -0.248 NA
ATOM     62  C   UNL A   1      41.719  30.250  29.268  1.00  0.00     0.031 C 
ATOM     63  C   UNL A   1      46.842  28.351  30.895  1.00  0.00     0.029 A 
ATOM     64  C   UNL A   1      45.650  29.053  30.721  1.00  0.00     0.049 A 
ATOM     65  H   UNL A   1      45.298  30.575  29.338  1.00  0.00     0.167 HD
ATOM     66  C   UNL A   1      43.214  29.561  30.900  1.00  0.00     0.074 A 
ATOM     67  C   UNL A   1      42.940  30.447  29.771  1.00  0.00     0.031 C 
ATOM     68  C   UNL A   1      44.362  28.988  31.373  1.00  0.00     0.037 A 
BRANCH  55  69
ATOM     69  C   UNL A   1      46.619  30.865  26.828  1.00  0.00     0.064 A 
ATOM     70  C   UNL A   1      47.703  31.767  26.831  1.00  0.00     0.173 A 
ATOM     71  C   UNL A   1      45.360  31.441  26.537  1.00  0.00     0.173 A 
ATOM     72  F   UNL A   1      48.941  31.346  27.129  1.00  0.00    -0.203 F 
ATOM     73  C   UNL A   1      47.524  33.143  26.639  1.00  0.00     0.198 A 
ATOM     74  C   UNL A   1      45.194  32.803  26.296  1.00  0.00     0.198 A 
ATOM     75  F   UNL A   1      44.219  30.746  26.591  1.00  0.00    -0.203 F 
ATOM     76  F   UNL A   1      48.564  33.975  26.785  1.00  0.00    -0.200 F 
ATOM     77  C   UNL A   1      46.269  33.659  26.376  1.00  0.00     0.200 A 
ATOM     78  F   UNL A   1      43.963  33.286  26.075  1.00  0.00    -0.200 F 
ATOM     79  F   UNL A   1      46.085  34.980  26.254  1.00  0.00    -0.200 F 
ENDBRANCH  55  69
BRANCH  56  80
ATOM     80  C   UNL A   1      38.853  28.583  29.454  1.00  0.00     0.064 A 
ATOM     81  C   UNL A   1      37.994  28.794  30.551  1.00  0.00     0.173 A 
ATOM     82  C   UNL A   1      38.386  29.039  28.207  1.00  0.00     0.173 A 
ATOM     83  F   UNL A   1      38.370  28.429  31.786  1.00  0.00    -0.203 F 
ATOM     84  C   UNL A   1      36.769  29.458  30.413  1.00  0.00     0.198 A 
ATOM     85  C   UNL A   1      37.161  29.697  28.071  1.00  0.00     0.198 A 
ATOM     86  F   UNL A   1      39.153  28.949  27.112  1.00  0.00    -0.203 F 
ATOM     87  F   UNL A   1      36.016  29.707  31.495  1.00  0.00    -0.200 F 
ATOM     88  C   UNL A   1      36.361  29.923  29.176  1.00  0.00     0.200 A 
ATOM     89  F   UNL A   1      36.796  30.174  26.873  1.00  0.00    -0.200 F 
ATOM     90  F   UNL A   1      35.225  30.623  29.053  1.00  0.00    -0.200 F 
ENDBRANCH  56  80
BRANCH  68  91
ATOM     91  C   UNL A   1      44.237  28.109  32.585  1.00  0.00     0.064 A 
ATOM     92  C   UNL A   1      44.159  28.566  33.913  1.00  0.00     0.173 A 
ATOM     93  C   UNL A   1      44.139  26.727  32.373  1.00  0.00     0.173 A 
ATOM     94  F   UNL A   1      44.150  29.876  34.197  1.00  0.00    -0.203 F 
ATOM     95  C   UNL A   1      44.054  27.670  34.977  1.00  0.00     0.198 A 
ATOM     96  C   UNL A   1      43.989  25.840  33.432  1.00  0.00     0.198 A 
ATOM     97  F   UNL A   1      44.164  26.236  31.124  1.00  0.00    -0.203 F 
ATOM     98  F   UNL A   1      44.024  28.125  36.238  1.00  0.00    -0.200 F 
ATOM     99  C   UNL A   1      43.965  26.309  34.735  1.00  0.00     0.200 A 
ATOM    100  F   UNL A   1      43.858  24.529  33.187  1.00  0.00    -0.200 F 
ATOM    101  F   UNL A   1      43.841  25.449  35.755  1.00  0.00    -0.200 F 
ENDBRANCH  68  91
ENDBRANCH  42  43
ENDBRANCH  35  37
ENDBRANCH  34  35
ENDBRANCH  33  34
ENDBRANCH  32  33
ENDBRANCH   1  32
TORSDOF 16
ENDMDL
MODEL 3
REMARK VINA RESULT:     -13.1      4.397     10.483
REMARK SMILES O=C1NC(=O)/C(=C/c2ccc(OCc3cn(-c4ccc(C(=O)OCCOC(=O)c5ccc(-c6c7nc(c(-c8c(F)c(F)c(F)c(F)c8F)c8ccc([nH]8)c(-c8c(F)c(F)c(F)c(F)c8F)c8nc(c(-c9c(F)c(F)c(F)c(F)c9F)c9ccc6[nH]9)C=C8)C=C7)cc5)cc4)nn3)cc2)S1
REMARK SMILES IDX 23 1 21 2 22 3 20 4 17 5 18 6 93 7 19 8 92 9 16 10 14 11
REMARK SMILES IDX 15 12 95 13 94 14 13 15 12 16 11 17 8 18 9 19 97 20 10 21
REMARK SMILES IDX 96 22 7 23 1 24 2 25 3 26 98 27 4 28 6 30 5 31 24 32 25 33
REMARK SMILES IDX 26 34 27 35 28 36 29 37 30 38 91 39 31 40 90 41 32 42 33 43
REMARK SMILES IDX 34 44 84 45 35 46 89 47 83 48 85 49 36 50 88 51 82 52 81 53
REMARK SMILES IDX 37 55 69 56 49 57 68 58 50 59 53 60 67 61 86 62 51 63 52 64
REMARK SMILES IDX 66 66 87 67 54 68 38 69 39 70 47 71 40 72 41 73 45 74 48 75
REMARK SMILES IDX 42 76 43 77 46 78 44 79 70 80 71 81 79 82 72 83 73 84 77 85
REMARK SMILES IDX 80 86 74 87 75 88 78 89 76 90 55 91 56 92 64 93 57 94 58 95
REMARK SMILES IDX 62 96 65 97 59 98 60 99 63 100 61 101
REMARK H PARENT 3 29 85 54 53 65
REMARK Flexibility Score: inf
ROOT
ATOM      1  O   UNL A   1      32.933  35.056  29.004  1.00  0.00    -0.458 OA
ENDROOT
BRANCH   1   2
ATOM      2  C   UNL A   1      33.998  34.368  28.522  1.00  0.00     0.338 C 
ATOM      3  O   UNL A   1      35.170  34.706  28.581  1.00  0.00    -0.246 OA
BRANCH   2   4
ATOM      4  C   UNL A   1      33.564  33.062  27.982  1.00  0.00     0.060 A 
ATOM      5  C   UNL A   1      32.562  30.625  27.078  1.00  0.00     0.066 A 
ATOM      6  C   UNL A   1      31.856  31.809  26.816  1.00  0.00     0.029 A 
ATOM      7  C   UNL A   1      33.803  30.666  27.725  1.00  0.00     0.029 A 
ATOM      8  C   UNL A   1      32.343  33.020  27.296  1.00  0.00     0.018 A 
ATOM      9  C   UNL A   1      34.315  31.893  28.155  1.00  0.00     0.018 A 
BRANCH   5  10
ATOM     10  N   UNL A   1      31.960  29.396  26.738  1.00  0.00    -0.220 N 
ATOM     11  C   UNL A   1      31.326  27.568  25.729  1.00  0.00     0.120 A 
ATOM     12  C   UNL A   1      31.778  28.849  25.486  1.00  0.00     0.144 A 
ATOM     13  N   UNL A   1      31.220  27.394  27.082  1.00  0.00    -0.131 NA
ATOM     14  N   UNL A   1      31.613  28.500  27.685  1.00  0.00    -0.062 NA
BRANCH  11  15
ATOM     15  C   UNL A   1      31.088  26.423  24.801  1.00  0.00     0.289 C 
BRANCH  15  16
ATOM     16  O   UNL A   1      32.182  26.100  23.925  1.00  0.00    -0.487 OA
BRANCH  16  17
ATOM     17  C   UNL A   1      32.240  24.837  23.401  1.00  0.00     0.119 A 
ATOM     18  C   UNL A   1      32.158  22.127  22.658  1.00  0.00    -0.024 A 
ATOM     19  C   UNL A   1      30.985  22.792  23.023  1.00  0.00     0.012 A 
ATOM     20  C   UNL A   1      33.350  22.851  22.576  1.00  0.00     0.012 A 
ATOM     21  C   UNL A   1      31.031  24.140  23.398  1.00  0.00     0.047 A 
ATOM     22  C   UNL A   1      33.383  24.204  22.918  1.00  0.00     0.047 A 
BRANCH  18  23
ATOM     23  C   UNL A   1      32.143  20.699  22.337  1.00  0.00     0.029 C 
ATOM     24  O   UNL A   1      32.790  17.484  26.160  1.00  0.00    -0.261 OA
ATOM     25  C   UNL A   1      32.622  18.064  25.106  1.00  0.00     0.290 C 
ATOM     26  N   UNL A   1      32.544  17.478  23.880  1.00  0.00    -0.282 N 
ATOM     27  S   UNL A   1      32.445  19.798  24.938  1.00  0.00    -0.022 SA
ATOM     28  C   UNL A   1      32.352  18.279  22.796  1.00  0.00     0.265 C 
ATOM     29  H   UNL A   1      32.622  16.502  23.780  1.00  0.00     0.174 HD
ATOM     30  C   UNL A   1      32.286  19.702  23.222  1.00  0.00     0.083 C 
ATOM     31  O   UNL A   1      32.267  17.881  21.644  1.00  0.00    -0.268 OA
ENDBRANCH  18  23
ENDBRANCH  16  17
ENDBRANCH  15  16
ENDBRANCH  11  15
ENDBRANCH   5  10
ENDBRANCH   2   4
ENDBRANCH   1   2
BRANCH   1  32
ATOM     32  C   UNL A   1      33.226  36.393  29.435  1.00  0.00     0.275 C 
BRANCH  32  33
ATOM     33  C   UNL A   1      32.767  36.625  30.868  1.00  0.00     0.275 C 
BRANCH  33  34
ATOM     34  O   UNL A   1      33.699  36.139  31.838  1.00  0.00    -0.458 OA
BRANCH  34  35
ATOM     35  C   UNL A   1      33.409  34.917  32.341  1.00  0.00     0.338 C 
ATOM     36  O   UNL A   1      32.366  34.554  32.858  1.00  0.00    -0.246 OA
BRANCH  35  37
ATOM     37  C   UNL A   1      34.641  34.122  32.416  1.00  0.00     0.060 A 
ATOM     38  C   UNL A   1      35.856  34.794  32.577  1.00  0.00     0.016 A 
ATOM     39  C   UNL A   1      34.595  32.762  32.075  1.00  0.00     0.016 A 
ATOM     40  C   UNL A   1      37.029  34.120  32.290  1.00  0.00     0.010 A 
ATOM     41  C   UNL A   1      35.765  32.097  31.774  1.00  0.00     0.010 A 
ATOM     42  C   UNL A   1      36.969  32.794  31.837  1.00  0.00    -0.014 A 
BRANCH  42  43
ATOM     43  C   UNL A   1      38.216  32.063  31.661  1.00  0.00     0.031 A 
ATOM     44  C   UNL A   1      38.913  31.868  32.957  1.00  0.00     0.074 A 
ATOM     45  C   UNL A   1      38.604  31.510  30.492  1.00  0.00     0.049 A 
ATOM     46  N   UNL A   1      40.060  32.347  33.301  1.00  0.00    -0.248 NA
ATOM     47  C   UNL A   1      38.175  31.238  34.069  1.00  0.00     0.031 C 
ATOM     48  C   UNL A   1      37.840  31.454  29.242  1.00  0.00     0.029 A 
ATOM     49  N   UNL A   1      39.726  30.791  30.188  1.00  0.00    -0.354 N 
ATOM     50  C   UNL A   1      40.287  31.887  34.594  1.00  0.00     0.074 A 
ATOM     51  C   UNL A   1      39.031  31.388  35.081  1.00  0.00     0.031 C 
ATOM     52  C   UNL A   1      38.405  30.552  28.407  1.00  0.00     0.029 A 
ATOM     53  C   UNL A   1      39.633  30.058  29.005  1.00  0.00     0.049 A 
ATOM     54  H   UNL A   1      40.530  30.790  30.756  1.00  0.00     0.167 HD
ATOM     55  C   UNL A   1      41.562  31.654  35.008  1.00  0.00     0.037 A 
ATOM     56  C   UNL A   1      40.479  29.081  28.581  1.00  0.00     0.037 A 
ATOM     57  C   UNL A   1      42.495  32.369  34.171  1.00  0.00     0.049 A 
ATOM     58  C   UNL A   1      41.752  29.260  29.313  1.00  0.00     0.074 A 
ATOM     59  C   UNL A   1      42.783  33.691  33.902  1.00  0.00     0.029 A 
ATOM     60  N   UNL A   1      42.999  31.634  33.134  1.00  0.00    -0.354 N 
ATOM     61  N   UNL A   1      42.567  30.255  29.117  1.00  0.00    -0.248 NA
ATOM     62  C   UNL A   1      41.946  28.528  30.555  1.00  0.00     0.031 C 
ATOM     63  C   UNL A   1      43.201  33.724  32.537  1.00  0.00     0.029 A 
ATOM     64  C   UNL A   1      43.225  32.420  32.042  1.00  0.00     0.049 A 
ATOM     65  H   UNL A   1      43.175  30.665  33.170  1.00  0.00     0.167 HD
ATOM     66  C   UNL A   1      43.030  30.569  30.381  1.00  0.00     0.074 A 
ATOM     67  C   UNL A   1      42.757  29.381  31.186  1.00  0.00     0.031 C 
ATOM     68  C   UNL A   1      43.289  31.872  30.707  1.00  0.00     0.037 A 
BRANCH  55  69
ATOM     69  C   UNL A   1      41.972  30.387  35.741  1.00  0.00     0.064 A 
ATOM     70  C   UNL A   1      43.002  30.469  36.701  1.00  0.00     0.173 A 
ATOM     71  C   UNL A   1      41.657  29.077  35.309  1.00  0.00     0.173 A 
ATOM     72  F   UNL A   1      43.414  31.659  37.160  1.00  0.00    -0.203 F 
ATOM     73  C   UNL A   1      43.708  29.338  37.130  1.00  0.00     0.198 A 
ATOM     74  C   UNL A   1      42.329  27.950  35.777  1.00  0.00     0.198 A 
ATOM     75  F   UNL A   1      40.777  28.831  34.334  1.00  0.00    -0.203 F 
ATOM     76  F   UNL A   1      44.765  29.483  37.940  1.00  0.00    -0.200 F 
ATOM     77  C   UNL A   1      43.374  28.081  36.663  1.00  0.00     0.200 A 
ATOM     78  F   UNL A   1      42.008  26.743  35.287  1.00  0.00    -0.200 F 
ATOM     79  F   UNL A   1      44.087  27.005  37.023  1.00  0.00    -0.200 F 
ENDBRANCH  55  69
BRANCH  56  80
ATOM     80  C   UNL A   1      40.197  27.835  27.819  1.00  0.00     0.064 A 
ATOM     81  C   UNL A   1      40.908  27.526  26.642  1.00  0.00     0.173 A 
ATOM     82  C   UNL A   1      39.458  26.782  28.390  1.00  0.00     0.173 A 
ATOM     83  F   UNL A   1      41.672  28.454  26.049  1.00  0.00    -0.203 F 
ATOM     84  C   UNL A   1      40.914  26.234  26.101  1.00  0.00     0.198 A 
ATOM     85  C   UNL A   1      39.461  25.496  27.845  1.00  0.00     0.198 A 
ATOM     86  F   UNL A   1      38.802  26.951  29.545  1.00  0.00    -0.203 F 
ATOM     87  F   UNL A   1      41.665  25.963  25.024  1.00  0.00    -0.200 F 
ATOM     88  C   UNL A   1      40.203  25.217  26.712  1.00  0.00     0.200 A 
ATOM     89  F   UNL A   1      38.798  24.512  28.468  1.00  0.00    -0.200 F 
ATOM     90  F   UNL A   1      40.266  23.965  26.239  1.00  0.00    -0.200 F 
ENDBRANCH  56  80
BRANCH  68  91
ATOM     91  C   UNL A   1      43.518  32.828  29.571  1.00  0.00     0.064 A 
ATOM     92  C   UNL A   1      42.601  33.799  29.131  1.00  0.00     0.173 A 
ATOM     93  C   UNL A   1      44.766  32.783  28.932  1.00  0.00     0.173 A 
ATOM     94  F   UNL A   1      41.424  33.972  29.747  1.00  0.00    -0.203 F 
ATOM     95  C   UNL A   1      42.902  34.638  28.058  1.00  0.00     0.198 A 
ATOM     96  C   UNL A   1      45.080  33.652  27.894  1.00  0.00     0.198 A 
ATOM     97  F   UNL A   1      45.697  31.906  29.339  1.00  0.00    -0.203 F 
ATOM     98  F   UNL A   1      41.997  35.529  27.627  1.00  0.00    -0.200 F 
ATOM     99  C   UNL A   1      44.142  34.566  27.444  1.00  0.00     0.200 A 
ATOM    100  F   UNL A   1      46.297  33.606  27.335  1.00  0.00    -0.200 F 
ATOM    101  F   UNL A   1      44.441  35.387  26.428  1.00  0.00    -0.200 F 
ENDBRANCH  68  91
ENDBRANCH  42  43
ENDBRANCH  35  37
ENDBRANCH  34  35
ENDBRANCH  33  34
ENDBRANCH  32  33
ENDBRANCH   1  32
TORSDOF 16
ENDMDL
