MODEL 1
REMARK VINA RESULT:     -13.1      0.000      0.000
REMARK SMILES O=C(OCCOC(=O)[C@@]1(Cc2ccnc3ccccc23)C[C@H]2CC[C@@H]1O2)c1ccc(-c2c3nc(c(-c4c(F)c(F)c(F)c(F)c4F)c4ccc([nH]4)c(-c4c(F)c(F)c(F)c(F)c4F)c4nc(c(-c5c(F)c(F)c(F)c(F)c5F)c5ccc2[nH]5)C=C4)C=C3)cc1
REMARK SMILES IDX 4 1 3 2 2 3 1 4 27 5 28 6 89 7 29 8 88 9 30 10 31 11 32 12
REMARK SMILES IDX 82 13 33 14 87 15 81 16 83 17 34 18 86 19 80 20 79 21 35 23
REMARK SMILES IDX 67 24 47 25 66 26 48 27 51 28 65 29 84 30 49 31 50 32 64 34
REMARK SMILES IDX 85 35 52 36 36 37 37 38 45 39 38 40 39 41 43 42 46 43 40 44
REMARK SMILES IDX 41 45 44 46 42 47 68 48 69 49 77 50 70 51 71 52 75 53 78 54
REMARK SMILES IDX 72 55 73 56 76 57 74 58 53 59 54 60 62 61 55 62 56 63 60 64
REMARK SMILES IDX 63 65 57 66 58 67 61 68 59 69 5 70 6 71 7 72 8 73 9 74 21 75
REMARK SMILES IDX 25 76 22 77 24 78 26 79 23 80 10 81 11 82 12 83 20 84 13 85
REMARK SMILES IDX 15 86 19 87 14 88 16 89 18 90 17 91
REMARK H PARENT 83 22 51 33
REMARK Flexibility Score: inf
ROOT
ATOM      1  C   UNL A   1      32.400  29.064  25.391  1.00  0.00     0.275 C 
ENDROOT
BRANCH   1   2
ATOM      2  O   UNL A   1      32.458  30.453  25.792  1.00  0.00    -0.458 OA
BRANCH   2   3
ATOM      3  C   UNL A   1      32.986  31.102  26.860  1.00  0.00     0.338 C 
ATOM      4  O   UNL A   1      32.438  32.143  27.225  1.00  0.00    -0.246 OA
BRANCH   3   5
ATOM      5  C   UNL A   1      34.290  30.759  27.535  1.00  0.00     0.060 A 
ATOM      6  C   UNL A   1      34.775  29.482  27.796  1.00  0.00     0.016 A 
ATOM      7  C   UNL A   1      35.152  31.846  27.836  1.00  0.00     0.016 A 
ATOM      8  C   UNL A   1      36.113  29.293  28.207  1.00  0.00     0.010 A 
ATOM      9  C   UNL A   1      36.495  31.659  28.235  1.00  0.00     0.010 A 
ATOM     10  C   UNL A   1      37.011  30.368  28.385  1.00  0.00    -0.014 A 
BRANCH  10  11
ATOM     11  C   UNL A   1      38.347  30.070  29.001  1.00  0.00     0.031 A 
ATOM     12  C   UNL A   1      38.467  30.497  30.428  1.00  0.00     0.074 A 
ATOM     13  C   UNL A   1      39.375  29.383  28.443  1.00  0.00     0.049 A 
ATOM     14  N   UNL A   1      39.375  30.200  31.313  1.00  0.00    -0.248 NA
ATOM     15  C   UNL A   1      37.443  31.449  30.894  1.00  0.00     0.031 C 
ATOM     16  C   UNL A   1      39.606  29.134  27.033  1.00  0.00     0.029 A 
ATOM     17  N   UNL A   1      40.417  28.683  29.020  1.00  0.00    -0.354 N 
ATOM     18  C   UNL A   1      39.053  30.955  32.425  1.00  0.00     0.074 A 
ATOM     19  C   UNL A   1      37.870  31.721  32.111  1.00  0.00     0.031 C 
ATOM     20  C   UNL A   1      40.463  28.120  26.857  1.00  0.00     0.029 A 
ATOM     21  C   UNL A   1      41.063  27.822  28.143  1.00  0.00     0.049 A 
ATOM     22  H   UNL A   1      40.678  28.785  29.964  1.00  0.00     0.167 HD
ATOM     23  C   UNL A   1      39.718  31.036  33.597  1.00  0.00     0.037 A 
ATOM     24  C   UNL A   1      42.079  26.952  28.328  1.00  0.00     0.037 A 
ATOM     25  C   UNL A   1      40.949  30.349  33.853  1.00  0.00     0.049 A 
ATOM     26  C   UNL A   1      42.774  27.020  29.659  1.00  0.00     0.074 A 
ATOM     27  C   UNL A   1      41.755  30.411  34.971  1.00  0.00     0.029 A 
ATOM     28  N   UNL A   1      41.570  29.493  32.950  1.00  0.00    -0.354 N 
ATOM     29  N   UNL A   1      42.450  27.720  30.719  1.00  0.00    -0.248 NA
ATOM     30  C   UNL A   1      44.022  26.261  29.794  1.00  0.00     0.031 C 
ATOM     31  C   UNL A   1      42.888  29.626  34.729  1.00  0.00     0.029 A 
ATOM     32  C   UNL A   1      42.751  29.015  33.490  1.00  0.00     0.049 A 
ATOM     33  H   UNL A   1      41.222  29.261  32.059  1.00  0.00     0.167 HD
ATOM     34  C   UNL A   1      43.462  27.506  31.638  1.00  0.00     0.074 A 
ATOM     35  C   UNL A   1      44.383  26.566  31.032  1.00  0.00     0.031 C 
ATOM     36  C   UNL A   1      43.631  28.063  32.862  1.00  0.00     0.037 A 
BRANCH  23  37
ATOM     37  C   UNL A   1      39.145  31.991  34.596  1.00  0.00     0.064 A 
ATOM     38  C   UNL A   1      39.438  33.364  34.549  1.00  0.00     0.173 A 
ATOM     39  C   UNL A   1      38.432  31.505  35.700  1.00  0.00     0.173 A 
ATOM     40  F   UNL A   1      40.170  33.864  33.541  1.00  0.00    -0.203 F 
ATOM     41  C   UNL A   1      39.083  34.205  35.600  1.00  0.00     0.198 A 
ATOM     42  C   UNL A   1      38.048  32.355  36.731  1.00  0.00     0.198 A 
ATOM     43  F   UNL A   1      38.156  30.196  35.804  1.00  0.00    -0.203 F 
ATOM     44  F   UNL A   1      39.468  35.488  35.587  1.00  0.00    -0.200 F 
ATOM     45  C   UNL A   1      38.389  33.699  36.689  1.00  0.00     0.200 A 
ATOM     46  F   UNL A   1      37.386  31.865  37.788  1.00  0.00    -0.200 F 
ATOM     47  F   UNL A   1      38.077  34.502  37.715  1.00  0.00    -0.200 F 
ENDBRANCH  23  37
BRANCH  24  48
ATOM     48  C   UNL A   1      42.580  26.036  27.251  1.00  0.00     0.064 A 
ATOM     49  C   UNL A   1      41.961  24.792  27.024  1.00  0.00     0.173 A 
ATOM     50  C   UNL A   1      43.706  26.330  26.465  1.00  0.00     0.173 A 
ATOM     51  F   UNL A   1      40.909  24.422  27.770  1.00  0.00    -0.203 F 
ATOM     52  C   UNL A   1      42.452  23.890  26.075  1.00  0.00     0.198 A 
ATOM     53  C   UNL A   1      44.163  25.452  25.479  1.00  0.00     0.198 A 
ATOM     54  F   UNL A   1      44.382  27.472  26.655  1.00  0.00    -0.203 F 
ATOM     55  F   UNL A   1      41.881  22.685  25.939  1.00  0.00    -0.200 F 
ATOM     56  C   UNL A   1      43.544  24.228  25.294  1.00  0.00     0.200 A 
ATOM     57  F   UNL A   1      45.214  25.790  24.720  1.00  0.00    -0.200 F 
ATOM     58  F   UNL A   1      44.012  23.366  24.379  1.00  0.00    -0.200 F 
ENDBRANCH  24  48
BRANCH  36  59
ATOM     59  C   UNL A   1      44.818  27.602  33.647  1.00  0.00     0.064 A 
ATOM     60  C   UNL A   1      46.053  28.264  33.591  1.00  0.00     0.173 A 
ATOM     61  C   UNL A   1      44.695  26.491  34.492  1.00  0.00     0.173 A 
ATOM     62  F   UNL A   1      46.221  29.318  32.780  1.00  0.00    -0.203 F 
ATOM     63  C   UNL A   1      47.135  27.807  34.336  1.00  0.00     0.198 A 
ATOM     64  C   UNL A   1      45.767  26.060  35.262  1.00  0.00     0.198 A 
ATOM     65  F   UNL A   1      43.531  25.831  34.577  1.00  0.00    -0.203 F 
ATOM     66  F   UNL A   1      48.324  28.415  34.228  1.00  0.00    -0.200 F 
ATOM     67  C   UNL A   1      46.989  26.712  35.177  1.00  0.00     0.200 A 
ATOM     68  F   UNL A   1      45.620  25.012  36.083  1.00  0.00    -0.200 F 
ATOM     69  F   UNL A   1      48.030  26.279  35.900  1.00  0.00    -0.200 F 
ENDBRANCH  36  59
ENDBRANCH  10  11
ENDBRANCH   3   5
ENDBRANCH   2   3
ENDBRANCH   1   2
BRANCH   1  70
ATOM     70  C   UNL A   1      33.465  28.673  24.360  1.00  0.00     0.274 C 
BRANCH  70  71
ATOM     71  O   UNL A   1      33.543  27.252  24.223  1.00  0.00    -0.462 OA
BRANCH  71  72
ATOM     72  C   UNL A   1      33.383  26.648  23.000  1.00  0.00     0.315 C 
ATOM     73  O   UNL A   1      33.726  27.129  21.938  1.00  0.00    -0.251 OA
BRANCH  72  74
ATOM     74  C   UNL A   1      32.656  25.304  23.169  1.00  0.00     0.101 C 
ATOM     75  C   UNL A   1      32.419  25.082  24.651  1.00  0.00     0.054 C 
ATOM     76  C   UNL A   1      31.201  25.413  22.646  1.00  0.00     0.136 C 
ATOM     77  C   UNL A   1      30.922  25.102  24.738  1.00  0.00     0.120 C 
ATOM     78  C   UNL A   1      30.386  26.646  23.062  1.00  0.00     0.036 C 
ATOM     79  O   UNL A   1      30.540  24.463  23.518  1.00  0.00    -0.374 OA
ATOM     80  C   UNL A   1      30.250  26.448  24.565  1.00  0.00     0.035 C 
BRANCH  74  81
ATOM     81  C   UNL A   1      33.468  24.079  22.598  1.00  0.00     0.058 C 
BRANCH  81  82
ATOM     82  C   UNL A   1      33.686  22.844  23.508  1.00  0.00    -0.036 A 
ATOM     83  C   UNL A   1      32.717  21.824  23.498  1.00  0.00     0.024 A 
ATOM     84  C   UNL A   1      34.877  22.605  24.250  1.00  0.00     0.003 A 
ATOM     85  C   UNL A   1      32.997  20.617  24.120  1.00  0.00     0.112 A 
ATOM     86  C   UNL A   1      35.100  21.298  24.754  1.00  0.00     0.070 A 
ATOM     87  C   UNL A   1      35.877  23.574  24.476  1.00  0.00     0.010 A 
ATOM     88  N   UNL A   1      34.174  20.331  24.707  1.00  0.00    -0.256 NA
ATOM     89  C   UNL A   1      36.344  20.984  25.292  1.00  0.00     0.029 A 
ATOM     90  C   UNL A   1      37.128  23.230  24.988  1.00  0.00     0.001 A 
ATOM     91  C   UNL A   1      37.372  21.922  25.372  1.00  0.00     0.002 A 
ENDBRANCH  81  82
ENDBRANCH  74  81
ENDBRANCH  72  74
ENDBRANCH  71  72
ENDBRANCH  70  71
ENDBRANCH   1  70
TORSDOF 13
ENDMDL
MODEL 2
REMARK VINA RESULT:     -13.1      0.191      1.140
REMARK SMILES O=C(OCCOC(=O)[C@@]1(Cc2ccnc3ccccc23)C[C@H]2CC[C@@H]1O2)c1ccc(-c2c3nc(c(-c4c(F)c(F)c(F)c(F)c4F)c4ccc([nH]4)c(-c4c(F)c(F)c(F)c(F)c4F)c4nc(c(-c5c(F)c(F)c(F)c(F)c5F)c5ccc2[nH]5)C=C4)C=C3)cc1
REMARK SMILES IDX 4 1 3 2 2 3 1 4 27 5 28 6 89 7 29 8 88 9 30 10 31 11 32 12
REMARK SMILES IDX 82 13 33 14 87 15 81 16 83 17 34 18 86 19 80 20 79 21 35 23
REMARK SMILES IDX 67 24 47 25 66 26 48 27 51 28 65 29 84 30 49 31 50 32 64 34
REMARK SMILES IDX 85 35 52 36 36 37 37 38 45 39 38 40 39 41 43 42 46 43 40 44
REMARK SMILES IDX 41 45 44 46 42 47 68 48 69 49 77 50 70 51 71 52 75 53 78 54
REMARK SMILES IDX 72 55 73 56 76 57 74 58 53 59 54 60 62 61 55 62 56 63 60 64
REMARK SMILES IDX 63 65 57 66 58 67 61 68 59 69 5 70 6 71 7 72 8 73 9 74 21 75
REMARK SMILES IDX 25 76 22 77 24 78 26 79 23 80 10 81 11 82 12 83 20 84 13 85
REMARK SMILES IDX 15 86 19 87 14 88 16 89 18 90 17 91
REMARK H PARENT 83 22 51 33
REMARK Flexibility Score: inf
ROOT
ATOM      1  C   UNL A   1      32.550  28.935  25.412  1.00  0.00     0.275 C 
ENDROOT
BRANCH   1   2
ATOM      2  O   UNL A   1      32.638  30.329  25.789  1.00  0.00    -0.458 OA
BRANCH   2   3
ATOM      3  C   UNL A   1      33.135  30.980  26.870  1.00  0.00     0.338 C 
ATOM      4  O   UNL A   1      32.554  32.002  27.239  1.00  0.00    -0.246 OA
BRANCH   3   5
ATOM      5  C   UNL A   1      34.440  30.667  27.557  1.00  0.00     0.060 A 
ATOM      6  C   UNL A   1      34.926  29.402  27.871  1.00  0.00     0.016 A 
ATOM      7  C   UNL A   1      35.303  31.765  27.812  1.00  0.00     0.016 A 
ATOM      8  C   UNL A   1      36.265  29.230  28.288  1.00  0.00     0.010 A 
ATOM      9  C   UNL A   1      36.646  31.595  28.217  1.00  0.00     0.010 A 
ATOM     10  C   UNL A   1      37.163  30.312  28.420  1.00  0.00    -0.014 A 
BRANCH  10  11
ATOM     11  C   UNL A   1      38.499  30.040  29.047  1.00  0.00     0.031 A 
ATOM     12  C   UNL A   1      38.601  30.476  30.473  1.00  0.00     0.074 A 
ATOM     13  C   UNL A   1      39.543  29.370  28.499  1.00  0.00     0.049 A 
ATOM     14  N   UNL A   1      39.508  30.200  31.365  1.00  0.00    -0.248 NA
ATOM     15  C   UNL A   1      37.557  31.412  30.927  1.00  0.00     0.031 C 
ATOM     16  C   UNL A   1      39.788  29.118  27.091  1.00  0.00     0.029 A 
ATOM     17  N   UNL A   1      40.593  28.690  29.087  1.00  0.00    -0.354 N 
ATOM     18  C   UNL A   1      39.166  30.954  32.472  1.00  0.00     0.074 A 
ATOM     19  C   UNL A   1      37.971  31.697  32.146  1.00  0.00     0.031 C 
ATOM     20  C   UNL A   1      40.664  28.119  26.927  1.00  0.00     0.029 A 
ATOM     21  C   UNL A   1      41.260  27.837  28.218  1.00  0.00     0.049 A 
ATOM     22  H   UNL A   1      40.845  28.801  30.032  1.00  0.00     0.167 HD
ATOM     23  C   UNL A   1      39.821  31.052  33.647  1.00  0.00     0.037 A 
ATOM     24  C   UNL A   1      42.290  26.986  28.414  1.00  0.00     0.037 A 
ATOM     25  C   UNL A   1      41.062  30.388  33.915  1.00  0.00     0.049 A 
ATOM     26  C   UNL A   1      42.974  27.072  29.749  1.00  0.00     0.074 A 
ATOM     27  C   UNL A   1      41.859  30.469  35.038  1.00  0.00     0.029 A 
ATOM     28  N   UNL A   1      41.704  29.539  33.020  1.00  0.00    -0.354 N 
ATOM     29  N   UNL A   1      42.631  27.771  30.804  1.00  0.00    -0.248 NA
ATOM     30  C   UNL A   1      44.234  26.335  29.897  1.00  0.00     0.031 C 
ATOM     31  C   UNL A   1      43.007  29.703  34.807  1.00  0.00     0.029 A 
ATOM     32  C   UNL A   1      42.889  29.085  33.571  1.00  0.00     0.049 A 
ATOM     33  H   UNL A   1      41.366  29.297  32.128  1.00  0.00     0.167 HD
ATOM     34  C   UNL A   1      43.640  27.580  31.731  1.00  0.00     0.074 A 
ATOM     35  C   UNL A   1      44.582  26.653  31.135  1.00  0.00     0.031 C 
ATOM     36  C   UNL A   1      43.791  28.145  32.953  1.00  0.00     0.037 A 
BRANCH  23  37
ATOM     37  C   UNL A   1      39.225  32.001  34.638  1.00  0.00     0.064 A 
ATOM     38  C   UNL A   1      39.521  33.374  34.609  1.00  0.00     0.173 A 
ATOM     39  C   UNL A   1      38.481  31.509  35.719  1.00  0.00     0.173 A 
ATOM     40  F   UNL A   1      40.281  33.879  33.624  1.00  0.00    -0.203 F 
ATOM     41  C   UNL A   1      39.142  34.208  35.656  1.00  0.00     0.198 A 
ATOM     42  C   UNL A   1      38.073  32.353  36.746  1.00  0.00     0.198 A 
ATOM     43  F   UNL A   1      38.199  30.200  35.807  1.00  0.00    -0.203 F 
ATOM     44  F   UNL A   1      39.530  35.490  35.662  1.00  0.00    -0.200 F 
ATOM     45  C   UNL A   1      38.418  33.697  36.723  1.00  0.00     0.200 A 
ATOM     46  F   UNL A   1      37.382  31.857  37.781  1.00  0.00    -0.200 F 
ATOM     47  F   UNL A   1      38.081  34.493  37.746  1.00  0.00    -0.200 F 
ENDBRANCH  23  37
BRANCH  24  48
ATOM     48  C   UNL A   1      42.814  26.073  27.345  1.00  0.00     0.064 A 
ATOM     49  C   UNL A   1      43.890  26.470  26.530  1.00  0.00     0.173 A 
ATOM     50  C   UNL A   1      42.236  24.825  27.060  1.00  0.00     0.173 A 
ATOM     51  F   UNL A   1      44.461  27.670  26.712  1.00  0.00    -0.203 F 
ATOM     52  C   UNL A   1      44.351  25.667  25.481  1.00  0.00     0.198 A 
ATOM     53  C   UNL A   1      42.733  24.001  26.048  1.00  0.00     0.198 A 
ATOM     54  F   UNL A   1      41.174  24.398  27.759  1.00  0.00    -0.203 F 
ATOM     55  F   UNL A   1      45.330  26.110  24.679  1.00  0.00    -0.200 F 
ATOM     56  C   UNL A   1      43.780  24.427  25.251  1.00  0.00     0.200 A 
ATOM     57  F   UNL A   1      42.181  22.797  25.839  1.00  0.00    -0.200 F 
ATOM     58  F   UNL A   1      44.225  23.654  24.250  1.00  0.00    -0.200 F 
ENDBRANCH  24  48
BRANCH  36  59
ATOM     59  C   UNL A   1      44.980  27.709  33.748  1.00  0.00     0.064 A 
ATOM     60  C   UNL A   1      46.217  28.363  33.661  1.00  0.00     0.173 A 
ATOM     61  C   UNL A   1      44.857  26.630  34.635  1.00  0.00     0.173 A 
ATOM     62  F   UNL A   1      46.385  29.385  32.810  1.00  0.00    -0.203 F 
ATOM     63  C   UNL A   1      47.302  27.929  34.417  1.00  0.00     0.198 A 
ATOM     64  C   UNL A   1      45.932  26.224  35.414  1.00  0.00     0.198 A 
ATOM     65  F   UNL A   1      43.691  25.978  34.750  1.00  0.00    -0.203 F 
ATOM     66  F   UNL A   1      48.492  28.528  34.280  1.00  0.00    -0.200 F 
ATOM     67  C   UNL A   1      47.156  26.867  35.299  1.00  0.00     0.200 A 
ATOM     68  F   UNL A   1      45.785  25.208  36.275  1.00  0.00    -0.200 F 
ATOM     69  F   UNL A   1      48.199  26.457  36.032  1.00  0.00    -0.200 F 
ENDBRANCH  36  59
ENDBRANCH  10  11
ENDBRANCH   3   5
ENDBRANCH   2   3
ENDBRANCH   1   2
BRANCH   1  70
ATOM     70  C   UNL A   1      33.694  28.467  24.504  1.00  0.00     0.274 C 
BRANCH  70  71
ATOM     71  O   UNL A   1      33.640  27.053  24.305  1.00  0.00    -0.462 OA
BRANCH  71  72
ATOM     72  C   UNL A   1      33.428  26.520  23.057  1.00  0.00     0.315 C 
ATOM     73  O   UNL A   1      33.773  27.039  22.013  1.00  0.00    -0.251 OA
BRANCH  72  74
ATOM     74  C   UNL A   1      32.643  25.204  23.174  1.00  0.00     0.101 C 
ATOM     75  C   UNL A   1      32.364  24.952  24.644  1.00  0.00     0.054 C 
ATOM     76  C   UNL A   1      31.205  25.389  22.624  1.00  0.00     0.136 C 
ATOM     77  C   UNL A   1      30.868  25.033  24.701  1.00  0.00     0.120 C 
ATOM     78  C   UNL A   1      30.434  26.643  23.057  1.00  0.00     0.036 C 
ATOM     79  O   UNL A   1      30.486  24.444  23.456  1.00  0.00    -0.374 OA
ATOM     80  C   UNL A   1      30.257  26.411  24.551  1.00  0.00     0.035 C 
BRANCH  74  81
ATOM     81  C   UNL A   1      33.415  23.961  22.586  1.00  0.00     0.058 C 
BRANCH  81  82
ATOM     82  C   UNL A   1      33.681  22.747  23.511  1.00  0.00    -0.036 A 
ATOM     83  C   UNL A   1      32.726  21.716  23.556  1.00  0.00     0.024 A 
ATOM     84  C   UNL A   1      34.902  22.538  24.213  1.00  0.00     0.003 A 
ATOM     85  C   UNL A   1      33.044  20.525  24.191  1.00  0.00     0.112 A 
ATOM     86  C   UNL A   1      35.160  21.244  24.734  1.00  0.00     0.070 A 
ATOM     87  C   UNL A   1      35.897  23.523  24.384  1.00  0.00     0.010 A 
ATOM     88  N   UNL A   1      34.245  20.264  24.740  1.00  0.00    -0.256 NA
ATOM     89  C   UNL A   1      36.426  20.955  25.231  1.00  0.00     0.029 A 
ATOM     90  C   UNL A   1      37.170  23.205  24.855  1.00  0.00     0.001 A 
ATOM     91  C   UNL A   1      37.445  21.907  25.255  1.00  0.00     0.002 A 
ENDBRANCH  81  82
ENDBRANCH  74  81
ENDBRANCH  72  74
ENDBRANCH  71  72
ENDBRANCH  70  71
ENDBRANCH   1  70
TORSDOF 13
ENDMDL
MODEL 3
REMARK VINA RESULT:     -12.8      3.886      9.256
REMARK SMILES O=C(OCCOC(=O)[C@@]1(Cc2ccnc3ccccc23)C[C@H]2CC[C@@H]1O2)c1ccc(-c2c3nc(c(-c4c(F)c(F)c(F)c(F)c4F)c4ccc([nH]4)c(-c4c(F)c(F)c(F)c(F)c4F)c4nc(c(-c5c(F)c(F)c(F)c(F)c5F)c5ccc2[nH]5)C=C4)C=C3)cc1
REMARK SMILES IDX 4 1 3 2 2 3 1 4 27 5 28 6 89 7 29 8 88 9 30 10 31 11 32 12
REMARK SMILES IDX 82 13 33 14 87 15 81 16 83 17 34 18 86 19 80 20 79 21 35 23
REMARK SMILES IDX 67 24 47 25 66 26 48 27 51 28 65 29 84 30 49 31 50 32 64 34
REMARK SMILES IDX 85 35 52 36 36 37 37 38 45 39 38 40 39 41 43 42 46 43 40 44
REMARK SMILES IDX 41 45 44 46 42 47 68 48 69 49 77 50 70 51 71 52 75 53 78 54
REMARK SMILES IDX 72 55 73 56 76 57 74 58 53 59 54 60 62 61 55 62 56 63 60 64
REMARK SMILES IDX 63 65 57 66 58 67 61 68 59 69 5 70 6 71 7 72 8 73 9 74 21 75
REMARK SMILES IDX 25 76 22 77 24 78 26 79 23 80 10 81 11 82 12 83 20 84 13 85
REMARK SMILES IDX 15 86 19 87 14 88 16 89 18 90 17 91
REMARK H PARENT 83 22 51 33
REMARK Flexibility Score: inf
ROOT
ATOM      1  C   UNL A   1      35.660  21.926  25.387  1.00  0.00     0.275 C 
ENDROOT
BRANCH   1   2
ATOM      2  O   UNL A   1      36.817  21.122  25.717  1.00  0.00    -0.458 OA
BRANCH   2   3
ATOM      3  C   UNL A   1      38.152  21.360  25.733  1.00  0.00     0.338 C 
ATOM      4  O   UNL A   1      38.903  20.423  25.458  1.00  0.00    -0.246 OA
BRANCH   3   5
ATOM      5  C   UNL A   1      38.811  22.622  26.230  1.00  0.00     0.060 A 
ATOM      6  C   UNL A   1      38.322  23.918  26.096  1.00  0.00     0.016 A 
ATOM      7  C   UNL A   1      39.992  22.459  27.001  1.00  0.00     0.016 A 
ATOM      8  C   UNL A   1      38.906  24.983  26.817  1.00  0.00     0.010 A 
ATOM      9  C   UNL A   1      40.570  23.521  27.733  1.00  0.00     0.010 A 
ATOM     10  C   UNL A   1      40.005  24.799  27.685  1.00  0.00    -0.014 A 
BRANCH  10  11
ATOM     11  C   UNL A   1      40.661  26.024  28.253  1.00  0.00     0.031 A 
ATOM     12  C   UNL A   1      42.036  26.276  27.725  1.00  0.00     0.074 A 
ATOM     13  C   UNL A   1      40.108  26.943  29.083  1.00  0.00     0.049 A 
ATOM     14  N   UNL A   1      42.785  27.337  27.824  1.00  0.00    -0.248 NA
ATOM     15  C   UNL A   1      42.675  25.135  27.044  1.00  0.00     0.031 C 
ATOM     16  C   UNL A   1      38.944  26.776  29.932  1.00  0.00     0.029 A 
ATOM     17  N   UNL A   1      40.422  28.271  29.303  1.00  0.00    -0.354 N 
ATOM     18  C   UNL A   1      43.992  26.980  27.253  1.00  0.00     0.074 A 
ATOM     19  C   UNL A   1      43.881  25.611  26.807  1.00  0.00     0.031 C 
ATOM     20  C   UNL A   1      38.447  27.962  30.306  1.00  0.00     0.029 A 
ATOM     21  C   UNL A   1      39.420  28.978  29.954  1.00  0.00     0.049 A 
ATOM     22  H   UNL A   1      41.274  28.676  29.025  1.00  0.00     0.167 HD
ATOM     23  C   UNL A   1      45.115  27.721  27.150  1.00  0.00     0.037 A 
ATOM     24  C   UNL A   1      39.326  30.279  30.305  1.00  0.00     0.037 A 
ATOM     25  C   UNL A   1      45.240  29.041  27.691  1.00  0.00     0.049 A 
ATOM     26  C   UNL A   1      40.572  31.101  30.133  1.00  0.00     0.074 A 
ATOM     27  C   UNL A   1      46.349  29.861  27.718  1.00  0.00     0.029 A 
ATOM     28  N   UNL A   1      44.215  29.722  28.339  1.00  0.00    -0.354 N 
ATOM     29  N   UNL A   1      41.706  30.765  29.568  1.00  0.00    -0.248 NA
ATOM     30  C   UNL A   1      40.567  32.443  30.727  1.00  0.00     0.031 C 
ATOM     31  C   UNL A   1      46.009  31.022  28.420  1.00  0.00     0.029 A 
ATOM     32  C   UNL A   1      44.667  30.958  28.765  1.00  0.00     0.049 A 
ATOM     33  H   UNL A   1      43.304  29.376  28.474  1.00  0.00     0.167 HD
ATOM     34  C   UNL A   1      42.557  31.840  29.757  1.00  0.00     0.074 A 
ATOM     35  C   UNL A   1      41.790  32.863  30.441  1.00  0.00     0.031 C 
ATOM     36  C   UNL A   1      43.865  31.958  29.425  1.00  0.00     0.037 A 
BRANCH  23  37
ATOM     37  C   UNL A   1      46.285  27.030  26.523  1.00  0.00     0.064 A 
ATOM     38  C   UNL A   1      47.222  26.325  27.297  1.00  0.00     0.173 A 
ATOM     39  C   UNL A   1      46.557  27.211  25.160  1.00  0.00     0.173 A 
ATOM     40  F   UNL A   1      47.032  26.179  28.618  1.00  0.00    -0.203 F 
ATOM     41  C   UNL A   1      48.414  25.876  26.738  1.00  0.00     0.198 A 
ATOM     42  C   UNL A   1      47.733  26.729  24.597  1.00  0.00     0.198 A 
ATOM     43  F   UNL A   1      45.707  27.904  24.386  1.00  0.00    -0.203 F 
ATOM     44  F   UNL A   1      49.343  25.305  27.517  1.00  0.00    -0.200 F 
ATOM     45  C   UNL A   1      48.669  26.078  25.389  1.00  0.00     0.200 A 
ATOM     46  F   UNL A   1      47.983  26.933  23.297  1.00  0.00    -0.200 F 
ATOM     47  F   UNL A   1      49.831  25.674  24.860  1.00  0.00    -0.200 F 
ENDBRANCH  23  37
BRANCH  24  48
ATOM     48  C   UNL A   1      38.100  30.872  30.933  1.00  0.00     0.064 A 
ATOM     49  C   UNL A   1      37.035  31.327  30.134  1.00  0.00     0.173 A 
ATOM     50  C   UNL A   1      37.971  31.059  32.319  1.00  0.00     0.173 A 
ATOM     51  F   UNL A   1      37.109  31.225  28.799  1.00  0.00    -0.203 F 
ATOM     52  C   UNL A   1      35.912  31.948  30.692  1.00  0.00     0.198 A 
ATOM     53  C   UNL A   1      36.825  31.630  32.879  1.00  0.00     0.198 A 
ATOM     54  F   UNL A   1      38.964  30.699  33.145  1.00  0.00    -0.203 F 
ATOM     55  F   UNL A   1      34.951  32.436  29.894  1.00  0.00    -0.200 F 
ATOM     56  C   UNL A   1      35.803  32.085  32.065  1.00  0.00     0.200 A 
ATOM     57  F   UNL A   1      36.723  31.749  34.210  1.00  0.00    -0.200 F 
ATOM     58  F   UNL A   1      34.725  32.675  32.601  1.00  0.00    -0.200 F 
ENDBRANCH  24  48
BRANCH  36  59
ATOM     59  C   UNL A   1      44.516  33.270  29.729  1.00  0.00     0.064 A 
ATOM     60  C   UNL A   1      45.203  33.502  30.929  1.00  0.00     0.173 A 
ATOM     61  C   UNL A   1      44.470  34.298  28.778  1.00  0.00     0.173 A 
ATOM     62  F   UNL A   1      45.254  32.553  31.875  1.00  0.00    -0.203 F 
ATOM     63  C   UNL A   1      45.797  34.735  31.177  1.00  0.00     0.198 A 
ATOM     64  C   UNL A   1      45.095  35.515  29.015  1.00  0.00     0.198 A 
ATOM     65  F   UNL A   1      43.824  34.116  27.616  1.00  0.00    -0.203 F 
ATOM     66  F   UNL A   1      46.400  34.961  32.352  1.00  0.00    -0.200 F 
ATOM     67  C   UNL A   1      45.750  35.736  30.217  1.00  0.00     0.200 A 
ATOM     68  F   UNL A   1      45.061  36.475  28.081  1.00  0.00    -0.200 F 
ATOM     69  F   UNL A   1      46.330  36.920  30.455  1.00  0.00    -0.200 F 
ENDBRANCH  36  59
ENDBRANCH  10  11
ENDBRANCH   3   5
ENDBRANCH   2   3
ENDBRANCH   1   2
BRANCH   1  70
ATOM     70  C   UNL A   1      34.789  22.283  26.598  1.00  0.00     0.274 C 
BRANCH  70  71
ATOM     71  O   UNL A   1      33.973  23.423  26.319  1.00  0.00    -0.462 OA
BRANCH  71  72
ATOM     72  C   UNL A   1      32.640  23.438  26.651  1.00  0.00     0.315 C 
ATOM     73  O   UNL A   1      32.169  22.943  27.656  1.00  0.00    -0.251 OA
BRANCH  72  74
ATOM     74  C   UNL A   1      31.830  24.122  25.538  1.00  0.00     0.101 C 
ATOM     75  C   UNL A   1      32.803  24.621  24.487  1.00  0.00     0.054 C 
ATOM     76  C   UNL A   1      31.033  23.066  24.731  1.00  0.00     0.136 C 
ATOM     77  C   UNL A   1      32.426  23.799  23.291  1.00  0.00     0.120 C 
ATOM     78  C   UNL A   1      31.773  21.791  24.303  1.00  0.00     0.036 C 
ATOM     79  O   UNL A   1      31.006  23.701  23.428  1.00  0.00    -0.374 OA
ATOM     80  C   UNL A   1      32.807  22.334  23.327  1.00  0.00     0.035 C 
BRANCH  74  81
ATOM     81  C   UNL A   1      30.971  25.342  26.050  1.00  0.00     0.058 C 
BRANCH  81  82
ATOM     82  C   UNL A   1      31.114  26.705  25.328  1.00  0.00    -0.036 A 
ATOM     83  C   UNL A   1      30.239  26.998  24.267  1.00  0.00     0.024 A 
ATOM     84  C   UNL A   1      31.983  27.745  25.764  1.00  0.00     0.003 A 
ATOM     85  C   UNL A   1      30.193  28.288  23.762  1.00  0.00     0.112 A 
ATOM     86  C   UNL A   1      31.774  29.050  25.248  1.00  0.00     0.070 A 
ATOM     87  C   UNL A   1      33.011  27.573  26.713  1.00  0.00     0.010 A 
ATOM     88  N   UNL A   1      30.912  29.313  24.256  1.00  0.00    -0.256 NA
ATOM     89  C   UNL A   1      32.463  30.118  25.813  1.00  0.00     0.029 A 
ATOM     90  C   UNL A   1      33.667  28.660  27.289  1.00  0.00     0.001 A 
ATOM     91  C   UNL A   1      33.371  29.943  26.856  1.00  0.00     0.002 A 
ENDBRANCH  81  82
ENDBRANCH  74  81
ENDBRANCH  72  74
ENDBRANCH  71  72
ENDBRANCH  70  71
ENDBRANCH   1  70
TORSDOF 13
ENDMDL
