MODEL 1
REMARK VINA RESULT:     -11.6      0.000      0.000
REMARK SMILES CCCCCCOC(=O)Nc1cccc(-c2ccc([C@@H](C)C(=O)OCCOC(=O)c3ccc(-c4c5nc(c(-c6c(F)c(F)c(F)c(F)c6F)c6ccc([nH]6)c(-c6c(F)c(F)c(F)c(F)c6F)c6nc(c(-c7c(F)c(F)c(F)c(F)c7F)c7ccc4[nH]7)C=C6)C=C5)cc3)cc2F)c1
REMARK SMILES IDX 20 1 21 2 19 3 16 4 17 5 94 6 18 7 93 8 95 9 15 10 11 11
REMARK SMILES IDX 12 12 96 13 13 14 14 15 10 16 8 17 9 18 7 20 6 21 5 22 4 23
REMARK SMILES IDX 3 24 2 25 1 26 22 27 23 28 24 29 25 30 26 31 27 32 28 33
REMARK SMILES IDX 29 34 30 35 31 36 92 37 32 38 91 39 33 40 34 41 35 42 85 43
REMARK SMILES IDX 36 44 90 45 84 46 86 47 37 48 89 49 83 50 82 51 38 53 70 54
REMARK SMILES IDX 50 55 69 56 51 57 54 58 68 59 87 60 52 61 53 62 67 64 88 65
REMARK SMILES IDX 55 66 39 67 40 68 48 69 41 70 42 71 46 72 49 73 43 74 44 75
REMARK SMILES IDX 47 76 45 77 71 78 72 79 80 80 73 81 74 82 78 83 81 84 75 85
REMARK SMILES IDX 76 86 79 87 77 88 56 89 57 90 65 91 58 92 59 93 63 94 66 95
REMARK SMILES IDX 60 96 61 97 64 98 62 99
REMARK H PARENT 10 19 86 52 54 63
REMARK Flexibility Score: inf
ROOT
ATOM      1  C   UNL A   1      35.241  31.537  28.389  1.00  0.00     0.126 C 
ATOM      2  C   UNL A   1      36.709  31.273  28.060  1.00  0.00     0.025 C 
ENDROOT
BRANCH   1   3
ATOM      3  C   UNL A   1      34.301  30.601  27.647  1.00  0.00    -0.031 A 
ATOM      4  C   UNL A   1      32.480  28.871  26.308  1.00  0.00     0.018 A 
ATOM      5  C   UNL A   1      33.706  28.395  26.791  1.00  0.00     0.012 A 
ATOM      6  C   UNL A   1      32.197  30.231  26.490  1.00  0.00     0.131 A 
ATOM      7  C   UNL A   1      34.601  29.245  27.454  1.00  0.00     0.005 A 
ATOM      8  C   UNL A   1      33.082  31.083  27.150  1.00  0.00     0.044 A 
ATOM      9  F   UNL A   1      31.036  30.749  26.057  1.00  0.00    -0.206 F 
BRANCH   4  10
ATOM     10  C   UNL A   1      31.512  27.967  25.669  1.00  0.00    -0.013 A 
ATOM     11  C   UNL A   1      30.077  25.996  25.765  1.00  0.00     0.045 A 
ATOM     12  C   UNL A   1      29.836  26.099  24.395  1.00  0.00     0.026 A 
ATOM     13  C   UNL A   1      30.906  26.931  26.394  1.00  0.00     0.035 A 
ATOM     14  C   UNL A   1      30.382  27.157  23.670  1.00  0.00     0.003 A 
ATOM     15  C   UNL A   1      31.215  28.081  24.302  1.00  0.00     0.009 A 
BRANCH  11  16
ATOM     16  N   UNL A   1      29.564  24.884  26.448  1.00  0.00    -0.291 N 
ATOM     17  C   UNL A   1      30.244  23.771  26.860  1.00  0.00     0.411 C 
ATOM     18  O   UNL A   1      29.663  22.714  27.064  1.00  0.00    -0.224 OA
ATOM     19  H   UNL A   1      28.602  24.906  26.654  1.00  0.00     0.173 HD
BRANCH  17  20
ATOM     20  O   UNL A   1      31.552  24.014  27.133  1.00  0.00    -0.449 OA
BRANCH  20  21
ATOM     21  C   UNL A   1      32.449  22.896  27.205  1.00  0.00     0.235 C 
BRANCH  21  22
ATOM     22  C   UNL A   1      33.876  23.274  26.791  1.00  0.00     0.042 C 
BRANCH  22  23
ATOM     23  C   UNL A   1      34.025  24.607  26.048  1.00  0.00     0.003 C 
BRANCH  23  24
ATOM     24  C   UNL A   1      33.667  24.565  24.557  1.00  0.00    -0.000 C 
BRANCH  24  25
ATOM     25  C   UNL A   1      33.885  25.876  23.801  1.00  0.00    -0.003 C 
ATOM     26  C   UNL A   1      33.523  25.773  22.329  1.00  0.00     0.004 C 
ENDBRANCH  24  25
ENDBRANCH  23  24
ENDBRANCH  22  23
ENDBRANCH  21  22
ENDBRANCH  20  21
ENDBRANCH  17  20
ENDBRANCH  11  16
ENDBRANCH   4  10
ENDBRANCH   1   3
BRANCH   1  27
ATOM     27  C   UNL A   1      34.934  33.026  28.273  1.00  0.00     0.313 C 
ATOM     28  O   UNL A   1      35.384  33.713  27.359  1.00  0.00    -0.252 OA
BRANCH  27  29
ATOM     29  O   UNL A   1      34.108  33.492  29.245  1.00  0.00    -0.462 OA
BRANCH  29  30
ATOM     30  C   UNL A   1      33.134  34.480  28.856  1.00  0.00     0.274 C 
BRANCH  30  31
ATOM     31  C   UNL A   1      33.037  35.604  29.889  1.00  0.00     0.275 C 
BRANCH  31  32
ATOM     32  O   UNL A   1      32.377  35.155  31.090  1.00  0.00    -0.458 OA
BRANCH  32  33
ATOM     33  C   UNL A   1      32.786  35.765  32.225  1.00  0.00     0.338 C 
ATOM     34  O   UNL A   1      32.245  36.686  32.811  1.00  0.00    -0.246 OA
BRANCH  33  35
ATOM     35  C   UNL A   1      33.959  35.069  32.771  1.00  0.00     0.060 A 
ATOM     36  C   UNL A   1      35.205  35.674  32.608  1.00  0.00     0.016 A 
ATOM     37  C   UNL A   1      33.861  33.792  33.325  1.00  0.00     0.016 A 
ATOM     38  C   UNL A   1      36.367  35.000  32.965  1.00  0.00     0.010 A 
ATOM     39  C   UNL A   1      35.030  33.121  33.705  1.00  0.00     0.010 A 
ATOM     40  C   UNL A   1      36.291  33.712  33.507  1.00  0.00    -0.014 A 
BRANCH  40  41
ATOM     41  C   UNL A   1      37.548  32.982  33.807  1.00  0.00     0.031 A 
ATOM     42  C   UNL A   1      38.273  33.232  35.099  1.00  0.00     0.074 A 
ATOM     43  C   UNL A   1      38.002  32.052  32.947  1.00  0.00     0.049 A 
ATOM     44  N   UNL A   1      39.395  32.715  35.534  1.00  0.00    -0.248 NA
ATOM     45  C   UNL A   1      37.652  34.189  36.028  1.00  0.00     0.031 C 
ATOM     46  C   UNL A   1      37.360  31.688  31.684  1.00  0.00     0.029 A 
ATOM     47  N   UNL A   1      39.104  31.235  33.009  1.00  0.00    -0.354 N 
ATOM     48  C   UNL A   1      39.624  33.297  36.775  1.00  0.00     0.074 A 
ATOM     49  C   UNL A   1      38.537  34.222  37.015  1.00  0.00     0.031 C 
ATOM     50  C   UNL A   1      38.068  30.711  31.097  1.00  0.00     0.029 A 
ATOM     51  C   UNL A   1      39.240  30.414  31.918  1.00  0.00     0.049 A 
ATOM     52  H   UNL A   1      39.735  31.238  33.764  1.00  0.00     0.167 HD
ATOM     53  C   UNL A   1      40.644  33.070  37.638  1.00  0.00     0.037 A 
ATOM     54  C   UNL A   1      40.212  29.537  31.603  1.00  0.00     0.037 A 
ATOM     55  C   UNL A   1      41.713  32.133  37.403  1.00  0.00     0.049 A 
ATOM     56  C   UNL A   1      41.362  29.347  32.556  1.00  0.00     0.074 A 
ATOM     57  C   UNL A   1      42.789  31.828  38.219  1.00  0.00     0.029 A 
ATOM     58  N   UNL A   1      41.839  31.346  36.267  1.00  0.00    -0.354 N 
ATOM     59  N   UNL A   1      41.573  29.905  33.724  1.00  0.00    -0.248 NA
ATOM     60  C   UNL A   1      42.412  28.405  32.144  1.00  0.00     0.031 C 
ATOM     61  C   UNL A   1      43.589  30.891  37.557  1.00  0.00     0.029 A 
ATOM     62  C   UNL A   1      42.985  30.572  36.351  1.00  0.00     0.049 A 
ATOM     63  H   UNL A   1      41.206  31.340  35.511  1.00  0.00     0.167 HD
ATOM     64  C   UNL A   1      42.762  29.365  34.196  1.00  0.00     0.074 A 
ATOM     65  C   UNL A   1      43.216  28.419  33.198  1.00  0.00     0.031 C 
ATOM     66  C   UNL A   1      43.420  29.631  35.351  1.00  0.00     0.037 A 
BRANCH  53  67
ATOM     67  C   UNL A   1      40.670  33.870  38.908  1.00  0.00     0.064 A 
ATOM     68  C   UNL A   1      41.390  35.070  39.012  1.00  0.00     0.173 A 
ATOM     69  C   UNL A   1      39.929  33.452  40.023  1.00  0.00     0.173 A 
ATOM     70  F   UNL A   1      42.123  35.508  37.979  1.00  0.00    -0.203 F 
ATOM     71  C   UNL A   1      41.387  35.807  40.194  1.00  0.00     0.198 A 
ATOM     72  C   UNL A   1      39.904  34.206  41.194  1.00  0.00     0.198 A 
ATOM     73  F   UNL A   1      39.217  32.316  39.975  1.00  0.00    -0.203 F 
ATOM     74  F   UNL A   1      42.115  36.928  40.285  1.00  0.00    -0.200 F 
ATOM     75  C   UNL A   1      40.638  35.379  41.281  1.00  0.00     0.200 A 
ATOM     76  F   UNL A   1      39.170  33.797  42.238  1.00  0.00    -0.200 F 
ATOM     77  F   UNL A   1      40.629  36.094  42.414  1.00  0.00    -0.200 F 
ENDBRANCH  53  67
BRANCH  54  78
ATOM     78  C   UNL A   1      40.151  28.783  30.324  1.00  0.00     0.064 A 
ATOM     79  C   UNL A   1      39.484  27.553  30.239  1.00  0.00     0.173 A 
ATOM     80  C   UNL A   1      40.775  29.267  29.164  1.00  0.00     0.173 A 
ATOM     81  F   UNL A   1      38.895  27.035  31.326  1.00  0.00    -0.203 F 
ATOM     82  C   UNL A   1      39.460  26.828  29.050  1.00  0.00     0.198 A 
ATOM     83  C   UNL A   1      40.723  28.557  27.967  1.00  0.00     0.198 A 
ATOM     84  F   UNL A   1      41.429  30.438  29.192  1.00  0.00    -0.203 F 
ATOM     85  F   UNL A   1      38.860  25.630  29.010  1.00  0.00    -0.200 F 
ATOM     86  C   UNL A   1      40.074  27.333  27.914  1.00  0.00     0.200 A 
ATOM     87  F   UNL A   1      41.307  29.055  26.870  1.00  0.00    -0.200 F 
ATOM     88  F   UNL A   1      40.050  26.635  26.770  1.00  0.00    -0.200 F 
ENDBRANCH  54  78
BRANCH  66  89
ATOM     89  C   UNL A   1      44.683  28.860  35.611  1.00  0.00     0.064 A 
ATOM     90  C   UNL A   1      45.932  29.324  35.175  1.00  0.00     0.173 A 
ATOM     91  C   UNL A   1      44.642  27.651  36.323  1.00  0.00     0.173 A 
ATOM     92  F   UNL A   1      46.023  30.465  34.476  1.00  0.00    -0.203 F 
ATOM     93  C   UNL A   1      47.091  28.588  35.413  1.00  0.00     0.198 A 
ATOM     94  C   UNL A   1      45.805  26.935  36.587  1.00  0.00     0.198 A 
ATOM     95  F   UNL A   1      43.473  27.167  36.769  1.00  0.00    -0.203 F 
ATOM     96  F   UNL A   1      48.267  29.022  34.937  1.00  0.00    -0.200 F 
ATOM     97  C   UNL A   1      47.027  27.399  36.123  1.00  0.00     0.200 A 
ATOM     98  F   UNL A   1      45.745  25.793  37.284  1.00  0.00    -0.200 F 
ATOM     99  F   UNL A   1      48.144  26.694  36.352  1.00  0.00    -0.200 F 
ENDBRANCH  66  89
ENDBRANCH  40  41
ENDBRANCH  33  35
ENDBRANCH  32  33
ENDBRANCH  31  32
ENDBRANCH  30  31
ENDBRANCH  29  30
ENDBRANCH  27  29
ENDBRANCH   1  27
TORSDOF 20
ENDMDL
MODEL 2
REMARK VINA RESULT:     -11.3      3.018      5.397
REMARK SMILES CCCCCCOC(=O)Nc1cccc(-c2ccc([C@@H](C)C(=O)OCCOC(=O)c3ccc(-c4c5nc(c(-c6c(F)c(F)c(F)c(F)c6F)c6ccc([nH]6)c(-c6c(F)c(F)c(F)c(F)c6F)c6nc(c(-c7c(F)c(F)c(F)c(F)c7F)c7ccc4[nH]7)C=C6)C=C5)cc3)cc2F)c1
REMARK SMILES IDX 20 1 21 2 19 3 16 4 17 5 94 6 18 7 93 8 95 9 15 10 11 11
REMARK SMILES IDX 12 12 96 13 13 14 14 15 10 16 8 17 9 18 7 20 6 21 5 22 4 23
REMARK SMILES IDX 3 24 2 25 1 26 22 27 23 28 24 29 25 30 26 31 27 32 28 33
REMARK SMILES IDX 29 34 30 35 31 36 92 37 32 38 91 39 33 40 34 41 35 42 85 43
REMARK SMILES IDX 36 44 90 45 84 46 86 47 37 48 89 49 83 50 82 51 38 53 70 54
REMARK SMILES IDX 50 55 69 56 51 57 54 58 68 59 87 60 52 61 53 62 67 64 88 65
REMARK SMILES IDX 55 66 39 67 40 68 48 69 41 70 42 71 46 72 49 73 43 74 44 75
REMARK SMILES IDX 47 76 45 77 71 78 72 79 80 80 73 81 74 82 78 83 81 84 75 85
REMARK SMILES IDX 76 86 79 87 77 88 56 89 57 90 65 91 58 92 59 93 63 94 66 95
REMARK SMILES IDX 60 96 61 97 64 98 62 99
REMARK H PARENT 10 19 86 52 54 63
REMARK Flexibility Score: inf
ROOT
ATOM      1  C   UNL A   1      30.685  26.837  22.827  1.00  0.00     0.126 C 
ATOM      2  C   UNL A   1      29.367  27.086  23.559  1.00  0.00     0.025 C 
ENDROOT
BRANCH   1   3
ATOM      3  C   UNL A   1      31.226  25.437  23.066  1.00  0.00    -0.031 A 
ATOM      4  C   UNL A   1      32.248  22.833  23.593  1.00  0.00     0.018 A 
ATOM      5  C   UNL A   1      32.807  23.639  22.593  1.00  0.00     0.012 A 
ATOM      6  C   UNL A   1      31.157  23.349  24.306  1.00  0.00     0.131 A 
ATOM      7  C   UNL A   1      32.307  24.922  22.336  1.00  0.00     0.005 A 
ATOM      8  C   UNL A   1      30.655  24.625  24.056  1.00  0.00     0.044 A 
ATOM      9  F   UNL A   1      30.580  22.629  25.283  1.00  0.00    -0.206 F 
BRANCH   4  10
ATOM     10  C   UNL A   1      32.811  21.512  23.909  1.00  0.00    -0.013 A 
ATOM     11  C   UNL A   1      34.649  20.140  24.743  1.00  0.00     0.045 A 
ATOM     12  C   UNL A   1      33.994  18.989  24.307  1.00  0.00     0.026 A 
ATOM     13  C   UNL A   1      34.053  21.391  24.548  1.00  0.00     0.035 A 
ATOM     14  C   UNL A   1      32.732  19.085  23.723  1.00  0.00     0.003 A 
ATOM     15  C   UNL A   1      32.147  20.337  23.523  1.00  0.00     0.009 A 
BRANCH  11  16
ATOM     16  N   UNL A   1      35.942  20.011  25.267  1.00  0.00    -0.291 N 
ATOM     17  C   UNL A   1      37.080  20.645  24.849  1.00  0.00     0.411 C 
ATOM     18  O   UNL A   1      38.187  20.176  25.077  1.00  0.00    -0.224 OA
ATOM     19  H   UNL A   1      36.045  19.390  26.024  1.00  0.00     0.173 HD
BRANCH  17  20
ATOM     20  O   UNL A   1      36.841  21.863  24.299  1.00  0.00    -0.449 OA
BRANCH  20  21
ATOM     21  C   UNL A   1      37.219  23.031  25.045  1.00  0.00     0.235 C 
BRANCH  21  22
ATOM     22  C   UNL A   1      36.062  23.575  25.890  1.00  0.00     0.042 C 
BRANCH  22  23
ATOM     23  C   UNL A   1      35.188  24.641  25.217  1.00  0.00     0.003 C 
BRANCH  23  24
ATOM     24  C   UNL A   1      33.897  24.993  25.966  1.00  0.00    -0.000 C 
BRANCH  24  25
ATOM     25  C   UNL A   1      33.496  26.468  25.909  1.00  0.00    -0.003 C 
ATOM     26  C   UNL A   1      32.242  26.768  26.713  1.00  0.00     0.004 C 
ENDBRANCH  24  25
ENDBRANCH  23  24
ENDBRANCH  22  23
ENDBRANCH  21  22
ENDBRANCH  20  21
ENDBRANCH  17  20
ENDBRANCH  11  16
ENDBRANCH   4  10
ENDBRANCH   1   3
BRANCH   1  27
ATOM     27  C   UNL A   1      31.656  27.984  23.083  1.00  0.00     0.313 C 
ATOM     28  O   UNL A   1      32.682  28.126  22.423  1.00  0.00    -0.252 OA
BRANCH  27  29
ATOM     29  O   UNL A   1      31.260  28.826  24.072  1.00  0.00    -0.462 OA
BRANCH  29  30
ATOM     30  C   UNL A   1      32.287  29.603  24.718  1.00  0.00     0.274 C 
BRANCH  30  31
ATOM     31  C   UNL A   1      31.694  30.558  25.755  1.00  0.00     0.275 C 
BRANCH  31  32
ATOM     32  O   UNL A   1      32.445  30.529  26.985  1.00  0.00    -0.458 OA
BRANCH  32  33
ATOM     33  C   UNL A   1      33.147  31.654  27.249  1.00  0.00     0.338 C 
ATOM     34  O   UNL A   1      32.753  32.806  27.199  1.00  0.00    -0.246 OA
BRANCH  33  35
ATOM     35  C   UNL A   1      34.481  31.302  27.755  1.00  0.00     0.060 A 
ATOM     36  C   UNL A   1      34.730  29.960  28.045  1.00  0.00     0.016 A 
ATOM     37  C   UNL A   1      35.432  32.277  28.054  1.00  0.00     0.016 A 
ATOM     38  C   UNL A   1      35.914  29.582  28.666  1.00  0.00     0.010 A 
ATOM     39  C   UNL A   1      36.635  31.895  28.661  1.00  0.00     0.010 A 
ATOM     40  C   UNL A   1      36.874  30.548  28.990  1.00  0.00    -0.014 A 
BRANCH  40  41
ATOM     41  C   UNL A   1      38.096  30.131  29.723  1.00  0.00     0.031 A 
ATOM     42  C   UNL A   1      38.327  30.609  31.129  1.00  0.00     0.074 A 
ATOM     43  C   UNL A   1      38.961  29.277  29.149  1.00  0.00     0.049 A 
ATOM     44  N   UNL A   1      39.340  30.379  31.927  1.00  0.00    -0.248 NA
ATOM     45  C   UNL A   1      37.279  31.457  31.718  1.00  0.00     0.031 C 
ATOM     46  C   UNL A   1      38.819  28.708  27.808  1.00  0.00     0.029 A 
ATOM     47  N   UNL A   1      40.127  28.728  29.623  1.00  0.00    -0.354 N 
ATOM     48  C   UNL A   1      39.061  31.067  33.102  1.00  0.00     0.074 A 
ATOM     49  C   UNL A   1      37.796  31.742  32.905  1.00  0.00     0.031 C 
ATOM     50  C   UNL A   1      39.848  27.880  27.572  1.00  0.00     0.029 A 
ATOM     51  C   UNL A   1      40.747  27.896  28.724  1.00  0.00     0.049 A 
ATOM     52  H   UNL A   1      40.483  28.914  30.521  1.00  0.00     0.167 HD
ATOM     53  C   UNL A   1      39.792  31.120  34.241  1.00  0.00     0.037 A 
ATOM     54  C   UNL A   1      41.919  27.239  28.811  1.00  0.00     0.037 A 
ATOM     55  C   UNL A   1      41.041  30.431  34.438  1.00  0.00     0.049 A 
ATOM     56  C   UNL A   1      42.736  27.362  30.069  1.00  0.00     0.074 A 
ATOM     57  C   UNL A   1      41.854  30.417  35.559  1.00  0.00     0.029 A 
ATOM     58  N   UNL A   1      41.658  29.627  33.490  1.00  0.00    -0.354 N 
ATOM     59  N   UNL A   1      42.467  28.019  31.171  1.00  0.00    -0.248 NA
ATOM     60  C   UNL A   1      44.023  26.653  30.093  1.00  0.00     0.031 C 
ATOM     61  C   UNL A   1      42.983  29.644  35.273  1.00  0.00     0.029 A 
ATOM     62  C   UNL A   1      42.851  29.130  33.993  1.00  0.00     0.049 A 
ATOM     63  H   UNL A   1      41.301  29.438  32.591  1.00  0.00     0.167 HD
ATOM     64  C   UNL A   1      43.535  27.782  32.027  1.00  0.00     0.074 A 
ATOM     65  C   UNL A   1      44.447  26.905  31.323  1.00  0.00     0.031 C 
ATOM     66  C   UNL A   1      43.744  28.253  33.281  1.00  0.00     0.037 A 
BRANCH  53  67
ATOM     67  C   UNL A   1      39.273  31.978  35.359  1.00  0.00     0.064 A 
ATOM     68  C   UNL A   1      38.504  31.445  36.405  1.00  0.00     0.173 A 
ATOM     69  C   UNL A   1      39.583  33.345  35.406  1.00  0.00     0.173 A 
ATOM     70  F   UNL A   1      38.169  30.146  36.402  1.00  0.00    -0.203 F 
ATOM     71  C   UNL A   1      38.046  32.254  37.442  1.00  0.00     0.198 A 
ATOM     72  C   UNL A   1      39.149  34.146  36.459  1.00  0.00     0.198 A 
ATOM     73  F   UNL A   1      40.321  33.905  34.435  1.00  0.00    -0.203 F 
ATOM     74  F   UNL A   1      37.279  31.731  38.409  1.00  0.00    -0.200 F 
ATOM     75  C   UNL A   1      38.375  33.601  37.473  1.00  0.00     0.200 A 
ATOM     76  F   UNL A   1      39.480  35.444  36.494  1.00  0.00    -0.200 F 
ATOM     77  F   UNL A   1      37.942  34.375  38.477  1.00  0.00    -0.200 F 
ENDBRANCH  53  67
BRANCH  54  78
ATOM     78  C   UNL A   1      42.398  26.418  27.668  1.00  0.00     0.064 A 
ATOM     79  C   UNL A   1      41.940  25.107  27.475  1.00  0.00     0.173 A 
ATOM     80  C   UNL A   1      43.341  26.920  26.758  1.00  0.00     0.173 A 
ATOM     81  F   UNL A   1      41.060  24.573  28.333  1.00  0.00    -0.203 F 
ATOM     82  C   UNL A   1      42.420  24.324  26.428  1.00  0.00     0.198 A 
ATOM     83  C   UNL A   1      43.795  26.147  25.692  1.00  0.00     0.198 A 
ATOM     84  F   UNL A   1      43.814  28.167  26.899  1.00  0.00    -0.203 F 
ATOM     85  F   UNL A   1      42.004  23.057  26.296  1.00  0.00    -0.200 F 
ATOM     86  C   UNL A   1      43.342  24.847  25.533  1.00  0.00     0.200 A 
ATOM     87  F   UNL A   1      44.677  26.661  24.823  1.00  0.00    -0.200 F 
ATOM     88  F   UNL A   1      43.802  24.093  24.525  1.00  0.00    -0.200 F 
ENDBRANCH  54  78
BRANCH  66  89
ATOM     89  C   UNL A   1      44.990  27.796  33.983  1.00  0.00     0.064 A 
ATOM     90  C   UNL A   1      46.220  28.445  33.800  1.00  0.00     0.173 A 
ATOM     91  C   UNL A   1      44.948  26.706  34.866  1.00  0.00     0.173 A 
ATOM     92  F   UNL A   1      46.317  29.482  32.954  1.00  0.00    -0.203 F 
ATOM     93  C   UNL A   1      47.368  27.998  34.449  1.00  0.00     0.198 A 
ATOM     94  C   UNL A   1      46.090  26.282  35.538  1.00  0.00     0.198 A 
ATOM     95  F   UNL A   1      43.795  26.055  35.083  1.00  0.00    -0.203 F 
ATOM     96  F   UNL A   1      48.544  28.598  34.215  1.00  0.00    -0.200 F 
ATOM     97  C   UNL A   1      47.302  26.922  35.321  1.00  0.00     0.200 A 
ATOM     98  F   UNL A   1      46.022  25.250  36.390  1.00  0.00    -0.200 F 
ATOM     99  F   UNL A   1      48.408  26.495  35.945  1.00  0.00    -0.200 F 
ENDBRANCH  66  89
ENDBRANCH  40  41
ENDBRANCH  33  35
ENDBRANCH  32  33
ENDBRANCH  31  32
ENDBRANCH  30  31
ENDBRANCH  29  30
ENDBRANCH  27  29
ENDBRANCH   1  27
TORSDOF 20
ENDMDL
MODEL 3
REMARK VINA RESULT:     -11.3      2.953      8.643
REMARK SMILES CCCCCCOC(=O)Nc1cccc(-c2ccc([C@@H](C)C(=O)OCCOC(=O)c3ccc(-c4c5nc(c(-c6c(F)c(F)c(F)c(F)c6F)c6ccc([nH]6)c(-c6c(F)c(F)c(F)c(F)c6F)c6nc(c(-c7c(F)c(F)c(F)c(F)c7F)c7ccc4[nH]7)C=C6)C=C5)cc3)cc2F)c1
REMARK SMILES IDX 20 1 21 2 19 3 16 4 17 5 94 6 18 7 93 8 95 9 15 10 11 11
REMARK SMILES IDX 12 12 96 13 13 14 14 15 10 16 8 17 9 18 7 20 6 21 5 22 4 23
REMARK SMILES IDX 3 24 2 25 1 26 22 27 23 28 24 29 25 30 26 31 27 32 28 33
REMARK SMILES IDX 29 34 30 35 31 36 92 37 32 38 91 39 33 40 34 41 35 42 85 43
REMARK SMILES IDX 36 44 90 45 84 46 86 47 37 48 89 49 83 50 82 51 38 53 70 54
REMARK SMILES IDX 50 55 69 56 51 57 54 58 68 59 87 60 52 61 53 62 67 64 88 65
REMARK SMILES IDX 55 66 39 67 40 68 48 69 41 70 42 71 46 72 49 73 43 74 44 75
REMARK SMILES IDX 47 76 45 77 71 78 72 79 80 80 73 81 74 82 78 83 81 84 75 85
REMARK SMILES IDX 76 86 79 87 77 88 56 89 57 90 65 91 58 92 59 93 63 94 66 95
REMARK SMILES IDX 60 96 61 97 64 98 62 99
REMARK H PARENT 10 19 86 52 54 63
REMARK Flexibility Score: inf
ROOT
ATOM      1  C   UNL A   1      30.643  26.752  22.864  1.00  0.00     0.126 C 
ATOM      2  C   UNL A   1      29.347  27.015  23.628  1.00  0.00     0.025 C 
ENDROOT
BRANCH   1   3
ATOM      3  C   UNL A   1      31.189  25.355  23.110  1.00  0.00    -0.031 A 
ATOM      4  C   UNL A   1      32.224  22.758  23.650  1.00  0.00     0.018 A 
ATOM      5  C   UNL A   1      32.733  23.535  22.601  1.00  0.00     0.012 A 
ATOM      6  C   UNL A   1      31.175  23.300  24.406  1.00  0.00     0.131 A 
ATOM      7  C   UNL A   1      32.227  24.814  22.337  1.00  0.00     0.005 A 
ATOM      8  C   UNL A   1      30.668  24.573  24.150  1.00  0.00     0.044 A 
ATOM      9  F   UNL A   1      30.648  22.610  25.431  1.00  0.00    -0.206 F 
BRANCH   4  10
ATOM     10  C   UNL A   1      32.796  21.442  23.970  1.00  0.00    -0.013 A 
ATOM     11  C   UNL A   1      34.647  20.085  24.799  1.00  0.00     0.045 A 
ATOM     12  C   UNL A   1      33.995  18.928  24.375  1.00  0.00     0.026 A 
ATOM     13  C   UNL A   1      34.044  21.332  24.601  1.00  0.00     0.035 A 
ATOM     14  C   UNL A   1      32.728  19.014  23.800  1.00  0.00     0.003 A 
ATOM     15  C   UNL A   1      32.136  20.261  23.597  1.00  0.00     0.009 A 
BRANCH  11  16
ATOM     16  N   UNL A   1      35.946  19.966  25.313  1.00  0.00    -0.291 N 
ATOM     17  C   UNL A   1      37.087  20.553  24.842  1.00  0.00     0.411 C 
ATOM     18  O   UNL A   1      38.190  20.080  25.086  1.00  0.00    -0.224 OA
ATOM     19  H   UNL A   1      36.048  19.391  26.106  1.00  0.00     0.173 HD
BRANCH  17  20
ATOM     20  O   UNL A   1      36.862  21.739  24.222  1.00  0.00    -0.449 OA
BRANCH  20  21
ATOM     21  C   UNL A   1      37.353  22.936  24.845  1.00  0.00     0.235 C 
BRANCH  21  22
ATOM     22  C   UNL A   1      36.314  23.569  25.779  1.00  0.00     0.042 C 
BRANCH  22  23
ATOM     23  C   UNL A   1      35.349  24.565  25.125  1.00  0.00     0.003 C 
BRANCH  23  24
ATOM     24  C   UNL A   1      34.113  24.919  25.962  1.00  0.00    -0.000 C 
BRANCH  24  25
ATOM     25  C   UNL A   1      33.592  26.344  25.777  1.00  0.00    -0.003 C 
ATOM     26  C   UNL A   1      32.328  26.617  26.576  1.00  0.00     0.004 C 
ENDBRANCH  24  25
ENDBRANCH  23  24
ENDBRANCH  22  23
ENDBRANCH  21  22
ENDBRANCH  20  21
ENDBRANCH  17  20
ENDBRANCH  11  16
ENDBRANCH   4  10
ENDBRANCH   1   3
BRANCH   1  27
ATOM     27  C   UNL A   1      31.623  27.901  23.074  1.00  0.00     0.313 C 
ATOM     28  O   UNL A   1      32.668  27.989  22.435  1.00  0.00    -0.252 OA
BRANCH  27  29
ATOM     29  O   UNL A   1      31.212  28.808  23.998  1.00  0.00    -0.462 OA
BRANCH  29  30
ATOM     30  C   UNL A   1      32.231  29.620  24.612  1.00  0.00     0.274 C 
BRANCH  30  31
ATOM     31  C   UNL A   1      31.664  30.442  25.772  1.00  0.00     0.275 C 
BRANCH  31  32
ATOM     32  O   UNL A   1      32.511  30.362  26.935  1.00  0.00    -0.458 OA
BRANCH  32  33
ATOM     33  C   UNL A   1      33.156  31.508  27.249  1.00  0.00     0.338 C 
ATOM     34  O   UNL A   1      32.725  32.646  27.185  1.00  0.00    -0.246 OA
BRANCH  33  35
ATOM     35  C   UNL A   1      34.471  31.198  27.827  1.00  0.00     0.060 A 
ATOM     36  C   UNL A   1      34.732  29.871  28.167  1.00  0.00     0.016 A 
ATOM     37  C   UNL A   1      35.387  32.201  28.143  1.00  0.00     0.016 A 
ATOM     38  C   UNL A   1      35.892  29.535  28.855  1.00  0.00     0.010 A 
ATOM     39  C   UNL A   1      36.567  31.861  28.817  1.00  0.00     0.010 A 
ATOM     40  C   UNL A   1      36.816  30.529  29.196  1.00  0.00    -0.014 A 
BRANCH  40  41
ATOM     41  C   UNL A   1      38.008  30.159  29.998  1.00  0.00     0.031 A 
ATOM     42  C   UNL A   1      39.064  29.267  29.408  1.00  0.00     0.074 A 
ATOM     43  C   UNL A   1      38.171  30.674  31.230  1.00  0.00     0.049 A 
ATOM     44  N   UNL A   1      40.163  28.809  29.954  1.00  0.00    -0.248 NA
ATOM     45  C   UNL A   1      38.857  28.832  28.018  1.00  0.00     0.031 C 
ATOM     46  C   UNL A   1      37.238  31.588  31.891  1.00  0.00     0.029 A 
ATOM     47  N   UNL A   1      39.183  30.512  32.144  1.00  0.00    -0.354 N 
ATOM     48  C   UNL A   1      40.768  28.020  28.984  1.00  0.00     0.074 A 
ATOM     49  C   UNL A   1      39.904  28.042  27.823  1.00  0.00     0.031 C 
ATOM     50  C   UNL A   1      37.728  31.918  33.096  1.00  0.00     0.029 A 
ATOM     51  C   UNL A   1      38.982  31.202  33.313  1.00  0.00     0.049 A 
ATOM     52  H   UNL A   1      39.976  29.954  31.975  1.00  0.00     0.167 HD
ATOM     53  C   UNL A   1      41.942  27.348  29.055  1.00  0.00     0.037 A 
ATOM     54  C   UNL A   1      39.716  31.235  34.441  1.00  0.00     0.037 A 
ATOM     55  C   UNL A   1      42.809  27.346  30.206  1.00  0.00     0.049 A 
ATOM     56  C   UNL A   1      40.989  30.434  34.511  1.00  0.00     0.074 A 
ATOM     57  C   UNL A   1      44.022  26.702  30.373  1.00  0.00     0.029 A 
ATOM     58  N   UNL A   1      42.553  28.027  31.388  1.00  0.00    -0.354 N 
ATOM     59  N   UNL A   1      41.550  29.687  33.591  1.00  0.00    -0.248 NA
ATOM     60  C   UNL A   1      41.729  30.479  35.779  1.00  0.00     0.031 C 
ATOM     61  C   UNL A   1      44.478  26.954  31.671  1.00  0.00     0.029 A 
ATOM     62  C   UNL A   1      43.576  27.800  32.296  1.00  0.00     0.049 A 
ATOM     63  H   UNL A   1      41.761  28.587  31.557  1.00  0.00     0.167 HD
ATOM     64  C   UNL A   1      42.718  29.195  34.158  1.00  0.00     0.074 A 
ATOM     65  C   UNL A   1      42.796  29.745  35.496  1.00  0.00     0.031 C 
ATOM     66  C   UNL A   1      43.641  28.360  33.621  1.00  0.00     0.037 A 
BRANCH  53  67
ATOM     67  C   UNL A   1      42.349  26.534  27.861  1.00  0.00     0.064 A 
ATOM     68  C   UNL A   1      43.241  27.027  26.897  1.00  0.00     0.173 A 
ATOM     69  C   UNL A   1      41.871  25.224  27.701  1.00  0.00     0.173 A 
ATOM     70  F   UNL A   1      43.718  28.277  26.996  1.00  0.00    -0.203 F 
ATOM     71  C   UNL A   1      43.619  26.249  25.805  1.00  0.00     0.198 A 
ATOM     72  C   UNL A   1      42.274  24.438  26.625  1.00  0.00     0.198 A 
ATOM     73  F   UNL A   1      41.022  24.700  28.598  1.00  0.00    -0.203 F 
ATOM     74  F   UNL A   1      44.440  26.756  24.875  1.00  0.00    -0.200 F 
ATOM     75  C   UNL A   1      43.142  24.953  25.674  1.00  0.00     0.200 A 
ATOM     76  F   UNL A   1      41.823  23.181  26.508  1.00  0.00    -0.200 F 
ATOM     77  F   UNL A   1      43.516  24.202  24.629  1.00  0.00    -0.200 F 
ENDBRANCH  53  67
BRANCH  54  78
ATOM     78  C   UNL A   1      39.260  32.043  35.603  1.00  0.00     0.064 A 
ATOM     79  C   UNL A   1      39.653  33.380  35.755  1.00  0.00     0.173 A 
ATOM     80  C   UNL A   1      38.439  31.488  36.596  1.00  0.00     0.173 A 
ATOM     81  F   UNL A   1      40.460  33.947  34.847  1.00  0.00    -0.203 F 
ATOM     82  C   UNL A   1      39.258  34.124  36.864  1.00  0.00     0.198 A 
ATOM     83  C   UNL A   1      38.018  32.243  37.688  1.00  0.00     0.198 A 
ATOM     84  F   UNL A   1      38.037  30.212  36.501  1.00  0.00    -0.203 F 
ATOM     85  F   UNL A   1      39.691  35.384  37.011  1.00  0.00    -0.200 F 
ATOM     86  C   UNL A   1      38.436  33.557  37.826  1.00  0.00     0.200 A 
ATOM     87  F   UNL A   1      37.214  31.695  38.609  1.00  0.00    -0.200 F 
ATOM     88  F   UNL A   1      38.056  34.275  38.893  1.00  0.00    -0.200 F 
ENDBRANCH  54  78
BRANCH  66  89
ATOM     89  C   UNL A   1      44.833  28.022  34.471  1.00  0.00     0.064 A 
ATOM     90  C   UNL A   1      44.871  26.862  35.258  1.00  0.00     0.173 A 
ATOM     91  C   UNL A   1      45.958  28.861  34.480  1.00  0.00     0.173 A 
ATOM     92  F   UNL A   1      43.814  26.037  35.297  1.00  0.00    -0.203 F 
ATOM     93  C   UNL A   1      45.979  26.573  36.051  1.00  0.00     0.198 A 
ATOM     94  C   UNL A   1      47.076  28.551  35.248  1.00  0.00     0.198 A 
ATOM     95  F   UNL A   1      45.975  29.979  33.738  1.00  0.00    -0.203 F 
ATOM     96  F   UNL A   1      45.971  25.488  36.840  1.00  0.00    -0.200 F 
ATOM     97  C   UNL A   1      47.082  27.413  36.041  1.00  0.00     0.200 A 
ATOM     98  F   UNL A   1      48.146  29.358  35.228  1.00  0.00    -0.200 F 
ATOM     99  F   UNL A   1      48.148  27.131  36.803  1.00  0.00    -0.200 F 
ENDBRANCH  66  89
ENDBRANCH  40  41
ENDBRANCH  33  35
ENDBRANCH  32  33
ENDBRANCH  31  32
ENDBRANCH  30  31
ENDBRANCH  29  30
ENDBRANCH  27  29
ENDBRANCH   1  27
TORSDOF 20
ENDMDL
