MODEL 1
REMARK VINA RESULT:     -10.5      0.000      0.000
REMARK SMILES C[NH+]1CCN(c2nc3c(cc2F)c(=O)c(C(=O)OCCOC(=O)c2ccc(-c4c5nc(c(-c6c(F)c(F)c(F)c(F)c6F)c6ccc([nH]6)c(-c6c(F)c(F)c(F)c(F)c6F)c6nc(c(-c7c(F)c(F)c(F)c(F)c7F)c7ccc4[nH]7)C=C6)C=C5)cc2)cn3-c2ccc(F)cc2F)CC1
REMARK SMILES IDX 20 1 19 2 18 3 16 4 17 5 15 6 6 7 7 8 11 9 8 10 10 11 12 12
REMARK SMILES IDX 9 13 88 14 13 15 87 16 14 17 5 18 1 19 2 20 3 21 98 22 4 24
REMARK SMILES IDX 97 25 89 26 90 27 95 28 91 29 94 30 96 31 92 32 93 33 21 34
REMARK SMILES IDX 22 35 23 36 24 37 25 38 86 39 26 40 85 41 27 42 28 43 29 44
REMARK SMILES IDX 79 45 30 46 84 47 78 48 80 49 31 50 83 51 77 52 76 53 32 55
REMARK SMILES IDX 64 56 44 57 63 58 45 59 48 60 62 61 81 62 46 63 47 64 61 66
REMARK SMILES IDX 82 67 49 68 33 69 34 70 42 71 35 72 36 73 40 74 43 75 37 76
REMARK SMILES IDX 38 77 41 78 39 79 65 80 66 81 74 82 67 83 68 84 72 85 75 86
REMARK SMILES IDX 69 87 70 88 73 89 71 90 50 91 51 92 59 93 52 94 53 95 57 96
REMARK SMILES IDX 60 97 54 98 55 99 58 100 56 101
REMARK H PARENT 2 23 80 54 48 65
REMARK Flexibility Score: inf
ROOT
ATOM      1  C   UNL A   1      39.209  35.163  39.657  1.00  0.00     0.275 C 
ENDROOT
BRANCH   1   2
ATOM      2  C   UNL A   1      38.552  33.884  39.145  1.00  0.00     0.275 C 
BRANCH   2   3
ATOM      3  O   UNL A   1      38.502  33.893  37.707  1.00  0.00    -0.458 OA
BRANCH   3   4
ATOM      4  C   UNL A   1      38.720  32.713  37.084  1.00  0.00     0.343 C 
ATOM      5  O   UNL A   1      39.363  31.771  37.526  1.00  0.00    -0.246 OA
BRANCH   4   6
ATOM      6  C   UNL A   1      37.989  32.649  35.807  1.00  0.00     0.124 A 
ATOM      7  C   UNL A   1      35.216  33.298  31.623  1.00  0.00     0.167 A 
ATOM      8  N   UNL A   1      36.341  32.596  31.898  1.00  0.00    -0.209 NA
ATOM      9  C   UNL A   1      34.508  33.959  32.635  1.00  0.00     0.166 A 
ATOM     10  C   UNL A   1      36.824  32.592  33.171  1.00  0.00     0.151 A 
ATOM     11  C   UNL A   1      34.945  33.909  33.942  1.00  0.00     0.059 A 
ATOM     12  F   UNL A   1      33.382  34.636  32.357  1.00  0.00    -0.203 F 
ATOM     13  C   UNL A   1      36.127  33.228  34.211  1.00  0.00     0.069 A 
ATOM     14  N   UNL A   1      38.077  31.960  33.465  1.00  0.00    -0.297 N 
ATOM     15  C   UNL A   1      36.655  33.233  35.591  1.00  0.00     0.205 A 
ATOM     16  C   UNL A   1      38.586  32.077  34.751  1.00  0.00     0.113 A 
ATOM     17  O   UNL A   1      36.018  33.772  36.489  1.00  0.00    -0.288 OA
BRANCH   7  18
ATOM     18  N   UNL A   1      34.771  33.361  30.326  1.00  0.00    -0.343 N 
ATOM     19  C   UNL A   1      32.119  33.184  27.075  1.00  0.00     0.332 C 
ATOM     20  N   UNL A   1      33.363  33.404  27.812  1.00  0.00    -0.334 N 
ATOM     21  C   UNL A   1      33.825  32.140  28.442  1.00  0.00     0.283 C 
ATOM     22  C   UNL A   1      33.152  34.444  28.847  1.00  0.00     0.283 C 
ATOM     23  H   UNL A   1      34.082  33.719  27.160  1.00  0.00     0.347 HD
ATOM     24  C   UNL A   1      35.067  32.314  29.360  1.00  0.00     0.179 C 
ATOM     25  C   UNL A   1      34.377  34.648  29.759  1.00  0.00     0.179 C 
ENDBRANCH   7  18
BRANCH  14  26
ATOM     26  C   UNL A   1      38.847  31.278  32.473  1.00  0.00     0.083 A 
ATOM     27  C   UNL A   1      38.702  29.893  32.283  1.00  0.00     0.033 A 
ATOM     28  C   UNL A   1      39.738  31.973  31.633  1.00  0.00     0.150 A 
ATOM     29  C   UNL A   1      39.419  29.237  31.279  1.00  0.00     0.041 A 
ATOM     30  C   UNL A   1      40.468  31.322  30.644  1.00  0.00     0.080 A 
ATOM     31  F   UNL A   1      39.901  33.298  31.778  1.00  0.00    -0.205 F 
ATOM     32  C   UNL A   1      40.296  29.957  30.473  1.00  0.00     0.126 A 
ATOM     33  F   UNL A   1      40.983  29.320  29.517  1.00  0.00    -0.207 F 
ENDBRANCH  14  26
ENDBRANCH   4   6
ENDBRANCH   3   4
ENDBRANCH   2   3
ENDBRANCH   1   2
BRANCH   1  34
ATOM     34  O   UNL A   1      39.110  36.195  38.658  1.00  0.00    -0.458 OA
BRANCH  34  35
ATOM     35  C   UNL A   1      40.261  36.841  38.368  1.00  0.00     0.338 C 
ATOM     36  O   UNL A   1      40.769  37.774  38.963  1.00  0.00    -0.246 OA
BRANCH  35  37
ATOM     37  C   UNL A   1      40.883  36.216  37.192  1.00  0.00     0.060 A 
ATOM     38  C   UNL A   1      40.114  35.991  36.053  1.00  0.00     0.016 A 
ATOM     39  C   UNL A   1      42.185  35.728  37.271  1.00  0.00     0.016 A 
ATOM     40  C   UNL A   1      40.603  35.190  35.026  1.00  0.00     0.010 A 
ATOM     41  C   UNL A   1      42.711  35.002  36.199  1.00  0.00     0.010 A 
ATOM     42  C   UNL A   1      41.910  34.689  35.084  1.00  0.00    -0.014 A 
BRANCH  42  43
ATOM     43  C   UNL A   1      42.422  33.793  34.016  1.00  0.00     0.031 A 
ATOM     44  C   UNL A   1      42.834  34.371  32.690  1.00  0.00     0.074 A 
ATOM     45  C   UNL A   1      42.549  32.470  34.236  1.00  0.00     0.049 A 
ATOM     46  N   UNL A   1      43.136  33.754  31.576  1.00  0.00    -0.248 NA
ATOM     47  C   UNL A   1      42.918  35.838  32.606  1.00  0.00     0.031 C 
ATOM     48  C   UNL A   1      42.264  31.790  35.499  1.00  0.00     0.029 A 
ATOM     49  N   UNL A   1      42.964  31.462  33.402  1.00  0.00    -0.354 N 
ATOM     50  C   UNL A   1      43.405  34.754  30.651  1.00  0.00     0.074 A 
ATOM     51  C   UNL A   1      43.229  36.019  31.330  1.00  0.00     0.031 C 
ATOM     52  C   UNL A   1      42.549  30.484  35.369  1.00  0.00     0.029 A 
ATOM     53  C   UNL A   1      42.958  30.222  33.993  1.00  0.00     0.049 A 
ATOM     54  H   UNL A   1      43.241  31.613  32.469  1.00  0.00     0.167 HD
ATOM     55  C   UNL A   1      43.765  34.626  29.352  1.00  0.00     0.037 A 
ATOM     56  C   UNL A   1      43.215  29.007  33.474  1.00  0.00     0.037 A 
ATOM     57  C   UNL A   1      43.969  33.365  28.686  1.00  0.00     0.049 A 
ATOM     58  C   UNL A   1      43.543  28.885  32.013  1.00  0.00     0.074 A 
ATOM     59  C   UNL A   1      44.290  33.127  27.361  1.00  0.00     0.029 A 
ATOM     60  N   UNL A   1      43.895  32.128  29.307  1.00  0.00    -0.354 N 
ATOM     61  N   UNL A   1      43.689  29.830  31.118  1.00  0.00    -0.248 NA
ATOM     62  C   UNL A   1      43.714  27.525  31.485  1.00  0.00     0.031 C 
ATOM     63  C   UNL A   1      44.390  31.745  27.174  1.00  0.00     0.029 A 
ATOM     64  C   UNL A   1      44.164  31.123  28.391  1.00  0.00     0.049 A 
ATOM     65  H   UNL A   1      43.682  31.984  30.257  1.00  0.00     0.167 HD
ATOM     66  C   UNL A   1      43.975  29.183  29.925  1.00  0.00     0.074 A 
ATOM     67  C   UNL A   1      44.001  27.764  30.212  1.00  0.00     0.031 C 
ATOM     68  C   UNL A   1      44.189  29.718  28.697  1.00  0.00     0.037 A 
BRANCH  55  69
ATOM     69  C   UNL A   1      43.942  35.880  28.551  1.00  0.00     0.064 A 
ATOM     70  C   UNL A   1      45.201  36.470  28.380  1.00  0.00     0.173 A 
ATOM     71  C   UNL A   1      42.843  36.469  27.907  1.00  0.00     0.173 A 
ATOM     72  F   UNL A   1      46.277  35.954  28.992  1.00  0.00    -0.203 F 
ATOM     73  C   UNL A   1      45.354  37.613  27.599  1.00  0.00     0.198 A 
ATOM     74  C   UNL A   1      43.003  37.599  27.109  1.00  0.00     0.198 A 
ATOM     75  F   UNL A   1      41.618  35.940  28.038  1.00  0.00    -0.203 F 
ATOM     76  F   UNL A   1      46.562  38.179  27.471  1.00  0.00    -0.200 F 
ATOM     77  C   UNL A   1      44.257  38.171  26.958  1.00  0.00     0.200 A 
ATOM     78  F   UNL A   1      41.944  38.132  26.484  1.00  0.00    -0.200 F 
ATOM     79  F   UNL A   1      44.409  39.264  26.198  1.00  0.00    -0.200 F 
ENDBRANCH  55  69
BRANCH  56  80
ATOM     80  C   UNL A   1      43.143  27.803  34.341  1.00  0.00     0.064 A 
ATOM     81  C   UNL A   1      44.277  27.347  35.026  1.00  0.00     0.173 A 
ATOM     82  C   UNL A   1      41.947  27.092  34.508  1.00  0.00     0.173 A 
ATOM     83  F   UNL A   1      45.449  27.979  34.875  1.00  0.00    -0.203 F 
ATOM     84  C   UNL A   1      44.216  26.222  35.845  1.00  0.00     0.198 A 
ATOM     85  C   UNL A   1      41.881  25.982  35.347  1.00  0.00     0.198 A 
ATOM     86  F   UNL A   1      40.835  27.487  33.869  1.00  0.00    -0.203 F 
ATOM     87  F   UNL A   1      45.322  25.787  36.465  1.00  0.00    -0.200 F 
ATOM     88  C   UNL A   1      43.017  25.545  36.012  1.00  0.00     0.200 A 
ATOM     89  F   UNL A   1      40.718  25.337  35.512  1.00  0.00    -0.200 F 
ATOM     90  F   UNL A   1      42.958  24.468  36.807  1.00  0.00    -0.200 F 
ENDBRANCH  56  80
BRANCH  68  91
ATOM     91  C   UNL A   1      44.490  28.767  27.580  1.00  0.00     0.064 A 
ATOM     92  C   UNL A   1      45.780  28.254  27.388  1.00  0.00     0.173 A 
ATOM     93  C   UNL A   1      43.469  28.331  26.723  1.00  0.00     0.173 A 
ATOM     94  F   UNL A   1      46.790  28.654  28.174  1.00  0.00    -0.203 F 
ATOM     95  C   UNL A   1      46.040  27.345  26.366  1.00  0.00     0.198 A 
ATOM     96  C   UNL A   1      43.729  27.407  25.715  1.00  0.00     0.198 A 
ATOM     97  F   UNL A   1      42.219  28.793  26.872  1.00  0.00    -0.203 F 
ATOM     98  F   UNL A   1      47.286  26.888  26.179  1.00  0.00    -0.200 F 
ATOM     99  C   UNL A   1      45.015  26.918  25.535  1.00  0.00     0.200 A 
ATOM    100  F   UNL A   1      42.736  26.989  24.919  1.00  0.00    -0.200 F 
ATOM    101  F   UNL A   1      45.266  26.039  24.556  1.00  0.00    -0.200 F 
ENDBRANCH  68  91
ENDBRANCH  42  43
ENDBRANCH  35  37
ENDBRANCH  34  35
ENDBRANCH   1  34
TORSDOF 13
ENDMDL
MODEL 2
REMARK VINA RESULT:     -10.4      3.641      8.025
REMARK SMILES C[NH+]1CCN(c2nc3c(cc2F)c(=O)c(C(=O)OCCOC(=O)c2ccc(-c4c5nc(c(-c6c(F)c(F)c(F)c(F)c6F)c6ccc([nH]6)c(-c6c(F)c(F)c(F)c(F)c6F)c6nc(c(-c7c(F)c(F)c(F)c(F)c7F)c7ccc4[nH]7)C=C6)C=C5)cc2)cn3-c2ccc(F)cc2F)CC1
REMARK SMILES IDX 20 1 19 2 18 3 16 4 17 5 15 6 6 7 7 8 11 9 8 10 10 11 12 12
REMARK SMILES IDX 9 13 88 14 13 15 87 16 14 17 5 18 1 19 2 20 3 21 98 22 4 24
REMARK SMILES IDX 97 25 89 26 90 27 95 28 91 29 94 30 96 31 92 32 93 33 21 34
REMARK SMILES IDX 22 35 23 36 24 37 25 38 86 39 26 40 85 41 27 42 28 43 29 44
REMARK SMILES IDX 79 45 30 46 84 47 78 48 80 49 31 50 83 51 77 52 76 53 32 55
REMARK SMILES IDX 64 56 44 57 63 58 45 59 48 60 62 61 81 62 46 63 47 64 61 66
REMARK SMILES IDX 82 67 49 68 33 69 34 70 42 71 35 72 36 73 40 74 43 75 37 76
REMARK SMILES IDX 38 77 41 78 39 79 65 80 66 81 74 82 67 83 68 84 72 85 75 86
REMARK SMILES IDX 69 87 70 88 73 89 71 90 50 91 51 92 59 93 52 94 53 95 57 96
REMARK SMILES IDX 60 97 54 98 55 99 58 100 56 101
REMARK H PARENT 2 23 80 54 48 65
REMARK Flexibility Score: inf
ROOT
ATOM      1  C   UNL A   1      34.209  33.318  28.905  1.00  0.00     0.275 C 
ENDROOT
BRANCH   1   2
ATOM      2  C   UNL A   1      34.378  34.087  30.212  1.00  0.00     0.275 C 
BRANCH   2   3
ATOM      3  O   UNL A   1      35.382  33.460  31.031  1.00  0.00    -0.458 OA
BRANCH   3   4
ATOM      4  C   UNL A   1      34.945  32.770  32.108  1.00  0.00     0.343 C 
ATOM      5  O   UNL A   1      33.788  32.704  32.502  1.00  0.00    -0.246 OA
BRANCH   4   6
ATOM      6  C   UNL A   1      36.039  31.998  32.720  1.00  0.00     0.124 A 
ATOM      7  C   UNL A   1      40.005  29.103  33.946  1.00  0.00     0.167 A 
ATOM      8  N   UNL A   1      39.467  30.225  34.480  1.00  0.00    -0.209 NA
ATOM      9  C   UNL A   1      39.386  28.438  32.881  1.00  0.00     0.166 A 
ATOM     10  C   UNL A   1      38.340  30.748  33.924  1.00  0.00     0.151 A 
ATOM     11  C   UNL A   1      38.206  28.916  32.349  1.00  0.00     0.059 A 
ATOM     12  F   UNL A   1      39.914  27.315  32.369  1.00  0.00    -0.203 F 
ATOM     13  C   UNL A   1      37.684  30.095  32.868  1.00  0.00     0.069 A 
ATOM     14  N   UNL A   1      37.820  32.000  34.392  1.00  0.00    -0.297 N 
ATOM     15  C   UNL A   1      36.467  30.667  32.258  1.00  0.00     0.205 A 
ATOM     16  C   UNL A   1      36.736  32.552  33.722  1.00  0.00     0.113 A 
ATOM     17  O   UNL A   1      35.895  30.067  31.354  1.00  0.00    -0.288 OA
BRANCH   7  18
ATOM     18  N   UNL A   1      41.181  28.618  34.461  1.00  0.00    -0.343 N 
ATOM     19  C   UNL A   1      44.012  25.835  35.831  1.00  0.00     0.332 C 
ATOM     20  N   UNL A   1      43.439  27.127  35.454  1.00  0.00    -0.334 N 
ATOM     21  C   UNL A   1      42.259  27.439  36.302  1.00  0.00     0.283 C 
ATOM     22  C   UNL A   1      43.049  27.101  34.024  1.00  0.00     0.283 C 
ATOM     23  H   UNL A   1      44.140  27.855  35.598  1.00  0.00     0.347 HD
ATOM     24  C   UNL A   1      41.505  28.730  35.876  1.00  0.00     0.179 C 
ATOM     25  C   UNL A   1      42.316  28.378  33.573  1.00  0.00     0.179 C 
ENDBRANCH   7  18
BRANCH  14  26
ATOM     26  C   UNL A   1      38.414  32.727  35.469  1.00  0.00     0.083 A 
ATOM     27  C   UNL A   1      37.875  32.652  36.765  1.00  0.00     0.033 A 
ATOM     28  C   UNL A   1      39.572  33.504  35.276  1.00  0.00     0.150 A 
ATOM     29  C   UNL A   1      38.488  33.323  37.826  1.00  0.00     0.041 A 
ATOM     30  C   UNL A   1      40.176  34.189  36.326  1.00  0.00     0.080 A 
ATOM     31  F   UNL A   1      40.121  33.598  34.055  1.00  0.00    -0.205 F 
ATOM     32  C   UNL A   1      39.628  34.087  37.595  1.00  0.00     0.126 A 
ATOM     33  F   UNL A   1      40.205  34.732  38.617  1.00  0.00    -0.207 F 
ENDBRANCH  14  26
ENDBRANCH   4   6
ENDBRANCH   3   4
ENDBRANCH   2   3
ENDBRANCH   1   2
BRANCH   1  34
ATOM     34  O   UNL A   1      34.392  31.909  29.142  1.00  0.00    -0.458 OA
BRANCH  34  35
ATOM     35  C   UNL A   1      34.719  31.171  28.058  1.00  0.00     0.338 C 
ATOM     36  O   UNL A   1      34.021  30.892  27.101  1.00  0.00    -0.246 OA
BRANCH  35  37
ATOM     37  C   UNL A   1      36.124  30.750  28.166  1.00  0.00     0.060 A 
ATOM     38  C   UNL A   1      36.437  29.397  28.069  1.00  0.00     0.016 A 
ATOM     39  C   UNL A   1      37.105  31.680  28.502  1.00  0.00     0.016 A 
ATOM     40  C   UNL A   1      37.711  28.949  28.407  1.00  0.00     0.010 A 
ATOM     41  C   UNL A   1      38.408  31.240  28.751  1.00  0.00     0.010 A 
ATOM     42  C   UNL A   1      38.713  29.866  28.747  1.00  0.00    -0.014 A 
BRANCH  42  43
ATOM     43  C   UNL A   1      40.060  29.392  29.157  1.00  0.00     0.031 A 
ATOM     44  C   UNL A   1      40.889  30.220  30.099  1.00  0.00     0.074 A 
ATOM     45  C   UNL A   1      40.531  28.209  28.717  1.00  0.00     0.049 A 
ATOM     46  N   UNL A   1      42.145  30.079  30.440  1.00  0.00    -0.248 NA
ATOM     47  C   UNL A   1      40.217  31.359  30.744  1.00  0.00     0.031 C 
ATOM     48  C   UNL A   1      39.801  27.269  27.867  1.00  0.00     0.029 A 
ATOM     49  N   UNL A   1      41.737  27.591  28.936  1.00  0.00    -0.354 N 
ATOM     50  C   UNL A   1      42.424  31.130  31.303  1.00  0.00     0.074 A 
ATOM     51  C   UNL A   1      41.209  31.905  31.434  1.00  0.00     0.031 C 
ATOM     52  C   UNL A   1      40.557  26.177  27.668  1.00  0.00     0.029 A 
ATOM     53  C   UNL A   1      41.854  26.375  28.307  1.00  0.00     0.049 A 
ATOM     54  H   UNL A   1      42.451  27.981  29.492  1.00  0.00     0.167 HD
ATOM     55  C   UNL A   1      43.589  31.421  31.928  1.00  0.00     0.037 A 
ATOM     56  C   UNL A   1      42.900  25.533  28.223  1.00  0.00     0.037 A 
ATOM     57  C   UNL A   1      44.788  30.632  31.820  1.00  0.00     0.049 A 
ATOM     58  C   UNL A   1      44.204  25.913  28.866  1.00  0.00     0.074 A 
ATOM     59  C   UNL A   1      46.033  30.867  32.376  1.00  0.00     0.029 A 
ATOM     60  N   UNL A   1      44.881  29.436  31.123  1.00  0.00    -0.354 N 
ATOM     61  N   UNL A   1      44.491  26.966  29.592  1.00  0.00    -0.248 NA
ATOM     62  C   UNL A   1      45.337  25.002  28.654  1.00  0.00     0.031 C 
ATOM     63  C   UNL A   1      46.887  29.824  32.000  1.00  0.00     0.029 A 
ATOM     64  C   UNL A   1      46.164  28.922  31.236  1.00  0.00     0.049 A 
ATOM     65  H   UNL A   1      44.146  29.015  30.622  1.00  0.00     0.167 HD
ATOM     66  C   UNL A   1      45.831  26.842  29.929  1.00  0.00     0.074 A 
ATOM     67  C   UNL A   1      46.298  25.602  29.344  1.00  0.00     0.031 C 
ATOM     68  C   UNL A   1      46.608  27.686  30.651  1.00  0.00     0.037 A 
BRANCH  55  69
ATOM     69  C   UNL A   1      43.637  32.660  32.770  1.00  0.00     0.064 A 
ATOM     70  C   UNL A   1      43.436  32.613  34.155  1.00  0.00     0.173 A 
ATOM     71  C   UNL A   1      43.936  33.901  32.187  1.00  0.00     0.173 A 
ATOM     72  F   UNL A   1      43.129  31.453  34.754  1.00  0.00    -0.203 F 
ATOM     73  C   UNL A   1      43.526  33.768  34.929  1.00  0.00     0.198 A 
ATOM     74  C   UNL A   1      44.045  35.049  32.967  1.00  0.00     0.198 A 
ATOM     75  F   UNL A   1      44.138  33.997  30.865  1.00  0.00    -0.203 F 
ATOM     76  F   UNL A   1      43.302  33.707  36.250  1.00  0.00    -0.200 F 
ATOM     77  C   UNL A   1      43.837  34.982  34.336  1.00  0.00     0.200 A 
ATOM     78  F   UNL A   1      44.355  36.221  32.393  1.00  0.00    -0.200 F 
ATOM     79  F   UNL A   1      43.933  36.090  35.084  1.00  0.00    -0.200 F 
ENDBRANCH  55  69
BRANCH  56  80
ATOM     80  C   UNL A   1      42.765  24.258  27.475  1.00  0.00     0.064 A 
ATOM     81  C   UNL A   1      43.114  24.182  26.121  1.00  0.00     0.173 A 
ATOM     82  C   UNL A   1      42.294  23.092  28.096  1.00  0.00     0.173 A 
ATOM     83  F   UNL A   1      43.542  25.278  25.478  1.00  0.00    -0.203 F 
ATOM     84  C   UNL A   1      42.994  22.987  25.414  1.00  0.00     0.198 A 
ATOM     85  C   UNL A   1      42.198  21.892  27.396  1.00  0.00     0.198 A 
ATOM     86  F   UNL A   1      41.942  23.115  29.390  1.00  0.00    -0.203 F 
ATOM     87  F   UNL A   1      43.305  22.949  24.111  1.00  0.00    -0.200 F 
ATOM     88  C   UNL A   1      42.545  21.842  26.054  1.00  0.00     0.200 A 
ATOM     89  F   UNL A   1      41.773  20.785  28.020  1.00  0.00    -0.200 F 
ATOM     90  F   UNL A   1      42.438  20.691  25.375  1.00  0.00    -0.200 F 
ENDBRANCH  56  80
BRANCH  68  91
ATOM     91  C   UNL A   1      48.035  27.286  30.868  1.00  0.00     0.064 A 
ATOM     92  C   UNL A   1      48.403  26.441  31.924  1.00  0.00     0.173 A 
ATOM     93  C   UNL A   1      49.035  27.715  29.984  1.00  0.00     0.173 A 
ATOM     94  F   UNL A   1      47.481  26.019  32.802  1.00  0.00    -0.203 F 
ATOM     95  C   UNL A   1      49.727  26.050  32.095  1.00  0.00     0.198 A 
ATOM     96  C   UNL A   1      50.356  27.306  30.146  1.00  0.00     0.198 A 
ATOM     97  F   UNL A   1      48.729  28.522  28.956  1.00  0.00    -0.203 F 
ATOM     98  F   UNL A   1      50.064  25.266  33.129  1.00  0.00    -0.200 F 
ATOM     99  C   UNL A   1      50.701  26.477  31.203  1.00  0.00     0.200 A 
ATOM    100  F   UNL A   1      51.293  27.712  29.280  1.00  0.00    -0.200 F 
ATOM    101  F   UNL A   1      51.974  26.094  31.367  1.00  0.00    -0.200 F 
ENDBRANCH  68  91
ENDBRANCH  42  43
ENDBRANCH  35  37
ENDBRANCH  34  35
ENDBRANCH   1  34
TORSDOF 13
ENDMDL
MODEL 3
REMARK VINA RESULT:     -10.4      4.871     12.232
REMARK SMILES C[NH+]1CCN(c2nc3c(cc2F)c(=O)c(C(=O)OCCOC(=O)c2ccc(-c4c5nc(c(-c6c(F)c(F)c(F)c(F)c6F)c6ccc([nH]6)c(-c6c(F)c(F)c(F)c(F)c6F)c6nc(c(-c7c(F)c(F)c(F)c(F)c7F)c7ccc4[nH]7)C=C6)C=C5)cc2)cn3-c2ccc(F)cc2F)CC1
REMARK SMILES IDX 20 1 19 2 18 3 16 4 17 5 15 6 6 7 7 8 11 9 8 10 10 11 12 12
REMARK SMILES IDX 9 13 88 14 13 15 87 16 14 17 5 18 1 19 2 20 3 21 98 22 4 24
REMARK SMILES IDX 97 25 89 26 90 27 95 28 91 29 94 30 96 31 92 32 93 33 21 34
REMARK SMILES IDX 22 35 23 36 24 37 25 38 86 39 26 40 85 41 27 42 28 43 29 44
REMARK SMILES IDX 79 45 30 46 84 47 78 48 80 49 31 50 83 51 77 52 76 53 32 55
REMARK SMILES IDX 64 56 44 57 63 58 45 59 48 60 62 61 81 62 46 63 47 64 61 66
REMARK SMILES IDX 82 67 49 68 33 69 34 70 42 71 35 72 36 73 40 74 43 75 37 76
REMARK SMILES IDX 38 77 41 78 39 79 65 80 66 81 74 82 67 83 68 84 72 85 75 86
REMARK SMILES IDX 69 87 70 88 73 89 71 90 50 91 51 92 59 93 52 94 53 95 57 96
REMARK SMILES IDX 60 97 54 98 55 99 58 100 56 101
REMARK H PARENT 2 23 80 54 48 65
REMARK Flexibility Score: inf
ROOT
ATOM      1  C   UNL A   1      44.966  22.935  23.922  1.00  0.00     0.275 C 
ENDROOT
BRANCH   1   2
ATOM      2  C   UNL A   1      46.396  23.153  24.407  1.00  0.00     0.275 C 
BRANCH   2   3
ATOM      3  O   UNL A   1      46.440  24.237  25.354  1.00  0.00    -0.458 OA
BRANCH   3   4
ATOM      4  C   UNL A   1      47.132  25.338  24.986  1.00  0.00     0.343 C 
ATOM      5  O   UNL A   1      47.784  25.472  23.959  1.00  0.00    -0.246 OA
BRANCH   4   6
ATOM      6  C   UNL A   1      46.930  26.434  25.948  1.00  0.00     0.124 A 
ATOM      7  C   UNL A   1      45.363  30.221  28.917  1.00  0.00     0.167 A 
ATOM      8  N   UNL A   1      46.254  29.215  29.080  1.00  0.00    -0.209 NA
ATOM      9  C   UNL A   1      44.733  30.441  27.686  1.00  0.00     0.166 A 
ATOM     10  C   UNL A   1      46.487  28.363  28.043  1.00  0.00     0.151 A 
ATOM     11  C   UNL A   1      45.008  29.629  26.605  1.00  0.00     0.059 A 
ATOM     12  F   UNL A   1      43.866  31.453  27.527  1.00  0.00    -0.203 F 
ATOM     13  C   UNL A   1      45.886  28.567  26.791  1.00  0.00     0.069 A 
ATOM     14  N   UNL A   1      47.331  27.219  28.226  1.00  0.00    -0.297 N 
ATOM     15  C   UNL A   1      46.130  27.638  25.668  1.00  0.00     0.205 A 
ATOM     16  C   UNL A   1      47.450  26.316  27.178  1.00  0.00     0.113 A 
ATOM     17  O   UNL A   1      45.615  27.849  24.576  1.00  0.00    -0.288 OA
BRANCH   7  18
ATOM     18  N   UNL A   1      45.076  31.035  29.985  1.00  0.00    -0.343 N 
ATOM     19  C   UNL A   1      43.699  34.390  32.102  1.00  0.00     0.332 C 
ATOM     20  N   UNL A   1      44.254  33.057  31.867  1.00  0.00    -0.334 N 
ATOM     21  C   UNL A   1      45.526  33.152  31.104  1.00  0.00     0.283 C 
ATOM     22  C   UNL A   1      43.272  32.233  31.122  1.00  0.00     0.283 C 
ATOM     23  H   UNL A   1      44.450  32.617  32.766  1.00  0.00     0.347 HD
ATOM     24  C   UNL A   1      46.113  31.773  30.690  1.00  0.00     0.179 C 
ATOM     25  C   UNL A   1      43.824  30.854  30.716  1.00  0.00     0.179 C 
ENDBRANCH   7  18
BRANCH  14  26
ATOM     26  C   UNL A   1      47.994  26.940  29.461  1.00  0.00     0.083 A 
ATOM     27  C   UNL A   1      47.386  26.124  30.430  1.00  0.00     0.033 A 
ATOM     28  C   UNL A   1      49.285  27.436  29.726  1.00  0.00     0.150 A 
ATOM     29  C   UNL A   1      48.058  25.811  31.615  1.00  0.00     0.041 A 
ATOM     30  C   UNL A   1      49.951  27.143  30.912  1.00  0.00     0.080 A 
ATOM     31  F   UNL A   1      49.903  28.215  28.824  1.00  0.00    -0.205 F 
ATOM     32  C   UNL A   1      49.330  26.326  31.845  1.00  0.00     0.126 A 
ATOM     33  F   UNL A   1      49.964  26.026  32.985  1.00  0.00    -0.207 F 
ENDBRANCH  14  26
ENDBRANCH   4   6
ENDBRANCH   3   4
ENDBRANCH   2   3
ENDBRANCH   1   2
BRANCH   1  34
ATOM     34  O   UNL A   1      44.095  23.914  24.519  1.00  0.00    -0.458 OA
BRANCH  34  35
ATOM     35  C   UNL A   1      43.012  23.419  25.158  1.00  0.00     0.338 C 
ATOM     36  O   UNL A   1      42.533  22.303  25.071  1.00  0.00    -0.246 OA
BRANCH  35  37
ATOM     37  C   UNL A   1      42.468  24.449  26.056  1.00  0.00     0.060 A 
ATOM     38  C   UNL A   1      42.932  25.757  25.951  1.00  0.00     0.016 A 
ATOM     39  C   UNL A   1      41.606  24.086  27.088  1.00  0.00     0.016 A 
ATOM     40  C   UNL A   1      42.620  26.690  26.935  1.00  0.00     0.010 A 
ATOM     41  C   UNL A   1      41.218  25.047  28.025  1.00  0.00     0.010 A 
ATOM     42  C   UNL A   1      41.755  26.347  27.982  1.00  0.00    -0.014 A 
BRANCH  42  43
ATOM     43  C   UNL A   1      41.458  27.322  29.063  1.00  0.00     0.031 A 
ATOM     44  C   UNL A   1      42.352  27.395  30.270  1.00  0.00     0.074 A 
ATOM     45  C   UNL A   1      40.412  28.165  28.955  1.00  0.00     0.049 A 
ATOM     46  N   UNL A   1      42.175  28.042  31.394  1.00  0.00    -0.248 NA
ATOM     47  C   UNL A   1      43.614  26.641  30.204  1.00  0.00     0.031 C 
ATOM     48  C   UNL A   1      39.514  28.258  27.805  1.00  0.00     0.029 A 
ATOM     49  N   UNL A   1      39.936  29.113  29.826  1.00  0.00    -0.354 N 
ATOM     50  C   UNL A   1      43.278  27.741  32.182  1.00  0.00     0.074 A 
ATOM     51  C   UNL A   1      44.119  26.851  31.411  1.00  0.00     0.031 C 
ATOM     52  C   UNL A   1      38.620  29.235  28.023  1.00  0.00     0.029 A 
ATOM     53  C   UNL A   1      38.830  29.782  29.360  1.00  0.00     0.049 A 
ATOM     54  H   UNL A   1      40.348  29.298  30.701  1.00  0.00     0.167 HD
ATOM     55  C   UNL A   1      43.560  28.168  33.435  1.00  0.00     0.037 A 
ATOM     56  C   UNL A   1      38.051  30.703  29.957  1.00  0.00     0.037 A 
ATOM     57  C   UNL A   1      42.736  29.078  34.188  1.00  0.00     0.049 A 
ATOM     58  C   UNL A   1      38.345  31.108  31.373  1.00  0.00     0.074 A 
ATOM     59  C   UNL A   1      42.911  29.536  35.483  1.00  0.00     0.029 A 
ATOM     60  N   UNL A   1      41.590  29.687  33.700  1.00  0.00    -0.354 N 
ATOM     61  N   UNL A   1      39.331  30.735  32.152  1.00  0.00    -0.248 NA
ATOM     62  C   UNL A   1      37.401  32.040  32.004  1.00  0.00     0.031 C 
ATOM     63  C   UNL A   1      41.859  30.407  35.786  1.00  0.00     0.029 A 
ATOM     64  C   UNL A   1      41.048  30.518  34.669  1.00  0.00     0.049 A 
ATOM     65  H   UNL A   1      41.217  29.551  32.800  1.00  0.00     0.167 HD
ATOM     66  C   UNL A   1      39.131  31.389  33.359  1.00  0.00     0.074 A 
ATOM     67  C   UNL A   1      37.940  32.199  33.205  1.00  0.00     0.031 C 
ATOM     68  C   UNL A   1      39.865  31.318  34.496  1.00  0.00     0.037 A 
BRANCH  55  69
ATOM     69  C   UNL A   1      44.802  27.642  34.087  1.00  0.00     0.064 A 
ATOM     70  C   UNL A   1      46.044  28.264  33.909  1.00  0.00     0.173 A 
ATOM     71  C   UNL A   1      44.737  26.528  34.940  1.00  0.00     0.173 A 
ATOM     72  F   UNL A   1      46.160  29.318  33.089  1.00  0.00    -0.203 F 
ATOM     73  C   UNL A   1      47.182  27.786  34.556  1.00  0.00     0.198 A 
ATOM     74  C   UNL A   1      45.872  26.066  35.600  1.00  0.00     0.198 A 
ATOM     75  F   UNL A   1      43.570  25.900  35.144  1.00  0.00    -0.203 F 
ATOM     76  F   UNL A   1      48.367  28.378  34.350  1.00  0.00    -0.200 F 
ATOM     77  C   UNL A   1      47.093  26.693  35.406  1.00  0.00     0.200 A 
ATOM     78  F   UNL A   1      45.782  25.016  36.429  1.00  0.00    -0.200 F 
ATOM     79  F   UNL A   1      48.187  26.242  36.035  1.00  0.00    -0.200 F 
ENDBRANCH  55  69
BRANCH  56  80
ATOM     80  C   UNL A   1      36.900  31.285  29.222  1.00  0.00     0.064 A 
ATOM     81  C   UNL A   1      35.772  30.507  28.928  1.00  0.00     0.173 A 
ATOM     82  C   UNL A   1      36.897  32.625  28.808  1.00  0.00     0.173 A 
ATOM     83  F   UNL A   1      35.742  29.214  29.279  1.00  0.00    -0.203 F 
ATOM     84  C   UNL A   1      34.686  31.048  28.244  1.00  0.00     0.198 A 
ATOM     85  C   UNL A   1      35.801  33.171  28.147  1.00  0.00     0.198 A 
ATOM     86  F   UNL A   1      37.956  33.408  29.063  1.00  0.00    -0.203 F 
ATOM     87  F   UNL A   1      33.633  30.274  27.946  1.00  0.00    -0.200 F 
ATOM     88  C   UNL A   1      34.697  32.381  27.862  1.00  0.00     0.200 A 
ATOM     89  F   UNL A   1      35.811  34.462  27.788  1.00  0.00    -0.200 F 
ATOM     90  F   UNL A   1      33.647  32.902  27.211  1.00  0.00    -0.200 F 
ENDBRANCH  56  80
BRANCH  68  91
ATOM     91  C   UNL A   1      39.415  32.153  35.655  1.00  0.00     0.064 A 
ATOM     92  C   UNL A   1      38.516  31.652  36.607  1.00  0.00     0.173 A 
ATOM     93  C   UNL A   1      39.922  33.447  35.840  1.00  0.00     0.173 A 
ATOM     94  F   UNL A   1      37.993  30.425  36.463  1.00  0.00    -0.203 F 
ATOM     95  C   UNL A   1      38.130  32.425  37.698  1.00  0.00     0.198 A 
ATOM     96  C   UNL A   1      39.550  34.209  36.943  1.00  0.00     0.198 A 
ATOM     97  F   UNL A   1      40.788  33.965  34.956  1.00  0.00    -0.203 F 
ATOM     98  F   UNL A   1      37.246  31.941  38.581  1.00  0.00    -0.200 F 
ATOM     99  C   UNL A   1      38.652  33.700  37.868  1.00  0.00     0.200 A 
ATOM    100  F   UNL A   1      40.061  35.436  37.110  1.00  0.00    -0.200 F 
ATOM    101  F   UNL A   1      38.284  34.440  38.922  1.00  0.00    -0.200 F 
ENDBRANCH  68  91
ENDBRANCH  42  43
ENDBRANCH  35  37
ENDBRANCH  34  35
ENDBRANCH   1  34
TORSDOF 13
ENDMDL
