MODEL 1
REMARK VINA RESULT:     -12.6      0.000      0.000
REMARK SMILES C[C@@H](C(=O)OCCOC(=O)c1ccc(-c2c3nc(c(-c4c(F)c(F)c(F)c(F)c4F)c4ccc([nH]4)c(-c4c(F)c(F)c(F)c(F)c4F)c4nc(c(-c5c(F)c(F)c(F)c(F)c5F)c5ccc2[nH]5)C=C4)C=C3)cc1)c1ccc(-c2cccc(OC(=O)NCCC3CCCCC3)c2)c(F)c1
REMARK SMILES IDX 3 1 4 2 2 3 1 4 74 5 75 6 98 7 76 8 96 9 77 10 97 11 78 12
REMARK SMILES IDX 79 13 95 14 80 15 82 16 81 17 83 18 84 19 85 20 86 21 87 23
REMARK SMILES IDX 88 24 89 25 90 26 94 27 91 28 93 29 92 30 5 31 6 32 7 33
REMARK SMILES IDX 8 34 9 35 10 36 11 37 12 38 73 39 13 40 72 41 14 42 15 43
REMARK SMILES IDX 16 44 66 45 17 46 71 47 65 48 67 49 18 50 70 51 64 52 63 53
REMARK SMILES IDX 19 55 51 56 31 57 50 58 32 59 35 60 49 61 68 62 33 63 34 64
REMARK SMILES IDX 48 66 69 67 36 68 20 69 21 70 29 71 22 72 23 73 27 74 30 75
REMARK SMILES IDX 24 76 25 77 28 78 26 79 52 80 53 81 61 82 54 83 55 84 59 85
REMARK SMILES IDX 62 86 56 87 57 88 60 89 58 90 37 91 38 92 46 93 39 94 40 95
REMARK SMILES IDX 44 96 47 97 41 98 42 99 45 100 43 101
REMARK H PARENT 86 22 67 54 35 65
REMARK Flexibility Score: inf
ROOT
ATOM      1  C   UNL A   1      42.894  19.137  25.624  1.00  0.00     0.313 C 
ATOM      2  O   UNL A   1      43.019  17.923  25.491  1.00  0.00    -0.252 OA
ENDROOT
BRANCH   1   3
ATOM      3  C   UNL A   1      42.088  19.791  26.760  1.00  0.00     0.126 C 
ATOM      4  C   UNL A   1      41.981  18.892  27.999  1.00  0.00     0.025 C 
BRANCH   3   5
ATOM      5  C   UNL A   1      40.735  20.319  26.271  1.00  0.00    -0.031 A 
ATOM      6  C   UNL A   1      39.831  19.445  25.642  1.00  0.00     0.005 A 
ATOM      7  C   UNL A   1      40.326  21.646  26.454  1.00  0.00     0.044 A 
ATOM      8  C   UNL A   1      38.561  19.878  25.231  1.00  0.00     0.012 A 
ATOM      9  C   UNL A   1      39.060  22.071  26.038  1.00  0.00     0.131 A 
ATOM     10  C   UNL A   1      38.144  21.204  25.424  1.00  0.00     0.018 A 
ATOM     11  F   UNL A   1      38.726  23.347  26.288  1.00  0.00    -0.206 F 
BRANCH  10  12
ATOM     12  C   UNL A   1      36.806  21.663  25.000  1.00  0.00    -0.012 A 
ATOM     13  C   UNL A   1      36.614  22.476  23.868  1.00  0.00     0.009 A 
ATOM     14  C   UNL A   1      35.670  21.320  25.748  1.00  0.00     0.056 A 
ATOM     15  C   UNL A   1      35.338  22.910  23.489  1.00  0.00     0.004 A 
ATOM     16  C   UNL A   1      34.414  21.824  25.416  1.00  0.00     0.133 A 
ATOM     17  C   UNL A   1      34.232  22.579  24.260  1.00  0.00     0.047 A 
BRANCH  16  18
ATOM     18  O   UNL A   1      33.278  21.655  26.220  1.00  0.00    -0.410 OA
BRANCH  18  19
ATOM     19  C   UNL A   1      32.119  21.232  25.581  1.00  0.00     0.412 C 
ATOM     20  O   UNL A   1      31.966  20.220  24.917  1.00  0.00    -0.224 OA
ATOM     21  N   UNL A   1      31.059  22.068  25.785  1.00  0.00    -0.321 N 
ATOM     22  H   UNL A   1      30.216  21.819  25.342  1.00  0.00     0.167 HD
BRANCH  21  23
ATOM     23  C   UNL A   1      31.035  23.276  26.574  1.00  0.00     0.119 C 
BRANCH  23  24
ATOM     24  C   UNL A   1      30.475  24.449  25.775  1.00  0.00     0.025 C 
BRANCH  24  25
ATOM     25  C   UNL A   1      31.528  25.514  25.406  1.00  0.00    -0.009 C 
ATOM     26  C   UNL A   1      31.041  26.941  25.711  1.00  0.00     0.003 C 
ATOM     27  C   UNL A   1      32.849  25.221  26.132  1.00  0.00     0.003 C 
ATOM     28  C   UNL A   1      32.113  27.987  25.415  1.00  0.00     0.000 C 
ATOM     29  C   UNL A   1      33.910  26.267  25.809  1.00  0.00     0.000 C 
ATOM     30  C   UNL A   1      33.421  27.675  26.134  1.00  0.00     0.000 C 
ENDBRANCH  24  25
ENDBRANCH  23  24
ENDBRANCH  21  23
ENDBRANCH  18  19
ENDBRANCH  16  18
ENDBRANCH  10  12
ENDBRANCH   3   5
ENDBRANCH   1   3
BRANCH   1  31
ATOM     31  O   UNL A   1      43.413  20.048  24.756  1.00  0.00    -0.462 OA
BRANCH  31  32
ATOM     32  C   UNL A   1      44.199  21.117  25.318  1.00  0.00     0.274 C 
BRANCH  32  33
ATOM     33  C   UNL A   1      44.254  22.304  24.358  1.00  0.00     0.275 C 
BRANCH  33  34
ATOM     34  O   UNL A   1      43.409  23.370  24.829  1.00  0.00    -0.458 OA
BRANCH  34  35
ATOM     35  C   UNL A   1      44.031  24.548  25.057  1.00  0.00     0.338 C 
ATOM     36  O   UNL A   1      45.038  24.979  24.522  1.00  0.00    -0.246 OA
BRANCH  35  37
ATOM     37  C   UNL A   1      43.261  25.322  26.040  1.00  0.00     0.060 A 
ATOM     38  C   UNL A   1      43.450  26.696  26.089  1.00  0.00     0.016 A 
ATOM     39  C   UNL A   1      42.477  24.687  27.003  1.00  0.00     0.016 A 
ATOM     40  C   UNL A   1      42.942  27.425  27.158  1.00  0.00     0.010 A 
ATOM     41  C   UNL A   1      41.896  25.444  28.032  1.00  0.00     0.010 A 
ATOM     42  C   UNL A   1      42.161  26.819  28.151  1.00  0.00    -0.014 A 
BRANCH  42  43
ATOM     43  C   UNL A   1      41.703  27.626  29.323  1.00  0.00     0.031 A 
ATOM     44  C   UNL A   1      42.575  27.759  30.548  1.00  0.00     0.074 A 
ATOM     45  C   UNL A   1      40.546  28.321  29.266  1.00  0.00     0.049 A 
ATOM     46  N   UNL A   1      42.309  28.321  31.703  1.00  0.00    -0.248 NA
ATOM     47  C   UNL A   1      43.919  27.168  30.472  1.00  0.00     0.031 C 
ATOM     48  C   UNL A   1      39.651  28.375  28.111  1.00  0.00     0.029 A 
ATOM     49  N   UNL A   1      39.958  29.171  30.174  1.00  0.00    -0.354 N 
ATOM     50  C   UNL A   1      43.413  28.075  32.511  1.00  0.00     0.074 A 
ATOM     51  C   UNL A   1      44.362  27.331  31.711  1.00  0.00     0.031 C 
ATOM     52  C   UNL A   1      38.704  29.299  28.329  1.00  0.00     0.029 A 
ATOM     53  C   UNL A   1      38.850  29.820  29.684  1.00  0.00     0.049 A 
ATOM     54  H   UNL A   1      40.299  29.302  31.087  1.00  0.00     0.167 HD
ATOM     55  C   UNL A   1      43.605  28.420  33.808  1.00  0.00     0.037 A 
ATOM     56  C   UNL A   1      38.042  30.735  30.258  1.00  0.00     0.037 A 
ATOM     57  C   UNL A   1      42.695  29.239  34.571  1.00  0.00     0.049 A 
ATOM     58  C   UNL A   1      38.285  31.121  31.693  1.00  0.00     0.074 A 
ATOM     59  C   UNL A   1      42.779  29.616  35.900  1.00  0.00     0.029 A 
ATOM     60  N   UNL A   1      41.551  29.833  34.060  1.00  0.00    -0.354 N 
ATOM     61  N   UNL A   1      39.283  30.802  32.482  1.00  0.00    -0.248 NA
ATOM     62  C   UNL A   1      37.269  31.971  32.329  1.00  0.00     0.031 C 
ATOM     63  C   UNL A   1      41.658  30.394  36.207  1.00  0.00     0.029 A 
ATOM     64  C   UNL A   1      40.908  30.554  35.053  1.00  0.00     0.049 A 
ATOM     65  H   UNL A   1      41.241  29.753  33.128  1.00  0.00     0.167 HD
ATOM     66  C   UNL A   1      39.010  31.402  33.703  1.00  0.00     0.074 A 
ATOM     67  C   UNL A   1      37.787  32.156  33.534  1.00  0.00     0.031 C 
ATOM     68  C   UNL A   1      39.695  31.310  34.870  1.00  0.00     0.037 A 
BRANCH  55  69
ATOM     69  C   UNL A   1      44.800  27.848  34.518  1.00  0.00     0.064 A 
ATOM     70  C   UNL A   1      44.786  26.589  35.133  1.00  0.00     0.173 A 
ATOM     71  C   UNL A   1      46.002  28.575  34.545  1.00  0.00     0.173 A 
ATOM     72  F   UNL A   1      43.664  25.854  35.144  1.00  0.00    -0.203 F 
ATOM     73  C   UNL A   1      45.921  26.092  35.774  1.00  0.00     0.198 A 
ATOM     74  C   UNL A   1      47.142  28.062  35.156  1.00  0.00     0.198 A 
ATOM     75  F   UNL A   1      46.076  29.782  33.963  1.00  0.00    -0.203 F 
ATOM     76  F   UNL A   1      45.873  24.907  36.397  1.00  0.00    -0.200 F 
ATOM     77  C   UNL A   1      47.099  26.825  35.778  1.00  0.00     0.200 A 
ATOM     78  F   UNL A   1      48.284  28.764  35.140  1.00  0.00    -0.200 F 
ATOM     79  F   UNL A   1      48.192  26.341  36.384  1.00  0.00    -0.200 F 
ENDBRANCH  55  69
BRANCH  56  80
ATOM     80  C   UNL A   1      36.931  31.358  29.484  1.00  0.00     0.064 A 
ATOM     81  C   UNL A   1      35.815  30.598  29.100  1.00  0.00     0.173 A 
ATOM     82  C   UNL A   1      36.957  32.706  29.098  1.00  0.00     0.173 A 
ATOM     83  F   UNL A   1      35.748  29.296  29.421  1.00  0.00    -0.203 F 
ATOM     84  C   UNL A   1      34.783  31.157  28.349  1.00  0.00     0.198 A 
ATOM     85  C   UNL A   1      35.902  33.276  28.388  1.00  0.00     0.198 A 
ATOM     86  F   UNL A   1      38.000  33.481  29.427  1.00  0.00    -0.203 F 
ATOM     87  F   UNL A   1      33.760  30.390  27.946  1.00  0.00    -0.200 F 
ATOM     88  C   UNL A   1      34.821  32.498  28.004  1.00  0.00     0.200 A 
ATOM     89  F   UNL A   1      35.935  34.579  28.077  1.00  0.00    -0.200 F 
ATOM     90  F   UNL A   1      33.823  33.039  27.292  1.00  0.00    -0.200 F 
ENDBRANCH  56  80
BRANCH  68  91
ATOM     91  C   UNL A   1      39.140  32.047  36.057  1.00  0.00     0.064 A 
ATOM     92  C   UNL A   1      38.257  31.428  36.956  1.00  0.00     0.173 A 
ATOM     93  C   UNL A   1      39.531  33.367  36.327  1.00  0.00     0.173 A 
ATOM     94  F   UNL A   1      37.842  30.171  36.739  1.00  0.00    -0.203 F 
ATOM     95  C   UNL A   1      37.761  32.114  38.062  1.00  0.00     0.198 A 
ATOM     96  C   UNL A   1      39.060  34.038  37.451  1.00  0.00     0.198 A 
ATOM     97  F   UNL A   1      40.380  34.002  35.506  1.00  0.00    -0.203 F 
ATOM     98  F   UNL A   1      36.878  31.520  38.876  1.00  0.00    -0.200 F 
ATOM     99  C   UNL A   1      38.169  33.415  38.312  1.00  0.00     0.200 A 
ATOM    100  F   UNL A   1      39.467  35.290  37.703  1.00  0.00    -0.200 F 
ATOM    101  F   UNL A   1      37.698  34.072  39.382  1.00  0.00    -0.200 F 
ENDBRANCH  68  91
ENDBRANCH  42  43
ENDBRANCH  35  37
ENDBRANCH  34  35
ENDBRANCH  33  34
ENDBRANCH  32  33
ENDBRANCH  31  32
ENDBRANCH   1  31
TORSDOF 18
ENDMDL
MODEL 2
REMARK VINA RESULT:     -12.4      0.573      7.150
REMARK SMILES C[C@@H](C(=O)OCCOC(=O)c1ccc(-c2c3nc(c(-c4c(F)c(F)c(F)c(F)c4F)c4ccc([nH]4)c(-c4c(F)c(F)c(F)c(F)c4F)c4nc(c(-c5c(F)c(F)c(F)c(F)c5F)c5ccc2[nH]5)C=C4)C=C3)cc1)c1ccc(-c2cccc(OC(=O)NCCC3CCCCC3)c2)c(F)c1
REMARK SMILES IDX 3 1 4 2 2 3 1 4 74 5 75 6 98 7 76 8 96 9 77 10 97 11 78 12
REMARK SMILES IDX 79 13 95 14 80 15 82 16 81 17 83 18 84 19 85 20 86 21 87 23
REMARK SMILES IDX 88 24 89 25 90 26 94 27 91 28 93 29 92 30 5 31 6 32 7 33
REMARK SMILES IDX 8 34 9 35 10 36 11 37 12 38 73 39 13 40 72 41 14 42 15 43
REMARK SMILES IDX 16 44 66 45 17 46 71 47 65 48 67 49 18 50 70 51 64 52 63 53
REMARK SMILES IDX 19 55 51 56 31 57 50 58 32 59 35 60 49 61 68 62 33 63 34 64
REMARK SMILES IDX 48 66 69 67 36 68 20 69 21 70 29 71 22 72 23 73 27 74 30 75
REMARK SMILES IDX 24 76 25 77 28 78 26 79 52 80 53 81 61 82 54 83 55 84 59 85
REMARK SMILES IDX 62 86 56 87 57 88 60 89 58 90 37 91 38 92 46 93 39 94 40 95
REMARK SMILES IDX 44 96 47 97 41 98 42 99 45 100 43 101
REMARK H PARENT 86 22 67 54 35 65
REMARK Flexibility Score: inf
ROOT
ATOM      1  C   UNL A   1      43.112  19.383  25.669  1.00  0.00     0.313 C 
ATOM      2  O   UNL A   1      43.478  18.219  25.547  1.00  0.00    -0.252 OA
ENDROOT
BRANCH   1   3
ATOM      3  C   UNL A   1      42.241  19.886  26.834  1.00  0.00     0.126 C 
ATOM      4  C   UNL A   1      42.136  18.863  27.973  1.00  0.00     0.025 C 
BRANCH   3   5
ATOM      5  C   UNL A   1      40.882  20.402  26.351  1.00  0.00    -0.031 A 
ATOM      6  C   UNL A   1      39.986  19.523  25.717  1.00  0.00     0.005 A 
ATOM      7  C   UNL A   1      40.458  21.723  26.545  1.00  0.00     0.044 A 
ATOM      8  C   UNL A   1      38.710  19.945  25.311  1.00  0.00     0.012 A 
ATOM      9  C   UNL A   1      39.187  22.137  26.134  1.00  0.00     0.131 A 
ATOM     10  C   UNL A   1      38.279  21.265  25.515  1.00  0.00     0.018 A 
ATOM     11  F   UNL A   1      38.839  23.408  26.394  1.00  0.00    -0.206 F 
BRANCH  10  12
ATOM     12  C   UNL A   1      36.935  21.712  25.096  1.00  0.00    -0.012 A 
ATOM     13  C   UNL A   1      36.740  22.600  24.023  1.00  0.00     0.009 A 
ATOM     14  C   UNL A   1      35.797  21.280  25.792  1.00  0.00     0.056 A 
ATOM     15  C   UNL A   1      35.458  23.021  23.649  1.00  0.00     0.004 A 
ATOM     16  C   UNL A   1      34.532  21.768  25.470  1.00  0.00     0.133 A 
ATOM     17  C   UNL A   1      34.348  22.600  24.369  1.00  0.00     0.047 A 
BRANCH  16  18
ATOM     18  O   UNL A   1      33.387  21.504  26.235  1.00  0.00    -0.410 OA
BRANCH  18  19
ATOM     19  C   UNL A   1      32.236  21.160  25.536  1.00  0.00     0.412 C 
ATOM     20  O   UNL A   1      32.082  20.211  24.784  1.00  0.00    -0.224 OA
ATOM     21  N   UNL A   1      31.186  21.994  25.787  1.00  0.00    -0.321 N 
ATOM     22  H   UNL A   1      30.350  21.800  25.306  1.00  0.00     0.167 HD
BRANCH  21  23
ATOM     23  C   UNL A   1      31.163  23.130  26.677  1.00  0.00     0.119 C 
BRANCH  23  24
ATOM     24  C   UNL A   1      30.473  24.327  26.030  1.00  0.00     0.025 C 
BRANCH  24  25
ATOM     25  C   UNL A   1      31.439  25.454  25.609  1.00  0.00    -0.009 C 
ATOM     26  C   UNL A   1      32.860  25.234  26.156  1.00  0.00     0.003 C 
ATOM     27  C   UNL A   1      31.458  25.584  24.078  1.00  0.00     0.003 C 
ATOM     28  C   UNL A   1      33.831  26.308  25.675  1.00  0.00     0.000 C 
ATOM     29  C   UNL A   1      32.421  26.675  23.621  1.00  0.00     0.000 C 
ATOM     30  C   UNL A   1      33.829  26.433  24.156  1.00  0.00     0.000 C 
ENDBRANCH  24  25
ENDBRANCH  23  24
ENDBRANCH  21  23
ENDBRANCH  18  19
ENDBRANCH  16  18
ENDBRANCH  10  12
ENDBRANCH   3   5
ENDBRANCH   1   3
BRANCH   1  31
ATOM     31  O   UNL A   1      43.391  20.361  24.763  1.00  0.00    -0.462 OA
BRANCH  31  32
ATOM     32  C   UNL A   1      44.558  21.170  25.010  1.00  0.00     0.274 C 
BRANCH  32  33
ATOM     33  C   UNL A   1      44.477  22.478  24.226  1.00  0.00     0.275 C 
BRANCH  33  34
ATOM     34  O   UNL A   1      43.669  23.438  24.933  1.00  0.00    -0.458 OA
BRANCH  34  35
ATOM     35  C   UNL A   1      44.232  24.653  25.115  1.00  0.00     0.338 C 
ATOM     36  O   UNL A   1      45.195  25.126  24.536  1.00  0.00    -0.246 OA
BRANCH  35  37
ATOM     37  C   UNL A   1      43.455  25.404  26.110  1.00  0.00     0.060 A 
ATOM     38  C   UNL A   1      43.673  26.771  26.217  1.00  0.00     0.016 A 
ATOM     39  C   UNL A   1      42.635  24.751  27.029  1.00  0.00     0.016 A 
ATOM     40  C   UNL A   1      43.155  27.469  27.302  1.00  0.00     0.010 A 
ATOM     41  C   UNL A   1      42.046  25.479  28.073  1.00  0.00     0.010 A 
ATOM     42  C   UNL A   1      42.338  26.843  28.252  1.00  0.00    -0.014 A 
BRANCH  42  43
ATOM     43  C   UNL A   1      41.869  27.614  29.444  1.00  0.00     0.031 A 
ATOM     44  C   UNL A   1      40.538  28.325  29.420  1.00  0.00     0.074 A 
ATOM     45  C   UNL A   1      42.586  27.608  30.589  1.00  0.00     0.049 A 
ATOM     46  N   UNL A   1      40.009  29.132  30.308  1.00  0.00    -0.248 NA
ATOM     47  C   UNL A   1      39.696  28.116  28.232  1.00  0.00     0.031 C 
ATOM     48  C   UNL A   1      43.837  26.880  30.797  1.00  0.00     0.029 A 
ATOM     49  N   UNL A   1      42.332  28.176  31.816  1.00  0.00    -0.354 N 
ATOM     50  C   UNL A   1      38.820  29.589  29.748  1.00  0.00     0.074 A 
ATOM     51  C   UNL A   1      38.694  28.956  28.454  1.00  0.00     0.031 C 
ATOM     52  C   UNL A   1      44.173  26.942  32.093  1.00  0.00     0.029 A 
ATOM     53  C   UNL A   1      43.231  27.810  32.790  1.00  0.00     0.049 A 
ATOM     54  H   UNL A   1      41.578  28.786  31.981  1.00  0.00     0.167 HD
ATOM     55  C   UNL A   1      37.930  30.473  30.262  1.00  0.00     0.037 A 
ATOM     56  C   UNL A   1      43.289  28.135  34.097  1.00  0.00     0.037 A 
ATOM     57  C   UNL A   1      38.016  31.030  31.589  1.00  0.00     0.049 A 
ATOM     58  C   UNL A   1      42.278  29.102  34.653  1.00  0.00     0.074 A 
ATOM     59  C   UNL A   1      37.186  31.961  32.192  1.00  0.00     0.029 A 
ATOM     60  N   UNL A   1      38.973  30.682  32.531  1.00  0.00    -0.354 N 
ATOM     61  N   UNL A   1      41.211  29.607  34.082  1.00  0.00    -0.248 NA
ATOM     62  C   UNL A   1      42.499  29.570  36.028  1.00  0.00     0.031 C 
ATOM     63  C   UNL A   1      37.672  32.214  33.479  1.00  0.00     0.029 A 
ATOM     64  C   UNL A   1      38.768  31.396  33.700  1.00  0.00     0.049 A 
ATOM     65  H   UNL A   1      39.693  30.025  32.388  1.00  0.00     0.167 HD
ATOM     66  C   UNL A   1      40.642  30.455  35.023  1.00  0.00     0.074 A 
ATOM     67  C   UNL A   1      41.445  30.349  36.222  1.00  0.00     0.031 C 
ATOM     68  C   UNL A   1      39.569  31.274  34.893  1.00  0.00     0.037 A 
BRANCH  55  69
ATOM     69  C   UNL A   1      36.830  30.965  29.363  1.00  0.00     0.064 A 
ATOM     70  C   UNL A   1      36.820  32.252  28.810  1.00  0.00     0.173 A 
ATOM     71  C   UNL A   1      35.778  30.098  29.021  1.00  0.00     0.173 A 
ATOM     72  F   UNL A   1      37.795  33.123  29.108  1.00  0.00    -0.203 F 
ATOM     73  C   UNL A   1      35.783  32.664  27.973  1.00  0.00     0.198 A 
ATOM     74  C   UNL A   1      34.762  30.501  28.158  1.00  0.00     0.198 A 
ATOM     75  F   UNL A   1      35.742  28.850  29.512  1.00  0.00    -0.203 F 
ATOM     76  F   UNL A   1      35.767  33.915  27.493  1.00  0.00    -0.200 F 
ATOM     77  C   UNL A   1      34.761  31.786  27.642  1.00  0.00     0.200 A 
ATOM     78  F   UNL A   1      33.788  29.643  27.825  1.00  0.00    -0.200 F 
ATOM     79  F   UNL A   1      33.772  32.180  26.828  1.00  0.00    -0.200 F 
ENDBRANCH  55  69
BRANCH  56  80
ATOM     80  C   UNL A   1      44.335  27.542  34.980  1.00  0.00     0.064 A 
ATOM     81  C   UNL A   1      45.586  28.161  35.120  1.00  0.00     0.173 A 
ATOM     82  C   UNL A   1      44.123  26.349  35.687  1.00  0.00     0.173 A 
ATOM     83  F   UNL A   1      45.853  29.292  34.447  1.00  0.00    -0.203 F 
ATOM     84  C   UNL A   1      46.585  27.604  35.915  1.00  0.00     0.198 A 
ATOM     85  C   UNL A   1      45.106  25.817  36.519  1.00  0.00     0.198 A 
ATOM     86  F   UNL A   1      42.951  25.705  35.586  1.00  0.00    -0.203 F 
ATOM     87  F   UNL A   1      47.790  28.187  35.980  1.00  0.00    -0.200 F 
ATOM     88  C   UNL A   1      46.341  26.438  36.624  1.00  0.00     0.200 A 
ATOM     89  F   UNL A   1      44.855  24.702  37.218  1.00  0.00    -0.200 F 
ATOM     90  F   UNL A   1      47.296  25.908  37.398  1.00  0.00    -0.200 F 
ENDBRANCH  56  80
BRANCH  68  91
ATOM     91  C   UNL A   1      39.196  32.118  36.079  1.00  0.00     0.064 A 
ATOM     92  C   UNL A   1      39.692  33.421  36.236  1.00  0.00     0.173 A 
ATOM     93  C   UNL A   1      38.296  31.639  37.044  1.00  0.00     0.173 A 
ATOM     94  F   UNL A   1      40.564  33.924  35.349  1.00  0.00    -0.203 F 
ATOM     95  C   UNL A   1      39.328  34.201  37.331  1.00  0.00     0.198 A 
ATOM     96  C   UNL A   1      37.908  32.433  38.118  1.00  0.00     0.198 A 
ATOM     97  F   UNL A   1      37.784  30.404  36.937  1.00  0.00    -0.203 F 
ATOM     98  F   UNL A   1      39.857  35.423  37.487  1.00  0.00    -0.200 F 
ATOM     99  C   UNL A   1      38.430  33.709  38.266  1.00  0.00     0.200 A 
ATOM    100  F   UNL A   1      37.028  31.964  39.013  1.00  0.00    -0.200 F 
ATOM    101  F   UNL A   1      38.073  34.464  39.315  1.00  0.00    -0.200 F 
ENDBRANCH  68  91
ENDBRANCH  42  43
ENDBRANCH  35  37
ENDBRANCH  34  35
ENDBRANCH  33  34
ENDBRANCH  32  33
ENDBRANCH  31  32
ENDBRANCH   1  31
TORSDOF 18
ENDMDL
MODEL 3
REMARK VINA RESULT:     -12.4      5.170      9.499
REMARK SMILES C[C@@H](C(=O)OCCOC(=O)c1ccc(-c2c3nc(c(-c4c(F)c(F)c(F)c(F)c4F)c4ccc([nH]4)c(-c4c(F)c(F)c(F)c(F)c4F)c4nc(c(-c5c(F)c(F)c(F)c(F)c5F)c5ccc2[nH]5)C=C4)C=C3)cc1)c1ccc(-c2cccc(OC(=O)NCCC3CCCCC3)c2)c(F)c1
REMARK SMILES IDX 3 1 4 2 2 3 1 4 74 5 75 6 98 7 76 8 96 9 77 10 97 11 78 12
REMARK SMILES IDX 79 13 95 14 80 15 82 16 81 17 83 18 84 19 85 20 86 21 87 23
REMARK SMILES IDX 88 24 89 25 90 26 94 27 91 28 93 29 92 30 5 31 6 32 7 33
REMARK SMILES IDX 8 34 9 35 10 36 11 37 12 38 73 39 13 40 72 41 14 42 15 43
REMARK SMILES IDX 16 44 66 45 17 46 71 47 65 48 67 49 18 50 70 51 64 52 63 53
REMARK SMILES IDX 19 55 51 56 31 57 50 58 32 59 35 60 49 61 68 62 33 63 34 64
REMARK SMILES IDX 48 66 69 67 36 68 20 69 21 70 29 71 22 72 23 73 27 74 30 75
REMARK SMILES IDX 24 76 25 77 28 78 26 79 52 80 53 81 61 82 54 83 55 84 59 85
REMARK SMILES IDX 62 86 56 87 57 88 60 89 58 90 37 91 38 92 46 93 39 94 40 95
REMARK SMILES IDX 44 96 47 97 41 98 42 99 45 100 43 101
REMARK H PARENT 86 22 67 54 35 65
REMARK Flexibility Score: inf
ROOT
ATOM      1  C   UNL A   1      41.339  20.103  27.272  1.00  0.00     0.313 C 
ATOM      2  O   UNL A   1      40.777  19.546  28.210  1.00  0.00    -0.252 OA
ENDROOT
BRANCH   1   3
ATOM      3  C   UNL A   1      41.394  21.631  27.099  1.00  0.00     0.126 C 
ATOM      4  C   UNL A   1      41.973  22.343  28.329  1.00  0.00     0.025 C 
BRANCH   3   5
ATOM      5  C   UNL A   1      40.049  22.204  26.639  1.00  0.00    -0.031 A 
ATOM      6  C   UNL A   1      39.734  23.548  26.911  1.00  0.00     0.005 A 
ATOM      7  C   UNL A   1      39.112  21.457  25.915  1.00  0.00     0.044 A 
ATOM      8  C   UNL A   1      38.536  24.124  26.459  1.00  0.00     0.012 A 
ATOM      9  C   UNL A   1      37.919  22.038  25.472  1.00  0.00     0.131 A 
ATOM     10  C   UNL A   1      37.601  23.381  25.723  1.00  0.00     0.018 A 
ATOM     11  F   UNL A   1      37.092  21.268  24.746  1.00  0.00    -0.206 F 
BRANCH  10  12
ATOM     12  C   UNL A   1      36.344  23.985  25.238  1.00  0.00    -0.012 A 
ATOM     13  C   UNL A   1      35.564  24.840  26.038  1.00  0.00     0.009 A 
ATOM     14  C   UNL A   1      35.866  23.690  23.953  1.00  0.00     0.056 A 
ATOM     15  C   UNL A   1      34.369  25.394  25.564  1.00  0.00     0.004 A 
ATOM     16  C   UNL A   1      34.634  24.175  23.518  1.00  0.00     0.133 A 
ATOM     17  C   UNL A   1      33.904  25.067  24.298  1.00  0.00     0.047 A 
BRANCH  16  18
ATOM     18  O   UNL A   1      34.031  23.778  22.316  1.00  0.00    -0.410 OA
BRANCH  18  19
ATOM     19  C   UNL A   1      32.876  24.456  21.945  1.00  0.00     0.412 C 
ATOM     20  O   UNL A   1      32.797  25.474  21.277  1.00  0.00    -0.224 OA
ATOM     21  N   UNL A   1      31.734  23.845  22.376  1.00  0.00    -0.321 N 
ATOM     22  H   UNL A   1      30.888  24.293  22.149  1.00  0.00     0.167 HD
BRANCH  21  23
ATOM     23  C   UNL A   1      31.627  22.618  23.128  1.00  0.00     0.119 C 
BRANCH  23  24
ATOM     24  C   UNL A   1      31.102  22.876  24.538  1.00  0.00     0.025 C 
BRANCH  24  25
ATOM     25  C   UNL A   1      31.879  22.130  25.641  1.00  0.00    -0.009 C 
ATOM     26  C   UNL A   1      33.208  21.551  25.125  1.00  0.00     0.003 C 
ATOM     27  C   UNL A   1      32.119  23.063  26.838  1.00  0.00     0.003 C 
ATOM     28  C   UNL A   1      34.010  20.880  26.236  1.00  0.00     0.000 C 
ATOM     29  C   UNL A   1      32.906  22.366  27.943  1.00  0.00     0.000 C 
ATOM     30  C   UNL A   1      34.229  21.815  27.420  1.00  0.00     0.000 C 
ENDBRANCH  24  25
ENDBRANCH  23  24
ENDBRANCH  21  23
ENDBRANCH  18  19
ENDBRANCH  16  18
ENDBRANCH  10  12
ENDBRANCH   3   5
ENDBRANCH   1   3
BRANCH   1  31
ATOM     31  O   UNL A   1      41.938  19.436  26.247  1.00  0.00    -0.462 OA
BRANCH  31  32
ATOM     32  C   UNL A   1      42.916  18.438  26.598  1.00  0.00     0.274 C 
BRANCH  32  33
ATOM     33  C   UNL A   1      43.777  18.085  25.387  1.00  0.00     0.275 C 
BRANCH  33  34
ATOM     34  O   UNL A   1      43.729  19.143  24.411  1.00  0.00    -0.458 OA
BRANCH  34  35
ATOM     35  C   UNL A   1      44.902  19.771  24.174  1.00  0.00     0.338 C 
ATOM     36  O   UNL A   1      45.854  19.361  23.534  1.00  0.00    -0.246 OA
BRANCH  35  37
ATOM     37  C   UNL A   1      44.861  21.116  24.764  1.00  0.00     0.060 A 
ATOM     38  C   UNL A   1      44.540  22.185  23.938  1.00  0.00     0.016 A 
ATOM     39  C   UNL A   1      45.279  21.343  26.074  1.00  0.00     0.016 A 
ATOM     40  C   UNL A   1      44.735  23.487  24.387  1.00  0.00     0.010 A 
ATOM     41  C   UNL A   1      45.393  22.659  26.548  1.00  0.00     0.010 A 
ATOM     42  C   UNL A   1      45.168  23.752  25.693  1.00  0.00    -0.014 A 
BRANCH  42  43
ATOM     43  C   UNL A   1      45.441  25.163  26.107  1.00  0.00     0.031 A 
ATOM     44  C   UNL A   1      44.390  25.962  26.838  1.00  0.00     0.074 A 
ATOM     45  C   UNL A   1      46.660  25.709  25.913  1.00  0.00     0.049 A 
ATOM     46  N   UNL A   1      44.396  27.227  27.181  1.00  0.00    -0.248 NA
ATOM     47  C   UNL A   1      43.162  25.249  27.221  1.00  0.00     0.031 C 
ATOM     48  C   UNL A   1      47.807  25.024  25.316  1.00  0.00     0.029 A 
ATOM     49  N   UNL A   1      47.163  26.942  26.261  1.00  0.00    -0.354 N 
ATOM     50  C   UNL A   1      43.146  27.478  27.739  1.00  0.00     0.074 A 
ATOM     51  C   UNL A   1      42.415  26.231  27.707  1.00  0.00     0.031 C 
ATOM     52  C   UNL A   1      48.898  25.792  25.450  1.00  0.00     0.029 A 
ATOM     53  C   UNL A   1      48.513  27.072  26.034  1.00  0.00     0.049 A 
ATOM     54  H   UNL A   1      46.608  27.662  26.637  1.00  0.00     0.167 HD
ATOM     55  C   UNL A   1      42.652  28.648  28.211  1.00  0.00     0.037 A 
ATOM     56  C   UNL A   1      49.348  28.103  26.272  1.00  0.00     0.037 A 
ATOM     57  C   UNL A   1      43.417  29.865  28.323  1.00  0.00     0.049 A 
ATOM     58  C   UNL A   1      48.781  29.387  26.817  1.00  0.00     0.074 A 
ATOM     59  C   UNL A   1      43.000  31.113  28.754  1.00  0.00     0.029 A 
ATOM     60  N   UNL A   1      44.768  29.977  28.029  1.00  0.00    -0.354 N 
ATOM     61  N   UNL A   1      47.570  29.643  27.250  1.00  0.00    -0.248 NA
ATOM     62  C   UNL A   1      49.693  30.538  26.877  1.00  0.00     0.031 C 
ATOM     63  C   UNL A   1      44.085  31.991  28.672  1.00  0.00     0.029 A 
ATOM     64  C   UNL A   1      45.194  31.278  28.248  1.00  0.00     0.049 A 
ATOM     65  H   UNL A   1      45.340  29.240  27.711  1.00  0.00     0.167 HD
ATOM     66  C   UNL A   1      47.574  30.981  27.623  1.00  0.00     0.074 A 
ATOM     67  C   UNL A   1      48.923  31.466  27.425  1.00  0.00     0.031 C 
ATOM     68  C   UNL A   1      46.543  31.747  28.059  1.00  0.00     0.037 A 
BRANCH  55  69
ATOM     69  C   UNL A   1      41.192  28.701  28.566  1.00  0.00     0.064 A 
ATOM     70  C   UNL A   1      40.714  28.442  29.858  1.00  0.00     0.173 A 
ATOM     71  C   UNL A   1      40.254  29.059  27.583  1.00  0.00     0.173 A 
ATOM     72  F   UNL A   1      41.563  28.090  30.834  1.00  0.00    -0.203 F 
ATOM     73  C   UNL A   1      39.351  28.512  30.145  1.00  0.00     0.198 A 
ATOM     74  C   UNL A   1      38.898  29.160  27.880  1.00  0.00     0.198 A 
ATOM     75  F   UNL A   1      40.656  29.328  26.330  1.00  0.00    -0.203 F 
ATOM     76  F   UNL A   1      38.911  28.214  31.375  1.00  0.00    -0.200 F 
ATOM     77  C   UNL A   1      38.446  28.878  29.159  1.00  0.00     0.200 A 
ATOM     78  F   UNL A   1      38.030  29.533  26.930  1.00  0.00    -0.200 F 
ATOM     79  F   UNL A   1      37.138  28.954  29.440  1.00  0.00    -0.200 F 
ENDBRANCH  55  69
BRANCH  56  80
ATOM     80  C   UNL A   1      50.809  27.974  26.004  1.00  0.00     0.064 A 
ATOM     81  C   UNL A   1      51.314  28.137  24.705  1.00  0.00     0.173 A 
ATOM     82  C   UNL A   1      51.728  27.672  27.020  1.00  0.00     0.173 A 
ATOM     83  F   UNL A   1      50.477  28.402  23.689  1.00  0.00    -0.203 F 
ATOM     84  C   UNL A   1      52.672  27.987  24.432  1.00  0.00     0.198 A 
ATOM     85  C   UNL A   1      53.092  27.570  26.755  1.00  0.00     0.198 A 
ATOM     86  F   UNL A   1      51.305  27.495  28.280  1.00  0.00    -0.203 F 
ATOM     87  F   UNL A   1      53.115  28.089  23.171  1.00  0.00    -0.200 F 
ATOM     88  C   UNL A   1      53.562  27.715  25.459  1.00  0.00     0.200 A 
ATOM     89  F   UNL A   1      53.949  27.328  27.756  1.00  0.00    -0.200 F 
ATOM     90  F   UNL A   1      54.870  27.584  25.200  1.00  0.00    -0.200 F 
ENDBRANCH  56  80
BRANCH  68  91
ATOM     91  C   UNL A   1      46.834  33.191  28.357  1.00  0.00     0.064 A 
ATOM     92  C   UNL A   1      46.692  34.185  27.376  1.00  0.00     0.173 A 
ATOM     93  C   UNL A   1      47.210  33.593  29.648  1.00  0.00     0.173 A 
ATOM     94  F   UNL A   1      46.345  33.853  26.123  1.00  0.00    -0.203 F 
ATOM     95  C   UNL A   1      46.948  35.522  27.668  1.00  0.00     0.198 A 
ATOM     96  C   UNL A   1      47.432  34.934  29.944  1.00  0.00     0.198 A 
ATOM     97  F   UNL A   1      47.351  32.685  30.625  1.00  0.00    -0.203 F 
ATOM     98  F   UNL A   1      46.858  36.446  26.701  1.00  0.00    -0.200 F 
ATOM     99  C   UNL A   1      47.310  35.896  28.953  1.00  0.00     0.200 A 
ATOM    100  F   UNL A   1      47.766  35.298  31.190  1.00  0.00    -0.200 F 
ATOM    101  F   UNL A   1      47.548  37.186  29.234  1.00  0.00    -0.200 F 
ENDBRANCH  68  91
ENDBRANCH  42  43
ENDBRANCH  35  37
ENDBRANCH  34  35
ENDBRANCH  33  34
ENDBRANCH  32  33
ENDBRANCH  31  32
ENDBRANCH   1  31
TORSDOF 18
ENDMDL
