MODEL 1
REMARK VINA RESULT:     -10.2      0.000      0.000
REMARK SMILES [NH3+][C@H](CCC(=O)OCCOC(=O)c1ccc(-c2c3nc(c(-c4c(F)c(F)c(F)c(F)c4F)c4ccc([nH]4)c(-c4c(F)c(F)c(F)c(F)c4F)c4nc(c(-c5c(F)c(F)c(F)c(F)c5F)c5ccc2[nH]5)C=C4)C=C3)cc1)Cc1c[nH]c2ccccc12
REMARK SMILES IDX 8 1 7 2 5 3 6 4 4 5 3 6 2 7 1 8 76 12 77 13 78 14 85 15
REMARK SMILES IDX 79 16 80 17 84 18 81 20 83 21 82 22 9 23 10 24 11 25 12 26
REMARK SMILES IDX 13 27 14 28 75 29 15 30 74 31 16 32 17 33 18 34 68 35 19 36
REMARK SMILES IDX 73 37 67 38 69 39 20 40 72 41 66 42 65 43 21 45 53 46 33 47
REMARK SMILES IDX 52 48 34 49 37 50 51 51 70 52 35 53 36 54 50 56 71 57 38 58
REMARK SMILES IDX 22 59 23 60 31 61 24 62 25 63 29 64 32 65 26 66 27 67 30 68
REMARK SMILES IDX 28 69 54 70 55 71 63 72 56 73 57 74 61 75 64 76 58 77 59 78
REMARK SMILES IDX 62 79 60 80 39 81 40 82 48 83 41 84 42 85 46 86 49 87 43 88
REMARK SMILES IDX 44 89 47 90 45 91
REMARK H PARENT 1 9 1 10 1 11 79 19 69 44 37 55
REMARK Flexibility Score: inf
ROOT
ATOM      1  C   UNL A   1      40.921  19.972  26.687  1.00  0.00     0.274 C 
ENDROOT
BRANCH   1   2
ATOM      2  O   UNL A   1      41.475  19.023  25.751  1.00  0.00    -0.462 OA
BRANCH   2   3
ATOM      3  C   UNL A   1      42.824  19.061  25.606  1.00  0.00     0.306 C 
ATOM      4  O   UNL A   1      43.537  18.078  25.439  1.00  0.00    -0.252 OA
BRANCH   3   5
ATOM      5  C   UNL A   1      43.391  20.449  25.787  1.00  0.00     0.129 C 
BRANCH   5   6
ATOM      6  C   UNL A   1      44.610  20.806  24.938  1.00  0.00     0.077 C 
BRANCH   6   7
ATOM      7  C   UNL A   1      44.596  22.177  24.208  1.00  0.00     0.185 C 
BRANCH   7   8
ATOM      8  N   UNL A   1      44.528  22.017  22.752  1.00  0.00    -0.355 N 
ATOM      9  H   UNL A   1      45.253  22.585  22.313  1.00  0.00     0.344 HD
ATOM     10  H   UNL A   1      43.613  22.318  22.420  1.00  0.00     0.344 HD
ATOM     11  H   UNL A   1      44.673  21.036  22.511  1.00  0.00     0.344 HD
ENDBRANCH   7   8
BRANCH   7  12
ATOM     12  C   UNL A   1      43.413  23.090  24.705  1.00  0.00     0.102 C 
BRANCH  12  13
ATOM     13  C   UNL A   1      43.892  23.973  25.817  1.00  0.00    -0.017 A 
ATOM     14  C   UNL A   1      44.894  24.911  25.681  1.00  0.00     0.087 A 
ATOM     15  C   UNL A   1      43.650  23.839  27.219  1.00  0.00     0.003 A 
ATOM     16  N   UNL A   1      45.538  24.965  26.889  1.00  0.00    -0.361 N 
ATOM     17  C   UNL A   1      44.827  24.267  27.834  1.00  0.00     0.046 A 
ATOM     18  C   UNL A   1      42.651  23.249  28.016  1.00  0.00     0.010 A 
ATOM     19  H   UNL A   1      46.387  25.435  27.055  1.00  0.00     0.166 HD
ATOM     20  C   UNL A   1      45.144  23.947  29.158  1.00  0.00     0.026 A 
ATOM     21  C   UNL A   1      42.902  23.042  29.379  1.00  0.00     0.001 A 
ATOM     22  C   UNL A   1      44.154  23.326  29.922  1.00  0.00     0.002 A 
ENDBRANCH  12  13
ENDBRANCH   7  12
ENDBRANCH   6   7
ENDBRANCH   5   6
ENDBRANCH   3   5
ENDBRANCH   2   3
ENDBRANCH   1   2
BRANCH   1  23
ATOM     23  C   UNL A   1      39.829  20.844  26.069  1.00  0.00     0.275 C 
BRANCH  23  24
ATOM     24  O   UNL A   1      40.090  22.239  26.312  1.00  0.00    -0.458 OA
BRANCH  24  25
ATOM     25  C   UNL A   1      39.011  23.042  26.220  1.00  0.00     0.338 C 
ATOM     26  O   UNL A   1      37.932  22.786  25.721  1.00  0.00    -0.246 OA
BRANCH  25  27
ATOM     27  C   UNL A   1      39.285  24.351  26.820  1.00  0.00     0.060 A 
ATOM     28  C   UNL A   1      40.073  25.272  26.126  1.00  0.00     0.016 A 
ATOM     29  C   UNL A   1      38.900  24.590  28.139  1.00  0.00     0.016 A 
ATOM     30  C   UNL A   1      40.484  26.444  26.758  1.00  0.00     0.010 A 
ATOM     31  C   UNL A   1      39.295  25.775  28.763  1.00  0.00     0.010 A 
ATOM     32  C   UNL A   1      40.100  26.705  28.082  1.00  0.00    -0.014 A 
BRANCH  32  33
ATOM     33  C   UNL A   1      40.539  27.949  28.760  1.00  0.00     0.031 A 
ATOM     34  C   UNL A   1      41.955  28.099  29.235  1.00  0.00     0.074 A 
ATOM     35  C   UNL A   1      39.651  28.942  28.958  1.00  0.00     0.049 A 
ATOM     36  N   UNL A   1      42.497  29.065  29.935  1.00  0.00    -0.248 NA
ATOM     37  C   UNL A   1      42.887  27.020  28.879  1.00  0.00     0.031 C 
ATOM     38  C   UNL A   1      38.258  28.926  28.515  1.00  0.00     0.029 A 
ATOM     39  N   UNL A   1      39.790  30.153  29.588  1.00  0.00    -0.354 N 
ATOM     40  C   UNL A   1      43.825  28.703  30.117  1.00  0.00     0.074 A 
ATOM     41  C   UNL A   1      44.006  27.422  29.467  1.00  0.00     0.031 C 
ATOM     42  C   UNL A   1      37.670  30.075  28.879  1.00  0.00     0.029 A 
ATOM     43  C   UNL A   1      38.629  30.884  29.627  1.00  0.00     0.049 A 
ATOM     44  H   UNL A   1      40.640  30.466  29.975  1.00  0.00     0.167 HD
ATOM     45  C   UNL A   1      44.802  29.381  30.767  1.00  0.00     0.037 A 
ATOM     46  C   UNL A   1      38.360  32.060  30.224  1.00  0.00     0.037 A 
ATOM     47  C   UNL A   1      44.618  30.660  31.404  1.00  0.00     0.049 A 
ATOM     48  C   UNL A   1      39.448  32.763  30.987  1.00  0.00     0.074 A 
ATOM     49  C   UNL A   1      45.550  31.431  32.078  1.00  0.00     0.029 A 
ATOM     50  N   UNL A   1      43.420  31.357  31.447  1.00  0.00    -0.354 N 
ATOM     51  N   UNL A   1      40.698  32.412  31.161  1.00  0.00    -0.248 NA
ATOM     52  C   UNL A   1      39.083  34.026  31.645  1.00  0.00     0.031 C 
ATOM     53  C   UNL A   1      44.907  32.576  32.562  1.00  0.00     0.029 A 
ATOM     54  C   UNL A   1      43.584  32.541  32.150  1.00  0.00     0.049 A 
ATOM     55  H   UNL A   1      42.576  31.056  31.037  1.00  0.00     0.167 HD
ATOM     56  C   UNL A   1      41.275  33.415  31.926  1.00  0.00     0.074 A 
ATOM     57  C   UNL A   1      40.240  34.399  32.172  1.00  0.00     0.031 C 
ATOM     58  C   UNL A   1      42.547  33.512  32.383  1.00  0.00     0.037 A 
BRANCH  45  59
ATOM     59  C   UNL A   1      46.158  28.743  30.844  1.00  0.00     0.064 A 
ATOM     60  C   UNL A   1      46.496  27.854  31.875  1.00  0.00     0.173 A 
ATOM     61  C   UNL A   1      47.114  28.984  29.845  1.00  0.00     0.173 A 
ATOM     62  F   UNL A   1      45.622  27.599  32.860  1.00  0.00    -0.203 F 
ATOM     63  C   UNL A   1      47.750  27.248  31.914  1.00  0.00     0.198 A 
ATOM     64  C   UNL A   1      48.356  28.355  29.874  1.00  0.00     0.198 A 
ATOM     65  F   UNL A   1      46.837  29.820  28.833  1.00  0.00    -0.203 F 
ATOM     66  F   UNL A   1      48.065  26.431  32.930  1.00  0.00    -0.200 F 
ATOM     67  C   UNL A   1      48.675  27.493  30.911  1.00  0.00     0.200 A 
ATOM     68  F   UNL A   1      49.244  28.584  28.896  1.00  0.00    -0.200 F 
ATOM     69  F   UNL A   1      49.877  26.901  30.946  1.00  0.00    -0.200 F 
ENDBRANCH  45  59
BRANCH  46  70
ATOM     70  C   UNL A   1      36.995  32.638  30.133  1.00  0.00     0.064 A 
ATOM     71  C   UNL A   1      36.066  32.452  31.164  1.00  0.00     0.173 A 
ATOM     72  C   UNL A   1      36.596  33.389  29.018  1.00  0.00     0.173 A 
ATOM     73  F   UNL A   1      36.394  31.720  32.239  1.00  0.00    -0.203 F 
ATOM     74  C   UNL A   1      34.781  32.986  31.079  1.00  0.00     0.198 A 
ATOM     75  C   UNL A   1      35.321  33.945  28.946  1.00  0.00     0.198 A 
ATOM     76  F   UNL A   1      37.449  33.594  28.004  1.00  0.00    -0.203 F 
ATOM     77  F   UNL A   1      33.898  32.760  32.060  1.00  0.00    -0.200 F 
ATOM     78  C   UNL A   1      34.413  33.738  29.973  1.00  0.00     0.200 A 
ATOM     79  F   UNL A   1      34.972  34.682  27.882  1.00  0.00    -0.200 F 
ATOM     80  F   UNL A   1      33.180  34.257  29.895  1.00  0.00    -0.200 F 
ENDBRANCH  46  70
BRANCH  58  81
ATOM     81  C   UNL A   1      42.899  34.741  33.169  1.00  0.00     0.064 A 
ATOM     82  C   UNL A   1      42.845  34.758  34.570  1.00  0.00     0.173 A 
ATOM     83  C   UNL A   1      43.324  35.905  32.512  1.00  0.00     0.173 A 
ATOM     84  F   UNL A   1      42.428  33.674  35.243  1.00  0.00    -0.203 F 
ATOM     85  C   UNL A   1      43.181  35.905  35.285  1.00  0.00     0.198 A 
ATOM     86  C   UNL A   1      43.685  37.041  33.231  1.00  0.00     0.198 A 
ATOM     87  F   UNL A   1      43.397  35.938  31.173  1.00  0.00    -0.203 F 
ATOM     88  F   UNL A   1      43.078  35.914  36.621  1.00  0.00    -0.200 F 
ATOM     89  C   UNL A   1      43.606  37.043  34.615  1.00  0.00     0.200 A 
ATOM     90  F   UNL A   1      44.106  38.137  32.582  1.00  0.00    -0.200 F 
ATOM     91  F   UNL A   1      43.934  38.145  35.304  1.00  0.00    -0.200 F 
ENDBRANCH  58  81
ENDBRANCH  32  33
ENDBRANCH  25  27
ENDBRANCH  24  25
ENDBRANCH  23  24
ENDBRANCH   1  23
TORSDOF 16
ENDMDL
MODEL 2
REMARK VINA RESULT:     -10.2      3.940     11.119
REMARK SMILES [NH3+][C@H](CCC(=O)OCCOC(=O)c1ccc(-c2c3nc(c(-c4c(F)c(F)c(F)c(F)c4F)c4ccc([nH]4)c(-c4c(F)c(F)c(F)c(F)c4F)c4nc(c(-c5c(F)c(F)c(F)c(F)c5F)c5ccc2[nH]5)C=C4)C=C3)cc1)Cc1c[nH]c2ccccc12
REMARK SMILES IDX 8 1 7 2 5 3 6 4 4 5 3 6 2 7 1 8 76 12 77 13 78 14 85 15
REMARK SMILES IDX 79 16 80 17 84 18 81 20 83 21 82 22 9 23 10 24 11 25 12 26
REMARK SMILES IDX 13 27 14 28 75 29 15 30 74 31 16 32 17 33 18 34 68 35 19 36
REMARK SMILES IDX 73 37 67 38 69 39 20 40 72 41 66 42 65 43 21 45 53 46 33 47
REMARK SMILES IDX 52 48 34 49 37 50 51 51 70 52 35 53 36 54 50 56 71 57 38 58
REMARK SMILES IDX 22 59 23 60 31 61 24 62 25 63 29 64 32 65 26 66 27 67 30 68
REMARK SMILES IDX 28 69 54 70 55 71 63 72 56 73 57 74 61 75 64 76 58 77 59 78
REMARK SMILES IDX 62 79 60 80 39 81 40 82 48 83 41 84 42 85 46 86 49 87 43 88
REMARK SMILES IDX 44 89 47 90 45 91
REMARK H PARENT 1 9 1 10 1 11 79 19 69 44 37 55
REMARK Flexibility Score: inf
ROOT
ATOM      1  C   UNL A   1      34.024  34.329  27.937  1.00  0.00     0.274 C 
ENDROOT
BRANCH   1   2
ATOM      2  O   UNL A   1      34.255  35.242  29.031  1.00  0.00    -0.462 OA
BRANCH   2   3
ATOM      3  C   UNL A   1      33.156  35.888  29.499  1.00  0.00     0.306 C 
ATOM      4  O   UNL A   1      32.235  36.298  28.802  1.00  0.00    -0.252 OA
BRANCH   3   5
ATOM      5  C   UNL A   1      33.231  36.162  30.983  1.00  0.00     0.129 C 
BRANCH   5   6
ATOM      6  C   UNL A   1      33.710  35.011  31.867  1.00  0.00     0.077 C 
BRANCH   6   7
ATOM      7  C   UNL A   1      34.723  35.351  32.995  1.00  0.00     0.185 C 
BRANCH   7   8
ATOM      8  N   UNL A   1      34.111  36.169  34.047  1.00  0.00    -0.355 N 
ATOM      9  H   UNL A   1      34.792  36.846  34.390  1.00  0.00     0.344 HD
ATOM     10  H   UNL A   1      33.814  35.567  34.815  1.00  0.00     0.344 HD
ATOM     11  H   UNL A   1      33.303  36.661  33.668  1.00  0.00     0.344 HD
ENDBRANCH   7   8
BRANCH   7  12
ATOM     12  C   UNL A   1      35.354  34.051  33.622  1.00  0.00     0.102 C 
BRANCH  12  13
ATOM     13  C   UNL A   1      36.774  33.911  33.163  1.00  0.00    -0.017 A 
ATOM     14  C   UNL A   1      37.869  34.267  33.921  1.00  0.00     0.087 A 
ATOM     15  C   UNL A   1      37.256  33.681  31.837  1.00  0.00     0.003 A 
ATOM     16  N   UNL A   1      38.824  34.700  33.039  1.00  0.00    -0.361 N 
ATOM     17  C   UNL A   1      38.446  34.404  31.753  1.00  0.00     0.046 A 
ATOM     18  C   UNL A   1      36.740  33.096  30.666  1.00  0.00     0.010 A 
ATOM     19  H   UNL A   1      39.659  35.155  33.291  1.00  0.00     0.166 HD
ATOM     20  C   UNL A   1      39.030  34.751  30.531  1.00  0.00     0.026 A 
ATOM     21  C   UNL A   1      37.392  33.324  29.447  1.00  0.00     0.001 A 
ATOM     22  C   UNL A   1      38.479  34.193  29.375  1.00  0.00     0.002 A 
ENDBRANCH  12  13
ENDBRANCH   7  12
ENDBRANCH   6   7
ENDBRANCH   5   6
ENDBRANCH   3   5
ENDBRANCH   2   3
ENDBRANCH   1   2
BRANCH   1  23
ATOM     23  C   UNL A   1      33.993  32.868  28.382  1.00  0.00     0.275 C 
BRANCH  23  24
ATOM     24  O   UNL A   1      34.721  32.038  27.459  1.00  0.00    -0.458 OA
BRANCH  24  25
ATOM     25  C   UNL A   1      34.591  30.712  27.666  1.00  0.00     0.338 C 
ATOM     26  O   UNL A   1      33.589  30.033  27.544  1.00  0.00    -0.246 OA
BRANCH  25  27
ATOM     27  C   UNL A   1      35.867  30.123  28.085  1.00  0.00     0.060 A 
ATOM     28  C   UNL A   1      36.007  29.656  29.394  1.00  0.00     0.016 A 
ATOM     29  C   UNL A   1      36.965  30.196  27.229  1.00  0.00     0.016 A 
ATOM     30  C   UNL A   1      37.262  29.259  29.854  1.00  0.00     0.010 A 
ATOM     31  C   UNL A   1      38.217  29.778  27.685  1.00  0.00     0.010 A 
ATOM     32  C   UNL A   1      38.377  29.318  29.004  1.00  0.00    -0.014 A 
BRANCH  32  33
ATOM     33  C   UNL A   1      39.715  28.901  29.491  1.00  0.00     0.031 A 
ATOM     34  C   UNL A   1      40.474  29.758  30.461  1.00  0.00     0.074 A 
ATOM     35  C   UNL A   1      40.251  27.749  29.044  1.00  0.00     0.049 A 
ATOM     36  N   UNL A   1      41.693  29.612  30.919  1.00  0.00    -0.248 NA
ATOM     37  C   UNL A   1      39.772  30.937  30.987  1.00  0.00     0.031 C 
ATOM     38  C   UNL A   1      39.598  26.818  28.125  1.00  0.00     0.029 A 
ATOM     39  N   UNL A   1      41.469  27.171  29.299  1.00  0.00    -0.354 N 
ATOM     40  C   UNL A   1      41.909  30.687  31.771  1.00  0.00     0.074 A 
ATOM     41  C   UNL A   1      40.703  31.486  31.757  1.00  0.00     0.031 C 
ATOM     42  C   UNL A   1      40.417  25.780  27.899  1.00  0.00     0.029 A 
ATOM     43  C   UNL A   1      41.672  26.000  28.613  1.00  0.00     0.049 A 
ATOM     44  H   UNL A   1      42.132  27.559  29.916  1.00  0.00     0.167 HD
ATOM     45  C   UNL A   1      43.016  30.976  32.498  1.00  0.00     0.037 A 
ATOM     46  C   UNL A   1      42.759  25.209  28.543  1.00  0.00     0.037 A 
ATOM     47  C   UNL A   1      44.211  30.171  32.516  1.00  0.00     0.049 A 
ATOM     48  C   UNL A   1      43.993  25.585  29.315  1.00  0.00     0.074 A 
ATOM     49  C   UNL A   1      45.379  30.376  33.229  1.00  0.00     0.029 A 
ATOM     50  N   UNL A   1      44.390  29.007  31.785  1.00  0.00    -0.354 N 
ATOM     51  N   UNL A   1      44.192  26.605  30.112  1.00  0.00    -0.248 NA
ATOM     52  C   UNL A   1      45.157  24.700  29.171  1.00  0.00     0.031 C 
ATOM     53  C   UNL A   1      46.280  29.357  32.900  1.00  0.00     0.029 A 
ATOM     54  C   UNL A   1      45.657  28.491  32.017  1.00  0.00     0.049 A 
ATOM     55  H   UNL A   1      43.717  28.604  31.189  1.00  0.00     0.167 HD
ATOM     56  C   UNL A   1      45.492  26.476  30.581  1.00  0.00     0.074 A 
ATOM     57  C   UNL A   1      46.030  25.268  29.990  1.00  0.00     0.031 C 
ATOM     58  C   UNL A   1      46.177  27.285  31.425  1.00  0.00     0.037 A 
BRANCH  45  59
ATOM     59  C   UNL A   1      42.998  32.231  33.321  1.00  0.00     0.064 A 
ATOM     60  C   UNL A   1      42.576  32.229  34.658  1.00  0.00     0.173 A 
ATOM     61  C   UNL A   1      43.457  33.441  32.779  1.00  0.00     0.173 A 
ATOM     62  F   UNL A   1      42.117  31.102  35.220  1.00  0.00    -0.203 F 
ATOM     63  C   UNL A   1      42.594  33.399  35.416  1.00  0.00     0.198 A 
ATOM     64  C   UNL A   1      43.499  34.602  33.547  1.00  0.00     0.198 A 
ATOM     65  F   UNL A   1      43.879  33.495  31.506  1.00  0.00    -0.203 F 
ATOM     66  F   UNL A   1      42.150  33.382  36.681  1.00  0.00    -0.200 F 
ATOM     67  C   UNL A   1      43.061  34.581  34.862  1.00  0.00     0.200 A 
ATOM     68  F   UNL A   1      43.962  35.741  33.013  1.00  0.00    -0.200 F 
ATOM     69  F   UNL A   1      43.086  35.703  35.596  1.00  0.00    -0.200 F 
ENDBRANCH  45  59
BRANCH  46  70
ATOM     70  C   UNL A   1      42.730  23.989  27.697  1.00  0.00     0.064 A 
ATOM     71  C   UNL A   1      43.034  24.053  26.332  1.00  0.00     0.173 A 
ATOM     72  C   UNL A   1      42.402  22.736  28.238  1.00  0.00     0.173 A 
ATOM     73  F   UNL A   1      43.329  25.233  25.765  1.00  0.00    -0.203 F 
ATOM     74  C   UNL A   1      42.999  22.912  25.533  1.00  0.00     0.198 A 
ATOM     75  C   UNL A   1      42.394  21.592  27.444  1.00  0.00     0.198 A 
ATOM     76  F   UNL A   1      42.102  22.623  29.540  1.00  0.00    -0.203 F 
ATOM     77  F   UNL A   1      43.255  23.006  24.222  1.00  0.00    -0.200 F 
ATOM     78  C   UNL A   1      42.687  21.681  26.092  1.00  0.00     0.200 A 
ATOM     79  F   UNL A   1      42.105  20.403  27.990  1.00  0.00    -0.200 F 
ATOM     80  F   UNL A   1      42.660  20.583  25.325  1.00  0.00    -0.200 F 
ENDBRANCH  46  70
BRANCH  58  81
ATOM     81  C   UNL A   1      47.573  26.873  31.786  1.00  0.00     0.064 A 
ATOM     82  C   UNL A   1      47.827  25.962  32.822  1.00  0.00     0.173 A 
ATOM     83  C   UNL A   1      48.669  27.374  31.067  1.00  0.00     0.173 A 
ATOM     84  F   UNL A   1      46.813  25.468  33.549  1.00  0.00    -0.203 F 
ATOM     85  C   UNL A   1      49.129  25.585  33.140  1.00  0.00     0.198 A 
ATOM     86  C   UNL A   1      49.968  26.974  31.370  1.00  0.00     0.198 A 
ATOM     87  F   UNL A   1      48.479  28.244  30.064  1.00  0.00    -0.203 F 
ATOM     88  F   UNL A   1      49.352  24.749  34.163  1.00  0.00    -0.200 F 
ATOM     89  C   UNL A   1      50.197  26.087  32.410  1.00  0.00     0.200 A 
ATOM     90  F   UNL A   1      50.998  27.452  30.657  1.00  0.00    -0.200 F 
ATOM     91  F   UNL A   1      51.450  25.720  32.715  1.00  0.00    -0.200 F 
ENDBRANCH  58  81
ENDBRANCH  32  33
ENDBRANCH  25  27
ENDBRANCH  24  25
ENDBRANCH  23  24
ENDBRANCH   1  23
TORSDOF 16
ENDMDL
MODEL 3
REMARK VINA RESULT:     -10.2      3.917     11.186
REMARK SMILES [NH3+][C@H](CCC(=O)OCCOC(=O)c1ccc(-c2c3nc(c(-c4c(F)c(F)c(F)c(F)c4F)c4ccc([nH]4)c(-c4c(F)c(F)c(F)c(F)c4F)c4nc(c(-c5c(F)c(F)c(F)c(F)c5F)c5ccc2[nH]5)C=C4)C=C3)cc1)Cc1c[nH]c2ccccc12
REMARK SMILES IDX 8 1 7 2 5 3 6 4 4 5 3 6 2 7 1 8 76 12 77 13 78 14 85 15
REMARK SMILES IDX 79 16 80 17 84 18 81 20 83 21 82 22 9 23 10 24 11 25 12 26
REMARK SMILES IDX 13 27 14 28 75 29 15 30 74 31 16 32 17 33 18 34 68 35 19 36
REMARK SMILES IDX 73 37 67 38 69 39 20 40 72 41 66 42 65 43 21 45 53 46 33 47
REMARK SMILES IDX 52 48 34 49 37 50 51 51 70 52 35 53 36 54 50 56 71 57 38 58
REMARK SMILES IDX 22 59 23 60 31 61 24 62 25 63 29 64 32 65 26 66 27 67 30 68
REMARK SMILES IDX 28 69 54 70 55 71 63 72 56 73 57 74 61 75 64 76 58 77 59 78
REMARK SMILES IDX 62 79 60 80 39 81 40 82 48 83 41 84 42 85 46 86 49 87 43 88
REMARK SMILES IDX 44 89 47 90 45 91
REMARK H PARENT 1 9 1 10 1 11 79 19 69 44 37 55
REMARK Flexibility Score: inf
ROOT
ATOM      1  C   UNL A   1      33.642  34.181  28.016  1.00  0.00     0.274 C 
ENDROOT
BRANCH   1   2
ATOM      2  O   UNL A   1      34.048  35.135  29.020  1.00  0.00    -0.462 OA
BRANCH   2   3
ATOM      3  C   UNL A   1      33.062  35.932  29.507  1.00  0.00     0.306 C 
ATOM      4  O   UNL A   1      32.210  36.487  28.823  1.00  0.00    -0.252 OA
BRANCH   3   5
ATOM      5  C   UNL A   1      33.184  36.166  30.994  1.00  0.00     0.129 C 
BRANCH   5   6
ATOM      6  C   UNL A   1      33.813  35.040  31.814  1.00  0.00     0.077 C 
BRANCH   6   7
ATOM      7  C   UNL A   1      34.764  35.446  32.973  1.00  0.00     0.185 C 
BRANCH   7   8
ATOM      8  N   UNL A   1      34.084  36.282  33.967  1.00  0.00    -0.355 N 
ATOM      9  H   UNL A   1      34.737  36.974  34.334  1.00  0.00     0.344 HD
ATOM     10  H   UNL A   1      33.746  35.696  34.730  1.00  0.00     0.344 HD
ATOM     11  H   UNL A   1      33.295  36.758  33.529  1.00  0.00     0.344 HD
ENDBRANCH   7   8
BRANCH   7  12
ATOM     12  C   UNL A   1      35.400  34.187  33.674  1.00  0.00     0.102 C 
BRANCH  12  13
ATOM     13  C   UNL A   1      36.805  33.997  33.187  1.00  0.00    -0.017 A 
ATOM     14  C   UNL A   1      37.926  34.342  33.912  1.00  0.00     0.087 A 
ATOM     15  C   UNL A   1      37.250  33.722  31.857  1.00  0.00     0.003 A 
ATOM     16  N   UNL A   1      38.872  34.727  32.999  1.00  0.00    -0.361 N 
ATOM     17  C   UNL A   1      38.456  34.411  31.729  1.00  0.00     0.046 A 
ATOM     18  C   UNL A   1      36.693  33.123  30.712  1.00  0.00     0.010 A 
ATOM     19  H   UNL A   1      39.724  35.166  33.221  1.00  0.00     0.166 HD
ATOM     20  C   UNL A   1      39.022  34.712  30.486  1.00  0.00     0.026 A 
ATOM     21  C   UNL A   1      37.323  33.303  29.474  1.00  0.00     0.001 A 
ATOM     22  C   UNL A   1      38.431  34.141  29.357  1.00  0.00     0.002 A 
ENDBRANCH  12  13
ENDBRANCH   7  12
ENDBRANCH   6   7
ENDBRANCH   5   6
ENDBRANCH   3   5
ENDBRANCH   2   3
ENDBRANCH   1   2
BRANCH   1  23
ATOM     23  C   UNL A   1      33.776  32.734  28.488  1.00  0.00     0.275 C 
BRANCH  23  24
ATOM     24  O   UNL A   1      34.695  32.007  27.651  1.00  0.00    -0.458 OA
BRANCH  24  25
ATOM     25  C   UNL A   1      34.613  30.665  27.753  1.00  0.00     0.338 C 
ATOM     26  O   UNL A   1      33.641  29.961  27.561  1.00  0.00    -0.246 OA
BRANCH  25  27
ATOM     27  C   UNL A   1      35.904  30.094  28.149  1.00  0.00     0.060 A 
ATOM     28  C   UNL A   1      36.091  29.673  29.467  1.00  0.00     0.016 A 
ATOM     29  C   UNL A   1      36.972  30.139  27.253  1.00  0.00     0.016 A 
ATOM     30  C   UNL A   1      37.362  29.295  29.897  1.00  0.00     0.010 A 
ATOM     31  C   UNL A   1      38.241  29.739  27.681  1.00  0.00     0.010 A 
ATOM     32  C   UNL A   1      38.447  29.326  29.008  1.00  0.00    -0.014 A 
BRANCH  32  33
ATOM     33  C   UNL A   1      39.802  28.928  29.463  1.00  0.00     0.031 A 
ATOM     34  C   UNL A   1      40.579  29.806  30.400  1.00  0.00     0.074 A 
ATOM     35  C   UNL A   1      40.337  27.776  29.018  1.00  0.00     0.049 A 
ATOM     36  N   UNL A   1      41.812  29.679  30.826  1.00  0.00    -0.248 NA
ATOM     37  C   UNL A   1      39.881  30.987  30.929  1.00  0.00     0.031 C 
ATOM     38  C   UNL A   1      39.668  26.825  28.130  1.00  0.00     0.029 A 
ATOM     39  N   UNL A   1      41.567  27.213  29.247  1.00  0.00    -0.354 N 
ATOM     40  C   UNL A   1      42.041  30.767  31.657  1.00  0.00     0.074 A 
ATOM     41  C   UNL A   1      40.827  31.555  31.665  1.00  0.00     0.031 C 
ATOM     42  C   UNL A   1      40.491  25.792  27.896  1.00  0.00     0.029 A 
ATOM     43  C   UNL A   1      41.763  26.035  28.571  1.00  0.00     0.049 A 
ATOM     44  H   UNL A   1      42.243  27.616  29.839  1.00  0.00     0.167 HD
ATOM     45  C   UNL A   1      43.165  31.077  32.349  1.00  0.00     0.037 A 
ATOM     46  C   UNL A   1      42.856  25.253  28.483  1.00  0.00     0.037 A 
ATOM     47  C   UNL A   1      44.368  30.284  32.344  1.00  0.00     0.049 A 
ATOM     48  C   UNL A   1      44.106  25.651  29.215  1.00  0.00     0.074 A 
ATOM     49  C   UNL A   1      45.553  30.511  33.022  1.00  0.00     0.029 A 
ATOM     50  N   UNL A   1      44.538  29.112  31.624  1.00  0.00    -0.354 N 
ATOM     51  N   UNL A   1      44.318  26.685  29.991  1.00  0.00    -0.248 NA
ATOM     52  C   UNL A   1      45.275  24.775  29.050  1.00  0.00     0.031 C 
ATOM     53  C   UNL A   1      46.455  29.496  32.682  1.00  0.00     0.029 A 
ATOM     54  C   UNL A   1      45.816  28.611  31.828  1.00  0.00     0.049 A 
ATOM     55  H   UNL A   1      43.853  28.694  31.053  1.00  0.00     0.167 HD
ATOM     56  C   UNL A   1      45.631  26.575  30.426  1.00  0.00     0.074 A 
ATOM     57  C   UNL A   1      46.165  25.364  29.837  1.00  0.00     0.031 C 
ATOM     58  C   UNL A   1      46.331  27.402  31.239  1.00  0.00     0.037 A 
BRANCH  45  59
ATOM     59  C   UNL A   1      43.157  32.344  33.154  1.00  0.00     0.064 A 
ATOM     60  C   UNL A   1      43.552  33.570  32.602  1.00  0.00     0.173 A 
ATOM     61  C   UNL A   1      42.701  32.338  34.481  1.00  0.00     0.173 A 
ATOM     62  F   UNL A   1      44.007  33.628  31.342  1.00  0.00    -0.203 F 
ATOM     63  C   UNL A   1      43.510  34.741  33.356  1.00  0.00     0.198 A 
ATOM     64  C   UNL A   1      42.635  33.514  35.223  1.00  0.00     0.198 A 
ATOM     65  F   UNL A   1      42.304  31.191  35.055  1.00  0.00    -0.203 F 
ATOM     66  F   UNL A   1      43.929  35.897  32.819  1.00  0.00    -0.200 F 
ATOM     67  C   UNL A   1      43.046  34.714  34.662  1.00  0.00     0.200 A 
ATOM     68  F   UNL A   1      42.175  33.487  36.482  1.00  0.00    -0.200 F 
ATOM     69  F   UNL A   1      42.999  35.843  35.382  1.00  0.00    -0.200 F 
ENDBRANCH  45  59
BRANCH  46  70
ATOM     70  C   UNL A   1      42.815  24.021  27.655  1.00  0.00     0.064 A 
ATOM     71  C   UNL A   1      42.482  22.785  28.223  1.00  0.00     0.173 A 
ATOM     72  C   UNL A   1      43.102  24.056  26.282  1.00  0.00     0.173 A 
ATOM     73  F   UNL A   1      42.224  22.697  29.536  1.00  0.00    -0.203 F 
ATOM     74  C   UNL A   1      42.451  21.624  27.451  1.00  0.00     0.198 A 
ATOM     75  C   UNL A   1      43.043  22.901  25.506  1.00  0.00     0.198 A 
ATOM     76  F   UNL A   1      43.427  25.215  25.692  1.00  0.00    -0.203 F 
ATOM     77  F   UNL A   1      42.168  20.448  28.026  1.00  0.00    -0.200 F 
ATOM     78  C   UNL A   1      42.723  21.685  26.092  1.00  0.00     0.200 A 
ATOM     79  F   UNL A   1      43.295  22.964  24.192  1.00  0.00    -0.200 F 
ATOM     80  F   UNL A   1      42.686  20.571  25.349  1.00  0.00    -0.200 F 
ENDBRANCH  46  70
BRANCH  58  81
ATOM     81  C   UNL A   1      47.741  27.008  31.566  1.00  0.00     0.064 A 
ATOM     82  C   UNL A   1      48.832  27.508  30.840  1.00  0.00     0.173 A 
ATOM     83  C   UNL A   1      48.005  26.143  32.639  1.00  0.00     0.173 A 
ATOM     84  F   UNL A   1      48.629  28.325  29.795  1.00  0.00    -0.203 F 
ATOM     85  C   UNL A   1      50.135  27.137  31.160  1.00  0.00     0.198 A 
ATOM     86  C   UNL A   1      49.311  25.795  32.973  1.00  0.00     0.198 A 
ATOM     87  F   UNL A   1      46.997  25.642  33.367  1.00  0.00    -0.203 F 
ATOM     88  F   UNL A   1      51.159  27.589  30.424  1.00  0.00    -0.200 F 
ATOM     89  C   UNL A   1      50.373  26.286  32.230  1.00  0.00     0.200 A 
ATOM     90  F   UNL A   1      49.540  24.981  34.013  1.00  0.00    -0.200 F 
ATOM     91  F   UNL A   1      51.628  25.932  32.540  1.00  0.00    -0.200 F 
ENDBRANCH  58  81
ENDBRANCH  32  33
ENDBRANCH  25  27
ENDBRANCH  24  25
ENDBRANCH  23  24
ENDBRANCH   1  23
TORSDOF 16
ENDMDL
