MODEL 1
REMARK VINA RESULT:     -14.5      0.000      0.000
REMARK SMILES Cc1ccccc1C[N@@H+]1[C@@H](C(=O)OCCOC(=O)c2ccc(-c3c4nc(c(-c5c(F)c(F)c(F)c(F)c5F)c5ccc([nH]5)c(-c5c(F)c(F)c(F)c(F)c5F)c5nc(c(-c6c(F)c(F)c(F)c(F)c6F)c6ccc3[nH]6)C=C5)C=C4)cc2)C[C@H]2CCCC[C@@H]21
REMARK SMILES IDX 14 1 13 2 11 3 12 4 10 5 9 6 88 7 82 9 83 10 87 11 84 12
REMARK SMILES IDX 86 13 85 14 8 15 7 16 1 17 2 18 3 19 4 20 6 21 5 22 15 23
REMARK SMILES IDX 16 24 17 25 18 26 19 27 20 28 81 29 21 30 80 31 22 32 23 33
REMARK SMILES IDX 24 34 74 35 25 36 79 37 73 38 75 39 26 40 78 41 72 42 71 43
REMARK SMILES IDX 27 45 59 46 39 47 58 48 40 49 43 50 57 51 76 52 41 53 42 54
REMARK SMILES IDX 56 56 77 57 44 58 28 59 29 60 37 61 30 62 31 63 35 64 38 65
REMARK SMILES IDX 32 66 33 67 36 68 34 69 60 70 61 71 69 72 62 73 63 74 67 75
REMARK SMILES IDX 70 76 64 77 65 78 68 79 66 80 45 81 46 82 54 83 47 84 48 85
REMARK SMILES IDX 52 86 55 87 49 88 50 89 53 90 51 91
REMARK H PARENT 9 8 75 44 43 55
REMARK Flexibility Score: inf
ROOT
ATOM      1  C   UNL A   1      32.082  29.399  27.166  1.00  0.00     0.274 C 
ENDROOT
BRANCH   1   2
ATOM      2  O   UNL A   1      32.596  28.073  27.208  1.00  0.00    -0.458 OA
BRANCH   2   3
ATOM      3  C   UNL A   1      31.937  27.142  26.453  1.00  0.00     0.365 C 
ATOM      4  O   UNL A   1      31.198  26.299  26.919  1.00  0.00    -0.245 OA
BRANCH   3   5
ATOM      5  C   UNL A   1      32.236  27.394  24.946  1.00  0.00     0.296 C 
ATOM      6  N   UNL A   1      31.381  26.522  24.097  1.00  0.00    -0.317 N 
ATOM      7  C   UNL A   1      32.143  25.276  24.056  1.00  0.00     0.188 C 
ATOM      8  H   UNL A   1      30.449  26.345  24.472  1.00  0.00     0.349 HD
ATOM      9  C   UNL A   1      33.696  27.014  24.641  1.00  0.00     0.087 C 
ATOM     10  C   UNL A   1      33.588  25.727  23.848  1.00  0.00     0.054 C 
ATOM     11  C   UNL A   1      31.807  24.111  23.144  1.00  0.00     0.065 C 
ATOM     12  C   UNL A   1      34.544  24.619  24.251  1.00  0.00     0.010 C 
ATOM     13  C   UNL A   1      32.783  22.957  23.433  1.00  0.00     0.006 C 
ATOM     14  C   UNL A   1      34.258  23.389  23.388  1.00  0.00     0.001 C 
BRANCH   6  15
ATOM     15  C   UNL A   1      30.879  27.130  22.846  1.00  0.00     0.300 C 
BRANCH  15  16
ATOM     16  C   UNL A   1      29.764  28.168  22.914  1.00  0.00     0.009 A 
ATOM     17  C   UNL A   1      27.981  26.591  23.937  1.00  0.00     0.045 C 
ATOM     18  C   UNL A   1      28.432  27.872  23.282  1.00  0.00    -0.042 A 
ATOM     19  C   UNL A   1      27.426  28.836  23.061  1.00  0.00     0.004 A 
ATOM     20  C   UNL A   1      27.733  30.104  22.575  1.00  0.00     0.000 A 
ATOM     21  C   UNL A   1      30.062  29.499  22.556  1.00  0.00     0.010 A 
ATOM     22  C   UNL A   1      29.059  30.450  22.365  1.00  0.00     0.001 A 
ENDBRANCH  15  16
ENDBRANCH   6  15
ENDBRANCH   3   5
ENDBRANCH   2   3
ENDBRANCH   1   2
BRANCH   1  23
ATOM     23  C   UNL A   1      33.234  30.401  27.018  1.00  0.00     0.275 C 
BRANCH  23  24
ATOM     24  O   UNL A   1      34.588  30.021  27.432  1.00  0.00    -0.458 OA
BRANCH  24  25
ATOM     25  C   UNL A   1      35.605  30.734  27.977  1.00  0.00     0.338 C 
ATOM     26  O   UNL A   1      35.486  31.924  28.241  1.00  0.00    -0.246 OA
BRANCH  25  27
ATOM     27  C   UNL A   1      36.868  30.041  28.289  1.00  0.00     0.060 A 
ATOM     28  C   UNL A   1      36.987  29.302  29.481  1.00  0.00     0.016 A 
ATOM     29  C   UNL A   1      37.888  30.026  27.353  1.00  0.00     0.016 A 
ATOM     30  C   UNL A   1      38.053  28.409  29.651  1.00  0.00     0.010 A 
ATOM     31  C   UNL A   1      38.866  29.063  27.462  1.00  0.00     0.010 A 
ATOM     32  C   UNL A   1      38.963  28.252  28.608  1.00  0.00    -0.014 A 
BRANCH  32  33
ATOM     33  C   UNL A   1      40.218  27.510  28.693  1.00  0.00     0.031 A 
ATOM     34  C   UNL A   1      40.412  26.075  28.398  1.00  0.00     0.074 A 
ATOM     35  C   UNL A   1      41.272  28.324  28.925  1.00  0.00     0.049 A 
ATOM     36  N   UNL A   1      41.521  25.457  28.640  1.00  0.00    -0.248 NA
ATOM     37  C   UNL A   1      39.410  25.198  27.813  1.00  0.00     0.031 C 
ATOM     38  C   UNL A   1      42.698  28.086  28.811  1.00  0.00     0.029 A 
ATOM     39  N   UNL A   1      41.184  29.588  29.535  1.00  0.00    -0.354 N 
ATOM     40  C   UNL A   1      41.487  24.224  28.026  1.00  0.00     0.074 A 
ATOM     41  C   UNL A   1      40.127  24.092  27.561  1.00  0.00     0.031 C 
ATOM     42  C   UNL A   1      43.330  28.964  29.613  1.00  0.00     0.029 A 
ATOM     43  C   UNL A   1      42.301  29.659  30.378  1.00  0.00     0.049 A 
ATOM     44  H   UNL A   1      40.489  30.273  29.400  1.00  0.00     0.167 HD
ATOM     45  C   UNL A   1      42.659  23.528  27.911  1.00  0.00     0.037 A 
ATOM     46  C   UNL A   1      42.088  29.563  31.725  1.00  0.00     0.037 A 
ATOM     47  C   UNL A   1      43.721  24.174  28.686  1.00  0.00     0.049 A 
ATOM     48  C   UNL A   1      42.755  28.354  32.345  1.00  0.00     0.074 A 
ATOM     49  C   UNL A   1      44.781  25.013  28.383  1.00  0.00     0.029 A 
ATOM     50  N   UNL A   1      43.574  24.227  30.061  1.00  0.00    -0.354 N 
ATOM     51  N   UNL A   1      43.224  27.347  31.660  1.00  0.00    -0.248 NA
ATOM     52  C   UNL A   1      42.884  28.151  33.786  1.00  0.00     0.031 C 
ATOM     53  C   UNL A   1      45.248  25.592  29.599  1.00  0.00     0.029 A 
ATOM     54  C   UNL A   1      44.475  25.099  30.634  1.00  0.00     0.049 A 
ATOM     55  H   UNL A   1      42.910  23.705  30.567  1.00  0.00     0.167 HD
ATOM     56  C   UNL A   1      43.763  26.427  32.510  1.00  0.00     0.074 A 
ATOM     57  C   UNL A   1      43.479  26.947  33.834  1.00  0.00     0.031 C 
ATOM     58  C   UNL A   1      44.413  25.315  32.068  1.00  0.00     0.037 A 
BRANCH  45  59
ATOM     59  C   UNL A   1      42.927  22.367  26.972  1.00  0.00     0.064 A 
ATOM     60  C   UNL A   1      42.243  21.138  27.142  1.00  0.00     0.173 A 
ATOM     61  C   UNL A   1      43.858  22.372  25.919  1.00  0.00     0.173 A 
ATOM     62  F   UNL A   1      41.268  20.994  28.049  1.00  0.00    -0.203 F 
ATOM     63  C   UNL A   1      42.535  19.995  26.391  1.00  0.00     0.198 A 
ATOM     64  C   UNL A   1      44.177  21.217  25.190  1.00  0.00     0.198 A 
ATOM     65  F   UNL A   1      44.450  23.501  25.518  1.00  0.00    -0.203 F 
ATOM     66  F   UNL A   1      41.857  18.860  26.613  1.00  0.00    -0.200 F 
ATOM     67  C   UNL A   1      43.525  20.026  25.434  1.00  0.00     0.200 A 
ATOM     68  F   UNL A   1      45.123  21.270  24.240  1.00  0.00    -0.200 F 
ATOM     69  F   UNL A   1      43.832  18.923  24.737  1.00  0.00    -0.200 F 
ENDBRANCH  45  59
BRANCH  46  70
ATOM     70  C   UNL A   1      40.786  30.157  32.179  1.00  0.00     0.064 A 
ATOM     71  C   UNL A   1      39.696  29.299  32.456  1.00  0.00     0.173 A 
ATOM     72  C   UNL A   1      40.664  31.483  32.612  1.00  0.00     0.173 A 
ATOM     73  F   UNL A   1      39.739  28.011  32.074  1.00  0.00    -0.203 F 
ATOM     74  C   UNL A   1      38.603  29.716  33.215  1.00  0.00     0.198 A 
ATOM     75  C   UNL A   1      39.548  31.908  33.343  1.00  0.00     0.198 A 
ATOM     76  F   UNL A   1      41.651  32.365  32.400  1.00  0.00    -0.203 F 
ATOM     77  F   UNL A   1      37.648  28.837  33.554  1.00  0.00    -0.200 F 
ATOM     78  C   UNL A   1      38.535  31.020  33.668  1.00  0.00     0.200 A 
ATOM     79  F   UNL A   1      39.488  33.172  33.789  1.00  0.00    -0.200 F 
ATOM     80  F   UNL A   1      37.513  31.415  34.439  1.00  0.00    -0.200 F 
ENDBRANCH  46  70
BRANCH  58  81
ATOM     81  C   UNL A   1      45.071  24.331  32.981  1.00  0.00     0.064 A 
ATOM     82  C   UNL A   1      44.421  23.170  33.423  1.00  0.00     0.173 A 
ATOM     83  C   UNL A   1      46.340  24.592  33.537  1.00  0.00     0.173 A 
ATOM     84  F   UNL A   1      43.179  22.879  33.010  1.00  0.00    -0.203 F 
ATOM     85  C   UNL A   1      45.030  22.290  34.317  1.00  0.00     0.198 A 
ATOM     86  C   UNL A   1      46.922  23.741  34.472  1.00  0.00     0.198 A 
ATOM     87  F   UNL A   1      47.057  25.665  33.173  1.00  0.00    -0.203 F 
ATOM     88  F   UNL A   1      44.402  21.160  34.667  1.00  0.00    -0.200 F 
ATOM     89  C   UNL A   1      46.274  22.581  34.849  1.00  0.00     0.200 A 
ATOM     90  F   UNL A   1      48.115  24.050  35.000  1.00  0.00    -0.200 F 
ATOM     91  F   UNL A   1      46.849  21.743  35.722  1.00  0.00    -0.200 F 
ENDBRANCH  58  81
ENDBRANCH  32  33
ENDBRANCH  25  27
ENDBRANCH  24  25
ENDBRANCH  23  24
ENDBRANCH   1  23
TORSDOF 13
ENDMDL
MODEL 2
REMARK VINA RESULT:     -14.3      0.394      1.182
REMARK SMILES Cc1ccccc1C[N@@H+]1[C@@H](C(=O)OCCOC(=O)c2ccc(-c3c4nc(c(-c5c(F)c(F)c(F)c(F)c5F)c5ccc([nH]5)c(-c5c(F)c(F)c(F)c(F)c5F)c5nc(c(-c6c(F)c(F)c(F)c(F)c6F)c6ccc3[nH]6)C=C5)C=C4)cc2)C[C@H]2CCCC[C@@H]21
REMARK SMILES IDX 14 1 13 2 11 3 12 4 10 5 9 6 88 7 82 9 83 10 87 11 84 12
REMARK SMILES IDX 86 13 85 14 8 15 7 16 1 17 2 18 3 19 4 20 6 21 5 22 15 23
REMARK SMILES IDX 16 24 17 25 18 26 19 27 20 28 81 29 21 30 80 31 22 32 23 33
REMARK SMILES IDX 24 34 74 35 25 36 79 37 73 38 75 39 26 40 78 41 72 42 71 43
REMARK SMILES IDX 27 45 59 46 39 47 58 48 40 49 43 50 57 51 76 52 41 53 42 54
REMARK SMILES IDX 56 56 77 57 44 58 28 59 29 60 37 61 30 62 31 63 35 64 38 65
REMARK SMILES IDX 32 66 33 67 36 68 34 69 60 70 61 71 69 72 62 73 63 74 67 75
REMARK SMILES IDX 70 76 64 77 65 78 68 79 66 80 45 81 46 82 54 83 47 84 48 85
REMARK SMILES IDX 52 86 55 87 49 88 50 89 53 90 51 91
REMARK H PARENT 9 8 75 44 43 55
REMARK Flexibility Score: inf
ROOT
ATOM      1  C   UNL A   1      32.324  29.639  26.551  1.00  0.00     0.274 C 
ENDROOT
BRANCH   1   2
ATOM      2  O   UNL A   1      32.567  28.336  27.069  1.00  0.00    -0.458 OA
BRANCH   2   3
ATOM      3  C   UNL A   1      32.035  27.293  26.361  1.00  0.00     0.365 C 
ATOM      4  O   UNL A   1      31.410  26.385  26.869  1.00  0.00    -0.245 OA
BRANCH   3   5
ATOM      5  C   UNL A   1      32.304  27.510  24.843  1.00  0.00     0.296 C 
ATOM      6  N   UNL A   1      31.364  26.692  24.031  1.00  0.00    -0.317 N 
ATOM      7  C   UNL A   1      32.037  25.395  23.980  1.00  0.00     0.188 C 
ATOM      8  H   UNL A   1      30.434  26.582  24.436  1.00  0.00     0.349 HD
ATOM      9  C   UNL A   1      33.724  27.027  24.497  1.00  0.00     0.087 C 
ATOM     10  C   UNL A   1      33.502  25.744  23.722  1.00  0.00     0.054 C 
ATOM     11  C   UNL A   1      31.593  24.248  23.091  1.00  0.00     0.065 C 
ATOM     12  C   UNL A   1      34.392  24.576  24.108  1.00  0.00     0.010 C 
ATOM     13  C   UNL A   1      32.496  23.032  23.364  1.00  0.00     0.006 C 
ATOM     14  C   UNL A   1      33.995  23.361  23.268  1.00  0.00     0.001 C 
BRANCH   6  15
ATOM     15  C   UNL A   1      30.866  27.321  22.789  1.00  0.00     0.300 C 
BRANCH  15  16
ATOM     16  C   UNL A   1      29.728  28.333  22.869  1.00  0.00     0.009 A 
ATOM     17  C   UNL A   1      27.982  26.706  23.876  1.00  0.00     0.045 C 
ATOM     18  C   UNL A   1      28.403  28.003  23.234  1.00  0.00    -0.042 A 
ATOM     19  C   UNL A   1      27.375  28.946  23.023  1.00  0.00     0.004 A 
ATOM     20  C   UNL A   1      27.653  30.226  22.551  1.00  0.00     0.000 A 
ATOM     21  C   UNL A   1      29.995  29.674  22.524  1.00  0.00     0.010 A 
ATOM     22  C   UNL A   1      28.971  30.604  22.343  1.00  0.00     0.001 A 
ENDBRANCH  15  16
ENDBRANCH   6  15
ENDBRANCH   3   5
ENDBRANCH   2   3
ENDBRANCH   1   2
BRANCH   1  23
ATOM     23  C   UNL A   1      33.513  30.556  26.866  1.00  0.00     0.275 C 
BRANCH  23  24
ATOM     24  O   UNL A   1      34.625  30.053  27.678  1.00  0.00    -0.458 OA
BRANCH  24  25
ATOM     25  C   UNL A   1      35.565  30.688  28.421  1.00  0.00     0.338 C 
ATOM     26  O   UNL A   1      35.369  31.800  28.895  1.00  0.00    -0.246 OA
BRANCH  25  27
ATOM     27  C   UNL A   1      36.840  29.997  28.691  1.00  0.00     0.060 A 
ATOM     28  C   UNL A   1      36.980  29.207  29.847  1.00  0.00     0.016 A 
ATOM     29  C   UNL A   1      37.851  30.035  27.745  1.00  0.00     0.016 A 
ATOM     30  C   UNL A   1      38.057  28.320  29.967  1.00  0.00     0.010 A 
ATOM     31  C   UNL A   1      38.840  29.079  27.801  1.00  0.00     0.010 A 
ATOM     32  C   UNL A   1      38.958  28.220  28.909  1.00  0.00    -0.014 A 
BRANCH  32  33
ATOM     33  C   UNL A   1      40.222  27.490  28.949  1.00  0.00     0.031 A 
ATOM     34  C   UNL A   1      40.428  26.069  28.600  1.00  0.00     0.074 A 
ATOM     35  C   UNL A   1      41.271  28.307  29.195  1.00  0.00     0.049 A 
ATOM     36  N   UNL A   1      41.547  25.456  28.803  1.00  0.00    -0.248 NA
ATOM     37  C   UNL A   1      39.427  25.202  27.999  1.00  0.00     0.031 C 
ATOM     38  C   UNL A   1      42.698  28.090  29.050  1.00  0.00     0.029 A 
ATOM     39  N   UNL A   1      41.178  29.547  29.851  1.00  0.00    -0.354 N 
ATOM     40  C   UNL A   1      41.518  24.245  28.146  1.00  0.00     0.074 A 
ATOM     41  C   UNL A   1      40.152  24.114  27.697  1.00  0.00     0.031 C 
ATOM     42  C   UNL A   1      43.332  28.946  29.874  1.00  0.00     0.029 A 
ATOM     43  C   UNL A   1      42.307  29.602  30.679  1.00  0.00     0.049 A 
ATOM     44  H   UNL A   1      40.474  30.229  29.750  1.00  0.00     0.167 HD
ATOM     45  C   UNL A   1      42.695  23.567  27.989  1.00  0.00     0.037 A 
ATOM     46  C   UNL A   1      42.116  29.455  32.024  1.00  0.00     0.037 A 
ATOM     47  C   UNL A   1      43.761  24.197  28.771  1.00  0.00     0.049 A 
ATOM     48  C   UNL A   1      42.805  28.232  32.591  1.00  0.00     0.074 A 
ATOM     49  C   UNL A   1      44.807  25.058  28.482  1.00  0.00     0.029 A 
ATOM     50  N   UNL A   1      43.635  24.199  30.149  1.00  0.00    -0.354 N 
ATOM     51  N   UNL A   1      43.275  27.256  31.863  1.00  0.00    -0.248 NA
ATOM     52  C   UNL A   1      42.958  27.980  34.021  1.00  0.00     0.031 C 
ATOM     53  C   UNL A   1      45.286  25.599  29.711  1.00  0.00     0.029 A 
ATOM     54  C   UNL A   1      44.535  25.061  30.740  1.00  0.00     0.049 A 
ATOM     55  H   UNL A   1      42.985  23.652  30.646  1.00  0.00     0.167 HD
ATOM     56  C   UNL A   1      43.836  26.313  32.672  1.00  0.00     0.074 A 
ATOM     57  C   UNL A   1      43.567  26.781  34.018  1.00  0.00     0.031 C 
ATOM     58  C   UNL A   1      44.492  25.224  32.181  1.00  0.00     0.037 A 
BRANCH  45  59
ATOM     59  C   UNL A   1      42.961  22.443  27.005  1.00  0.00     0.064 A 
ATOM     60  C   UNL A   1      42.286  21.204  27.135  1.00  0.00     0.173 A 
ATOM     61  C   UNL A   1      43.883  22.493  25.945  1.00  0.00     0.173 A 
ATOM     62  F   UNL A   1      41.320  21.021  28.044  1.00  0.00    -0.203 F 
ATOM     63  C   UNL A   1      42.578  20.092  26.339  1.00  0.00     0.198 A 
ATOM     64  C   UNL A   1      44.202  21.368  25.171  1.00  0.00     0.198 A 
ATOM     65  F   UNL A   1      44.465  23.640  25.581  1.00  0.00    -0.203 F 
ATOM     66  F   UNL A   1      41.908  18.945  26.525  1.00  0.00    -0.200 F 
ATOM     67  C   UNL A   1      43.560  20.164  25.376  1.00  0.00     0.200 A 
ATOM     68  F   UNL A   1      45.140  21.462  24.216  1.00  0.00    -0.200 F 
ATOM     69  F   UNL A   1      43.867  19.090  24.635  1.00  0.00    -0.200 F 
ENDBRANCH  45  59
BRANCH  46  70
ATOM     70  C   UNL A   1      40.814  30.018  32.518  1.00  0.00     0.064 A 
ATOM     71  C   UNL A   1      40.578  31.408  32.407  1.00  0.00     0.173 A 
ATOM     72  C   UNL A   1      39.708  29.218  32.829  1.00  0.00     0.173 A 
ATOM     73  F   UNL A   1      41.589  32.242  32.109  1.00  0.00    -0.203 F 
ATOM     74  C   UNL A   1      39.294  31.948  32.492  1.00  0.00     0.198 A 
ATOM     75  C   UNL A   1      38.426  29.767  32.950  1.00  0.00     0.198 A 
ATOM     76  F   UNL A   1      39.836  27.889  32.946  1.00  0.00    -0.203 F 
ATOM     77  F   UNL A   1      39.101  33.255  32.263  1.00  0.00    -0.200 F 
ATOM     78  C   UNL A   1      38.216  31.124  32.753  1.00  0.00     0.200 A 
ATOM     79  F   UNL A   1      37.379  28.966  33.194  1.00  0.00    -0.200 F 
ATOM     80  F   UNL A   1      36.975  31.627  32.788  1.00  0.00    -0.200 F 
ENDBRANCH  46  70
BRANCH  58  81
ATOM     81  C   UNL A   1      45.175  24.216  33.048  1.00  0.00     0.064 A 
ATOM     82  C   UNL A   1      44.525  23.061  33.505  1.00  0.00     0.173 A 
ATOM     83  C   UNL A   1      46.474  24.446  33.546  1.00  0.00     0.173 A 
ATOM     84  F   UNL A   1      43.259  22.799  33.150  1.00  0.00    -0.203 F 
ATOM     85  C   UNL A   1      45.160  22.158  34.358  1.00  0.00     0.198 A 
ATOM     86  C   UNL A   1      47.084  23.572  34.441  1.00  0.00     0.198 A 
ATOM     87  F   UNL A   1      47.193  25.511  33.162  1.00  0.00    -0.203 F 
ATOM     88  F   UNL A   1      44.528  21.035  34.723  1.00  0.00    -0.200 F 
ATOM     89  C   UNL A   1      46.433  22.419  34.833  1.00  0.00     0.200 A 
ATOM     90  F   UNL A   1      48.306  23.852  34.914  1.00  0.00    -0.200 F 
ATOM     91  F   UNL A   1      47.034  21.559  35.666  1.00  0.00    -0.200 F 
ENDBRANCH  58  81
ENDBRANCH  32  33
ENDBRANCH  25  27
ENDBRANCH  24  25
ENDBRANCH  23  24
ENDBRANCH   1  23
TORSDOF 13
ENDMDL
MODEL 3
REMARK VINA RESULT:     -14.1      4.197     10.327
REMARK SMILES Cc1ccccc1C[N@@H+]1[C@@H](C(=O)OCCOC(=O)c2ccc(-c3c4nc(c(-c5c(F)c(F)c(F)c(F)c5F)c5ccc([nH]5)c(-c5c(F)c(F)c(F)c(F)c5F)c5nc(c(-c6c(F)c(F)c(F)c(F)c6F)c6ccc3[nH]6)C=C5)C=C4)cc2)C[C@H]2CCCC[C@@H]21
REMARK SMILES IDX 14 1 13 2 11 3 12 4 10 5 9 6 88 7 82 9 83 10 87 11 84 12
REMARK SMILES IDX 86 13 85 14 8 15 7 16 1 17 2 18 3 19 4 20 6 21 5 22 15 23
REMARK SMILES IDX 16 24 17 25 18 26 19 27 20 28 81 29 21 30 80 31 22 32 23 33
REMARK SMILES IDX 24 34 74 35 25 36 79 37 73 38 75 39 26 40 78 41 72 42 71 43
REMARK SMILES IDX 27 45 59 46 39 47 58 48 40 49 43 50 57 51 76 52 41 53 42 54
REMARK SMILES IDX 56 56 77 57 44 58 28 59 29 60 37 61 30 62 31 63 35 64 38 65
REMARK SMILES IDX 32 66 33 67 36 68 34 69 60 70 61 71 69 72 62 73 63 74 67 75
REMARK SMILES IDX 70 76 64 77 65 78 68 79 66 80 45 81 46 82 54 83 47 84 48 85
REMARK SMILES IDX 52 86 55 87 49 88 50 89 53 90 51 91
REMARK H PARENT 9 8 75 44 43 55
REMARK Flexibility Score: inf
ROOT
ATOM      1  C   UNL A   1      36.516  21.629  25.539  1.00  0.00     0.274 C 
ENDROOT
BRANCH   1   2
ATOM      2  O   UNL A   1      35.748  22.519  24.738  1.00  0.00    -0.458 OA
BRANCH   2   3
ATOM      3  C   UNL A   1      35.002  23.449  25.410  1.00  0.00     0.365 C 
ATOM      4  O   UNL A   1      35.296  24.625  25.477  1.00  0.00    -0.245 OA
BRANCH   3   5
ATOM      5  C   UNL A   1      33.727  22.768  25.986  1.00  0.00     0.296 C 
ATOM      6  N   UNL A   1      32.807  22.378  24.885  1.00  0.00    -0.317 N 
ATOM      7  C   UNL A   1      32.060  23.610  24.645  1.00  0.00     0.188 C 
ATOM      8  H   UNL A   1      33.273  22.084  24.025  1.00  0.00     0.349 HD
ATOM      9  C   UNL A   1      32.960  23.771  26.867  1.00  0.00     0.087 C 
ATOM     10  C   UNL A   1      31.739  24.131  26.045  1.00  0.00     0.054 C 
ATOM     11  C   UNL A   1      30.839  23.696  23.748  1.00  0.00     0.065 C 
ATOM     12  C   UNL A   1      31.394  25.608  25.986  1.00  0.00     0.010 C 
ATOM     13  C   UNL A   1      30.370  25.160  23.687  1.00  0.00     0.006 C 
ATOM     14  C   UNL A   1      30.177  25.789  25.077  1.00  0.00     0.001 C 
BRANCH   6  15
ATOM     15  C   UNL A   1      32.093  21.095  25.062  1.00  0.00     0.300 C 
BRANCH  15  16
ATOM     16  C   UNL A   1      32.580  19.859  24.316  1.00  0.00     0.009 A 
ATOM     17  C   UNL A   1      31.843  20.648  21.961  1.00  0.00     0.045 C 
ATOM     18  C   UNL A   1      32.338  19.618  22.944  1.00  0.00    -0.042 A 
ATOM     19  C   UNL A   1      32.596  18.337  22.413  1.00  0.00     0.004 A 
ATOM     20  C   UNL A   1      33.170  17.334  23.189  1.00  0.00     0.000 A 
ATOM     21  C   UNL A   1      33.284  18.872  25.037  1.00  0.00     0.010 A 
ATOM     22  C   UNL A   1      33.556  17.617  24.491  1.00  0.00     0.001 A 
ENDBRANCH  15  16
ENDBRANCH   6  15
ENDBRANCH   3   5
ENDBRANCH   2   3
ENDBRANCH   1   2
BRANCH   1  23
ATOM     23  C   UNL A   1      38.002  22.004  25.459  1.00  0.00     0.275 C 
BRANCH  23  24
ATOM     24  O   UNL A   1      38.488  23.203  26.149  1.00  0.00    -0.458 OA
BRANCH  24  25
ATOM     25  C   UNL A   1      39.717  23.552  26.605  1.00  0.00     0.338 C 
ATOM     26  O   UNL A   1      40.680  22.802  26.498  1.00  0.00    -0.246 OA
BRANCH  25  27
ATOM     27  C   UNL A   1      39.895  24.884  27.211  1.00  0.00     0.060 A 
ATOM     28  C   UNL A   1      40.397  25.946  26.437  1.00  0.00     0.016 A 
ATOM     29  C   UNL A   1      39.457  25.110  28.505  1.00  0.00     0.016 A 
ATOM     30  C   UNL A   1      40.295  27.264  26.899  1.00  0.00     0.010 A 
ATOM     31  C   UNL A   1      39.242  26.408  28.910  1.00  0.00     0.010 A 
ATOM     32  C   UNL A   1      39.662  27.495  28.119  1.00  0.00    -0.014 A 
BRANCH  32  33
ATOM     33  C   UNL A   1      39.636  28.774  28.824  1.00  0.00     0.031 A 
ATOM     34  C   UNL A   1      38.623  29.838  28.675  1.00  0.00     0.074 A 
ATOM     35  C   UNL A   1      40.580  28.837  29.789  1.00  0.00     0.049 A 
ATOM     36  N   UNL A   1      38.750  31.003  29.221  1.00  0.00    -0.248 NA
ATOM     37  C   UNL A   1      37.388  29.718  27.917  1.00  0.00     0.031 C 
ATOM     38  C   UNL A   1      40.745  29.761  30.896  1.00  0.00     0.029 A 
ATOM     39  N   UNL A   1      41.762  28.076  29.801  1.00  0.00    -0.354 N 
ATOM     40  C   UNL A   1      37.549  31.672  29.126  1.00  0.00     0.074 A 
ATOM     41  C   UNL A   1      36.744  30.844  28.260  1.00  0.00     0.031 C 
ATOM     42  C   UNL A   1      42.045  29.758  31.248  1.00  0.00     0.029 A 
ATOM     43  C   UNL A   1      42.753  28.955  30.256  1.00  0.00     0.049 A 
ATOM     44  H   UNL A   1      41.870  27.131  29.545  1.00  0.00     0.167 HD
ATOM     45  C   UNL A   1      37.376  32.797  29.886  1.00  0.00     0.037 A 
ATOM     46  C   UNL A   1      43.664  29.412  29.345  1.00  0.00     0.037 A 
ATOM     47  C   UNL A   1      38.637  33.192  30.517  1.00  0.00     0.049 A 
ATOM     48  C   UNL A   1      43.611  30.913  29.155  1.00  0.00     0.074 A 
ATOM     49  C   UNL A   1      39.189  33.042  31.778  1.00  0.00     0.029 A 
ATOM     50  N   UNL A   1      39.675  33.586  29.691  1.00  0.00    -0.354 N 
ATOM     51  N   UNL A   1      42.627  31.666  29.565  1.00  0.00    -0.248 NA
ATOM     52  C   UNL A   1      44.625  31.674  28.430  1.00  0.00     0.031 C 
ATOM     53  C   UNL A   1      40.583  33.323  31.687  1.00  0.00     0.029 A 
ATOM     54  C   UNL A   1      40.871  33.649  30.374  1.00  0.00     0.049 A 
ATOM     55  H   UNL A   1      39.572  33.796  28.735  1.00  0.00     0.167 HD
ATOM     56  C   UNL A   1      42.883  32.967  29.245  1.00  0.00     0.074 A 
ATOM     57  C   UNL A   1      44.119  32.918  28.487  1.00  0.00     0.031 C 
ATOM     58  C   UNL A   1      42.072  33.990  29.635  1.00  0.00     0.037 A 
BRANCH  45  59
ATOM     59  C   UNL A   1      36.053  33.458  30.223  1.00  0.00     0.064 A 
ATOM     60  C   UNL A   1      35.281  34.073  29.206  1.00  0.00     0.173 A 
ATOM     61  C   UNL A   1      35.502  33.563  31.512  1.00  0.00     0.173 A 
ATOM     62  F   UNL A   1      35.627  33.993  27.914  1.00  0.00    -0.203 F 
ATOM     63  C   UNL A   1      34.119  34.805  29.470  1.00  0.00     0.198 A 
ATOM     64  C   UNL A   1      34.357  34.327  31.782  1.00  0.00     0.198 A 
ATOM     65  F   UNL A   1      36.013  32.886  32.545  1.00  0.00    -0.203 F 
ATOM     66  F   UNL A   1      33.444  35.371  28.459  1.00  0.00    -0.200 F 
ATOM     67  C   UNL A   1      33.673  34.959  30.764  1.00  0.00     0.200 A 
ATOM     68  F   UNL A   1      33.918  34.443  33.044  1.00  0.00    -0.200 F 
ATOM     69  F   UNL A   1      32.580  35.689  31.024  1.00  0.00    -0.200 F 
ENDBRANCH  45  59
BRANCH  46  70
ATOM     70  C   UNL A   1      44.001  28.419  28.271  1.00  0.00     0.064 A 
ATOM     71  C   UNL A   1      44.619  27.198  28.630  1.00  0.00     0.173 A 
ATOM     72  C   UNL A   1      43.492  28.503  26.969  1.00  0.00     0.173 A 
ATOM     73  F   UNL A   1      45.130  27.039  29.863  1.00  0.00    -0.203 F 
ATOM     74  C   UNL A   1      44.628  26.095  27.776  1.00  0.00     0.198 A 
ATOM     75  C   UNL A   1      43.534  27.406  26.101  1.00  0.00     0.198 A 
ATOM     76  F   UNL A   1      42.882  29.618  26.544  1.00  0.00    -0.203 F 
ATOM     77  F   UNL A   1      45.120  24.922  28.202  1.00  0.00    -0.200 F 
ATOM     78  C   UNL A   1      44.075  26.197  26.514  1.00  0.00     0.200 A 
ATOM     79  F   UNL A   1      42.989  27.502  24.879  1.00  0.00    -0.200 F 
ATOM     80  F   UNL A   1      44.035  25.129  25.706  1.00  0.00    -0.200 F 
ENDBRANCH  46  70
BRANCH  58  81
ATOM     81  C   UNL A   1      42.371  35.428  29.356  1.00  0.00     0.064 A 
ATOM     82  C   UNL A   1      41.860  36.093  28.232  1.00  0.00     0.173 A 
ATOM     83  C   UNL A   1      43.286  36.148  30.151  1.00  0.00     0.173 A 
ATOM     84  F   UNL A   1      41.045  35.463  27.373  1.00  0.00    -0.203 F 
ATOM     85  C   UNL A   1      42.193  37.419  27.958  1.00  0.00     0.198 A 
ATOM     86  C   UNL A   1      43.660  37.453  29.844  1.00  0.00     0.198 A 
ATOM     87  F   UNL A   1      43.824  35.614  31.258  1.00  0.00    -0.203 F 
ATOM     88  F   UNL A   1      41.635  38.040  26.910  1.00  0.00    -0.200 F 
ATOM     89  C   UNL A   1      43.100  38.094  28.756  1.00  0.00     0.200 A 
ATOM     90  F   UNL A   1      44.560  38.084  30.610  1.00  0.00    -0.200 F 
ATOM     91  F   UNL A   1      43.432  39.362  28.480  1.00  0.00    -0.200 F 
ENDBRANCH  58  81
ENDBRANCH  32  33
ENDBRANCH  25  27
ENDBRANCH  24  25
ENDBRANCH  23  24
ENDBRANCH   1  23
TORSDOF 13
ENDMDL
