MODEL 1
REMARK VINA RESULT:     -11.0      0.000      0.000
REMARK SMILES COc1cc(Br)c(OC)c(C(=O)NCCC(=O)OCCOC(=O)c2ccc(-c3c4nc(c(-c5c(F)c(F)c(F)c(F)c5F)c5ccc([nH]5)c(-c5c(F)c(F)c(F)c(F)c5F)c5nc(c(-c6c(F)c(F)c(F)c(F)c6F)c6ccc3[nH]6)C=C5)C=C4)cc2)c1
REMARK SMILES IDX 19 1 18 2 16 3 17 4 15 5 14 6 13 7 11 8 12 9 10 11 3 12 4 13
REMARK SMILES IDX 87 14 5 15 6 16 7 17 2 18 1 19 8 20 9 21 20 22 21 23 22 24
REMARK SMILES IDX 23 25 24 26 25 27 86 28 26 29 85 30 27 31 28 32 29 33 79 34
REMARK SMILES IDX 30 35 84 36 78 37 80 38 31 39 83 40 77 41 76 42 32 44 64 45
REMARK SMILES IDX 44 46 63 47 45 48 48 49 62 50 81 51 46 52 47 53 61 55 82 56
REMARK SMILES IDX 49 57 33 58 34 59 42 60 35 61 36 62 40 63 43 64 37 65 38 66
REMARK SMILES IDX 41 67 39 68 65 69 66 70 74 71 67 72 68 73 72 74 75 75 69 76
REMARK SMILES IDX 70 77 73 78 71 79 50 80 51 81 59 82 52 83 53 84 57 85 60 86
REMARK SMILES IDX 54 87 55 88 58 89 56 90
REMARK H PARENT 13 10 80 43 48 54
REMARK Flexibility Score: inf
ROOT
ATOM      1  C   UNL A   1      31.083  29.882  24.691  1.00  0.00     0.274 C 
ENDROOT
BRANCH   1   2
ATOM      2  O   UNL A   1      31.484  28.960  23.658  1.00  0.00    -0.462 OA
BRANCH   2   3
ATOM      3  C   UNL A   1      30.476  28.370  22.965  1.00  0.00     0.307 C 
ATOM      4  O   UNL A   1      30.063  28.734  21.871  1.00  0.00    -0.252 OA
BRANCH   3   5
ATOM      5  C   UNL A   1      29.870  27.219  23.721  1.00  0.00     0.144 C 
BRANCH   5   6
ATOM      6  C   UNL A   1      30.497  25.879  23.372  1.00  0.00     0.128 C 
BRANCH   6   7
ATOM      7  N   UNL A   1      31.467  25.963  22.289  1.00  0.00    -0.351 N 
ATOM      8  C   UNL A   1      32.605  25.239  22.010  1.00  0.00     0.255 C 
ATOM      9  O   UNL A   1      33.265  25.537  21.017  1.00  0.00    -0.269 OA
ATOM     10  H   UNL A   1      31.272  26.669  21.632  1.00  0.00     0.163 HD
BRANCH   8  11
ATOM     11  C   UNL A   1      33.032  24.096  22.858  1.00  0.00     0.086 A 
ATOM     12  C   UNL A   1      32.867  21.748  23.429  1.00  0.00     0.121 A 
ATOM     13  C   UNL A   1      33.818  21.912  24.433  1.00  0.00     0.066 A 
ATOM     14  C   UNL A   1      32.538  22.812  22.594  1.00  0.00     0.064 A 
ATOM     15  C   UNL A   1      34.374  23.172  24.661  1.00  0.00     0.064 A 
ATOM     16  Br  UNL A   1      35.612  23.318  26.095  1.00  0.00    -0.047 Br
ATOM     17  C   UNL A   1      33.982  24.274  23.882  1.00  0.00     0.146 A 
BRANCH  12  18
ATOM     18  O   UNL A   1      32.216  20.565  23.207  1.00  0.00    -0.497 OA
ATOM     19  C   UNL A   1      32.716  19.504  24.026  1.00  0.00     0.278 C 
ENDBRANCH  12  18
BRANCH  17  20
ATOM     20  O   UNL A   1      34.424  25.536  24.190  1.00  0.00    -0.495 OA
ATOM     21  C   UNL A   1      33.665  26.129  25.247  1.00  0.00     0.278 C 
ENDBRANCH  17  20
ENDBRANCH   8  11
ENDBRANCH   6   7
ENDBRANCH   5   6
ENDBRANCH   3   5
ENDBRANCH   2   3
ENDBRANCH   1   2
BRANCH   1  22
ATOM     22  C   UNL A   1      31.820  29.623  26.008  1.00  0.00     0.275 C 
BRANCH  22  23
ATOM     23  O   UNL A   1      33.139  30.196  26.000  1.00  0.00    -0.458 OA
BRANCH  23  24
ATOM     24  C   UNL A   1      33.360  31.162  26.917  1.00  0.00     0.338 C 
ATOM     25  O   UNL A   1      32.613  32.081  27.230  1.00  0.00    -0.246 OA
BRANCH  24  26
ATOM     26  C   UNL A   1      34.629  30.903  27.607  1.00  0.00     0.060 A 
ATOM     27  C   UNL A   1      34.847  29.628  28.138  1.00  0.00     0.016 A 
ATOM     28  C   UNL A   1      35.562  31.923  27.795  1.00  0.00     0.016 A 
ATOM     29  C   UNL A   1      36.008  29.368  28.864  1.00  0.00     0.010 A 
ATOM     30  C   UNL A   1      36.733  31.656  28.511  1.00  0.00     0.010 A 
ATOM     31  C   UNL A   1      36.961  30.379  29.055  1.00  0.00    -0.014 A 
BRANCH  31  32
ATOM     32  C   UNL A   1      38.205  30.100  29.812  1.00  0.00     0.031 A 
ATOM     33  C   UNL A   1      39.241  29.170  29.256  1.00  0.00     0.074 A 
ATOM     34  C   UNL A   1      38.387  30.668  31.018  1.00  0.00     0.049 A 
ATOM     35  N   UNL A   1      40.336  28.720  29.816  1.00  0.00    -0.248 NA
ATOM     36  C   UNL A   1      39.013  28.675  27.892  1.00  0.00     0.031 C 
ATOM     37  C   UNL A   1      37.462  31.604  31.656  1.00  0.00     0.029 A 
ATOM     38  N   UNL A   1      39.405  30.527  31.929  1.00  0.00    -0.354 N 
ATOM     39  C   UNL A   1      40.917  27.874  28.883  1.00  0.00     0.074 A 
ATOM     40  C   UNL A   1      40.047  27.861  27.725  1.00  0.00     0.031 C 
ATOM     41  C   UNL A   1      37.947  31.943  32.861  1.00  0.00     0.029 A 
ATOM     42  C   UNL A   1      39.191  31.215  33.096  1.00  0.00     0.049 A 
ATOM     43  H   UNL A   1      40.209  29.984  31.760  1.00  0.00     0.167 HD
ATOM     44  C   UNL A   1      42.072  27.173  28.986  1.00  0.00     0.037 A 
ATOM     45  C   UNL A   1      39.896  31.228  34.243  1.00  0.00     0.037 A 
ATOM     46  C   UNL A   1      42.943  27.200  30.133  1.00  0.00     0.049 A 
ATOM     47  C   UNL A   1      41.145  30.401  34.354  1.00  0.00     0.074 A 
ATOM     48  C   UNL A   1      44.166  26.574  30.304  1.00  0.00     0.029 A 
ATOM     49  N   UNL A   1      42.676  27.883  31.311  1.00  0.00    -0.354 N 
ATOM     50  N   UNL A   1      41.702  29.622  33.457  1.00  0.00    -0.248 NA
ATOM     51  C   UNL A   1      41.857  30.445  35.638  1.00  0.00     0.031 C 
ATOM     52  C   UNL A   1      44.617  26.840  31.603  1.00  0.00     0.029 A 
ATOM     53  C   UNL A   1      43.694  27.664  32.227  1.00  0.00     0.049 A 
ATOM     54  H   UNL A   1      41.881  28.440  31.473  1.00  0.00     0.167 HD
ATOM     55  C   UNL A   1      42.828  29.086  34.065  1.00  0.00     0.074 A 
ATOM     56  C   UNL A   1      42.889  29.645  35.401  1.00  0.00     0.031 C 
ATOM     57  C   UNL A   1      43.729  28.208  33.561  1.00  0.00     0.037 A 
BRANCH  44  58
ATOM     58  C   UNL A   1      42.448  26.288  27.834  1.00  0.00     0.064 A 
ATOM     59  C   UNL A   1      41.917  24.998  27.689  1.00  0.00     0.173 A 
ATOM     60  C   UNL A   1      43.332  26.750  26.847  1.00  0.00     0.173 A 
ATOM     61  F   UNL A   1      41.076  24.508  28.612  1.00  0.00    -0.203 F 
ATOM     62  C   UNL A   1      42.280  24.193  26.612  1.00  0.00     0.198 A 
ATOM     63  C   UNL A   1      43.674  25.952  25.760  1.00  0.00     0.198 A 
ATOM     64  F   UNL A   1      43.863  27.979  26.938  1.00  0.00    -0.203 F 
ATOM     65  F   UNL A   1      41.793  22.948  26.516  1.00  0.00    -0.200 F 
ATOM     66  C   UNL A   1      43.153  24.671  25.646  1.00  0.00     0.200 A 
ATOM     67  F   UNL A   1      44.510  26.418  24.823  1.00  0.00    -0.200 F 
ATOM     68  F   UNL A   1      43.500  23.895  24.611  1.00  0.00    -0.200 F 
ENDBRANCH  44  58
BRANCH  45  69
ATOM     69  C   UNL A   1      39.407  32.036  35.387  1.00  0.00     0.064 A 
ATOM     70  C   UNL A   1      39.751  33.387  35.515  1.00  0.00     0.173 A 
ATOM     71  C   UNL A   1      38.560  31.478  36.357  1.00  0.00     0.173 A 
ATOM     72  F   UNL A   1      40.577  33.955  34.625  1.00  0.00    -0.203 F 
ATOM     73  C   UNL A   1      39.263  34.152  36.573  1.00  0.00     0.198 A 
ATOM     74  C   UNL A   1      38.056  32.250  37.399  1.00  0.00     0.198 A 
ATOM     75  F   UNL A   1      38.207  30.187  36.276  1.00  0.00    -0.203 F 
ATOM     76  F   UNL A   1      39.624  35.438  36.688  1.00  0.00    -0.200 F 
ATOM     77  C   UNL A   1      38.409  33.587  37.508  1.00  0.00     0.200 A 
ATOM     78  F   UNL A   1      37.222  31.701  38.294  1.00  0.00    -0.200 F 
ATOM     79  F   UNL A   1      37.930  34.328  38.516  1.00  0.00    -0.200 F 
ENDBRANCH  45  69
BRANCH  57  80
ATOM     80  C   UNL A   1      44.853  27.791  34.461  1.00  0.00     0.064 A 
ATOM     81  C   UNL A   1      46.042  28.534  34.535  1.00  0.00     0.173 A 
ATOM     82  C   UNL A   1      44.733  26.661  35.282  1.00  0.00     0.173 A 
ATOM     83  F   UNL A   1      46.211  29.614  33.756  1.00  0.00    -0.203 F 
ATOM     84  C   UNL A   1      47.076  28.149  35.383  1.00  0.00     0.198 A 
ATOM     85  C   UNL A   1      45.760  26.291  36.147  1.00  0.00     0.198 A 
ATOM     86  F   UNL A   1      43.616  25.919  35.250  1.00  0.00    -0.203 F 
ATOM     87  F   UNL A   1      48.217  28.850  35.407  1.00  0.00    -0.200 F 
ATOM     88  C   UNL A   1      46.931  27.032  36.193  1.00  0.00     0.200 A 
ATOM     89  F   UNL A   1      45.616  25.216  36.935  1.00  0.00    -0.200 F 
ATOM     90  F   UNL A   1      47.927  26.664  37.012  1.00  0.00    -0.200 F 
ENDBRANCH  57  80
ENDBRANCH  31  32
ENDBRANCH  24  26
ENDBRANCH  23  24
ENDBRANCH  22  23
ENDBRANCH   1  22
TORSDOF 16
ENDMDL
MODEL 2
REMARK VINA RESULT:     -10.9      0.671      1.782
REMARK SMILES COc1cc(Br)c(OC)c(C(=O)NCCC(=O)OCCOC(=O)c2ccc(-c3c4nc(c(-c5c(F)c(F)c(F)c(F)c5F)c5ccc([nH]5)c(-c5c(F)c(F)c(F)c(F)c5F)c5nc(c(-c6c(F)c(F)c(F)c(F)c6F)c6ccc3[nH]6)C=C5)C=C4)cc2)c1
REMARK SMILES IDX 19 1 18 2 16 3 17 4 15 5 14 6 13 7 11 8 12 9 10 11 3 12 4 13
REMARK SMILES IDX 87 14 5 15 6 16 7 17 2 18 1 19 8 20 9 21 20 22 21 23 22 24
REMARK SMILES IDX 23 25 24 26 25 27 86 28 26 29 85 30 27 31 28 32 29 33 79 34
REMARK SMILES IDX 30 35 84 36 78 37 80 38 31 39 83 40 77 41 76 42 32 44 64 45
REMARK SMILES IDX 44 46 63 47 45 48 48 49 62 50 81 51 46 52 47 53 61 55 82 56
REMARK SMILES IDX 49 57 33 58 34 59 42 60 35 61 36 62 40 63 43 64 37 65 38 66
REMARK SMILES IDX 41 67 39 68 65 69 66 70 74 71 67 72 68 73 72 74 75 75 69 76
REMARK SMILES IDX 70 77 73 78 71 79 50 80 51 81 59 82 52 83 53 84 57 85 60 86
REMARK SMILES IDX 54 87 55 88 58 89 56 90
REMARK H PARENT 13 10 80 43 48 54
REMARK Flexibility Score: inf
ROOT
ATOM      1  C   UNL A   1      31.370  29.326  24.633  1.00  0.00     0.274 C 
ENDROOT
BRANCH   1   2
ATOM      2  O   UNL A   1      31.649  27.916  24.532  1.00  0.00    -0.462 OA
BRANCH   2   3
ATOM      3  C   UNL A   1      30.886  27.222  23.648  1.00  0.00     0.307 C 
ATOM      4  O   UNL A   1      30.662  27.555  22.492  1.00  0.00    -0.252 OA
BRANCH   3   5
ATOM      5  C   UNL A   1      30.288  25.988  24.269  1.00  0.00     0.144 C 
BRANCH   5   6
ATOM      6  C   UNL A   1      30.324  24.778  23.348  1.00  0.00     0.128 C 
BRANCH   6   7
ATOM      7  N   UNL A   1      31.512  24.732  22.506  1.00  0.00    -0.351 N 
ATOM      8  C   UNL A   1      32.619  23.915  22.516  1.00  0.00     0.255 C 
ATOM      9  O   UNL A   1      33.503  24.109  21.684  1.00  0.00    -0.269 OA
ATOM     10  H   UNL A   1      31.524  25.413  21.795  1.00  0.00     0.163 HD
BRANCH   8  11
ATOM     11  C   UNL A   1      32.756  22.793  23.482  1.00  0.00     0.086 A 
ATOM     12  C   UNL A   1      32.603  20.424  23.960  1.00  0.00     0.121 A 
ATOM     13  C   UNL A   1      33.006  20.649  25.273  1.00  0.00     0.066 A 
ATOM     14  C   UNL A   1      32.557  21.476  23.049  1.00  0.00     0.064 A 
ATOM     15  C   UNL A   1      33.278  21.951  25.700  1.00  0.00     0.064 A 
ATOM     16  Br  UNL A   1      33.757  22.173  27.526  1.00  0.00    -0.047 Br
ATOM     17  C   UNL A   1      33.148  23.032  24.813  1.00  0.00     0.146 A 
BRANCH  12  18
ATOM     18  O   UNL A   1      32.235  19.190  23.496  1.00  0.00    -0.497 OA
ATOM     19  C   UNL A   1      33.052  18.142  24.025  1.00  0.00     0.278 C 
ENDBRANCH  12  18
BRANCH  17  20
ATOM     20  O   UNL A   1      33.283  24.321  25.263  1.00  0.00    -0.495 OA
ATOM     21  C   UNL A   1      34.629  24.791  25.157  1.00  0.00     0.278 C 
ENDBRANCH  17  20
ENDBRANCH   8  11
ENDBRANCH   6   7
ENDBRANCH   5   6
ENDBRANCH   3   5
ENDBRANCH   2   3
ENDBRANCH   1   2
BRANCH   1  22
ATOM     22  C   UNL A   1      31.736  29.886  26.010  1.00  0.00     0.275 C 
BRANCH  22  23
ATOM     23  O   UNL A   1      33.088  30.375  26.042  1.00  0.00    -0.458 OA
BRANCH  23  24
ATOM     24  C   UNL A   1      33.333  31.353  26.940  1.00  0.00     0.338 C 
ATOM     25  O   UNL A   1      32.607  32.296  27.234  1.00  0.00    -0.246 OA
BRANCH  24  26
ATOM     26  C   UNL A   1      34.595  31.078  27.635  1.00  0.00     0.060 A 
ATOM     27  C   UNL A   1      34.839  29.774  28.076  1.00  0.00     0.016 A 
ATOM     28  C   UNL A   1      35.496  32.106  27.916  1.00  0.00     0.016 A 
ATOM     29  C   UNL A   1      35.993  29.492  28.805  1.00  0.00     0.010 A 
ATOM     30  C   UNL A   1      36.660  31.818  28.634  1.00  0.00     0.010 A 
ATOM     31  C   UNL A   1      36.913  30.512  29.089  1.00  0.00    -0.014 A 
BRANCH  31  32
ATOM     32  C   UNL A   1      38.151  30.211  29.849  1.00  0.00     0.031 A 
ATOM     33  C   UNL A   1      39.175  29.269  29.292  1.00  0.00     0.074 A 
ATOM     34  C   UNL A   1      38.336  30.770  31.059  1.00  0.00     0.049 A 
ATOM     35  N   UNL A   1      40.261  28.800  29.853  1.00  0.00    -0.248 NA
ATOM     36  C   UNL A   1      38.946  28.784  27.924  1.00  0.00     0.031 C 
ATOM     37  C   UNL A   1      37.422  31.715  31.698  1.00  0.00     0.029 A 
ATOM     38  N   UNL A   1      39.348  30.609  31.972  1.00  0.00    -0.354 N 
ATOM     39  C   UNL A   1      40.834  27.951  28.918  1.00  0.00     0.074 A 
ATOM     40  C   UNL A   1      39.968  27.957  27.756  1.00  0.00     0.031 C 
ATOM     41  C   UNL A   1      37.907  32.042  32.906  1.00  0.00     0.029 A 
ATOM     42  C   UNL A   1      39.140  31.294  33.142  1.00  0.00     0.049 A 
ATOM     43  H   UNL A   1      40.146  30.056  31.804  1.00  0.00     0.167 HD
ATOM     44  C   UNL A   1      41.979  27.233  29.021  1.00  0.00     0.037 A 
ATOM     45  C   UNL A   1      39.841  31.291  34.292  1.00  0.00     0.037 A 
ATOM     46  C   UNL A   1      42.845  27.241  30.172  1.00  0.00     0.049 A 
ATOM     47  C   UNL A   1      41.077  30.445  34.403  1.00  0.00     0.074 A 
ATOM     48  C   UNL A   1      44.059  26.598  30.344  1.00  0.00     0.029 A 
ATOM     49  N   UNL A   1      42.584  27.922  31.352  1.00  0.00    -0.354 N 
ATOM     50  N   UNL A   1      41.627  29.664  33.505  1.00  0.00    -0.248 NA
ATOM     51  C   UNL A   1      41.785  30.472  35.690  1.00  0.00     0.031 C 
ATOM     52  C   UNL A   1      44.509  26.849  31.646  1.00  0.00     0.029 A 
ATOM     53  C   UNL A   1      43.595  27.684  32.271  1.00  0.00     0.049 A 
ATOM     54  H   UNL A   1      41.796  28.490  31.514  1.00  0.00     0.167 HD
ATOM     55  C   UNL A   1      42.742  29.108  34.113  1.00  0.00     0.074 A 
ATOM     56  C   UNL A   1      42.806  29.659  35.452  1.00  0.00     0.031 C 
ATOM     57  C   UNL A   1      43.633  28.220  33.608  1.00  0.00     0.037 A 
BRANCH  44  58
ATOM     58  C   UNL A   1      42.346  26.349  27.867  1.00  0.00     0.064 A 
ATOM     59  C   UNL A   1      41.797  25.068  27.712  1.00  0.00     0.173 A 
ATOM     60  C   UNL A   1      43.242  26.803  26.886  1.00  0.00     0.173 A 
ATOM     61  F   UNL A   1      40.944  24.585  28.628  1.00  0.00    -0.203 F 
ATOM     62  C   UNL A   1      42.152  24.263  26.632  1.00  0.00     0.198 A 
ATOM     63  C   UNL A   1      43.575  26.006  25.796  1.00  0.00     0.198 A 
ATOM     64  F   UNL A   1      43.790  28.023  26.985  1.00  0.00    -0.203 F 
ATOM     65  F   UNL A   1      41.647  23.026  26.527  1.00  0.00    -0.200 F 
ATOM     66  C   UNL A   1      43.037  24.734  25.672  1.00  0.00     0.200 A 
ATOM     67  F   UNL A   1      44.423  26.465  24.865  1.00  0.00    -0.200 F 
ATOM     68  F   UNL A   1      43.376  23.958  24.634  1.00  0.00    -0.200 F 
ENDBRANCH  44  58
BRANCH  45  69
ATOM     69  C   UNL A   1      39.359  32.100  35.439  1.00  0.00     0.064 A 
ATOM     70  C   UNL A   1      38.526  31.541  36.415  1.00  0.00     0.173 A 
ATOM     71  C   UNL A   1      39.752  33.437  35.596  1.00  0.00     0.173 A 
ATOM     72  F   UNL A   1      38.106  30.273  36.292  1.00  0.00    -0.203 F 
ATOM     73  C   UNL A   1      38.102  32.293  37.509  1.00  0.00     0.198 A 
ATOM     74  C   UNL A   1      39.347  34.179  36.702  1.00  0.00     0.198 A 
ATOM     75  F   UNL A   1      40.549  34.014  34.685  1.00  0.00    -0.203 F 
ATOM     76  F   UNL A   1      37.284  31.745  38.419  1.00  0.00    -0.200 F 
ATOM     77  C   UNL A   1      38.520  33.607  37.657  1.00  0.00     0.200 A 
ATOM     78  F   UNL A   1      39.763  35.445  36.846  1.00  0.00    -0.200 F 
ATOM     79  F   UNL A   1      38.123  34.323  38.717  1.00  0.00    -0.200 F 
ENDBRANCH  45  69
BRANCH  57  80
ATOM     80  C   UNL A   1      44.748  27.783  34.510  1.00  0.00     0.064 A 
ATOM     81  C   UNL A   1      44.632  26.633  35.307  1.00  0.00     0.173 A 
ATOM     82  C   UNL A   1      45.954  28.497  34.558  1.00  0.00     0.173 A 
ATOM     83  F   UNL A   1      43.492  25.926  35.309  1.00  0.00    -0.203 F 
ATOM     84  C   UNL A   1      45.677  26.225  36.131  1.00  0.00     0.198 A 
ATOM     85  C   UNL A   1      47.006  28.074  35.366  1.00  0.00     0.198 A 
ATOM     86  F   UNL A   1      46.114  29.602  33.813  1.00  0.00    -0.203 F 
ATOM     87  F   UNL A   1      45.530  25.147  36.913  1.00  0.00    -0.200 F 
ATOM     88  C   UNL A   1      46.864  26.942  36.155  1.00  0.00     0.200 A 
ATOM     89  F   UNL A   1      48.155  28.762  35.383  1.00  0.00    -0.200 F 
ATOM     90  F   UNL A   1      47.870  26.547  36.948  1.00  0.00    -0.200 F 
ENDBRANCH  57  80
ENDBRANCH  31  32
ENDBRANCH  24  26
ENDBRANCH  23  24
ENDBRANCH  22  23
ENDBRANCH   1  22
TORSDOF 16
ENDMDL
MODEL 3
REMARK VINA RESULT:     -10.8      0.996      2.069
REMARK SMILES COc1cc(Br)c(OC)c(C(=O)NCCC(=O)OCCOC(=O)c2ccc(-c3c4nc(c(-c5c(F)c(F)c(F)c(F)c5F)c5ccc([nH]5)c(-c5c(F)c(F)c(F)c(F)c5F)c5nc(c(-c6c(F)c(F)c(F)c(F)c6F)c6ccc3[nH]6)C=C5)C=C4)cc2)c1
REMARK SMILES IDX 19 1 18 2 16 3 17 4 15 5 14 6 13 7 11 8 12 9 10 11 3 12 4 13
REMARK SMILES IDX 87 14 5 15 6 16 7 17 2 18 1 19 8 20 9 21 20 22 21 23 22 24
REMARK SMILES IDX 23 25 24 26 25 27 86 28 26 29 85 30 27 31 28 32 29 33 79 34
REMARK SMILES IDX 30 35 84 36 78 37 80 38 31 39 83 40 77 41 76 42 32 44 64 45
REMARK SMILES IDX 44 46 63 47 45 48 48 49 62 50 81 51 46 52 47 53 61 55 82 56
REMARK SMILES IDX 49 57 33 58 34 59 42 60 35 61 36 62 40 63 43 64 37 65 38 66
REMARK SMILES IDX 41 67 39 68 65 69 66 70 74 71 67 72 68 73 72 74 75 75 69 76
REMARK SMILES IDX 70 77 73 78 71 79 50 80 51 81 59 82 52 83 53 84 57 85 60 86
REMARK SMILES IDX 54 87 55 88 58 89 56 90
REMARK H PARENT 13 10 80 43 48 54
REMARK Flexibility Score: inf
ROOT
ATOM      1  C   UNL A   1      31.719  28.327  26.058  1.00  0.00     0.274 C 
ENDROOT
BRANCH   1   2
ATOM      2  O   UNL A   1      31.121  27.570  24.987  1.00  0.00    -0.462 OA
BRANCH   2   3
ATOM      3  C   UNL A   1      31.131  26.220  25.135  1.00  0.00     0.307 C 
ATOM      4  O   UNL A   1      30.395  25.438  24.547  1.00  0.00    -0.252 OA
BRANCH   3   5
ATOM      5  C   UNL A   1      32.138  25.774  26.161  1.00  0.00     0.144 C 
BRANCH   5   6
ATOM      6  C   UNL A   1      33.450  25.310  25.549  1.00  0.00     0.128 C 
BRANCH   6   7
ATOM      7  N   UNL A   1      33.378  25.130  24.105  1.00  0.00    -0.351 N 
ATOM      8  C   UNL A   1      33.613  24.040  23.298  1.00  0.00     0.255 C 
ATOM      9  O   UNL A   1      33.493  24.170  22.082  1.00  0.00    -0.269 OA
ATOM     10  H   UNL A   1      33.111  25.940  23.614  1.00  0.00     0.163 HD
BRANCH   8  11
ATOM     11  C   UNL A   1      33.973  22.712  23.861  1.00  0.00     0.086 A 
ATOM     12  C   UNL A   1      33.285  20.544  24.693  1.00  0.00     0.121 A 
ATOM     13  C   UNL A   1      34.613  20.195  24.919  1.00  0.00     0.066 A 
ATOM     14  C   UNL A   1      32.971  21.760  24.092  1.00  0.00     0.064 A 
ATOM     15  C   UNL A   1      35.629  21.107  24.626  1.00  0.00     0.064 A 
ATOM     16  Br  UNL A   1      37.407  20.572  25.030  1.00  0.00    -0.047 Br
ATOM     17  C   UNL A   1      35.318  22.373  24.102  1.00  0.00     0.146 A 
BRANCH  12  18
ATOM     18  O   UNL A   1      32.234  19.738  25.038  1.00  0.00    -0.497 OA
ATOM     19  C   UNL A   1      32.512  18.353  24.814  1.00  0.00     0.278 C 
ENDBRANCH  12  18
BRANCH  17  20
ATOM     20  O   UNL A   1      36.299  23.319  23.940  1.00  0.00    -0.495 OA
ATOM     21  C   UNL A   1      36.763  23.833  25.191  1.00  0.00     0.278 C 
ENDBRANCH  17  20
ENDBRANCH   8  11
ENDBRANCH   6   7
ENDBRANCH   5   6
ENDBRANCH   3   5
ENDBRANCH   2   3
ENDBRANCH   1   2
BRANCH   1  22
ATOM     22  C   UNL A   1      31.771  29.823  25.742  1.00  0.00     0.275 C 
BRANCH  22  23
ATOM     23  O   UNL A   1      33.103  30.349  25.883  1.00  0.00    -0.458 OA
BRANCH  23  24
ATOM     24  C   UNL A   1      33.268  31.260  26.866  1.00  0.00     0.338 C 
ATOM     25  O   UNL A   1      32.480  32.129  27.220  1.00  0.00    -0.246 OA
BRANCH  24  26
ATOM     26  C   UNL A   1      34.531  31.003  27.567  1.00  0.00     0.060 A 
ATOM     27  C   UNL A   1      34.810  29.695  27.975  1.00  0.00     0.016 A 
ATOM     28  C   UNL A   1      35.398  32.049  27.886  1.00  0.00     0.016 A 
ATOM     29  C   UNL A   1      35.964  29.427  28.708  1.00  0.00     0.010 A 
ATOM     30  C   UNL A   1      36.563  31.776  28.609  1.00  0.00     0.010 A 
ATOM     31  C   UNL A   1      36.851  30.465  29.030  1.00  0.00    -0.014 A 
BRANCH  31  32
ATOM     32  C   UNL A   1      38.089  30.180  29.795  1.00  0.00     0.031 A 
ATOM     33  C   UNL A   1      39.129  29.255  29.240  1.00  0.00     0.074 A 
ATOM     34  C   UNL A   1      38.260  30.737  31.008  1.00  0.00     0.049 A 
ATOM     35  N   UNL A   1      40.220  28.801  29.805  1.00  0.00    -0.248 NA
ATOM     36  C   UNL A   1      38.914  28.773  27.868  1.00  0.00     0.031 C 
ATOM     37  C   UNL A   1      37.329  31.666  31.646  1.00  0.00     0.029 A 
ATOM     38  N   UNL A   1      39.270  30.588  31.926  1.00  0.00    -0.354 N 
ATOM     39  C   UNL A   1      40.810  27.964  28.869  1.00  0.00     0.074 A 
ATOM     40  C   UNL A   1      39.949  27.962  27.703  1.00  0.00     0.031 C 
ATOM     41  C   UNL A   1      37.803  31.995  32.858  1.00  0.00     0.029 A 
ATOM     42  C   UNL A   1      39.045  31.265  33.097  1.00  0.00     0.049 A 
ATOM     43  H   UNL A   1      40.076  30.047  31.759  1.00  0.00     0.167 HD
ATOM     44  C   UNL A   1      41.965  27.263  28.975  1.00  0.00     0.037 A 
ATOM     45  C   UNL A   1      39.741  31.268  34.250  1.00  0.00     0.037 A 
ATOM     46  C   UNL A   1      42.825  27.280  30.130  1.00  0.00     0.049 A 
ATOM     47  C   UNL A   1      40.989  30.441  34.364  1.00  0.00     0.074 A 
ATOM     48  C   UNL A   1      44.048  26.654  30.306  1.00  0.00     0.029 A 
ATOM     49  N   UNL A   1      42.548  27.952  31.312  1.00  0.00    -0.354 N 
ATOM     50  N   UNL A   1      41.554  29.671  33.466  1.00  0.00    -0.248 NA
ATOM     51  C   UNL A   1      41.690  30.473  35.655  1.00  0.00     0.031 C 
ATOM     52  C   UNL A   1      44.487  26.907  31.611  1.00  0.00     0.029 A 
ATOM     53  C   UNL A   1      43.558  27.725  32.234  1.00  0.00     0.049 A 
ATOM     54  H   UNL A   1      41.751  28.507  31.472  1.00  0.00     0.167 HD
ATOM     55  C   UNL A   1      42.675  29.130  34.078  1.00  0.00     0.074 A 
ATOM     56  C   UNL A   1      42.724  29.677  35.419  1.00  0.00     0.031 C 
ATOM     57  C   UNL A   1      43.582  28.257  33.574  1.00  0.00     0.037 A 
BRANCH  44  58
ATOM     58  C   UNL A   1      42.351  26.389  27.819  1.00  0.00     0.064 A 
ATOM     59  C   UNL A   1      43.247  26.822  26.831  1.00  0.00     0.173 A 
ATOM     60  C   UNL A   1      41.834  25.088  27.712  1.00  0.00     0.173 A 
ATOM     61  F   UNL A   1      43.759  28.062  26.883  1.00  0.00    -0.203 F 
ATOM     62  C   UNL A   1      43.592  25.995  25.765  1.00  0.00     0.198 A 
ATOM     63  C   UNL A   1      42.199  24.256  26.659  1.00  0.00     0.198 A 
ATOM     64  F   UNL A   1      40.977  24.624  28.635  1.00  0.00    -0.203 F 
ATOM     65  F   UNL A   1      44.417  26.446  24.810  1.00  0.00    -0.200 F 
ATOM     66  C   UNL A   1      43.071  24.712  25.682  1.00  0.00     0.200 A 
ATOM     67  F   UNL A   1      41.703  23.014  26.585  1.00  0.00    -0.200 F 
ATOM     68  F   UNL A   1      43.405  23.917  24.656  1.00  0.00    -0.200 F 
ENDBRANCH  44  58
BRANCH  45  69
ATOM     69  C   UNL A   1      39.241  32.065  35.398  1.00  0.00     0.064 A 
ATOM     70  C   UNL A   1      38.442  31.481  36.388  1.00  0.00     0.173 A 
ATOM     71  C   UNL A   1      39.583  33.418  35.542  1.00  0.00     0.173 A 
ATOM     72  F   UNL A   1      38.072  30.196  36.278  1.00  0.00    -0.203 F 
ATOM     73  C   UNL A   1      38.002  32.222  37.483  1.00  0.00     0.198 A 
ATOM     74  C   UNL A   1      39.162  34.151  36.647  1.00  0.00     0.198 A 
ATOM     75  F   UNL A   1      40.344  34.020  34.617  1.00  0.00    -0.203 F 
ATOM     76  F   UNL A   1      37.218  31.649  38.406  1.00  0.00    -0.200 F 
ATOM     77  C   UNL A   1      38.370  33.553  37.617  1.00  0.00     0.200 A 
ATOM     78  F   UNL A   1      39.529  35.434  36.779  1.00  0.00    -0.200 F 
ATOM     79  F   UNL A   1      37.958  34.261  38.677  1.00  0.00    -0.200 F 
ENDBRANCH  45  69
BRANCH  57  80
ATOM     80  C   UNL A   1      44.698  27.833  34.480  1.00  0.00     0.064 A 
ATOM     81  C   UNL A   1      45.888  28.573  34.567  1.00  0.00     0.173 A 
ATOM     82  C   UNL A   1      44.570  26.697  35.293  1.00  0.00     0.173 A 
ATOM     83  F   UNL A   1      46.064  29.657  33.796  1.00  0.00    -0.203 F 
ATOM     84  C   UNL A   1      46.914  28.181  35.420  1.00  0.00     0.198 A 
ATOM     85  C   UNL A   1      45.589  26.320  36.163  1.00  0.00     0.198 A 
ATOM     86  F   UNL A   1      43.452  25.957  35.248  1.00  0.00    -0.203 F 
ATOM     87  F   UNL A   1      48.057  28.880  35.457  1.00  0.00    -0.200 F 
ATOM     88  C   UNL A   1      46.762  27.059  36.222  1.00  0.00     0.200 A 
ATOM     89  F   UNL A   1      45.438  25.241  36.943  1.00  0.00    -0.200 F 
ATOM     90  F   UNL A   1      47.750  26.684  37.046  1.00  0.00    -0.200 F 
ENDBRANCH  57  80
ENDBRANCH  31  32
ENDBRANCH  24  26
ENDBRANCH  23  24
ENDBRANCH  22  23
ENDBRANCH   1  22
TORSDOF 16
ENDMDL
