MODEL 1
REMARK VINA RESULT:     -10.5      0.000      0.000
REMARK SMILES Cc1ccoc1C(=O)N1CCO[C@H](CC(=O)OCCOC(=O)c2ccc(-c3c4nc(c(-c5c(F)c(F)c(F)c(F)c5F)c5ccc([nH]5)c(-c5c(F)c(F)c(F)c(F)c5F)c5nc(c(-c6c(F)c(F)c(F)c(F)c6F)c6ccc3[nH]6)C=C5)C=C4)cc2)C1
REMARK SMILES IDX 18 1 17 2 15 3 16 4 14 5 13 6 9 7 10 8 86 9 11 10 12 11 7 12
REMARK SMILES IDX 8 13 6 14 1 15 2 16 3 17 4 18 5 19 19 20 20 21 21 22 22 23
REMARK SMILES IDX 23 24 24 25 85 26 25 27 84 28 26 29 27 30 28 31 78 32 29 33
REMARK SMILES IDX 83 34 77 35 79 36 30 37 82 38 76 39 75 40 31 42 63 43 43 44
REMARK SMILES IDX 62 45 44 46 47 47 61 48 80 49 45 50 46 51 60 53 81 54 48 55
REMARK SMILES IDX 32 56 33 57 41 58 34 59 35 60 39 61 42 62 36 63 37 64 40 65
REMARK SMILES IDX 38 66 64 67 65 68 73 69 66 70 67 71 71 72 74 73 68 74 69 75
REMARK SMILES IDX 72 76 70 77 49 78 50 79 58 80 51 81 52 82 56 83 59 84 53 85
REMARK SMILES IDX 54 86 57 87 55 88
REMARK H PARENT 79 41 47 52
REMARK Flexibility Score: inf
ROOT
ATOM      1  C   UNL A   1      41.748  19.938  26.528  1.00  0.00     0.274 C 
ENDROOT
BRANCH   1   2
ATOM      2  O   UNL A   1      42.275  19.249  25.378  1.00  0.00    -0.462 OA
BRANCH   2   3
ATOM      3  C   UNL A   1      43.617  19.334  25.210  1.00  0.00     0.308 C 
ATOM      4  O   UNL A   1      44.339  18.419  24.830  1.00  0.00    -0.252 OA
BRANCH   3   5
ATOM      5  C   UNL A   1      44.165  20.653  25.673  1.00  0.00     0.156 C 
BRANCH   5   6
ATOM      6  C   UNL A   1      44.791  21.545  24.589  1.00  0.00     0.148 C 
ATOM      7  N   UNL A   1      45.184  23.382  26.140  1.00  0.00    -0.331 N 
ATOM      8  C   UNL A   1      44.086  24.168  25.588  1.00  0.00     0.148 C 
ATOM      9  C   UNL A   1      45.829  22.530  25.148  1.00  0.00     0.152 C 
ATOM     10  C   UNL A   1      43.124  23.297  24.753  1.00  0.00     0.182 C 
ATOM     11  O   UNL A   1      43.774  22.327  23.911  1.00  0.00    -0.374 OA
BRANCH   7  12
ATOM     12  C   UNL A   1      45.938  23.804  27.230  1.00  0.00     0.289 C 
ATOM     13  O   UNL A   1      47.167  23.815  27.137  1.00  0.00    -0.265 OA
BRANCH  12  14
ATOM     14  C   UNL A   1      45.251  24.050  28.499  1.00  0.00     0.194 A 
ATOM     15  C   UNL A   1      43.047  22.640  28.704  1.00  0.00     0.049 C 
ATOM     16  C   UNL A   1      44.106  23.577  29.147  1.00  0.00     0.000 A 
ATOM     17  C   UNL A   1      44.142  24.119  30.469  1.00  0.00     0.046 A 
ATOM     18  C   UNL A   1      45.271  24.887  30.552  1.00  0.00     0.196 A 
ATOM     19  O   UNL A   1      45.933  24.865  29.376  1.00  0.00    -0.459 OA
ENDBRANCH  12  14
ENDBRANCH   7  12
ENDBRANCH   5   6
ENDBRANCH   3   5
ENDBRANCH   2   3
ENDBRANCH   1   2
BRANCH   1  20
ATOM     20  C   UNL A   1      40.378  20.571  26.265  1.00  0.00     0.275 C 
BRANCH  20  21
ATOM     21  O   UNL A   1      40.170  21.777  27.026  1.00  0.00    -0.458 OA
BRANCH  21  22
ATOM     22  C   UNL A   1      39.268  22.632  26.495  1.00  0.00     0.338 C 
ATOM     23  O   UNL A   1      38.313  22.356  25.789  1.00  0.00    -0.246 OA
BRANCH  22  24
ATOM     24  C   UNL A   1      39.505  24.000  26.978  1.00  0.00     0.060 A 
ATOM     25  C   UNL A   1      39.973  24.936  26.056  1.00  0.00     0.016 A 
ATOM     26  C   UNL A   1      39.411  24.327  28.329  1.00  0.00     0.016 A 
ATOM     27  C   UNL A   1      40.428  26.178  26.477  1.00  0.00     0.010 A 
ATOM     28  C   UNL A   1      39.820  25.597  28.751  1.00  0.00     0.010 A 
ATOM     29  C   UNL A   1      40.358  26.519  27.832  1.00  0.00    -0.014 A 
BRANCH  29  30
ATOM     30  C   UNL A   1      40.862  27.838  28.279  1.00  0.00     0.031 A 
ATOM     31  C   UNL A   1      42.338  28.115  28.305  1.00  0.00     0.074 A 
ATOM     32  C   UNL A   1      39.988  28.790  28.653  1.00  0.00     0.049 A 
ATOM     33  N   UNL A   1      42.976  29.165  28.755  1.00  0.00    -0.248 NA
ATOM     34  C   UNL A   1      43.214  27.066  27.761  1.00  0.00     0.031 C 
ATOM     35  C   UNL A   1      38.532  28.649  28.639  1.00  0.00     0.029 A 
ATOM     36  N   UNL A   1      40.197  30.060  29.126  1.00  0.00    -0.354 N 
ATOM     37  C   UNL A   1      44.325  28.895  28.575  1.00  0.00     0.074 A 
ATOM     38  C   UNL A   1      44.418  27.575  27.986  1.00  0.00     0.031 C 
ATOM     39  C   UNL A   1      37.977  29.787  29.086  1.00  0.00     0.029 A 
ATOM     40  C   UNL A   1      39.039  30.717  29.460  1.00  0.00     0.049 A 
ATOM     41  H   UNL A   1      41.092  30.462  29.217  1.00  0.00     0.167 HD
ATOM     42  C   UNL A   1      45.386  29.680  28.875  1.00  0.00     0.037 A 
ATOM     43  C   UNL A   1      38.856  31.921  30.031  1.00  0.00     0.037 A 
ATOM     44  C   UNL A   1      45.286  31.009  29.421  1.00  0.00     0.049 A 
ATOM     45  C   UNL A   1      40.054  32.763  30.372  1.00  0.00     0.074 A 
ATOM     46  C   UNL A   1      46.304  31.900  29.714  1.00  0.00     0.029 A 
ATOM     47  N   UNL A   1      44.096  31.638  29.753  1.00  0.00    -0.354 N 
ATOM     48  N   UNL A   1      41.326  32.502  30.194  1.00  0.00    -0.248 NA
ATOM     49  C   UNL A   1      39.791  34.065  30.997  1.00  0.00     0.031 C 
ATOM     50  C   UNL A   1      45.732  33.054  30.262  1.00  0.00     0.029 A 
ATOM     51  C   UNL A   1      44.355  32.897  30.271  1.00  0.00     0.049 A 
ATOM     52  H   UNL A   1      43.199  31.248  29.636  1.00  0.00     0.167 HD
ATOM     53  C   UNL A   1      42.013  33.609  30.668  1.00  0.00     0.074 A 
ATOM     54  C   UNL A   1      41.016  34.555  31.126  1.00  0.00     0.031 C 
ATOM     55  C   UNL A   1      43.350  33.823  30.724  1.00  0.00     0.037 A 
BRANCH  42  56
ATOM     56  C   UNL A   1      46.757  29.118  28.647  1.00  0.00     0.064 A 
ATOM     57  C   UNL A   1      47.469  29.361  27.465  1.00  0.00     0.173 A 
ATOM     58  C   UNL A   1      47.386  28.370  29.653  1.00  0.00     0.173 A 
ATOM     59  F   UNL A   1      46.907  30.061  26.469  1.00  0.00    -0.203 F 
ATOM     60  C   UNL A   1      48.760  28.864  27.292  1.00  0.00     0.198 A 
ATOM     61  C   UNL A   1      48.684  27.894  29.488  1.00  0.00     0.198 A 
ATOM     62  F   UNL A   1      46.748  28.114  30.805  1.00  0.00    -0.203 F 
ATOM     63  F   UNL A   1      49.413  29.082  26.143  1.00  0.00    -0.200 F 
ATOM     64  C   UNL A   1      49.368  28.137  28.306  1.00  0.00     0.200 A 
ATOM     65  F   UNL A   1      49.273  27.201  30.472  1.00  0.00    -0.200 F 
ATOM     66  F   UNL A   1      50.613  27.669  28.143  1.00  0.00    -0.200 F 
ENDBRANCH  42  56
BRANCH  43  67
ATOM     67  C   UNL A   1      37.482  32.387  30.342  1.00  0.00     0.064 A 
ATOM     68  C   UNL A   1      36.720  33.078  29.393  1.00  0.00     0.173 A 
ATOM     69  C   UNL A   1      36.907  32.154  31.601  1.00  0.00     0.173 A 
ATOM     70  F   UNL A   1      37.237  33.347  28.185  1.00  0.00    -0.203 F 
ATOM     71  C   UNL A   1      35.438  33.534  29.694  1.00  0.00     0.198 A 
ATOM     72  C   UNL A   1      35.615  32.586  31.892  1.00  0.00     0.198 A 
ATOM     73  F   UNL A   1      37.597  31.497  32.544  1.00  0.00    -0.203 F 
ATOM     74  F   UNL A   1      34.745  34.230  28.783  1.00  0.00    -0.200 F 
ATOM     75  C   UNL A   1      34.885  33.281  30.941  1.00  0.00     0.200 A 
ATOM     76  F   UNL A   1      35.080  32.331  33.093  1.00  0.00    -0.200 F 
ATOM     77  F   UNL A   1      33.650  33.717  31.229  1.00  0.00    -0.200 F 
ENDBRANCH  43  67
BRANCH  55  78
ATOM     78  C   UNL A   1      43.807  35.136  31.283  1.00  0.00     0.064 A 
ATOM     79  C   UNL A   1      44.170  35.268  32.631  1.00  0.00     0.173 A 
ATOM     80  C   UNL A   1      43.910  36.266  30.458  1.00  0.00     0.173 A 
ATOM     81  F   UNL A   1      44.072  34.220  33.464  1.00  0.00    -0.203 F 
ATOM     82  C   UNL A   1      44.600  36.492  33.139  1.00  0.00     0.198 A 
ATOM     83  C   UNL A   1      44.364  37.481  30.963  1.00  0.00     0.198 A 
ATOM     84  F   UNL A   1      43.579  36.188  29.161  1.00  0.00    -0.203 F 
ATOM     85  F   UNL A   1      44.900  36.608  34.439  1.00  0.00    -0.200 F 
ATOM     86  C   UNL A   1      44.701  37.594  32.303  1.00  0.00     0.200 A 
ATOM     87  F   UNL A   1      44.470  38.544  30.153  1.00  0.00    -0.200 F 
ATOM     88  F   UNL A   1      45.116  38.771  32.793  1.00  0.00    -0.200 F 
ENDBRANCH  55  78
ENDBRANCH  29  30
ENDBRANCH  22  24
ENDBRANCH  21  22
ENDBRANCH  20  21
ENDBRANCH   1  20
TORSDOF 14
ENDMDL
MODEL 2
REMARK VINA RESULT:     -10.3      6.414     12.002
REMARK SMILES Cc1ccoc1C(=O)N1CCO[C@H](CC(=O)OCCOC(=O)c2ccc(-c3c4nc(c(-c5c(F)c(F)c(F)c(F)c5F)c5ccc([nH]5)c(-c5c(F)c(F)c(F)c(F)c5F)c5nc(c(-c6c(F)c(F)c(F)c(F)c6F)c6ccc3[nH]6)C=C5)C=C4)cc2)C1
REMARK SMILES IDX 18 1 17 2 15 3 16 4 14 5 13 6 9 7 10 8 86 9 11 10 12 11 7 12
REMARK SMILES IDX 8 13 6 14 1 15 2 16 3 17 4 18 5 19 19 20 20 21 21 22 22 23
REMARK SMILES IDX 23 24 24 25 85 26 25 27 84 28 26 29 27 30 28 31 78 32 29 33
REMARK SMILES IDX 83 34 77 35 79 36 30 37 82 38 76 39 75 40 31 42 63 43 43 44
REMARK SMILES IDX 62 45 44 46 47 47 61 48 80 49 45 50 46 51 60 53 81 54 48 55
REMARK SMILES IDX 32 56 33 57 41 58 34 59 35 60 39 61 42 62 36 63 37 64 40 65
REMARK SMILES IDX 38 66 64 67 65 68 73 69 66 70 67 71 71 72 74 73 68 74 69 75
REMARK SMILES IDX 72 76 70 77 49 78 50 79 58 80 51 81 52 82 56 83 59 84 53 85
REMARK SMILES IDX 54 86 57 87 55 88
REMARK H PARENT 79 41 47 52
REMARK Flexibility Score: inf
ROOT
ATOM      1  C   UNL A   1      31.612  30.800  26.465  1.00  0.00     0.274 C 
ENDROOT
BRANCH   1   2
ATOM      2  O   UNL A   1      32.838  30.453  25.793  1.00  0.00    -0.462 OA
BRANCH   2   3
ATOM      3  C   UNL A   1      32.788  29.336  25.026  1.00  0.00     0.308 C 
ATOM      4  O   UNL A   1      33.761  28.676  24.679  1.00  0.00    -0.252 OA
BRANCH   3   5
ATOM      5  C   UNL A   1      31.402  29.055  24.523  1.00  0.00     0.156 C 
BRANCH   5   6
ATOM      6  C   UNL A   1      31.302  28.150  23.285  1.00  0.00     0.148 C 
ATOM      7  N   UNL A   1      28.868  28.242  23.249  1.00  0.00    -0.331 N 
ATOM      8  C   UNL A   1      28.745  26.881  23.760  1.00  0.00     0.148 C 
ATOM      9  C   UNL A   1      30.059  28.437  22.430  1.00  0.00     0.152 C 
ATOM     10  C   UNL A   1      30.061  26.389  24.397  1.00  0.00     0.182 C 
ATOM     11  O   UNL A   1      31.249  26.751  23.668  1.00  0.00    -0.374 OA
BRANCH   7  12
ATOM     12  C   UNL A   1      27.768  29.059  23.011  1.00  0.00     0.289 C 
ATOM     13  O   UNL A   1      26.636  28.596  23.170  1.00  0.00    -0.265 OA
BRANCH  12  14
ATOM     14  C   UNL A   1      27.993  30.376  22.414  1.00  0.00     0.194 A 
ATOM     15  C   UNL A   1      29.123  32.033  24.107  1.00  0.00     0.049 C 
ATOM     16  C   UNL A   1      28.567  31.588  22.807  1.00  0.00     0.000 A 
ATOM     17  C   UNL A   1      28.622  32.404  21.634  1.00  0.00     0.046 A 
ATOM     18  C   UNL A   1      28.079  31.671  20.616  1.00  0.00     0.196 A 
ATOM     19  O   UNL A   1      27.686  30.462  21.073  1.00  0.00    -0.459 OA
ENDBRANCH  12  14
ENDBRANCH   7  12
ENDBRANCH   5   6
ENDBRANCH   3   5
ENDBRANCH   2   3
ENDBRANCH   1   2
BRANCH   1  20
ATOM     20  C   UNL A   1      31.561  32.272  26.884  1.00  0.00     0.275 C 
BRANCH  20  21
ATOM     21  O   UNL A   1      32.822  32.945  26.698  1.00  0.00    -0.458 OA
BRANCH  21  22
ATOM     22  C   UNL A   1      33.300  33.566  27.799  1.00  0.00     0.338 C 
ATOM     23  O   UNL A   1      32.781  34.482  28.416  1.00  0.00    -0.246 OA
BRANCH  22  24
ATOM     24  C   UNL A   1      34.527  32.910  28.272  1.00  0.00     0.060 A 
ATOM     25  C   UNL A   1      34.415  31.604  28.749  1.00  0.00     0.016 A 
ATOM     26  C   UNL A   1      35.732  33.600  28.383  1.00  0.00     0.016 A 
ATOM     27  C   UNL A   1      35.475  30.999  29.413  1.00  0.00     0.010 A 
ATOM     28  C   UNL A   1      36.818  32.976  29.006  1.00  0.00     0.010 A 
ATOM     29  C   UNL A   1      36.687  31.683  29.550  1.00  0.00    -0.014 A 
BRANCH  29  30
ATOM     30  C   UNL A   1      37.809  31.042  30.275  1.00  0.00     0.031 A 
ATOM     31  C   UNL A   1      38.089  31.403  31.705  1.00  0.00     0.074 A 
ATOM     32  C   UNL A   1      38.568  30.127  29.646  1.00  0.00     0.049 A 
ATOM     33  N   UNL A   1      39.078  31.028  32.475  1.00  0.00    -0.248 NA
ATOM     34  C   UNL A   1      37.135  32.317  32.353  1.00  0.00     0.031 C 
ATOM     35  C   UNL A   1      38.371  29.671  28.270  1.00  0.00     0.029 A 
ATOM     36  N   UNL A   1      39.662  29.422  30.079  1.00  0.00    -0.354 N 
ATOM     37  C   UNL A   1      38.883  31.677  33.686  1.00  0.00     0.074 A 
ATOM     38  C   UNL A   1      37.688  32.482  33.548  1.00  0.00     0.031 C 
ATOM     39  C   UNL A   1      39.316  28.765  27.969  1.00  0.00     0.029 A 
ATOM     40  C   UNL A   1      40.208  28.613  29.115  1.00  0.00     0.049 A 
ATOM     41  H   UNL A   1      40.021  29.491  30.994  1.00  0.00     0.167 HD
ATOM     42  C   UNL A   1      39.637  31.605  34.808  1.00  0.00     0.037 A 
ATOM     43  C   UNL A   1      41.320  27.856  29.142  1.00  0.00     0.037 A 
ATOM     44  C   UNL A   1      40.801  30.770  34.955  1.00  0.00     0.049 A 
ATOM     45  C   UNL A   1      42.148  27.811  30.395  1.00  0.00     0.074 A 
ATOM     46  C   UNL A   1      41.601  30.593  36.070  1.00  0.00     0.029 A 
ATOM     47  N   UNL A   1      41.328  29.969  33.954  1.00  0.00    -0.354 N 
ATOM     48  N   UNL A   1      41.954  28.424  31.537  1.00  0.00    -0.248 NA
ATOM     49  C   UNL A   1      43.353  26.972  30.363  1.00  0.00     0.031 C 
ATOM     50  C   UNL A   1      42.638  29.715  35.731  1.00  0.00     0.029 A 
ATOM     51  C   UNL A   1      42.458  29.315  34.417  1.00  0.00     0.049 A 
ATOM     52  H   UNL A   1      40.953  29.877  33.047  1.00  0.00     0.167 HD
ATOM     53  C   UNL A   1      42.998  28.034  32.362  1.00  0.00     0.074 A 
ATOM     54  C   UNL A   1      43.816  27.116  31.596  1.00  0.00     0.031 C 
ATOM     55  C   UNL A   1      43.260  28.406  33.639  1.00  0.00     0.037 A 
BRANCH  42  56
ATOM     56  C   UNL A   1      39.246  32.471  35.968  1.00  0.00     0.064 A 
ATOM     57  C   UNL A   1      38.404  32.007  36.988  1.00  0.00     0.173 A 
ATOM     58  C   UNL A   1      39.770  33.767  36.084  1.00  0.00     0.173 A 
ATOM     59  F   UNL A   1      37.869  30.780  36.918  1.00  0.00    -0.203 F 
ATOM     60  C   UNL A   1      38.089  32.817  38.078  1.00  0.00     0.198 A 
ATOM     61  C   UNL A   1      39.472  34.565  37.186  1.00  0.00     0.198 A 
ATOM     62  F   UNL A   1      40.585  34.256  35.137  1.00  0.00    -0.203 F 
ATOM     63  F   UNL A   1      37.259  32.366  39.028  1.00  0.00    -0.200 F 
ATOM     64  C   UNL A   1      38.629  34.091  38.179  1.00  0.00     0.200 A 
ATOM     65  F   UNL A   1      40.003  35.792  37.287  1.00  0.00    -0.200 F 
ATOM     66  F   UNL A   1      38.334  34.864  39.234  1.00  0.00    -0.200 F 
ENDBRANCH  42  56
BRANCH  43  67
ATOM     67  C   UNL A   1      41.729  27.104  27.929  1.00  0.00     0.064 A 
ATOM     68  C   UNL A   1      42.556  27.687  26.961  1.00  0.00     0.173 A 
ATOM     69  C   UNL A   1      41.293  25.788  27.713  1.00  0.00     0.173 A 
ATOM     70  F   UNL A   1      42.976  28.952  27.111  1.00  0.00    -0.203 F 
ATOM     71  C   UNL A   1      42.921  26.987  25.813  1.00  0.00     0.198 A 
ATOM     72  C   UNL A   1      41.680  25.080  26.578  1.00  0.00     0.198 A 
ATOM     73  F   UNL A   1      40.498  25.187  28.610  1.00  0.00    -0.203 F 
ATOM     74  F   UNL A   1      43.677  27.581  24.881  1.00  0.00    -0.200 F 
ATOM     75  C   UNL A   1      42.487  25.682  25.626  1.00  0.00     0.200 A 
ATOM     76  F   UNL A   1      41.269  23.817  26.406  1.00  0.00    -0.200 F 
ATOM     77  F   UNL A   1      42.841  25.008  24.522  1.00  0.00    -0.200 F 
ENDBRANCH  43  67
BRANCH  55  78
ATOM     78  C   UNL A   1      44.469  27.804  34.290  1.00  0.00     0.064 A 
ATOM     79  C   UNL A   1      44.401  26.574  34.959  1.00  0.00     0.173 A 
ATOM     80  C   UNL A   1      45.712  28.449  34.217  1.00  0.00     0.173 A 
ATOM     81  F   UNL A   1      43.230  25.928  35.070  1.00  0.00    -0.203 F 
ATOM     82  C   UNL A   1      45.533  26.021  35.554  1.00  0.00     0.198 A 
ATOM     83  C   UNL A   1      46.846  27.881  34.791  1.00  0.00     0.198 A 
ATOM     84  F   UNL A   1      45.829  29.625  33.583  1.00  0.00    -0.203 F 
ATOM     85  F   UNL A   1      45.437  24.867  36.227  1.00  0.00    -0.200 F 
ATOM     86  C   UNL A   1      46.754  26.672  35.464  1.00  0.00     0.200 A 
ATOM     87  F   UNL A   1      48.028  28.506  34.696  1.00  0.00    -0.200 F 
ATOM     88  F   UNL A   1      47.842  26.139  36.036  1.00  0.00    -0.200 F 
ENDBRANCH  55  78
ENDBRANCH  29  30
ENDBRANCH  22  24
ENDBRANCH  21  22
ENDBRANCH  20  21
ENDBRANCH   1  20
TORSDOF 14
ENDMDL
MODEL 3
REMARK VINA RESULT:     -10.2      3.779      9.578
REMARK SMILES Cc1ccoc1C(=O)N1CCO[C@H](CC(=O)OCCOC(=O)c2ccc(-c3c4nc(c(-c5c(F)c(F)c(F)c(F)c5F)c5ccc([nH]5)c(-c5c(F)c(F)c(F)c(F)c5F)c5nc(c(-c6c(F)c(F)c(F)c(F)c6F)c6ccc3[nH]6)C=C5)C=C4)cc2)C1
REMARK SMILES IDX 18 1 17 2 15 3 16 4 14 5 13 6 9 7 10 8 86 9 11 10 12 11 7 12
REMARK SMILES IDX 8 13 6 14 1 15 2 16 3 17 4 18 5 19 19 20 20 21 21 22 22 23
REMARK SMILES IDX 23 24 24 25 85 26 25 27 84 28 26 29 27 30 28 31 78 32 29 33
REMARK SMILES IDX 83 34 77 35 79 36 30 37 82 38 76 39 75 40 31 42 63 43 43 44
REMARK SMILES IDX 62 45 44 46 47 47 61 48 80 49 45 50 46 51 60 53 81 54 48 55
REMARK SMILES IDX 32 56 33 57 41 58 34 59 35 60 39 61 42 62 36 63 37 64 40 65
REMARK SMILES IDX 38 66 64 67 65 68 73 69 66 70 67 71 71 72 74 73 68 74 69 75
REMARK SMILES IDX 72 76 70 77 49 78 50 79 58 80 51 81 52 82 56 83 59 84 53 85
REMARK SMILES IDX 54 86 57 87 55 88
REMARK H PARENT 79 41 47 52
REMARK Flexibility Score: inf
ROOT
ATOM      1  C   UNL A   1      36.650  22.588  23.639  1.00  0.00     0.274 C 
ENDROOT
BRANCH   1   2
ATOM      2  O   UNL A   1      35.258  22.937  23.770  1.00  0.00    -0.462 OA
BRANCH   2   3
ATOM      3  C   UNL A   1      35.007  24.107  24.407  1.00  0.00     0.308 C 
ATOM      4  O   UNL A   1      35.507  24.452  25.472  1.00  0.00    -0.252 OA
BRANCH   3   5
ATOM      5  C   UNL A   1      33.928  24.901  23.730  1.00  0.00     0.156 C 
BRANCH   5   6
ATOM      6  C   UNL A   1      33.349  26.078  24.531  1.00  0.00     0.148 C 
ATOM      7  N   UNL A   1      31.582  24.716  25.510  1.00  0.00    -0.331 N 
ATOM      8  C   UNL A   1      30.560  25.313  24.657  1.00  0.00     0.148 C 
ATOM      9  C   UNL A   1      32.664  25.638  25.834  1.00  0.00     0.152 C 
ATOM     10  C   UNL A   1      31.181  26.040  23.446  1.00  0.00     0.182 C 
ATOM     11  O   UNL A   1      32.364  26.803  23.749  1.00  0.00    -0.374 OA
BRANCH   7  12
ATOM     12  C   UNL A   1      31.308  23.687  26.406  1.00  0.00     0.289 C 
ATOM     13  O   UNL A   1      30.349  23.803  27.172  1.00  0.00    -0.265 OA
BRANCH  12  14
ATOM     14  C   UNL A   1      32.269  22.589  26.523  1.00  0.00     0.194 A 
ATOM     15  C   UNL A   1      32.259  21.054  24.394  1.00  0.00     0.049 C 
ATOM     16  C   UNL A   1      32.708  21.530  25.723  1.00  0.00     0.000 A 
ATOM     17  C   UNL A   1      33.826  20.953  26.403  1.00  0.00     0.046 A 
ATOM     18  C   UNL A   1      33.997  21.663  27.559  1.00  0.00     0.196 A 
ATOM     19  O   UNL A   1      33.062  22.634  27.648  1.00  0.00    -0.459 OA
ENDBRANCH  12  14
ENDBRANCH   7  12
ENDBRANCH   5   6
ENDBRANCH   3   5
ENDBRANCH   2   3
ENDBRANCH   1   2
BRANCH   1  20
ATOM     20  C   UNL A   1      37.041  21.380  24.494  1.00  0.00     0.275 C 
BRANCH  20  21
ATOM     21  O   UNL A   1      37.469  21.753  25.818  1.00  0.00    -0.458 OA
BRANCH  21  22
ATOM     22  C   UNL A   1      38.777  21.529  26.076  1.00  0.00     0.338 C 
ATOM     23  O   UNL A   1      39.427  20.537  25.790  1.00  0.00    -0.246 OA
BRANCH  22  24
ATOM     24  C   UNL A   1      39.400  22.720  26.668  1.00  0.00     0.060 A 
ATOM     25  C   UNL A   1      38.955  23.967  26.226  1.00  0.00     0.016 A 
ATOM     26  C   UNL A   1      40.491  22.626  27.529  1.00  0.00     0.016 A 
ATOM     27  C   UNL A   1      39.640  25.125  26.569  1.00  0.00     0.010 A 
ATOM     28  C   UNL A   1      41.153  23.796  27.919  1.00  0.00     0.010 A 
ATOM     29  C   UNL A   1      40.749  25.048  27.418  1.00  0.00    -0.014 A 
BRANCH  29  30
ATOM     30  C   UNL A   1      41.488  26.285  27.767  1.00  0.00     0.031 A 
ATOM     31  C   UNL A   1      40.811  27.373  28.550  1.00  0.00     0.074 A 
ATOM     32  C   UNL A   1      42.770  26.421  27.385  1.00  0.00     0.049 A 
ATOM     33  N   UNL A   1      41.255  28.564  28.865  1.00  0.00    -0.248 NA
ATOM     34  C   UNL A   1      39.452  27.090  29.034  1.00  0.00     0.031 C 
ATOM     35  C   UNL A   1      43.542  25.418  26.651  1.00  0.00     0.029 A 
ATOM     36  N   UNL A   1      43.648  27.461  27.555  1.00  0.00    -0.354 N 
ATOM     37  C   UNL A   1      40.223  29.180  29.559  1.00  0.00     0.074 A 
ATOM     38  C   UNL A   1      39.124  28.239  29.609  1.00  0.00     0.031 C 
ATOM     39  C   UNL A   1      44.778  25.893  26.429  1.00  0.00     0.029 A 
ATOM     40  C   UNL A   1      44.869  27.248  26.966  1.00  0.00     0.049 A 
ATOM     41  H   UNL A   1      43.424  28.281  28.053  1.00  0.00     0.167 HD
ATOM     42  C   UNL A   1      40.200  30.420  30.103  1.00  0.00     0.037 A 
ATOM     43  C   UNL A   1      45.931  28.065  26.846  1.00  0.00     0.037 A 
ATOM     44  C   UNL A   1      41.311  31.336  30.087  1.00  0.00     0.049 A 
ATOM     45  C   UNL A   1      45.870  29.443  27.443  1.00  0.00     0.074 A 
ATOM     46  C   UNL A   1      41.399  32.596  30.654  1.00  0.00     0.029 A 
ATOM     47  N   UNL A   1      42.530  31.088  29.474  1.00  0.00    -0.354 N 
ATOM     48  N   UNL A   1      44.892  30.016  28.101  1.00  0.00    -0.248 NA
ATOM     49  C   UNL A   1      47.058  30.290  27.275  1.00  0.00     0.031 C 
ATOM     50  C   UNL A   1      42.657  33.127  30.349  1.00  0.00     0.029 A 
ATOM     51  C   UNL A   1      43.367  32.181  29.627  1.00  0.00     0.049 A 
ATOM     52  H   UNL A   1      42.766  30.256  29.001  1.00  0.00     0.167 HD
ATOM     53  C   UNL A   1      45.350  31.281  28.441  1.00  0.00     0.074 A 
ATOM     54  C   UNL A   1      46.702  31.386  27.931  1.00  0.00     0.031 C 
ATOM     55  C   UNL A   1      44.708  32.268  29.111  1.00  0.00     0.037 A 
BRANCH  42  56
ATOM     56  C   UNL A   1      38.924  30.877  30.743  1.00  0.00     0.064 A 
ATOM     57  C   UNL A   1      37.861  31.394  29.990  1.00  0.00     0.173 A 
ATOM     58  C   UNL A   1      38.746  30.744  32.128  1.00  0.00     0.173 A 
ATOM     59  F   UNL A   1      37.985  31.551  28.664  1.00  0.00    -0.203 F 
ATOM     60  C   UNL A   1      36.668  31.773  30.603  1.00  0.00     0.198 A 
ATOM     61  C   UNL A   1      37.546  31.103  32.735  1.00  0.00     0.198 A 
ATOM     62  F   UNL A   1      39.732  30.251  32.893  1.00  0.00    -0.203 F 
ATOM     63  F   UNL A   1      35.674  32.293  29.870  1.00  0.00    -0.200 F 
ATOM     64  C   UNL A   1      36.510  31.621  31.973  1.00  0.00     0.200 A 
ATOM     65  F   UNL A   1      37.391  30.945  34.057  1.00  0.00    -0.200 F 
ATOM     66  F   UNL A   1      35.359  31.976  32.560  1.00  0.00    -0.200 F 
ENDBRANCH  42  56
BRANCH  43  67
ATOM     67  C   UNL A   1      47.132  27.607  26.103  1.00  0.00     0.064 A 
ATOM     68  C   UNL A   1      47.208  27.721  24.710  1.00  0.00     0.173 A 
ATOM     69  C   UNL A   1      48.225  27.040  26.776  1.00  0.00     0.173 A 
ATOM     70  F   UNL A   1      46.177  28.234  24.022  1.00  0.00    -0.203 F 
ATOM     71  C   UNL A   1      48.327  27.271  24.013  1.00  0.00     0.198 A 
ATOM     72  C   UNL A   1      49.354  26.615  26.080  1.00  0.00     0.198 A 
ATOM     73  F   UNL A   1      48.199  26.907  28.109  1.00  0.00    -0.203 F 
ATOM     74  F   UNL A   1      48.358  27.352  22.676  1.00  0.00    -0.200 F 
ATOM     75  C   UNL A   1      49.401  26.724  24.699  1.00  0.00     0.200 A 
ATOM     76  F   UNL A   1      50.394  26.096  26.747  1.00  0.00    -0.200 F 
ATOM     77  F   UNL A   1      50.479  26.294  24.028  1.00  0.00    -0.200 F 
ENDBRANCH  43  67
BRANCH  55  78
ATOM     78  C   UNL A   1      45.469  33.539  29.345  1.00  0.00     0.064 A 
ATOM     79  C   UNL A   1      45.398  34.608  28.441  1.00  0.00     0.173 A 
ATOM     80  C   UNL A   1      46.252  33.698  30.497  1.00  0.00     0.173 A 
ATOM     81  F   UNL A   1      44.675  34.496  27.316  1.00  0.00    -0.203 F 
ATOM     82  C   UNL A   1      46.104  35.786  28.672  1.00  0.00     0.198 A 
ATOM     83  C   UNL A   1      46.936  34.886  30.737  1.00  0.00     0.198 A 
ATOM     84  F   UNL A   1      46.348  32.706  31.394  1.00  0.00    -0.203 F 
ATOM     85  F   UNL A   1      46.058  36.779  27.774  1.00  0.00    -0.200 F 
ATOM     86  C   UNL A   1      46.867  35.926  29.822  1.00  0.00     0.200 A 
ATOM     87  F   UNL A   1      47.667  35.025  31.852  1.00  0.00    -0.200 F 
ATOM     88  F   UNL A   1      47.545  37.061  30.043  1.00  0.00    -0.200 F 
ENDBRANCH  55  78
ENDBRANCH  29  30
ENDBRANCH  22  24
ENDBRANCH  21  22
ENDBRANCH  20  21
ENDBRANCH   1  20
TORSDOF 14
ENDMDL
