MODEL 1
REMARK VINA RESULT:     -14.0      0.000      0.000
REMARK SMILES CO[C@H]1C[C@@H](C(=O)OCCOC(=O)c2ccc(-c3c4nc(c(-c5c(F)c(F)c(F)c(F)c5F)c5ccc([nH]5)c(-c5c(F)c(F)c(F)c(F)c5F)c5nc(c(-c6c(F)c(F)c(F)c(F)c6F)c6ccc3[nH]6)C=C5)C=C4)cc2)N(C(=O)Nc2cc(C)cc(F)c2)C1
REMARK SMILES IDX 9 1 8 2 6 3 7 4 5 5 3 6 4 7 89 8 77 9 2 10 1 11 78 12 79 13
REMARK SMILES IDX 80 14 81 16 82 17 88 18 83 19 86 20 84 21 85 22 87 23 10 24
REMARK SMILES IDX 11 25 12 26 13 27 14 28 15 29 76 30 16 31 75 32 17 33 18 34
REMARK SMILES IDX 19 35 69 36 20 37 74 38 68 39 70 40 21 41 73 42 67 43 66 44
REMARK SMILES IDX 22 46 54 47 34 48 53 49 35 50 38 51 52 52 71 53 36 54 37 55
REMARK SMILES IDX 51 57 72 58 39 59 23 60 24 61 32 62 25 63 26 64 30 65 33 66
REMARK SMILES IDX 27 67 28 68 31 69 29 70 55 71 56 72 64 73 57 74 58 75 62 76
REMARK SMILES IDX 65 77 59 78 60 79 63 80 61 81 40 82 41 83 49 84 42 85 43 86
REMARK SMILES IDX 47 87 50 88 44 89 45 90 48 91 46 92
REMARK H PARENT 80 15 70 45 38 56
REMARK Flexibility Score: inf
ROOT
ATOM      1  C   UNL A   1      32.594  30.573  26.937  1.00  0.00     0.274 C 
ENDROOT
BRANCH   1   2
ATOM      2  O   UNL A   1      33.117  30.130  25.657  1.00  0.00    -0.461 OA
BRANCH   2   3
ATOM      3  C   UNL A   1      33.590  28.853  25.617  1.00  0.00     0.329 C 
ATOM      4  O   UNL A   1      34.440  28.421  26.393  1.00  0.00    -0.250 OA
BRANCH   3   5
ATOM      5  C   UNL A   1      32.772  27.914  24.695  1.00  0.00     0.199 C 
ATOM      6  C   UNL A   1      31.286  27.810  22.825  1.00  0.00     0.140 C 
ATOM      7  C   UNL A   1      32.391  28.675  23.420  1.00  0.00     0.071 C 
ATOM      8  C   UNL A   1      30.530  27.390  24.084  1.00  0.00     0.154 C 
ATOM      9  N   UNL A   1      31.548  27.251  25.125  1.00  0.00    -0.308 N 
BRANCH   6  10
ATOM     10  O   UNL A   1      30.394  28.398  21.891  1.00  0.00    -0.380 OA
ATOM     11  C   UNL A   1      30.010  29.737  22.144  1.00  0.00     0.195 C 
ENDBRANCH   6  10
BRANCH   9  12
ATOM     12  C   UNL A   1      31.292  26.384  26.126  1.00  0.00     0.322 C 
ATOM     13  O   UNL A   1      30.508  26.709  27.031  1.00  0.00    -0.248 OA
ATOM     14  N   UNL A   1      31.852  25.184  26.297  1.00  0.00    -0.308 N 
ATOM     15  H   UNL A   1      31.625  24.852  27.197  1.00  0.00     0.171 HD
BRANCH  14  16
ATOM     16  C   UNL A   1      32.647  24.234  25.653  1.00  0.00     0.046 A 
ATOM     17  C   UNL A   1      34.433  24.701  25.647  1.00  0.00     0.029 A 
ATOM     18  C   UNL A   1      32.138  22.648  24.905  1.00  0.00     0.065 A 
ATOM     19  C   UNL A   1      35.657  23.537  24.949  1.00  0.00    -0.046 A 
ATOM     20  C   UNL A   1      33.370  21.555  24.139  1.00  0.00     0.125 A 
ATOM     21  C   UNL A   1      37.112  23.718  25.244  1.00  0.00     0.044 C 
ATOM     22  C   UNL A   1      35.121  21.980  24.193  1.00  0.00     0.042 A 
ATOM     23  F   UNL A   1      32.981  20.385  23.612  1.00  0.00    -0.207 F 
ENDBRANCH  14  16
ENDBRANCH   9  12
ENDBRANCH   3   5
ENDBRANCH   2   3
ENDBRANCH   1   2
BRANCH   1  24
ATOM     24  C   UNL A   1      31.551  31.711  26.771  1.00  0.00     0.275 C 
BRANCH  24  25
ATOM     25  O   UNL A   1      32.172  33.237  27.267  1.00  0.00    -0.458 OA
BRANCH  25  26
ATOM     26  C   UNL A   1      32.939  34.500  28.390  1.00  0.00     0.338 C 
ATOM     27  O   UNL A   1      32.504  35.660  28.662  1.00  0.00    -0.246 OA
BRANCH  26  28
ATOM     28  C   UNL A   1      34.155  34.372  29.300  1.00  0.00     0.060 A 
ATOM     29  C   UNL A   1      35.443  34.455  28.736  1.00  0.00     0.016 A 
ATOM     30  C   UNL A   1      33.983  33.745  30.541  1.00  0.00     0.016 A 
ATOM     31  C   UNL A   1      36.549  33.992  29.425  1.00  0.00     0.010 A 
ATOM     32  C   UNL A   1      35.091  33.256  31.227  1.00  0.00     0.010 A 
ATOM     33  C   UNL A   1      36.367  33.367  30.658  1.00  0.00    -0.014 A 
BRANCH  33  34
ATOM     34  C   UNL A   1      37.527  32.745  31.307  1.00  0.00     0.031 A 
ATOM     35  C   UNL A   1      38.257  31.644  30.606  1.00  0.00     0.074 A 
ATOM     36  C   UNL A   1      37.907  33.209  32.507  1.00  0.00     0.049 A 
ATOM     37  N   UNL A   1      39.200  30.864  31.059  1.00  0.00    -0.248 NA
ATOM     38  C   UNL A   1      37.867  31.379  29.212  1.00  0.00     0.031 C 
ATOM     39  C   UNL A   1      37.275  34.328  33.210  1.00  0.00     0.029 A 
ATOM     40  N   UNL A   1      38.902  32.798  33.345  1.00  0.00    -0.354 N 
ATOM     41  C   UNL A   1      39.486  29.984  30.025  1.00  0.00     0.074 A 
ATOM     42  C   UNL A   1      38.626  30.333  28.914  1.00  0.00     0.031 C 
ATOM     43  C   UNL A   1      37.894  34.506  34.386  1.00  0.00     0.029 A 
ATOM     44  C   UNL A   1      38.922  33.483  34.532  1.00  0.00     0.049 A 
ATOM     45  H   UNL A   1      39.541  32.084  33.121  1.00  0.00     0.167 HD
ATOM     46  C   UNL A   1      40.383  28.970  30.026  1.00  0.00     0.037 A 
ATOM     47  C   UNL A   1      39.666  33.269  35.631  1.00  0.00     0.037 A 
ATOM     48  C   UNL A   1      41.235  28.674  31.149  1.00  0.00     0.049 A 
ATOM     49  C   UNL A   1      40.656  32.141  35.604  1.00  0.00     0.074 A 
ATOM     50  C   UNL A   1      42.178  27.671  31.283  1.00  0.00     0.029 A 
ATOM     51  N   UNL A   1      41.249  29.400  32.334  1.00  0.00    -0.354 N 
ATOM     52  N   UNL A   1      40.891  31.275  34.646  1.00  0.00    -0.248 NA
ATOM     53  C   UNL A   1      41.480  31.958  36.802  1.00  0.00     0.031 C 
ATOM     54  C   UNL A   1      42.743  27.776  32.561  1.00  0.00     0.029 A 
ATOM     55  C   UNL A   1      42.183  28.869  33.206  1.00  0.00     0.049 A 
ATOM     56  H   UNL A   1      40.677  30.179  32.525  1.00  0.00     0.167 HD
ATOM     57  C   UNL A   1      41.899  30.449  35.116  1.00  0.00     0.074 A 
ATOM     58  C   UNL A   1      42.242  30.934  36.441  1.00  0.00     0.031 C 
ATOM     59  C   UNL A   1      42.488  29.387  34.516  1.00  0.00     0.037 A 
BRANCH  46  60
ATOM     60  C   UNL A   1      40.446  28.093  28.812  1.00  0.00     0.064 A 
ATOM     61  C   UNL A   1      39.743  26.881  28.731  1.00  0.00     0.173 A 
ATOM     62  C   UNL A   1      41.214  28.478  27.701  1.00  0.00     0.173 A 
ATOM     63  F   UNL A   1      39.009  26.457  29.770  1.00  0.00    -0.203 F 
ATOM     64  C   UNL A   1      39.822  26.081  27.593  1.00  0.00     0.198 A 
ATOM     65  C   UNL A   1      41.271  27.688  26.556  1.00  0.00     0.198 A 
ATOM     66  F   UNL A   1      41.908  29.626  27.726  1.00  0.00    -0.203 F 
ATOM     67  F   UNL A   1      39.175  24.908  27.553  1.00  0.00    -0.200 F 
ATOM     68  C   UNL A   1      40.580  26.487  26.505  1.00  0.00     0.200 A 
ATOM     69  F   UNL A   1      41.998  28.087  25.504  1.00  0.00    -0.200 F 
ATOM     70  F   UNL A   1      40.651  25.718  25.409  1.00  0.00    -0.200 F 
ENDBRANCH  46  60
BRANCH  47  71
ATOM     71  C   UNL A   1      39.478  34.136  36.818  1.00  0.00     0.064 A 
ATOM     72  C   UNL A   1      38.696  33.714  37.900  1.00  0.00     0.173 A 
ATOM     73  C   UNL A   1      40.131  35.373  36.924  1.00  0.00     0.173 A 
ATOM     74  F   UNL A   1      38.044  32.544  37.839  1.00  0.00    -0.203 F 
ATOM     75  C   UNL A   1      38.571  34.499  39.044  1.00  0.00     0.198 A 
ATOM     76  C   UNL A   1      40.027  36.145  38.079  1.00  0.00     0.198 A 
ATOM     77  F   UNL A   1      40.902  35.815  35.920  1.00  0.00    -0.203 F 
ATOM     78  F   UNL A   1      37.801  34.081  40.059  1.00  0.00    -0.200 F 
ATOM     79  C   UNL A   1      39.245  35.708  39.137  1.00  0.00     0.200 A 
ATOM     80  F   UNL A   1      40.696  37.301  38.173  1.00  0.00    -0.200 F 
ATOM     81  F   UNL A   1      39.141  36.452  40.247  1.00  0.00    -0.200 F 
ENDBRANCH  47  71
BRANCH  59  82
ATOM     82  C   UNL A   1      43.576  28.707  35.287  1.00  0.00     0.064 A 
ATOM     83  C   UNL A   1      44.924  29.042  35.100  1.00  0.00     0.173 A 
ATOM     84  C   UNL A   1      43.260  27.723  36.235  1.00  0.00     0.173 A 
ATOM     85  F   UNL A   1      45.270  29.965  34.191  1.00  0.00    -0.203 F 
ATOM     86  C   UNL A   1      45.923  28.394  35.819  1.00  0.00     0.198 A 
ATOM     87  C   UNL A   1      44.260  27.096  36.970  1.00  0.00     0.198 A 
ATOM     88  F   UNL A   1      41.982  27.375  36.450  1.00  0.00    -0.203 F 
ATOM     89  F   UNL A   1      47.209  28.693  35.592  1.00  0.00    -0.200 F 
ATOM     90  C   UNL A   1      45.591  27.425  36.754  1.00  0.00     0.200 A 
ATOM     91  F   UNL A   1      43.938  26.165  37.879  1.00  0.00    -0.200 F 
ATOM     92  F   UNL A   1      46.555  26.800  37.445  1.00  0.00    -0.200 F 
ENDBRANCH  59  82
ENDBRANCH  33  34
ENDBRANCH  26  28
ENDBRANCH  25  26
ENDBRANCH  24  25
ENDBRANCH   1  24
TORSDOF 14
ENDMDL
MODEL 2
REMARK VINA RESULT:     -14.0      1.380      3.556
REMARK SMILES CO[C@H]1C[C@@H](C(=O)OCCOC(=O)c2ccc(-c3c4nc(c(-c5c(F)c(F)c(F)c(F)c5F)c5ccc([nH]5)c(-c5c(F)c(F)c(F)c(F)c5F)c5nc(c(-c6c(F)c(F)c(F)c(F)c6F)c6ccc3[nH]6)C=C5)C=C4)cc2)N(C(=O)Nc2cc(C)cc(F)c2)C1
REMARK SMILES IDX 9 1 8 2 6 3 7 4 5 5 3 6 4 7 89 8 77 9 2 10 1 11 78 12 79 13
REMARK SMILES IDX 80 14 81 16 82 17 88 18 83 19 86 20 84 21 85 22 87 23 10 24
REMARK SMILES IDX 11 25 12 26 13 27 14 28 15 29 76 30 16 31 75 32 17 33 18 34
REMARK SMILES IDX 19 35 69 36 20 37 74 38 68 39 70 40 21 41 73 42 67 43 66 44
REMARK SMILES IDX 22 46 54 47 34 48 53 49 35 50 38 51 52 52 71 53 36 54 37 55
REMARK SMILES IDX 51 57 72 58 39 59 23 60 24 61 32 62 25 63 26 64 30 65 33 66
REMARK SMILES IDX 27 67 28 68 31 69 29 70 55 71 56 72 64 73 57 74 58 75 62 76
REMARK SMILES IDX 65 77 59 78 60 79 63 80 61 81 40 82 41 83 49 84 42 85 43 86
REMARK SMILES IDX 47 87 50 88 44 89 45 90 48 91 46 92
REMARK H PARENT 80 15 70 45 38 56
REMARK Flexibility Score: inf
ROOT
ATOM      1  C   UNL A   1      32.289  30.567  26.911  1.00  0.00     0.274 C 
ENDROOT
BRANCH   1   2
ATOM      2  O   UNL A   1      32.582  29.845  25.685  1.00  0.00    -0.461 OA
BRANCH   2   3
ATOM      3  C   UNL A   1      33.557  28.897  25.772  1.00  0.00     0.329 C 
ATOM      4  O   UNL A   1      34.566  29.023  26.461  1.00  0.00    -0.250 OA
BRANCH   3   5
ATOM      5  C   UNL A   1      33.156  27.535  25.151  1.00  0.00     0.199 C 
ATOM      6  C   UNL A   1      33.550  25.177  25.179  1.00  0.00     0.140 C 
ATOM      7  C   UNL A   1      33.634  26.407  26.074  1.00  0.00     0.071 C 
ATOM      8  C   UNL A   1      34.038  25.747  23.848  1.00  0.00     0.154 C 
ATOM      9  N   UNL A   1      33.553  27.126  23.811  1.00  0.00    -0.308 N 
BRANCH   6  10
ATOM     10  O   UNL A   1      34.311  24.031  25.529  1.00  0.00    -0.380 OA
ATOM     11  C   UNL A   1      33.643  22.785  25.453  1.00  0.00     0.195 C 
ENDBRANCH   6  10
BRANCH   9  12
ATOM     12  C   UNL A   1      33.333  27.669  22.596  1.00  0.00     0.322 C 
ATOM     13  O   UNL A   1      34.266  27.744  21.782  1.00  0.00    -0.248 OA
ATOM     14  N   UNL A   1      32.192  28.214  22.167  1.00  0.00    -0.308 N 
ATOM     15  H   UNL A   1      32.365  28.694  21.325  1.00  0.00     0.171 HD
BRANCH  14  16
ATOM     16  C   UNL A   1      30.840  28.345  22.492  1.00  0.00     0.046 A 
ATOM     17  C   UNL A   1      30.124  29.937  21.892  1.00  0.00     0.029 A 
ATOM     18  C   UNL A   1      29.761  27.151  23.355  1.00  0.00     0.065 A 
ATOM     19  C   UNL A   1      28.339  30.254  22.119  1.00  0.00    -0.046 A 
ATOM     20  C   UNL A   1      28.009  27.538  23.643  1.00  0.00     0.125 A 
ATOM     21  C   UNL A   1      27.671  31.347  21.346  1.00  0.00     0.044 C 
ATOM     22  C   UNL A   1      27.296  29.062  22.998  1.00  0.00     0.042 A 
ATOM     23  F   UNL A   1      27.226  26.641  24.261  1.00  0.00    -0.207 F 
ENDBRANCH  14  16
ENDBRANCH   9  12
ENDBRANCH   3   5
ENDBRANCH   2   3
ENDBRANCH   1   2
BRANCH   1  24
ATOM     24  C   UNL A   1      31.464  31.854  26.638  1.00  0.00     0.275 C 
BRANCH  24  25
ATOM     25  O   UNL A   1      32.266  33.269  27.199  1.00  0.00    -0.458 OA
BRANCH  25  26
ATOM     26  C   UNL A   1      32.957  34.487  28.418  1.00  0.00     0.338 C 
ATOM     27  O   UNL A   1      32.476  35.615  28.741  1.00  0.00    -0.246 OA
BRANCH  26  28
ATOM     28  C   UNL A   1      34.147  34.343  29.358  1.00  0.00     0.060 A 
ATOM     29  C   UNL A   1      35.446  34.547  28.854  1.00  0.00     0.016 A 
ATOM     30  C   UNL A   1      33.971  33.596  30.531  1.00  0.00     0.016 A 
ATOM     31  C   UNL A   1      36.554  34.084  29.540  1.00  0.00     0.010 A 
ATOM     32  C   UNL A   1      35.082  33.108  31.212  1.00  0.00     0.010 A 
ATOM     33  C   UNL A   1      36.368  33.340  30.704  1.00  0.00    -0.014 A 
BRANCH  33  34
ATOM     34  C   UNL A   1      37.540  32.726  31.339  1.00  0.00     0.031 A 
ATOM     35  C   UNL A   1      38.276  31.639  30.623  1.00  0.00     0.074 A 
ATOM     36  C   UNL A   1      37.924  33.184  32.540  1.00  0.00     0.049 A 
ATOM     37  N   UNL A   1      39.232  30.865  31.062  1.00  0.00    -0.248 NA
ATOM     38  C   UNL A   1      37.878  31.381  29.229  1.00  0.00     0.031 C 
ATOM     39  C   UNL A   1      37.285  34.289  33.257  1.00  0.00     0.029 A 
ATOM     40  N   UNL A   1      38.931  32.777  33.366  1.00  0.00    -0.354 N 
ATOM     41  C   UNL A   1      39.519  29.997  30.017  1.00  0.00     0.074 A 
ATOM     42  C   UNL A   1      38.646  30.346  28.917  1.00  0.00     0.031 C 
ATOM     43  C   UNL A   1      37.912  34.465  34.430  1.00  0.00     0.029 A 
ATOM     44  C   UNL A   1      38.952  33.451  34.559  1.00  0.00     0.049 A 
ATOM     45  H   UNL A   1      39.575  32.072  33.131  1.00  0.00     0.167 HD
ATOM     46  C   UNL A   1      40.426  28.994  30.003  1.00  0.00     0.037 A 
ATOM     47  C   UNL A   1      39.708  33.237  35.649  1.00  0.00     0.037 A 
ATOM     48  C   UNL A   1      41.291  28.697  31.117  1.00  0.00     0.049 A 
ATOM     49  C   UNL A   1      40.710  32.120  35.605  1.00  0.00     0.074 A 
ATOM     50  C   UNL A   1      42.246  27.704  31.235  1.00  0.00     0.029 A 
ATOM     51  N   UNL A   1      41.307  29.414  32.307  1.00  0.00    -0.354 N 
ATOM     52  N   UNL A   1      40.947  31.265  34.638  1.00  0.00    -0.248 NA
ATOM     53  C   UNL A   1      41.545  31.937  36.795  1.00  0.00     0.031 C 
ATOM     54  C   UNL A   1      42.820  27.805  32.508  1.00  0.00     0.029 A 
ATOM     55  C   UNL A   1      42.254  28.885  33.168  1.00  0.00     0.049 A 
ATOM     56  H   UNL A   1      40.728  30.185  32.509  1.00  0.00     0.167 HD
ATOM     57  C   UNL A   1      41.968  30.447  35.093  1.00  0.00     0.074 A 
ATOM     58  C   UNL A   1      42.316  30.924  36.420  1.00  0.00     0.031 C 
ATOM     59  C   UNL A   1      42.564  29.396  34.479  1.00  0.00     0.037 A 
BRANCH  46  60
ATOM     60  C   UNL A   1      40.490  28.127  28.781  1.00  0.00     0.064 A 
ATOM     61  C   UNL A   1      41.263  28.473  27.662  1.00  0.00     0.173 A 
ATOM     62  C   UNL A   1      39.775  26.920  28.733  1.00  0.00     0.173 A 
ATOM     63  F   UNL A   1      41.951  29.624  27.647  1.00  0.00    -0.203 F 
ATOM     64  C   UNL A   1      41.302  27.653  26.536  1.00  0.00     0.198 A 
ATOM     65  C   UNL A   1      39.835  26.091  27.616  1.00  0.00     0.198 A 
ATOM     66  F   UNL A   1      39.018  26.542  29.774  1.00  0.00    -0.203 F 
ATOM     67  F   UNL A   1      42.015  28.023  25.463  1.00  0.00    -0.200 F 
ATOM     68  C   UNL A   1      40.594  26.460  26.516  1.00  0.00     0.200 A 
ATOM     69  F   UNL A   1      39.156  24.935  27.603  1.00  0.00    -0.200 F 
ATOM     70  F   UNL A   1      40.636  25.670  25.434  1.00  0.00    -0.200 F 
ENDBRANCH  46  60
BRANCH  47  71
ATOM     71  C   UNL A   1      39.519  34.091  36.845  1.00  0.00     0.064 A 
ATOM     72  C   UNL A   1      38.749  33.653  37.929  1.00  0.00     0.173 A 
ATOM     73  C   UNL A   1      40.162  35.334  36.958  1.00  0.00     0.173 A 
ATOM     74  F   UNL A   1      38.108  32.477  37.862  1.00  0.00    -0.203 F 
ATOM     75  C   UNL A   1      38.625  34.427  39.081  1.00  0.00     0.198 A 
ATOM     76  C   UNL A   1      40.059  36.095  38.120  1.00  0.00     0.198 A 
ATOM     77  F   UNL A   1      40.922  35.792  35.953  1.00  0.00    -0.203 F 
ATOM     78  F   UNL A   1      37.866  33.993  40.097  1.00  0.00    -0.200 F 
ATOM     79  C   UNL A   1      39.287  35.641  39.180  1.00  0.00     0.200 A 
ATOM     80  F   UNL A   1      40.717  37.257  38.220  1.00  0.00    -0.200 F 
ATOM     81  F   UNL A   1      39.185  36.374  40.297  1.00  0.00    -0.200 F 
ENDBRANCH  47  71
BRANCH  59  82
ATOM     82  C   UNL A   1      43.665  28.722  35.236  1.00  0.00     0.064 A 
ATOM     83  C   UNL A   1      43.400  27.697  36.155  1.00  0.00     0.173 A 
ATOM     84  C   UNL A   1      45.000  29.095  35.023  1.00  0.00     0.173 A 
ATOM     85  F   UNL A   1      42.136  27.321  36.401  1.00  0.00    -0.203 F 
ATOM     86  C   UNL A   1      44.435  27.087  36.857  1.00  0.00     0.198 A 
ATOM     87  C   UNL A   1      46.033  28.466  35.708  1.00  0.00     0.198 A 
ATOM     88  F   UNL A   1      45.298  30.069  34.148  1.00  0.00    -0.203 F 
ATOM     89  F   UNL A   1      44.158  26.144  37.766  1.00  0.00    -0.200 F 
ATOM     90  C   UNL A   1      45.749  27.469  36.630  1.00  0.00     0.200 A 
ATOM     91  F   UNL A   1      47.303  28.830  35.483  1.00  0.00    -0.200 F 
ATOM     92  F   UNL A   1      46.745  26.881  37.308  1.00  0.00    -0.200 F 
ENDBRANCH  59  82
ENDBRANCH  33  34
ENDBRANCH  26  28
ENDBRANCH  25  26
ENDBRANCH  24  25
ENDBRANCH   1  24
TORSDOF 14
ENDMDL
MODEL 3
REMARK VINA RESULT:     -14.0      1.383      3.167
REMARK SMILES CO[C@H]1C[C@@H](C(=O)OCCOC(=O)c2ccc(-c3c4nc(c(-c5c(F)c(F)c(F)c(F)c5F)c5ccc([nH]5)c(-c5c(F)c(F)c(F)c(F)c5F)c5nc(c(-c6c(F)c(F)c(F)c(F)c6F)c6ccc3[nH]6)C=C5)C=C4)cc2)N(C(=O)Nc2cc(C)cc(F)c2)C1
REMARK SMILES IDX 9 1 8 2 6 3 7 4 5 5 3 6 4 7 89 8 77 9 2 10 1 11 78 12 79 13
REMARK SMILES IDX 80 14 81 16 82 17 88 18 83 19 86 20 84 21 85 22 87 23 10 24
REMARK SMILES IDX 11 25 12 26 13 27 14 28 15 29 76 30 16 31 75 32 17 33 18 34
REMARK SMILES IDX 19 35 69 36 20 37 74 38 68 39 70 40 21 41 73 42 67 43 66 44
REMARK SMILES IDX 22 46 54 47 34 48 53 49 35 50 38 51 52 52 71 53 36 54 37 55
REMARK SMILES IDX 51 57 72 58 39 59 23 60 24 61 32 62 25 63 26 64 30 65 33 66
REMARK SMILES IDX 27 67 28 68 31 69 29 70 55 71 56 72 64 73 57 74 58 75 62 76
REMARK SMILES IDX 65 77 59 78 60 79 63 80 61 81 40 82 41 83 49 84 42 85 43 86
REMARK SMILES IDX 47 87 50 88 44 89 45 90 48 91 46 92
REMARK H PARENT 80 15 70 45 38 56
REMARK Flexibility Score: inf
ROOT
ATOM      1  C   UNL A   1      33.001  30.701  26.831  1.00  0.00     0.274 C 
ENDROOT
BRANCH   1   2
ATOM      2  O   UNL A   1      33.024  29.760  25.725  1.00  0.00    -0.461 OA
BRANCH   2   3
ATOM      3  C   UNL A   1      33.780  28.642  25.909  1.00  0.00     0.329 C 
ATOM      4  O   UNL A   1      34.678  28.562  26.745  1.00  0.00    -0.250 OA
BRANCH   3   5
ATOM      5  C   UNL A   1      33.234  27.392  25.175  1.00  0.00     0.199 C 
ATOM      6  C   UNL A   1      33.384  25.014  24.975  1.00  0.00     0.140 C 
ATOM      7  C   UNL A   1      33.605  26.140  25.978  1.00  0.00     0.071 C 
ATOM      8  C   UNL A   1      33.910  25.656  23.691  1.00  0.00     0.154 C 
ATOM      9  N   UNL A   1      33.569  27.074  23.794  1.00  0.00    -0.308 N 
BRANCH   6  10
ATOM     10  O   UNL A   1      34.027  23.770  25.199  1.00  0.00    -0.380 OA
ATOM     11  C   UNL A   1      33.583  22.680  24.412  1.00  0.00     0.195 C 
ENDBRANCH   6  10
BRANCH   9  12
ATOM     12  C   UNL A   1      33.389  27.749  22.640  1.00  0.00     0.322 C 
ATOM     13  O   UNL A   1      34.350  27.913  21.872  1.00  0.00    -0.248 OA
ATOM     14  N   UNL A   1      32.262  28.340  22.235  1.00  0.00    -0.308 N 
ATOM     15  H   UNL A   1      32.464  28.910  21.457  1.00  0.00     0.171 HD
BRANCH  14  16
ATOM     16  C   UNL A   1      30.900  28.435  22.525  1.00  0.00     0.046 A 
ATOM     17  C   UNL A   1      30.153  29.996  21.883  1.00  0.00     0.029 A 
ATOM     18  C   UNL A   1      29.835  27.223  23.380  1.00  0.00     0.065 A 
ATOM     19  C   UNL A   1      28.354  30.264  22.062  1.00  0.00    -0.046 A 
ATOM     20  C   UNL A   1      28.067  27.561  23.620  1.00  0.00     0.125 A 
ATOM     21  C   UNL A   1      27.673  31.324  21.256  1.00  0.00     0.044 C 
ATOM     22  C   UNL A   1      27.325  29.054  22.934  1.00  0.00     0.042 A 
ATOM     23  F   UNL A   1      27.295  26.651  24.232  1.00  0.00    -0.207 F 
ENDBRANCH  14  16
ENDBRANCH   9  12
ENDBRANCH   3   5
ENDBRANCH   2   3
ENDBRANCH   1   2
BRANCH   1  24
ATOM     24  C   UNL A   1      31.778  31.654  26.751  1.00  0.00     0.275 C 
BRANCH  24  25
ATOM     25  O   UNL A   1      32.133  33.217  27.375  1.00  0.00    -0.458 OA
BRANCH  25  26
ATOM     26  C   UNL A   1      32.945  34.501  28.442  1.00  0.00     0.338 C 
ATOM     27  O   UNL A   1      32.549  35.684  28.666  1.00  0.00    -0.246 OA
BRANCH  26  28
ATOM     28  C   UNL A   1      34.160  34.371  29.354  1.00  0.00     0.060 A 
ATOM     29  C   UNL A   1      35.448  34.474  28.794  1.00  0.00     0.016 A 
ATOM     30  C   UNL A   1      33.991  33.725  30.585  1.00  0.00     0.016 A 
ATOM     31  C   UNL A   1      36.557  34.012  29.479  1.00  0.00     0.010 A 
ATOM     32  C   UNL A   1      35.102  33.237  31.267  1.00  0.00     0.010 A 
ATOM     33  C   UNL A   1      36.379  33.368  30.703  1.00  0.00    -0.014 A 
BRANCH  33  34
ATOM     34  C   UNL A   1      37.543  32.748  31.346  1.00  0.00     0.031 A 
ATOM     35  C   UNL A   1      38.275  31.653  30.638  1.00  0.00     0.074 A 
ATOM     36  C   UNL A   1      37.924  33.208  32.547  1.00  0.00     0.049 A 
ATOM     37  N   UNL A   1      39.222  30.874  31.085  1.00  0.00    -0.248 NA
ATOM     38  C   UNL A   1      37.881  31.392  29.244  1.00  0.00     0.031 C 
ATOM     39  C   UNL A   1      37.290  34.322  33.256  1.00  0.00     0.029 A 
ATOM     40  N   UNL A   1      38.924  32.798  33.380  1.00  0.00    -0.354 N 
ATOM     41  C   UNL A   1      39.509  29.999  30.046  1.00  0.00     0.074 A 
ATOM     42  C   UNL A   1      38.644  30.350  28.940  1.00  0.00     0.031 C 
ATOM     43  C   UNL A   1      37.912  34.498  34.431  1.00  0.00     0.029 A 
ATOM     44  C   UNL A   1      38.944  33.477  34.570  1.00  0.00     0.049 A 
ATOM     45  H   UNL A   1      39.564  32.087  33.151  1.00  0.00     0.167 HD
ATOM     46  C   UNL A   1      40.409  28.989  30.041  1.00  0.00     0.037 A 
ATOM     47  C   UNL A   1      39.693  33.262  35.665  1.00  0.00     0.037 A 
ATOM     48  C   UNL A   1      41.266  28.691  31.160  1.00  0.00     0.049 A 
ATOM     49  C   UNL A   1      40.686  32.138  35.631  1.00  0.00     0.074 A 
ATOM     50  C   UNL A   1      42.213  27.692  31.287  1.00  0.00     0.029 A 
ATOM     51  N   UNL A   1      41.280  29.413  32.348  1.00  0.00    -0.354 N 
ATOM     52  N   UNL A   1      40.922  31.277  34.669  1.00  0.00    -0.248 NA
ATOM     53  C   UNL A   1      41.515  31.953  36.826  1.00  0.00     0.031 C 
ATOM     54  C   UNL A   1      42.781  27.794  32.564  1.00  0.00     0.029 A 
ATOM     55  C   UNL A   1      42.219  28.881  33.215  1.00  0.00     0.049 A 
ATOM     56  H   UNL A   1      40.706  30.189  32.544  1.00  0.00     0.167 HD
ATOM     57  C   UNL A   1      41.935  30.453  35.133  1.00  0.00     0.074 A 
ATOM     58  C   UNL A   1      42.279  30.934  36.459  1.00  0.00     0.031 C 
ATOM     59  C   UNL A   1      42.526  29.395  34.526  1.00  0.00     0.037 A 
BRANCH  46  60
ATOM     60  C   UNL A   1      40.472  28.117  28.823  1.00  0.00     0.064 A 
ATOM     61  C   UNL A   1      39.759  26.912  28.732  1.00  0.00     0.173 A 
ATOM     62  C   UNL A   1      41.250  28.501  27.719  1.00  0.00     0.173 A 
ATOM     63  F   UNL A   1      39.015  26.489  29.764  1.00  0.00    -0.203 F 
ATOM     64  C   UNL A   1      39.838  26.116  27.590  1.00  0.00     0.198 A 
ATOM     65  C   UNL A   1      41.307  27.716  26.570  1.00  0.00     0.198 A 
ATOM     66  F   UNL A   1      41.954  29.642  27.753  1.00  0.00    -0.203 F 
ATOM     67  F   UNL A   1      39.181  24.949  27.541  1.00  0.00    -0.200 F 
ATOM     68  C   UNL A   1      40.606  26.521  26.509  1.00  0.00     0.200 A 
ATOM     69  F   UNL A   1      42.044  28.114  25.524  1.00  0.00    -0.200 F 
ATOM     70  F   UNL A   1      40.677  25.757  25.410  1.00  0.00    -0.200 F 
ENDBRANCH  46  60
BRANCH  47  71
ATOM     71  C   UNL A   1      39.504  34.123  36.856  1.00  0.00     0.064 A 
ATOM     72  C   UNL A   1      38.730  33.692  37.941  1.00  0.00     0.173 A 
ATOM     73  C   UNL A   1      40.150  35.364  36.964  1.00  0.00     0.173 A 
ATOM     74  F   UNL A   1      38.086  32.518  37.878  1.00  0.00    -0.203 F 
ATOM     75  C   UNL A   1      38.607  34.472  39.088  1.00  0.00     0.198 A 
ATOM     76  C   UNL A   1      40.047  36.131  38.123  1.00  0.00     0.198 A 
ATOM     77  F   UNL A   1      40.914  35.815  35.958  1.00  0.00    -0.203 F 
ATOM     78  F   UNL A   1      37.844  34.046  40.105  1.00  0.00    -0.200 F 
ATOM     79  C   UNL A   1      39.272  35.685  39.183  1.00  0.00     0.200 A 
ATOM     80  F   UNL A   1      40.709  37.291  38.218  1.00  0.00    -0.200 F 
ATOM     81  F   UNL A   1      39.170  36.424  40.296  1.00  0.00    -0.200 F 
ENDBRANCH  47  71
BRANCH  59  82
ATOM     82  C   UNL A   1      43.619  28.716  35.292  1.00  0.00     0.064 A 
ATOM     83  C   UNL A   1      44.960  29.097  35.144  1.00  0.00     0.173 A 
ATOM     84  C   UNL A   1      43.314  27.687  36.194  1.00  0.00     0.173 A 
ATOM     85  F   UNL A   1      45.296  30.065  34.279  1.00  0.00    -0.203 F 
ATOM     86  C   UNL A   1      45.964  28.449  35.856  1.00  0.00     0.198 A 
ATOM     87  C   UNL A   1      44.318  27.059  36.922  1.00  0.00     0.198 A 
ATOM     88  F   UNL A   1      42.043  27.295  36.369  1.00  0.00    -0.203 F 
ATOM     89  F   UNL A   1      47.244  28.794  35.667  1.00  0.00    -0.200 F 
ATOM     90  C   UNL A   1      45.642  27.435  36.747  1.00  0.00     0.200 A 
ATOM     91  F   UNL A   1      44.007  26.085  37.788  1.00  0.00    -0.200 F 
ATOM     92  F   UNL A   1      46.612  26.811  37.431  1.00  0.00    -0.200 F 
ENDBRANCH  59  82
ENDBRANCH  33  34
ENDBRANCH  26  28
ENDBRANCH  25  26
ENDBRANCH  24  25
ENDBRANCH   1  24
TORSDOF 14
ENDMDL
