MODEL 1
REMARK VINA RESULT:     -11.9      0.000      0.000
REMARK SMILES COc1ncccc1CC1(C(=O)OCCOC(=O)c2ccc(-c3c4nc(c(-c5c(F)c(F)c(F)c(F)c5F)c5ccc([nH]5)c(-c5c(F)c(F)c(F)c(F)c5F)c5nc(c(-c6c(F)c(F)c(F)c(F)c6F)c6ccc3[nH]6)C=C5)C=C4)cc2)CCC(C)(C)CC1
REMARK SMILES IDX 14 1 13 2 11 3 12 4 10 5 82 6 88 7 83 8 87 9 84 10 85 11
REMARK SMILES IDX 86 12 9 13 8 14 3 15 4 16 5 17 7 18 6 19 2 20 1 21 15 22
REMARK SMILES IDX 16 23 17 24 18 25 19 26 20 27 81 28 21 29 80 30 22 31 23 32
REMARK SMILES IDX 24 33 74 34 25 35 79 36 73 37 75 38 26 39 78 40 72 41 71 42
REMARK SMILES IDX 27 44 59 45 39 46 58 47 40 48 43 49 57 50 76 51 41 52 42 53
REMARK SMILES IDX 56 55 77 56 44 57 28 58 29 59 37 60 30 61 31 62 35 63 38 64
REMARK SMILES IDX 32 65 33 66 36 67 34 68 60 69 61 70 69 71 62 72 63 73 67 74
REMARK SMILES IDX 70 75 64 76 65 77 68 78 66 79 45 80 46 81 54 82 47 83 48 84
REMARK SMILES IDX 52 85 55 86 49 87 50 88 53 89 51 90
REMARK H PARENT 75 43 43 54
REMARK Flexibility Score: inf
ROOT
ATOM      1  C   UNL A   1      32.209  28.976  23.744  1.00  0.00     0.274 C 
ENDROOT
BRANCH   1   2
ATOM      2  O   UNL A   1      33.298  28.092  24.088  1.00  0.00    -0.462 OA
BRANCH   2   3
ATOM      3  C   UNL A   1      33.446  26.978  23.324  1.00  0.00     0.312 C 
ATOM      4  O   UNL A   1      33.861  26.986  22.170  1.00  0.00    -0.252 OA
BRANCH   3   5
ATOM      5  C   UNL A   1      33.081  25.666  24.065  1.00  0.00     0.072 C 
ATOM      6  C   UNL A   1      31.725  25.232  23.466  1.00  0.00     0.019 C 
ATOM      7  C   UNL A   1      32.920  25.904  25.582  1.00  0.00     0.019 C 
ATOM      8  C   UNL A   1      30.962  24.147  24.225  1.00  0.00     0.007 C 
ATOM      9  C   UNL A   1      32.252  24.757  26.336  1.00  0.00     0.007 C 
ATOM     10  C   UNL A   1      30.893  24.330  25.752  1.00  0.00    -0.035 C 
ATOM     11  C   UNL A   1      30.494  22.981  26.386  1.00  0.00     0.011 C 
ATOM     12  C   UNL A   1      29.811  25.367  26.104  1.00  0.00     0.011 C 
BRANCH   5  13
ATOM     13  C   UNL A   1      34.281  24.733  23.708  1.00  0.00     0.060 C 
BRANCH  13  14
ATOM     14  C   UNL A   1      34.498  23.390  24.348  1.00  0.00     0.015 A 
ATOM     15  C   UNL A   1      35.427  23.202  25.373  1.00  0.00     0.216 A 
ATOM     16  N   UNL A   1      35.654  22.027  26.000  1.00  0.00    -0.222 NA
ATOM     17  C   UNL A   1      34.936  20.968  25.567  1.00  0.00     0.115 A 
ATOM     18  C   UNL A   1      33.834  22.251  23.889  1.00  0.00     0.011 A 
ATOM     19  C   UNL A   1      34.037  21.025  24.514  1.00  0.00     0.021 A 
BRANCH  15  20
ATOM     20  O   UNL A   1      36.295  24.232  25.652  1.00  0.00    -0.481 OA
ATOM     21  C   UNL A   1      37.620  23.766  25.855  1.00  0.00     0.280 C 
ENDBRANCH  15  20
ENDBRANCH  13  14
ENDBRANCH   5  13
ENDBRANCH   3   5
ENDBRANCH   2   3
ENDBRANCH   1   2
BRANCH   1  22
ATOM     22  C   UNL A   1      31.714  29.702  24.991  1.00  0.00     0.275 C 
BRANCH  22  23
ATOM     23  O   UNL A   1      32.670  29.507  26.045  1.00  0.00    -0.458 OA
BRANCH  23  24
ATOM     24  C   UNL A   1      33.028  30.621  26.729  1.00  0.00     0.338 C 
ATOM     25  O   UNL A   1      32.347  31.610  26.929  1.00  0.00    -0.246 OA
BRANCH  24  26
ATOM     26  C   UNL A   1      34.402  30.463  27.254  1.00  0.00     0.060 A 
ATOM     27  C   UNL A   1      34.987  29.202  27.330  1.00  0.00     0.016 A 
ATOM     28  C   UNL A   1      35.065  31.563  27.795  1.00  0.00     0.016 A 
ATOM     29  C   UNL A   1      36.145  29.011  28.082  1.00  0.00     0.010 A 
ATOM     30  C   UNL A   1      36.302  31.389  28.427  1.00  0.00     0.010 A 
ATOM     31  C   UNL A   1      36.833  30.102  28.633  1.00  0.00    -0.014 A 
BRANCH  31  32
ATOM     32  C   UNL A   1      38.058  29.901  29.465  1.00  0.00     0.031 A 
ATOM     33  C   UNL A   1      39.236  29.134  28.911  1.00  0.00     0.074 A 
ATOM     34  C   UNL A   1      38.152  30.413  30.709  1.00  0.00     0.049 A 
ATOM     35  N   UNL A   1      40.289  28.662  29.534  1.00  0.00    -0.248 NA
ATOM     36  C   UNL A   1      39.215  28.836  27.471  1.00  0.00     0.031 C 
ATOM     37  C   UNL A   1      37.129  31.215  31.381  1.00  0.00     0.029 A 
ATOM     38  N   UNL A   1      39.173  30.352  31.628  1.00  0.00    -0.354 N 
ATOM     39  C   UNL A   1      41.003  27.940  28.583  1.00  0.00     0.074 A 
ATOM     40  C   UNL A   1      40.271  28.046  27.339  1.00  0.00     0.031 C 
ATOM     41  C   UNL A   1      37.602  31.638  32.563  1.00  0.00     0.029 A 
ATOM     42  C   UNL A   1      38.921  31.054  32.781  1.00  0.00     0.049 A 
ATOM     43  H   UNL A   1      40.007  29.853  31.473  1.00  0.00     0.167 HD
ATOM     44  C   UNL A   1      42.160  27.253  28.735  1.00  0.00     0.037 A 
ATOM     45  C   UNL A   1      39.651  31.192  33.904  1.00  0.00     0.037 A 
ATOM     46  C   UNL A   1      42.946  27.230  29.942  1.00  0.00     0.049 A 
ATOM     47  C   UNL A   1      40.953  30.455  34.038  1.00  0.00     0.074 A 
ATOM     48  C   UNL A   1      44.129  26.557  30.195  1.00  0.00     0.029 A 
ATOM     49  N   UNL A   1      42.648  27.953  31.087  1.00  0.00    -0.354 N 
ATOM     50  N   UNL A   1      41.555  29.678  33.174  1.00  0.00    -0.248 NA
ATOM     51  C   UNL A   1      41.661  30.593  35.320  1.00  0.00     0.031 C 
ATOM     52  C   UNL A   1      44.543  26.865  31.496  1.00  0.00     0.029 A 
ATOM     53  C   UNL A   1      43.630  27.752  32.043  1.00  0.00     0.049 A 
ATOM     54  H   UNL A   1      41.854  28.525  31.204  1.00  0.00     0.167 HD
ATOM     55  C   UNL A   1      42.709  29.234  33.801  1.00  0.00     0.074 A 
ATOM     56  C   UNL A   1      42.739  29.851  35.112  1.00  0.00     0.031 C 
ATOM     57  C   UNL A   1      43.652  28.378  33.338  1.00  0.00     0.037 A 
BRANCH  44  58
ATOM     58  C   UNL A   1      42.637  26.434  27.572  1.00  0.00     0.064 A 
ATOM     59  C   UNL A   1      43.607  26.904  26.677  1.00  0.00     0.173 A 
ATOM     60  C   UNL A   1      42.133  25.138  27.373  1.00  0.00     0.173 A 
ATOM     61  F   UNL A   1      44.113  28.138  26.816  1.00  0.00    -0.203 F 
ATOM     62  C   UNL A   1      44.038  26.117  25.611  1.00  0.00     0.198 A 
ATOM     63  C   UNL A   1      42.584  24.345  26.322  1.00  0.00     0.198 A 
ATOM     64  F   UNL A   1      41.208  24.637  28.207  1.00  0.00    -0.203 F 
ATOM     65  F   UNL A   1      44.936  26.602  24.742  1.00  0.00    -0.200 F 
ATOM     66  C   UNL A   1      43.530  24.838  25.438  1.00  0.00     0.200 A 
ATOM     67  F   UNL A   1      42.102  23.104  26.164  1.00  0.00    -0.200 F 
ATOM     68  F   UNL A   1      43.951  24.081  24.415  1.00  0.00    -0.200 F 
ENDBRANCH  44  58
BRANCH  45  69
ATOM     69  C   UNL A   1      39.155  32.057  35.006  1.00  0.00     0.064 A 
ATOM     70  C   UNL A   1      38.451  31.505  36.085  1.00  0.00     0.173 A 
ATOM     71  C   UNL A   1      39.382  33.440  35.012  1.00  0.00     0.173 A 
ATOM     72  F   UNL A   1      38.186  30.190  36.108  1.00  0.00    -0.203 F 
ATOM     73  C   UNL A   1      37.991  32.305  37.128  1.00  0.00     0.198 A 
ATOM     74  C   UNL A   1      38.945  34.235  36.069  1.00  0.00     0.198 A 
ATOM     75  F   UNL A   1      40.048  34.016  34.001  1.00  0.00    -0.203 F 
ATOM     76  F   UNL A   1      37.291  31.757  38.131  1.00  0.00    -0.200 F 
ATOM     77  C   UNL A   1      38.246  33.667  37.124  1.00  0.00     0.200 A 
ATOM     78  F   UNL A   1      39.205  35.550  36.067  1.00  0.00    -0.200 F 
ATOM     79  F   UNL A   1      37.813  34.436  38.133  1.00  0.00    -0.200 F 
ENDBRANCH  45  69
BRANCH  57  80
ATOM     80  C   UNL A   1      44.807  28.082  34.247  1.00  0.00     0.064 A 
ATOM     81  C   UNL A   1      44.774  27.001  35.139  1.00  0.00     0.173 A 
ATOM     82  C   UNL A   1      45.960  28.879  34.215  1.00  0.00     0.173 A 
ATOM     83  F   UNL A   1      43.685  26.222  35.216  1.00  0.00    -0.203 F 
ATOM     84  C   UNL A   1      45.849  26.743  35.986  1.00  0.00     0.198 A 
ATOM     85  C   UNL A   1      47.040  28.607  35.049  1.00  0.00     0.198 A 
ATOM     86  F   UNL A   1      46.037  29.923  33.377  1.00  0.00    -0.203 F 
ATOM     87  F   UNL A   1      45.781  25.731  36.862  1.00  0.00    -0.200 F 
ATOM     88  C   UNL A   1      46.981  27.543  35.938  1.00  0.00     0.200 A 
ATOM     89  F   UNL A   1      48.135  29.377  35.000  1.00  0.00    -0.200 F 
ATOM     90  F   UNL A   1      48.012  27.296  36.758  1.00  0.00    -0.200 F 
ENDBRANCH  57  80
ENDBRANCH  31  32
ENDBRANCH  24  26
ENDBRANCH  23  24
ENDBRANCH  22  23
ENDBRANCH   1  22
TORSDOF 14
ENDMDL
MODEL 2
REMARK VINA RESULT:     -11.9      1.036      2.155
REMARK SMILES COc1ncccc1CC1(C(=O)OCCOC(=O)c2ccc(-c3c4nc(c(-c5c(F)c(F)c(F)c(F)c5F)c5ccc([nH]5)c(-c5c(F)c(F)c(F)c(F)c5F)c5nc(c(-c6c(F)c(F)c(F)c(F)c6F)c6ccc3[nH]6)C=C5)C=C4)cc2)CCC(C)(C)CC1
REMARK SMILES IDX 14 1 13 2 11 3 12 4 10 5 82 6 88 7 83 8 87 9 84 10 85 11
REMARK SMILES IDX 86 12 9 13 8 14 3 15 4 16 5 17 7 18 6 19 2 20 1 21 15 22
REMARK SMILES IDX 16 23 17 24 18 25 19 26 20 27 81 28 21 29 80 30 22 31 23 32
REMARK SMILES IDX 24 33 74 34 25 35 79 36 73 37 75 38 26 39 78 40 72 41 71 42
REMARK SMILES IDX 27 44 59 45 39 46 58 47 40 48 43 49 57 50 76 51 41 52 42 53
REMARK SMILES IDX 56 55 77 56 44 57 28 58 29 59 37 60 30 61 31 62 35 63 38 64
REMARK SMILES IDX 32 65 33 66 36 67 34 68 60 69 61 70 69 71 62 72 63 73 67 74
REMARK SMILES IDX 70 75 64 76 65 77 68 78 66 79 45 80 46 81 54 82 47 83 48 84
REMARK SMILES IDX 52 85 55 86 49 87 50 88 53 89 51 90
REMARK H PARENT 75 43 43 54
REMARK Flexibility Score: inf
ROOT
ATOM      1  C   UNL A   1      32.889  28.593  23.250  1.00  0.00     0.274 C 
ENDROOT
BRANCH   1   2
ATOM      2  O   UNL A   1      33.676  27.453  23.656  1.00  0.00    -0.462 OA
BRANCH   2   3
ATOM      3  C   UNL A   1      33.628  26.358  22.851  1.00  0.00     0.312 C 
ATOM      4  O   UNL A   1      33.663  26.405  21.625  1.00  0.00    -0.252 OA
BRANCH   3   5
ATOM      5  C   UNL A   1      33.568  25.019  23.628  1.00  0.00     0.072 C 
ATOM      6  C   UNL A   1      34.132  25.343  25.029  1.00  0.00     0.019 C 
ATOM      7  C   UNL A   1      34.446  23.941  22.958  1.00  0.00     0.019 C 
ATOM      8  C   UNL A   1      34.495  24.149  25.910  1.00  0.00     0.007 C 
ATOM      9  C   UNL A   1      34.704  22.708  23.820  1.00  0.00     0.007 C 
ATOM     10  C   UNL A   1      35.281  23.024  25.212  1.00  0.00    -0.035 C 
ATOM     11  C   UNL A   1      35.183  21.752  26.079  1.00  0.00     0.011 C 
ATOM     12  C   UNL A   1      36.765  23.418  25.098  1.00  0.00     0.011 C 
BRANCH   5  13
ATOM     13  C   UNL A   1      32.043  24.681  23.600  1.00  0.00     0.060 C 
BRANCH  13  14
ATOM     14  C   UNL A   1      31.309  24.091  24.772  1.00  0.00     0.015 A 
ATOM     15  C   UNL A   1      30.611  24.886  25.682  1.00  0.00     0.216 A 
ATOM     16  N   UNL A   1      29.917  24.416  26.741  1.00  0.00    -0.222 NA
ATOM     17  C   UNL A   1      29.940  23.078  26.926  1.00  0.00     0.115 A 
ATOM     18  C   UNL A   1      31.361  22.723  25.047  1.00  0.00     0.011 A 
ATOM     19  C   UNL A   1      30.655  22.201  26.125  1.00  0.00     0.021 A 
BRANCH  15  20
ATOM     20  O   UNL A   1      30.776  26.249  25.604  1.00  0.00    -0.481 OA
ATOM     21  C   UNL A   1      31.407  26.773  26.763  1.00  0.00     0.280 C 
ENDBRANCH  15  20
ENDBRANCH  13  14
ENDBRANCH   5  13
ENDBRANCH   3   5
ENDBRANCH   2   3
ENDBRANCH   1   2
BRANCH   1  22
ATOM     22  C   UNL A   1      32.362  29.326  24.479  1.00  0.00     0.275 C 
BRANCH  22  23
ATOM     23  O   UNL A   1      33.477  29.703  25.302  1.00  0.00    -0.458 OA
BRANCH  23  24
ATOM     24  C   UNL A   1      33.193  30.534  26.333  1.00  0.00     0.338 C 
ATOM     25  O   UNL A   1      32.224  31.263  26.444  1.00  0.00    -0.246 OA
BRANCH  24  26
ATOM     26  C   UNL A   1      34.240  30.416  27.371  1.00  0.00     0.060 A 
ATOM     27  C   UNL A   1      35.089  31.486  27.642  1.00  0.00     0.016 A 
ATOM     28  C   UNL A   1      34.463  29.187  27.990  1.00  0.00     0.016 A 
ATOM     29  C   UNL A   1      36.246  31.290  28.395  1.00  0.00     0.010 A 
ATOM     30  C   UNL A   1      35.548  29.033  28.862  1.00  0.00     0.010 A 
ATOM     31  C   UNL A   1      36.491  30.064  29.032  1.00  0.00    -0.014 A 
BRANCH  31  32
ATOM     32  C   UNL A   1      37.743  29.840  29.816  1.00  0.00     0.031 A 
ATOM     33  C   UNL A   1      38.889  29.063  29.213  1.00  0.00     0.074 A 
ATOM     34  C   UNL A   1      37.889  30.341  31.060  1.00  0.00     0.049 A 
ATOM     35  N   UNL A   1      39.958  28.571  29.794  1.00  0.00    -0.248 NA
ATOM     36  C   UNL A   1      38.811  28.777  27.772  1.00  0.00     0.031 C 
ATOM     37  C   UNL A   1      36.902  31.151  31.775  1.00  0.00     0.029 A 
ATOM     38  N   UNL A   1      38.942  30.260  31.940  1.00  0.00    -0.354 N 
ATOM     39  C   UNL A   1      40.627  27.849  28.811  1.00  0.00     0.074 A 
ATOM     40  C   UNL A   1      39.851  27.974  27.596  1.00  0.00     0.031 C 
ATOM     41  C   UNL A   1      37.424  31.557  32.942  1.00  0.00     0.029 A 
ATOM     42  C   UNL A   1      38.742  30.955  33.107  1.00  0.00     0.049 A 
ATOM     43  H   UNL A   1      39.764  29.751  31.751  1.00  0.00     0.167 HD
ATOM     44  C   UNL A   1      41.780  27.145  28.915  1.00  0.00     0.037 A 
ATOM     45  C   UNL A   1      39.515  31.074  34.204  1.00  0.00     0.037 A 
ATOM     46  C   UNL A   1      42.609  27.102  30.092  1.00  0.00     0.049 A 
ATOM     47  C   UNL A   1      40.811  30.319  34.283  1.00  0.00     0.074 A 
ATOM     48  C   UNL A   1      43.791  26.411  30.296  1.00  0.00     0.029 A 
ATOM     49  N   UNL A   1      42.362  27.819  31.253  1.00  0.00    -0.354 N 
ATOM     50  N   UNL A   1      41.370  29.542  33.391  1.00  0.00    -0.248 NA
ATOM     51  C   UNL A   1      41.567  30.437  35.539  1.00  0.00     0.031 C 
ATOM     52  C   UNL A   1      44.257  26.704  31.584  1.00  0.00     0.029 A 
ATOM     53  C   UNL A   1      43.377  27.598  32.170  1.00  0.00     0.049 A 
ATOM     54  H   UNL A   1      41.581  28.401  31.403  1.00  0.00     0.167 HD
ATOM     55  C   UNL A   1      42.541  29.077  33.973  1.00  0.00     0.074 A 
ATOM     56  C   UNL A   1      42.627  29.683  35.286  1.00  0.00     0.031 C 
ATOM     57  C   UNL A   1      43.455  28.213  33.469  1.00  0.00     0.037 A 
BRANCH  44  58
ATOM     58  C   UNL A   1      42.203  26.330  27.729  1.00  0.00     0.064 A 
ATOM     59  C   UNL A   1      43.157  26.787  26.812  1.00  0.00     0.173 A 
ATOM     60  C   UNL A   1      41.661  25.048  27.530  1.00  0.00     0.173 A 
ATOM     61  F   UNL A   1      43.696  28.008  26.950  1.00  0.00    -0.203 F 
ATOM     62  C   UNL A   1      43.537  26.004  25.724  1.00  0.00     0.198 A 
ATOM     63  C   UNL A   1      42.062  24.258  26.457  1.00  0.00     0.198 A 
ATOM     64  F   UNL A   1      40.750  24.559  28.385  1.00  0.00    -0.203 F 
ATOM     65  F   UNL A   1      44.421  26.478  24.835  1.00  0.00    -0.200 F 
ATOM     66  C   UNL A   1      42.994  24.739  25.551  1.00  0.00     0.200 A 
ATOM     67  F   UNL A   1      41.546  23.031  26.299  1.00  0.00    -0.200 F 
ATOM     68  F   UNL A   1      43.367  23.985  24.507  1.00  0.00    -0.200 F 
ENDBRANCH  44  58
BRANCH  45  69
ATOM     69  C   UNL A   1      39.071  31.936  35.329  1.00  0.00     0.064 A 
ATOM     70  C   UNL A   1      38.345  31.395  36.400  1.00  0.00     0.173 A 
ATOM     71  C   UNL A   1      39.371  33.305  35.367  1.00  0.00     0.173 A 
ATOM     72  F   UNL A   1      38.011  30.096  36.392  1.00  0.00    -0.203 F 
ATOM     73  C   UNL A   1      37.933  32.192  37.465  1.00  0.00     0.198 A 
ATOM     74  C   UNL A   1      38.982  34.096  36.447  1.00  0.00     0.198 A 
ATOM     75  F   UNL A   1      40.059  33.870  34.366  1.00  0.00    -0.203 F 
ATOM     76  F   UNL A   1      37.212  31.657  38.460  1.00  0.00    -0.200 F 
ATOM     77  C   UNL A   1      38.260  33.539  37.492  1.00  0.00     0.200 A 
ATOM     78  F   UNL A   1      39.310  35.395  36.475  1.00  0.00    -0.200 F 
ATOM     79  F   UNL A   1      37.874  34.304  38.522  1.00  0.00    -0.200 F 
ENDBRANCH  45  69
BRANCH  57  80
ATOM     80  C   UNL A   1      44.637  27.895  34.332  1.00  0.00     0.064 A 
ATOM     81  C   UNL A   1      44.620  26.814  35.224  1.00  0.00     0.173 A 
ATOM     82  C   UNL A   1      45.803  28.671  34.256  1.00  0.00     0.173 A 
ATOM     83  F   UNL A   1      43.521  26.054  35.342  1.00  0.00    -0.203 F 
ATOM     84  C   UNL A   1      45.722  26.535  36.028  1.00  0.00     0.198 A 
ATOM     85  C   UNL A   1      46.910  28.377  35.047  1.00  0.00     0.198 A 
ATOM     86  F   UNL A   1      45.866  29.714  33.416  1.00  0.00    -0.203 F 
ATOM     87  F   UNL A   1      45.669  25.523  36.905  1.00  0.00    -0.200 F 
ATOM     88  C   UNL A   1      46.865  27.314  35.937  1.00  0.00     0.200 A 
ATOM     89  F   UNL A   1      48.016  29.128  34.957  1.00  0.00    -0.200 F 
ATOM     90  F   UNL A   1      47.923  27.046  36.716  1.00  0.00    -0.200 F 
ENDBRANCH  57  80
ENDBRANCH  31  32
ENDBRANCH  24  26
ENDBRANCH  23  24
ENDBRANCH  22  23
ENDBRANCH   1  22
TORSDOF 14
ENDMDL
MODEL 3
REMARK VINA RESULT:     -11.9      1.354      2.070
REMARK SMILES COc1ncccc1CC1(C(=O)OCCOC(=O)c2ccc(-c3c4nc(c(-c5c(F)c(F)c(F)c(F)c5F)c5ccc([nH]5)c(-c5c(F)c(F)c(F)c(F)c5F)c5nc(c(-c6c(F)c(F)c(F)c(F)c6F)c6ccc3[nH]6)C=C5)C=C4)cc2)CCC(C)(C)CC1
REMARK SMILES IDX 14 1 13 2 11 3 12 4 10 5 82 6 88 7 83 8 87 9 84 10 85 11
REMARK SMILES IDX 86 12 9 13 8 14 3 15 4 16 5 17 7 18 6 19 2 20 1 21 15 22
REMARK SMILES IDX 16 23 17 24 18 25 19 26 20 27 81 28 21 29 80 30 22 31 23 32
REMARK SMILES IDX 24 33 74 34 25 35 79 36 73 37 75 38 26 39 78 40 72 41 71 42
REMARK SMILES IDX 27 44 59 45 39 46 58 47 40 48 43 49 57 50 76 51 41 52 42 53
REMARK SMILES IDX 56 55 77 56 44 57 28 58 29 59 37 60 30 61 31 62 35 63 38 64
REMARK SMILES IDX 32 65 33 66 36 67 34 68 60 69 61 70 69 71 62 72 63 73 67 74
REMARK SMILES IDX 70 75 64 76 65 77 68 78 66 79 45 80 46 81 54 82 47 83 48 84
REMARK SMILES IDX 52 85 55 86 49 87 50 88 53 89 51 90
REMARK H PARENT 75 43 43 54
REMARK Flexibility Score: inf
ROOT
ATOM      1  C   UNL A   1      31.239  29.719  24.646  1.00  0.00     0.274 C 
ENDROOT
BRANCH   1   2
ATOM      2  O   UNL A   1      31.033  28.379  25.143  1.00  0.00    -0.462 OA
BRANCH   2   3
ATOM      3  C   UNL A   1      30.664  27.439  24.233  1.00  0.00     0.312 C 
ATOM      4  O   UNL A   1      29.745  27.581  23.433  1.00  0.00    -0.252 OA
BRANCH   3   5
ATOM      5  C   UNL A   1      31.546  26.165  24.264  1.00  0.00     0.072 C 
ATOM      6  C   UNL A   1      32.864  26.574  23.570  1.00  0.00     0.019 C 
ATOM      7  C   UNL A   1      30.891  25.009  23.480  1.00  0.00     0.019 C 
ATOM      8  C   UNL A   1      33.802  25.438  23.168  1.00  0.00     0.007 C 
ATOM      9  C   UNL A   1      31.822  23.836  23.185  1.00  0.00     0.007 C 
ATOM     10  C   UNL A   1      33.130  24.236  22.480  1.00  0.00    -0.035 C 
ATOM     11  C   UNL A   1      34.100  23.037  22.538  1.00  0.00     0.011 C 
ATOM     12  C   UNL A   1      32.860  24.566  21.000  1.00  0.00     0.011 C 
BRANCH   5  13
ATOM     13  C   UNL A   1      31.674  25.882  25.795  1.00  0.00     0.060 C 
BRANCH  13  14
ATOM     14  C   UNL A   1      32.274  24.620  26.351  1.00  0.00     0.015 A 
ATOM     15  C   UNL A   1      31.489  23.624  26.935  1.00  0.00     0.216 A 
ATOM     16  N   UNL A   1      31.964  22.463  27.433  1.00  0.00    -0.222 NA
ATOM     17  C   UNL A   1      33.302  22.289  27.375  1.00  0.00     0.115 A 
ATOM     18  C   UNL A   1      33.656  24.424  26.380  1.00  0.00     0.011 A 
ATOM     19  C   UNL A   1      34.182  23.238  26.879  1.00  0.00     0.021 A 
BRANCH  15  20
ATOM     20  O   UNL A   1      30.165  23.909  27.178  1.00  0.00    -0.481 OA
ATOM     21  C   UNL A   1      29.377  22.731  27.257  1.00  0.00     0.280 C 
ENDBRANCH  15  20
ENDBRANCH  13  14
ENDBRANCH   5  13
ENDBRANCH   3   5
ENDBRANCH   2   3
ENDBRANCH   1   2
BRANCH   1  22
ATOM     22  C   UNL A   1      31.316  30.700  25.810  1.00  0.00     0.275 C 
BRANCH  22  23
ATOM     23  O   UNL A   1      32.520  30.442  26.550  1.00  0.00    -0.458 OA
BRANCH  23  24
ATOM     24  C   UNL A   1      33.099  31.521  27.129  1.00  0.00     0.338 C 
ATOM     25  O   UNL A   1      32.621  32.634  27.251  1.00  0.00    -0.246 OA
BRANCH  24  26
ATOM     26  C   UNL A   1      34.433  31.151  27.649  1.00  0.00     0.060 A 
ATOM     27  C   UNL A   1      34.744  29.820  27.914  1.00  0.00     0.016 A 
ATOM     28  C   UNL A   1      35.339  32.152  27.999  1.00  0.00     0.016 A 
ATOM     29  C   UNL A   1      35.872  29.499  28.667  1.00  0.00     0.010 A 
ATOM     30  C   UNL A   1      36.543  31.812  28.629  1.00  0.00     0.010 A 
ATOM     31  C   UNL A   1      36.801  30.487  29.027  1.00  0.00    -0.014 A 
BRANCH  31  32
ATOM     32  C   UNL A   1      37.997  30.153  29.859  1.00  0.00     0.031 A 
ATOM     33  C   UNL A   1      39.127  29.338  29.276  1.00  0.00     0.074 A 
ATOM     34  C   UNL A   1      38.107  30.588  31.132  1.00  0.00     0.049 A 
ATOM     35  N   UNL A   1      40.134  28.759  29.883  1.00  0.00    -0.248 NA
ATOM     36  C   UNL A   1      39.106  29.123  27.821  1.00  0.00     0.031 C 
ATOM     37  C   UNL A   1      37.133  31.421  31.836  1.00  0.00     0.029 A 
ATOM     38  N   UNL A   1      39.108  30.404  32.057  1.00  0.00    -0.354 N 
ATOM     39  C   UNL A   1      40.810  28.043  28.900  1.00  0.00     0.074 A 
ATOM     40  C   UNL A   1      40.106  28.270  27.656  1.00  0.00     0.031 C 
ATOM     41  C   UNL A   1      37.616  31.742  33.046  1.00  0.00     0.029 A 
ATOM     42  C   UNL A   1      38.888  31.056  33.245  1.00  0.00     0.049 A 
ATOM     43  H   UNL A   1      39.907  29.857  31.883  1.00  0.00     0.167 HD
ATOM     44  C   UNL A   1      41.915  27.269  29.025  1.00  0.00     0.037 A 
ATOM     45  C   UNL A   1      39.609  31.080  34.382  1.00  0.00     0.037 A 
ATOM     46  C   UNL A   1      42.679  27.123  30.238  1.00  0.00     0.049 A 
ATOM     47  C   UNL A   1      40.855  30.246  34.488  1.00  0.00     0.074 A 
ATOM     48  C   UNL A   1      43.808  26.355  30.465  1.00  0.00     0.029 A 
ATOM     49  N   UNL A   1      42.415  27.800  31.418  1.00  0.00    -0.354 N 
ATOM     50  N   UNL A   1      41.414  29.479  33.587  1.00  0.00    -0.248 NA
ATOM     51  C   UNL A   1      41.551  30.262  35.783  1.00  0.00     0.031 C 
ATOM     52  C   UNL A   1      44.223  26.560  31.786  1.00  0.00     0.029 A 
ATOM     53  C   UNL A   1      43.366  27.478  32.372  1.00  0.00     0.049 A 
ATOM     54  H   UNL A   1      41.661  28.419  31.559  1.00  0.00     0.167 HD
ATOM     55  C   UNL A   1      42.525  28.920  34.201  1.00  0.00     0.074 A 
ATOM     56  C   UNL A   1      42.578  29.459  35.545  1.00  0.00     0.031 C 
ATOM     57  C   UNL A   1      43.413  28.027  33.701  1.00  0.00     0.037 A 
BRANCH  44  58
ATOM     58  C   UNL A   1      42.351  26.484  27.823  1.00  0.00     0.064 A 
ATOM     59  C   UNL A   1      43.342  26.949  26.949  1.00  0.00     0.173 A 
ATOM     60  C   UNL A   1      41.784  25.225  27.564  1.00  0.00     0.173 A 
ATOM     61  F   UNL A   1      43.906  28.150  27.145  1.00  0.00    -0.203 F 
ATOM     62  C   UNL A   1      43.733  26.195  25.844  1.00  0.00     0.198 A 
ATOM     63  C   UNL A   1      42.196  24.462  26.475  1.00  0.00     0.198 A 
ATOM     64  F   UNL A   1      40.838  24.730  28.375  1.00  0.00    -0.203 F 
ATOM     65  F   UNL A   1      44.652  26.677  24.997  1.00  0.00    -0.200 F 
ATOM     66  C   UNL A   1      43.164  24.951  25.612  1.00  0.00     0.200 A 
ATOM     67  F   UNL A   1      41.655  23.255  26.259  1.00  0.00    -0.200 F 
ATOM     68  F   UNL A   1      43.547  24.225  24.553  1.00  0.00    -0.200 F 
ENDBRANCH  44  58
BRANCH  45  69
ATOM     69  C   UNL A   1      39.158  31.914  35.525  1.00  0.00     0.064 A 
ATOM     70  C   UNL A   1      38.337  31.373  36.524  1.00  0.00     0.173 A 
ATOM     71  C   UNL A   1      39.545  33.256  35.652  1.00  0.00     0.173 A 
ATOM     72  F   UNL A   1      37.919  30.102  36.430  1.00  0.00    -0.203 F 
ATOM     73  C   UNL A   1      37.917  32.143  37.605  1.00  0.00     0.198 A 
ATOM     74  C   UNL A   1      39.146  34.018  36.749  1.00  0.00     0.198 A 
ATOM     75  F   UNL A   1      40.327  33.820  34.722  1.00  0.00    -0.203 F 
ATOM     76  F   UNL A   1      37.104  31.611  38.529  1.00  0.00    -0.200 F 
ATOM     77  C   UNL A   1      38.329  33.462  37.722  1.00  0.00     0.200 A 
ATOM     78  F   UNL A   1      39.558  35.288  36.863  1.00  0.00    -0.200 F 
ATOM     79  F   UNL A   1      37.935  34.200  38.768  1.00  0.00    -0.200 F 
ENDBRANCH  45  69
BRANCH  57  80
ATOM     80  C   UNL A   1      44.530  27.601  34.604  1.00  0.00     0.064 A 
ATOM     81  C   UNL A   1      44.409  26.477  35.434  1.00  0.00     0.173 A 
ATOM     82  C   UNL A   1      45.737  28.313  34.628  1.00  0.00     0.173 A 
ATOM     83  F   UNL A   1      43.266  25.774  35.456  1.00  0.00    -0.203 F 
ATOM     84  C   UNL A   1      45.450  26.097  36.277  1.00  0.00     0.198 A 
ATOM     85  C   UNL A   1      46.783  27.920  35.457  1.00  0.00     0.198 A 
ATOM     86  F   UNL A   1      45.899  29.394  33.850  1.00  0.00    -0.203 F 
ATOM     87  F   UNL A   1      45.298  25.046  37.094  1.00  0.00    -0.200 F 
ATOM     88  C   UNL A   1      46.636  26.816  36.285  1.00  0.00     0.200 A 
ATOM     89  F   UNL A   1      47.930  28.612  35.463  1.00  0.00    -0.200 F 
ATOM     90  F   UNL A   1      47.635  26.451  37.101  1.00  0.00    -0.200 F 
ENDBRANCH  57  80
ENDBRANCH  31  32
ENDBRANCH  24  26
ENDBRANCH  23  24
ENDBRANCH  22  23
ENDBRANCH   1  22
TORSDOF 14
ENDMDL
