MODEL 1
REMARK VINA RESULT:     -11.7      0.000      0.000
REMARK SMILES C[C@H]([NH2+][C@@H]1CC(=O)N(C)C1=O)[C@H](C)C(=O)OCCOC(=O)c1ccc(-c2c3nc(c(-c4c(F)c(F)c(F)c(F)c4F)c4ccc([nH]4)c(-c4c(F)c(F)c(F)c(F)c4F)c4nc(c(-c5c(F)c(F)c(F)c(F)c5F)c5ccc2[nH]5)C=C4)C=C3)cc1
REMARK SMILES IDX 17 1 16 2 14 3 15 4 12 5 13 6 2 7 1 8 3 9 4 12 5 13 10 14
REMARK SMILES IDX 6 15 8 16 11 17 7 18 9 19 18 20 19 21 20 22 21 23 22 24
REMARK SMILES IDX 23 25 84 26 24 27 83 28 25 29 26 30 27 31 77 32 28 33 82 34
REMARK SMILES IDX 76 35 78 36 29 37 81 38 75 39 74 40 30 42 62 43 42 44 61 45
REMARK SMILES IDX 43 46 46 47 60 48 79 49 44 50 45 51 59 53 80 54 47 55 31 56
REMARK SMILES IDX 32 57 40 58 33 59 34 60 38 61 41 62 35 63 36 64 39 65 37 66
REMARK SMILES IDX 63 67 64 68 72 69 65 70 66 71 70 72 73 73 67 74 68 75 71 76
REMARK SMILES IDX 69 77 48 78 49 79 57 80 50 81 51 82 55 83 58 84 52 85 53 86
REMARK SMILES IDX 56 87 54 88
REMARK H PARENT 3 10 3 11 78 41 46 52
REMARK Flexibility Score: inf
ROOT
ATOM      1  C   UNL A   1      32.002  28.605  26.297  1.00  0.00     0.274 C 
ENDROOT
BRANCH   1   2
ATOM      2  O   UNL A   1      30.859  28.046  25.620  1.00  0.00    -0.462 OA
BRANCH   2   3
ATOM      3  C   UNL A   1      31.066  26.901  24.913  1.00  0.00     0.314 C 
ATOM      4  O   UNL A   1      31.910  26.053  25.164  1.00  0.00    -0.252 OA
BRANCH   3   5
ATOM      5  C   UNL A   1      30.084  26.786  23.756  1.00  0.00     0.154 C 
ATOM      6  C   UNL A   1      28.712  26.352  24.273  1.00  0.00     0.026 C 
BRANCH   5   7
ATOM      7  C   UNL A   1      30.121  28.036  22.838  1.00  0.00     0.194 C 
ATOM      8  C   UNL A   1      31.525  28.517  22.456  1.00  0.00     0.076 C 
BRANCH   7   9
ATOM      9  N   UNL A   1      29.197  29.102  23.255  1.00  0.00    -0.333 N 
ATOM     10  H   UNL A   1      29.211  29.124  24.274  1.00  0.00     0.347 HD
ATOM     11  H   UNL A   1      28.318  28.842  22.806  1.00  0.00     0.347 HD
BRANCH   9  12
ATOM     12  C   UNL A   1      29.418  30.476  22.797  1.00  0.00     0.282 C 
ATOM     13  C   UNL A   1      29.046  31.601  23.752  1.00  0.00     0.176 C 
ATOM     14  C   UNL A   1      28.557  30.827  21.583  1.00  0.00     0.287 C 
ATOM     15  C   UNL A   1      28.689  32.722  22.829  1.00  0.00     0.235 C 
ATOM     16  N   UNL A   1      28.306  32.175  21.640  1.00  0.00    -0.280 N 
ATOM     17  O   UNL A   1      28.193  30.062  20.702  1.00  0.00    -0.267 OA
ATOM     18  O   UNL A   1      28.658  33.899  23.151  1.00  0.00    -0.274 OA
ATOM     19  C   UNL A   1      27.681  32.919  20.578  1.00  0.00     0.156 C 
ENDBRANCH   9  12
ENDBRANCH   7   9
ENDBRANCH   5   7
ENDBRANCH   3   5
ENDBRANCH   2   3
ENDBRANCH   1   2
BRANCH   1  20
ATOM     20  C   UNL A   1      31.843  30.123  26.356  1.00  0.00     0.275 C 
BRANCH  20  21
ATOM     21  O   UNL A   1      33.150  30.721  26.288  1.00  0.00    -0.458 OA
BRANCH  21  22
ATOM     22  C   UNL A   1      33.424  31.671  27.208  1.00  0.00     0.338 C 
ATOM     23  O   UNL A   1      32.755  32.652  27.488  1.00  0.00    -0.246 OA
BRANCH  22  24
ATOM     24  C   UNL A   1      34.709  31.349  27.852  1.00  0.00     0.060 A 
ATOM     25  C   UNL A   1      35.699  32.326  27.987  1.00  0.00     0.016 A 
ATOM     26  C   UNL A   1      34.947  30.048  28.294  1.00  0.00     0.016 A 
ATOM     27  C   UNL A   1      36.935  32.007  28.536  1.00  0.00     0.010 A 
ATOM     28  C   UNL A   1      36.153  29.752  28.930  1.00  0.00     0.010 A 
ATOM     29  C   UNL A   1      37.156  30.729  29.061  1.00  0.00    -0.014 A 
BRANCH  29  30
ATOM     30  C   UNL A   1      38.404  30.423  29.801  1.00  0.00     0.031 A 
ATOM     31  C   UNL A   1      39.417  29.486  29.216  1.00  0.00     0.074 A 
ATOM     32  C   UNL A   1      38.595  30.951  31.026  1.00  0.00     0.049 A 
ATOM     33  N   UNL A   1      40.436  28.905  29.793  1.00  0.00    -0.248 NA
ATOM     34  C   UNL A   1      39.255  29.148  27.794  1.00  0.00     0.031 C 
ATOM     35  C   UNL A   1      37.705  31.910  31.684  1.00  0.00     0.029 A 
ATOM     36  N   UNL A   1      39.591  30.740  31.946  1.00  0.00    -0.354 N 
ATOM     37  C   UNL A   1      41.012  28.100  28.821  1.00  0.00     0.074 A 
ATOM     38  C   UNL A   1      40.229  28.266  27.615  1.00  0.00     0.031 C 
ATOM     39  C   UNL A   1      38.195  32.208  32.896  1.00  0.00     0.029 A 
ATOM     40  C   UNL A   1      39.381  31.395  33.134  1.00  0.00     0.049 A 
ATOM     41  H   UNL A   1      40.378  30.174  31.772  1.00  0.00     0.167 HD
ATOM     42  C   UNL A   1      42.093  27.291  28.936  1.00  0.00     0.037 A 
ATOM     43  C   UNL A   1      40.032  31.304  34.310  1.00  0.00     0.037 A 
ATOM     44  C   UNL A   1      42.879  27.160  30.134  1.00  0.00     0.049 A 
ATOM     45  C   UNL A   1      41.183  30.348  34.431  1.00  0.00     0.074 A 
ATOM     46  C   UNL A   1      44.014  26.396  30.345  1.00  0.00     0.029 A 
ATOM     47  N   UNL A   1      42.611  27.814  31.329  1.00  0.00    -0.354 N 
ATOM     48  N   UNL A   1      41.703  29.564  33.520  1.00  0.00    -0.248 NA
ATOM     49  C   UNL A   1      41.819  30.245  35.751  1.00  0.00     0.031 C 
ATOM     50  C   UNL A   1      44.408  26.557  31.679  1.00  0.00     0.029 A 
ATOM     51  C   UNL A   1      43.542  27.450  32.288  1.00  0.00     0.049 A 
ATOM     52  H   UNL A   1      41.868  28.444  31.473  1.00  0.00     0.167 HD
ATOM     53  C   UNL A   1      42.728  28.875  34.151  1.00  0.00     0.074 A 
ATOM     54  C   UNL A   1      42.771  29.353  35.519  1.00  0.00     0.031 C 
ATOM     55  C   UNL A   1      43.555  27.928  33.646  1.00  0.00     0.037 A 
BRANCH  42  56
ATOM     56  C   UNL A   1      42.467  26.457  27.747  1.00  0.00     0.064 A 
ATOM     57  C   UNL A   1      43.442  26.870  26.830  1.00  0.00     0.173 A 
ATOM     58  C   UNL A   1      41.865  25.205  27.549  1.00  0.00     0.173 A 
ATOM     59  F   UNL A   1      44.037  28.065  26.967  1.00  0.00    -0.203 F 
ATOM     60  C   UNL A   1      43.788  26.068  25.744  1.00  0.00     0.198 A 
ATOM     61  C   UNL A   1      42.230  24.395  26.476  1.00  0.00     0.198 A 
ATOM     62  F   UNL A   1      40.927  24.763  28.400  1.00  0.00    -0.203 F 
ATOM     63  F   UNL A   1      44.696  26.498  24.858  1.00  0.00    -0.200 F 
ATOM     64  C   UNL A   1      43.187  24.829  25.572  1.00  0.00     0.200 A 
ATOM     65  F   UNL A   1      41.654  23.195  26.317  1.00  0.00    -0.200 F 
ATOM     66  F   UNL A   1      43.526  24.057  24.531  1.00  0.00    -0.200 F 
ENDBRANCH  42  56
BRANCH  43  67
ATOM     67  C   UNL A   1      39.563  32.096  35.475  1.00  0.00     0.064 A 
ATOM     68  C   UNL A   1      40.042  33.392  35.706  1.00  0.00     0.173 A 
ATOM     69  C   UNL A   1      38.612  31.582  36.370  1.00  0.00     0.173 A 
ATOM     70  F   UNL A   1      40.971  33.915  34.891  1.00  0.00    -0.203 F 
ATOM     71  C   UNL A   1      39.595  34.141  36.791  1.00  0.00     0.198 A 
ATOM     72  C   UNL A   1      38.143  32.344  37.439  1.00  0.00     0.198 A 
ATOM     73  F   UNL A   1      38.122  30.347  36.194  1.00  0.00    -0.203 F 
ATOM     74  F   UNL A   1      40.096  35.365  37.010  1.00  0.00    -0.200 F 
ATOM     75  C   UNL A   1      38.639  33.621  37.651  1.00  0.00     0.200 A 
ATOM     76  F   UNL A   1      37.210  31.841  38.259  1.00  0.00    -0.200 F 
ATOM     77  F   UNL A   1      38.200  34.346  38.688  1.00  0.00    -0.200 F 
ENDBRANCH  43  67
BRANCH  55  78
ATOM     78  C   UNL A   1      44.577  27.355  34.580  1.00  0.00     0.064 A 
ATOM     79  C   UNL A   1      44.300  26.217  35.353  1.00  0.00     0.173 A 
ATOM     80  C   UNL A   1      45.853  27.927  34.681  1.00  0.00     0.173 A 
ATOM     81  F   UNL A   1      43.086  25.647  35.303  1.00  0.00    -0.203 F 
ATOM     82  C   UNL A   1      45.260  25.684  36.207  1.00  0.00     0.198 A 
ATOM     83  C   UNL A   1      46.819  27.378  35.519  1.00  0.00     0.198 A 
ATOM     84  F   UNL A   1      46.164  29.015  33.961  1.00  0.00    -0.203 F 
ATOM     85  F   UNL A   1      44.961  24.621  36.967  1.00  0.00    -0.200 F 
ATOM     86  C   UNL A   1      46.520  26.260  36.285  1.00  0.00     0.200 A 
ATOM     87  F   UNL A   1      48.037  27.929  35.586  1.00  0.00    -0.200 F 
ATOM     88  F   UNL A   1      47.444  25.742  37.105  1.00  0.00    -0.200 F 
ENDBRANCH  55  78
ENDBRANCH  29  30
ENDBRANCH  22  24
ENDBRANCH  21  22
ENDBRANCH  20  21
ENDBRANCH   1  20
TORSDOF 14
ENDMDL
MODEL 2
REMARK VINA RESULT:     -11.6      1.775      3.896
REMARK SMILES C[C@H]([NH2+][C@@H]1CC(=O)N(C)C1=O)[C@H](C)C(=O)OCCOC(=O)c1ccc(-c2c3nc(c(-c4c(F)c(F)c(F)c(F)c4F)c4ccc([nH]4)c(-c4c(F)c(F)c(F)c(F)c4F)c4nc(c(-c5c(F)c(F)c(F)c(F)c5F)c5ccc2[nH]5)C=C4)C=C3)cc1
REMARK SMILES IDX 17 1 16 2 14 3 15 4 12 5 13 6 2 7 1 8 3 9 4 12 5 13 10 14
REMARK SMILES IDX 6 15 8 16 11 17 7 18 9 19 18 20 19 21 20 22 21 23 22 24
REMARK SMILES IDX 23 25 84 26 24 27 83 28 25 29 26 30 27 31 77 32 28 33 82 34
REMARK SMILES IDX 76 35 78 36 29 37 81 38 75 39 74 40 30 42 62 43 42 44 61 45
REMARK SMILES IDX 43 46 46 47 60 48 79 49 44 50 45 51 59 53 80 54 47 55 31 56
REMARK SMILES IDX 32 57 40 58 33 59 34 60 38 61 41 62 35 63 36 64 39 65 37 66
REMARK SMILES IDX 63 67 64 68 72 69 65 70 66 71 70 72 73 73 67 74 68 75 71 76
REMARK SMILES IDX 69 77 48 78 49 79 57 80 50 81 51 82 55 83 58 84 52 85 53 86
REMARK SMILES IDX 56 87 54 88
REMARK H PARENT 3 10 3 11 78 41 46 52
REMARK Flexibility Score: inf
ROOT
ATOM      1  C   UNL A   1      31.142  29.518  24.622  1.00  0.00     0.274 C 
ENDROOT
BRANCH   1   2
ATOM      2  O   UNL A   1      31.935  28.710  23.732  1.00  0.00    -0.462 OA
BRANCH   2   3
ATOM      3  C   UNL A   1      31.258  27.894  22.879  1.00  0.00     0.314 C 
ATOM      4  O   UNL A   1      30.150  28.116  22.411  1.00  0.00    -0.252 OA
BRANCH   3   5
ATOM      5  C   UNL A   1      32.069  26.650  22.548  1.00  0.00     0.154 C 
ATOM      6  C   UNL A   1      33.521  27.033  22.256  1.00  0.00     0.026 C 
BRANCH   5   7
ATOM      7  C   UNL A   1      31.841  25.517  23.582  1.00  0.00     0.194 C 
ATOM      8  C   UNL A   1      30.627  24.623  23.305  1.00  0.00     0.076 C 
BRANCH   7   9
ATOM      9  N   UNL A   1      31.974  25.956  24.979  1.00  0.00    -0.333 N 
ATOM     10  H   UNL A   1      31.078  25.781  25.431  1.00  0.00     0.347 HD
ATOM     11  H   UNL A   1      32.272  26.928  24.894  1.00  0.00     0.347 HD
BRANCH   9  12
ATOM     12  C   UNL A   1      33.005  25.361  25.834  1.00  0.00     0.282 C 
ATOM     13  C   UNL A   1      34.191  24.701  25.146  1.00  0.00     0.176 C 
ATOM     14  C   UNL A   1      32.465  24.199  26.668  1.00  0.00     0.287 C 
ATOM     15  C   UNL A   1      34.600  23.644  26.121  1.00  0.00     0.235 C 
ATOM     16  N   UNL A   1      33.509  23.333  26.878  1.00  0.00    -0.280 N 
ATOM     17  O   UNL A   1      31.330  24.078  27.102  1.00  0.00    -0.267 OA
ATOM     18  O   UNL A   1      35.695  23.105  26.137  1.00  0.00    -0.274 OA
ATOM     19  C   UNL A   1      33.447  22.206  27.773  1.00  0.00     0.156 C 
ENDBRANCH   9  12
ENDBRANCH   7   9
ENDBRANCH   5   7
ENDBRANCH   3   5
ENDBRANCH   2   3
ENDBRANCH   1   2
BRANCH   1  20
ATOM     20  C   UNL A   1      31.757  29.458  26.020  1.00  0.00     0.275 C 
BRANCH  20  21
ATOM     21  O   UNL A   1      33.018  30.150  25.993  1.00  0.00    -0.458 OA
BRANCH  21  22
ATOM     22  C   UNL A   1      33.201  31.098  26.937  1.00  0.00     0.338 C 
ATOM     23  O   UNL A   1      32.458  32.025  27.217  1.00  0.00    -0.246 OA
BRANCH  22  24
ATOM     24  C   UNL A   1      34.490  30.854  27.607  1.00  0.00     0.060 A 
ATOM     25  C   UNL A   1      35.379  31.907  27.841  1.00  0.00     0.016 A 
ATOM     26  C   UNL A   1      34.834  29.554  27.977  1.00  0.00     0.016 A 
ATOM     27  C   UNL A   1      36.622  31.667  28.415  1.00  0.00     0.010 A 
ATOM     28  C   UNL A   1      36.042  29.328  28.639  1.00  0.00     0.010 A 
ATOM     29  C   UNL A   1      36.944  30.383  28.867  1.00  0.00    -0.014 A 
BRANCH  29  30
ATOM     30  C   UNL A   1      38.191  30.144  29.634  1.00  0.00     0.031 A 
ATOM     31  C   UNL A   1      39.252  29.239  29.086  1.00  0.00     0.074 A 
ATOM     32  C   UNL A   1      38.339  30.705  30.851  1.00  0.00     0.049 A 
ATOM     33  N   UNL A   1      40.285  28.713  29.691  1.00  0.00    -0.248 NA
ATOM     34  C   UNL A   1      39.128  28.865  27.668  1.00  0.00     0.031 C 
ATOM     35  C   UNL A   1      37.399  31.639  31.474  1.00  0.00     0.029 A 
ATOM     36  N   UNL A   1      39.327  30.554  31.791  1.00  0.00    -0.354 N 
ATOM     37  C   UNL A   1      40.910  27.913  28.745  1.00  0.00     0.074 A 
ATOM     38  C   UNL A   1      40.141  28.021  27.523  1.00  0.00     0.031 C 
ATOM     39  C   UNL A   1      37.855  31.982  32.687  1.00  0.00     0.029 A 
ATOM     40  C   UNL A   1      39.070  31.224  32.962  1.00  0.00     0.049 A 
ATOM     41  H   UNL A   1      40.140  30.019  31.641  1.00  0.00     0.167 HD
ATOM     42  C   UNL A   1      42.021  27.153  28.895  1.00  0.00     0.037 A 
ATOM     43  C   UNL A   1      39.704  31.185  34.149  1.00  0.00     0.037 A 
ATOM     44  C   UNL A   1      42.791  27.079  30.108  1.00  0.00     0.049 A 
ATOM     45  C   UNL A   1      40.892  30.280  34.309  1.00  0.00     0.074 A 
ATOM     46  C   UNL A   1      43.954  26.368  30.354  1.00  0.00     0.029 A 
ATOM     47  N   UNL A   1      42.476  27.746  31.284  1.00  0.00    -0.354 N 
ATOM     48  N   UNL A   1      41.459  29.500  33.423  1.00  0.00    -0.248 NA
ATOM     49  C   UNL A   1      41.509  30.231  35.641  1.00  0.00     0.031 C 
ATOM     50  C   UNL A   1      44.318  26.572  31.690  1.00  0.00     0.029 A 
ATOM     51  C   UNL A   1      43.406  27.441  32.266  1.00  0.00     0.049 A 
ATOM     52  H   UNL A   1      41.705  28.347  31.403  1.00  0.00     0.167 HD
ATOM     53  C   UNL A   1      42.501  28.868  34.085  1.00  0.00     0.074 A 
ATOM     54  C   UNL A   1      42.501  29.375  35.443  1.00  0.00     0.031 C 
ATOM     55  C   UNL A   1      43.376  27.947  33.614  1.00  0.00     0.037 A 
BRANCH  42  56
ATOM     56  C   UNL A   1      42.449  26.312  27.730  1.00  0.00     0.064 A 
ATOM     57  C   UNL A   1      43.439  26.736  26.833  1.00  0.00     0.173 A 
ATOM     58  C   UNL A   1      41.886  25.041  27.535  1.00  0.00     0.173 A 
ATOM     59  F   UNL A   1      43.998  27.949  26.968  1.00  0.00    -0.203 F 
ATOM     60  C   UNL A   1      43.836  25.927  25.770  1.00  0.00     0.198 A 
ATOM     61  C   UNL A   1      42.302  24.225  26.486  1.00  0.00     0.198 A 
ATOM     62  F   UNL A   1      40.937  24.587  28.368  1.00  0.00    -0.203 F 
ATOM     63  F   UNL A   1      44.756  26.368  24.902  1.00  0.00    -0.200 F 
ATOM     64  C   UNL A   1      43.273  24.671  25.602  1.00  0.00     0.200 A 
ATOM     65  F   UNL A   1      41.762  23.008  26.330  1.00  0.00    -0.200 F 
ATOM     66  F   UNL A   1      43.660  23.892  24.582  1.00  0.00    -0.200 F 
ENDBRANCH  42  56
BRANCH  43  67
ATOM     67  C   UNL A   1      39.183  31.981  35.289  1.00  0.00     0.064 A 
ATOM     68  C   UNL A   1      38.408  31.382  36.290  1.00  0.00     0.173 A 
ATOM     69  C   UNL A   1      39.464  33.350  35.411  1.00  0.00     0.173 A 
ATOM     70  F   UNL A   1      38.092  30.081  36.202  1.00  0.00    -0.203 F 
ATOM     71  C   UNL A   1      37.928  32.123  37.367  1.00  0.00     0.198 A 
ATOM     72  C   UNL A   1      39.007  34.084  36.504  1.00  0.00     0.198 A 
ATOM     73  F   UNL A   1      40.200  33.971  34.479  1.00  0.00    -0.203 F 
ATOM     74  F   UNL A   1      37.158  31.534  38.293  1.00  0.00    -0.200 F 
ATOM     75  C   UNL A   1      38.236  33.471  37.478  1.00  0.00     0.200 A 
ATOM     76  F   UNL A   1      39.319  35.383  36.613  1.00  0.00    -0.200 F 
ATOM     77  F   UNL A   1      37.783  34.181  38.520  1.00  0.00    -0.200 F 
ENDBRANCH  43  67
BRANCH  55  78
ATOM     78  C   UNL A   1      44.405  27.436  34.575  1.00  0.00     0.064 A 
ATOM     79  C   UNL A   1      45.608  28.125  34.789  1.00  0.00     0.173 A 
ATOM     80  C   UNL A   1      44.173  26.265  35.312  1.00  0.00     0.173 A 
ATOM     81  F   UNL A   1      45.880  29.238  34.091  1.00  0.00    -0.203 F 
ATOM     82  C   UNL A   1      46.551  27.649  35.694  1.00  0.00     0.198 A 
ATOM     83  C   UNL A   1      45.109  25.806  36.234  1.00  0.00     0.198 A 
ATOM     84  F   UNL A   1      43.037  25.574  35.143  1.00  0.00    -0.203 F 
ATOM     85  F   UNL A   1      47.712  28.301  35.853  1.00  0.00    -0.200 F 
ATOM     86  C   UNL A   1      46.299  26.494  36.421  1.00  0.00     0.200 A 
ATOM     87  F   UNL A   1      44.861  24.696  36.942  1.00  0.00    -0.200 F 
ATOM     88  F   UNL A   1      47.207  26.041  37.295  1.00  0.00    -0.200 F 
ENDBRANCH  55  78
ENDBRANCH  29  30
ENDBRANCH  22  24
ENDBRANCH  21  22
ENDBRANCH  20  21
ENDBRANCH   1  20
TORSDOF 14
ENDMDL
MODEL 3
REMARK VINA RESULT:     -11.5      1.852      3.958
REMARK SMILES C[C@H]([NH2+][C@@H]1CC(=O)N(C)C1=O)[C@H](C)C(=O)OCCOC(=O)c1ccc(-c2c3nc(c(-c4c(F)c(F)c(F)c(F)c4F)c4ccc([nH]4)c(-c4c(F)c(F)c(F)c(F)c4F)c4nc(c(-c5c(F)c(F)c(F)c(F)c5F)c5ccc2[nH]5)C=C4)C=C3)cc1
REMARK SMILES IDX 17 1 16 2 14 3 15 4 12 5 13 6 2 7 1 8 3 9 4 12 5 13 10 14
REMARK SMILES IDX 6 15 8 16 11 17 7 18 9 19 18 20 19 21 20 22 21 23 22 24
REMARK SMILES IDX 23 25 84 26 24 27 83 28 25 29 26 30 27 31 77 32 28 33 82 34
REMARK SMILES IDX 76 35 78 36 29 37 81 38 75 39 74 40 30 42 62 43 42 44 61 45
REMARK SMILES IDX 43 46 46 47 60 48 79 49 44 50 45 51 59 53 80 54 47 55 31 56
REMARK SMILES IDX 32 57 40 58 33 59 34 60 38 61 41 62 35 63 36 64 39 65 37 66
REMARK SMILES IDX 63 67 64 68 72 69 65 70 66 71 70 72 73 73 67 74 68 75 71 76
REMARK SMILES IDX 69 77 48 78 49 79 57 80 50 81 51 82 55 83 58 84 52 85 53 86
REMARK SMILES IDX 56 87 54 88
REMARK H PARENT 3 10 3 11 78 41 46 52
REMARK Flexibility Score: inf
ROOT
ATOM      1  C   UNL A   1      31.057  29.747  24.728  1.00  0.00     0.274 C 
ENDROOT
BRANCH   1   2
ATOM      2  O   UNL A   1      31.523  28.927  23.640  1.00  0.00    -0.462 OA
BRANCH   2   3
ATOM      3  C   UNL A   1      30.593  28.155  23.013  1.00  0.00     0.314 C 
ATOM      4  O   UNL A   1      30.072  28.405  21.934  1.00  0.00    -0.252 OA
BRANCH   3   5
ATOM      5  C   UNL A   1      30.285  26.902  23.819  1.00  0.00     0.154 C 
ATOM      6  C   UNL A   1      28.789  26.591  23.755  1.00  0.00     0.026 C 
BRANCH   5   7
ATOM      7  C   UNL A   1      31.255  25.740  23.478  1.00  0.00     0.194 C 
ATOM      8  C   UNL A   1      30.699  24.335  23.738  1.00  0.00     0.076 C 
BRANCH   7   9
ATOM      9  N   UNL A   1      32.628  25.957  23.958  1.00  0.00    -0.333 N 
ATOM     10  H   UNL A   1      32.569  26.614  24.735  1.00  0.00     0.347 HD
ATOM     11  H   UNL A   1      33.125  26.265  23.122  1.00  0.00     0.347 HD
BRANCH   9  12
ATOM     12  C   UNL A   1      33.424  24.818  24.425  1.00  0.00     0.282 C 
ATOM     13  C   UNL A   1      34.429  25.075  25.538  1.00  0.00     0.176 C 
ATOM     14  C   UNL A   1      34.335  24.262  23.330  1.00  0.00     0.287 C 
ATOM     15  C   UNL A   1      35.489  24.054  25.276  1.00  0.00     0.235 C 
ATOM     16  N   UNL A   1      35.437  23.732  23.952  1.00  0.00    -0.280 N 
ATOM     17  O   UNL A   1      34.110  24.252  22.130  1.00  0.00    -0.267 OA
ATOM     18  O   UNL A   1      36.305  23.677  26.103  1.00  0.00    -0.274 OA
ATOM     19  C   UNL A   1      36.441  22.952  23.275  1.00  0.00     0.156 C 
ENDBRANCH   9  12
ENDBRANCH   7   9
ENDBRANCH   5   7
ENDBRANCH   3   5
ENDBRANCH   2   3
ENDBRANCH   1   2
BRANCH   1  20
ATOM     20  C   UNL A   1      31.864  29.406  25.980  1.00  0.00     0.275 C 
BRANCH  20  21
ATOM     21  O   UNL A   1      33.099  30.145  25.941  1.00  0.00    -0.458 OA
BRANCH  21  22
ATOM     22  C   UNL A   1      33.266  31.084  26.896  1.00  0.00     0.338 C 
ATOM     23  O   UNL A   1      32.506  31.993  27.189  1.00  0.00    -0.246 OA
BRANCH  22  24
ATOM     24  C   UNL A   1      34.561  30.856  27.562  1.00  0.00     0.060 A 
ATOM     25  C   UNL A   1      35.432  31.922  27.804  1.00  0.00     0.016 A 
ATOM     26  C   UNL A   1      34.928  29.559  27.917  1.00  0.00     0.016 A 
ATOM     27  C   UNL A   1      36.679  31.698  28.373  1.00  0.00     0.010 A 
ATOM     28  C   UNL A   1      36.141  29.348  28.574  1.00  0.00     0.010 A 
ATOM     29  C   UNL A   1      37.025  30.415  28.812  1.00  0.00    -0.014 A 
BRANCH  29  30
ATOM     30  C   UNL A   1      38.278  30.191  29.573  1.00  0.00     0.031 A 
ATOM     31  C   UNL A   1      39.340  29.285  29.028  1.00  0.00     0.074 A 
ATOM     32  C   UNL A   1      38.431  30.766  30.782  1.00  0.00     0.049 A 
ATOM     33  N   UNL A   1      40.379  28.771  29.633  1.00  0.00    -0.248 NA
ATOM     34  C   UNL A   1      39.210  28.895  27.616  1.00  0.00     0.031 C 
ATOM     35  C   UNL A   1      37.490  31.702  31.402  1.00  0.00     0.029 A 
ATOM     36  N   UNL A   1      39.425  30.630  31.718  1.00  0.00    -0.354 N 
ATOM     37  C   UNL A   1      41.002  27.963  28.692  1.00  0.00     0.074 A 
ATOM     38  C   UNL A   1      40.226  28.054  27.474  1.00  0.00     0.031 C 
ATOM     39  C   UNL A   1      37.952  32.060  32.608  1.00  0.00     0.029 A 
ATOM     40  C   UNL A   1      39.173  31.312  32.883  1.00  0.00     0.049 A 
ATOM     41  H   UNL A   1      40.240  30.097  31.570  1.00  0.00     0.167 HD
ATOM     42  C   UNL A   1      42.118  27.210  28.843  1.00  0.00     0.037 A 
ATOM     43  C   UNL A   1      39.814  31.289  34.067  1.00  0.00     0.037 A 
ATOM     44  C   UNL A   1      42.896  27.154  30.053  1.00  0.00     0.049 A 
ATOM     45  C   UNL A   1      41.006  30.391  34.230  1.00  0.00     0.074 A 
ATOM     46  C   UNL A   1      44.063  26.451  30.299  1.00  0.00     0.029 A 
ATOM     47  N   UNL A   1      42.585  27.832  31.223  1.00  0.00    -0.354 N 
ATOM     48  N   UNL A   1      41.572  29.604  33.349  1.00  0.00    -0.248 NA
ATOM     49  C   UNL A   1      41.632  30.360  35.558  1.00  0.00     0.031 C 
ATOM     50  C   UNL A   1      44.435  26.671  31.630  1.00  0.00     0.029 A 
ATOM     51  C   UNL A   1      43.521  27.542  32.203  1.00  0.00     0.049 A 
ATOM     52  H   UNL A   1      41.811  28.430  31.340  1.00  0.00     0.167 HD
ATOM     53  C   UNL A   1      42.621  28.985  34.011  1.00  0.00     0.074 A 
ATOM     54  C   UNL A   1      42.627  29.506  35.363  1.00  0.00     0.031 C 
ATOM     55  C   UNL A   1      43.498  28.062  33.544  1.00  0.00     0.037 A 
BRANCH  42  56
ATOM     56  C   UNL A   1      42.543  26.358  27.685  1.00  0.00     0.064 A 
ATOM     57  C   UNL A   1      41.972  25.102  27.440  1.00  0.00     0.173 A 
ATOM     58  C   UNL A   1      43.511  26.829  26.783  1.00  0.00     0.173 A 
ATOM     59  F   UNL A   1      41.053  24.601  28.280  1.00  0.00    -0.203 F 
ATOM     60  C   UNL A   1      42.369  24.337  26.344  1.00  0.00     0.198 A 
ATOM     61  C   UNL A   1      43.887  26.073  25.676  1.00  0.00     0.198 A 
ATOM     62  F   UNL A   1      44.086  28.026  26.973  1.00  0.00    -0.203 F 
ATOM     63  F   UNL A   1      41.838  23.123  26.149  1.00  0.00    -0.200 F 
ATOM     64  C   UNL A   1      43.320  24.826  25.460  1.00  0.00     0.200 A 
ATOM     65  F   UNL A   1      44.800  26.551  24.820  1.00  0.00    -0.200 F 
ATOM     66  F   UNL A   1      43.695  24.092  24.403  1.00  0.00    -0.200 F 
ENDBRANCH  42  56
BRANCH  43  67
ATOM     67  C   UNL A   1      39.295  32.094  35.202  1.00  0.00     0.064 A 
ATOM     68  C   UNL A   1      38.491  31.513  36.190  1.00  0.00     0.173 A 
ATOM     69  C   UNL A   1      39.608  33.456  35.331  1.00  0.00     0.173 A 
ATOM     70  F   UNL A   1      38.145  30.220  36.094  1.00  0.00    -0.203 F 
ATOM     71  C   UNL A   1      38.014  32.263  37.262  1.00  0.00     0.198 A 
ATOM     72  C   UNL A   1      39.154  34.199  36.419  1.00  0.00     0.198 A 
ATOM     73  F   UNL A   1      40.373  34.061  34.412  1.00  0.00    -0.203 F 
ATOM     74  F   UNL A   1      37.217  31.691  38.175  1.00  0.00    -0.200 F 
ATOM     75  C   UNL A   1      38.353  33.603  37.381  1.00  0.00     0.200 A 
ATOM     76  F   UNL A   1      39.496  35.490  36.536  1.00  0.00    -0.200 F 
ATOM     77  F   UNL A   1      37.903  34.321  38.418  1.00  0.00    -0.200 F 
ENDBRANCH  43  67
BRANCH  55  78
ATOM     78  C   UNL A   1      44.535  27.567  34.506  1.00  0.00     0.064 A 
ATOM     79  C   UNL A   1      45.742  28.256  34.693  1.00  0.00     0.173 A 
ATOM     80  C   UNL A   1      44.308  26.411  35.267  1.00  0.00     0.173 A 
ATOM     81  F   UNL A   1      46.010  29.355  33.972  1.00  0.00    -0.203 F 
ATOM     82  C   UNL A   1      46.693  27.795  35.598  1.00  0.00     0.198 A 
ATOM     83  C   UNL A   1      45.251  25.966  36.188  1.00  0.00     0.198 A 
ATOM     84  F   UNL A   1      43.168  25.720  35.122  1.00  0.00    -0.203 F 
ATOM     85  F   UNL A   1      47.857  28.446  35.733  1.00  0.00    -0.200 F 
ATOM     86  C   UNL A   1      46.445  26.655  36.349  1.00  0.00     0.200 A 
ATOM     87  F   UNL A   1      45.007  24.871  36.919  1.00  0.00    -0.200 F 
ATOM     88  F   UNL A   1      47.361  26.216  37.223  1.00  0.00    -0.200 F 
ENDBRANCH  55  78
ENDBRANCH  29  30
ENDBRANCH  22  24
ENDBRANCH  21  22
ENDBRANCH  20  21
ENDBRANCH   1  20
TORSDOF 14
ENDMDL
