MODEL 1
REMARK VINA RESULT:     -11.2      0.000      0.000
REMARK SMILES O=C(Cn1cc(C(=O)C(F)(F)F)c2ccccc21)OCCOC(=O)c1ccc(-c2c3nc(c(-c4c(F)c(F)c(F)c(F)c4F)c4ccc([nH]4)c(-c4c(F)c(F)c(F)c(F)c4F)c4nc(c(-c5c(F)c(F)c(F)c(F)c5F)c5ccc2[nH]5)C=C4)C=C3)cc1
REMARK SMILES IDX 20 1 19 2 2 3 1 4 3 5 4 6 5 7 18 8 6 9 13 10 17 11 14 12
REMARK SMILES IDX 16 13 15 14 7 15 8 16 9 17 10 18 11 19 12 20 21 21 22 22
REMARK SMILES IDX 23 23 24 24 25 25 26 26 87 27 27 28 86 29 28 30 29 31 30 32
REMARK SMILES IDX 80 33 31 34 85 35 79 36 81 37 32 38 84 39 78 40 77 41 33 43
REMARK SMILES IDX 65 44 45 45 64 46 46 47 49 48 63 49 82 50 47 51 48 52 62 54
REMARK SMILES IDX 83 55 50 56 34 57 35 58 43 59 36 60 37 61 41 62 44 63 38 64
REMARK SMILES IDX 39 65 42 66 40 67 66 68 67 69 75 70 68 71 69 72 73 73 76 74
REMARK SMILES IDX 70 75 71 76 74 77 72 78 51 79 52 80 60 81 53 82 54 83 58 84
REMARK SMILES IDX 61 85 55 86 56 87 59 88 57 89
REMARK H PARENT 81 42 49 53
REMARK Flexibility Score: inf
ROOT
ATOM      1  C   UNL A   1      34.481  34.343  29.473  1.00  0.00     0.274 C 
ENDROOT
BRANCH   1   2
ATOM      2  O   UNL A   1      34.121  33.475  30.567  1.00  0.00    -0.461 OA
BRANCH   2   3
ATOM      3  C   UNL A   1      34.385  33.848  31.853  1.00  0.00     0.326 C 
ATOM      4  O   UNL A   1      33.501  33.806  32.705  1.00  0.00    -0.250 OA
BRANCH   3   5
ATOM      5  C   UNL A   1      35.716  34.510  32.105  1.00  0.00     0.244 C 
BRANCH   5   6
ATOM      6  N   UNL A   1      36.796  33.641  32.535  1.00  0.00    -0.335 N 
ATOM      7  C   UNL A   1      36.620  32.584  33.377  1.00  0.00     0.099 A 
ATOM      8  C   UNL A   1      38.064  33.598  31.995  1.00  0.00     0.049 A 
ATOM      9  C   UNL A   1      37.839  31.973  33.588  1.00  0.00     0.053 A 
ATOM     10  C   UNL A   1      38.758  32.588  32.675  1.00  0.00     0.011 A 
ATOM     11  C   UNL A   1      38.667  34.354  30.975  1.00  0.00     0.027 A 
ATOM     12  C   UNL A   1      40.113  32.371  32.341  1.00  0.00     0.011 A 
ATOM     13  C   UNL A   1      39.991  34.083  30.631  1.00  0.00     0.002 A 
ATOM     14  C   UNL A   1      40.712  33.112  31.314  1.00  0.00     0.001 A 
BRANCH   9  15
ATOM     15  C   UNL A   1      38.049  30.881  34.542  1.00  0.00     0.268 C 
ATOM     16  O   UNL A   1      37.923  29.704  34.200  1.00  0.00    -0.284 OA
BRANCH  15  17
ATOM     17  C   UNL A   1      38.399  31.290  35.981  1.00  0.00     0.454 C 
ATOM     18  F   UNL A   1      37.776  30.519  36.923  1.00  0.00    -0.163 F 
ATOM     19  F   UNL A   1      39.737  31.164  36.239  1.00  0.00    -0.163 F 
ATOM     20  F   UNL A   1      38.076  32.576  36.284  1.00  0.00    -0.163 F 
ENDBRANCH  15  17
ENDBRANCH   9  15
ENDBRANCH   5   6
ENDBRANCH   3   5
ENDBRANCH   2   3
ENDBRANCH   1   2
BRANCH   1  21
ATOM     21  C   UNL A   1      34.144  33.765  28.094  1.00  0.00     0.275 C 
BRANCH  21  22
ATOM     22  O   UNL A   1      35.190  32.890  27.650  1.00  0.00    -0.458 OA
BRANCH  22  23
ATOM     23  C   UNL A   1      34.923  31.564  27.784  1.00  0.00     0.338 C 
ATOM     24  O   UNL A   1      34.022  30.939  27.252  1.00  0.00    -0.246 OA
BRANCH  23  25
ATOM     25  C   UNL A   1      36.123  30.941  28.381  1.00  0.00     0.060 A 
ATOM     26  C   UNL A   1      37.163  31.700  28.920  1.00  0.00     0.016 A 
ATOM     27  C   UNL A   1      36.281  29.566  28.172  1.00  0.00     0.016 A 
ATOM     28  C   UNL A   1      38.400  31.090  29.133  1.00  0.00     0.010 A 
ATOM     29  C   UNL A   1      37.519  28.964  28.381  1.00  0.00     0.010 A 
ATOM     30  C   UNL A   1      38.609  29.738  28.785  1.00  0.00    -0.014 A 
BRANCH  30  31
ATOM     31  C   UNL A   1      39.965  29.166  28.933  1.00  0.00     0.031 A 
ATOM     32  C   UNL A   1      40.402  28.988  30.353  1.00  0.00     0.074 A 
ATOM     33  C   UNL A   1      40.739  28.695  27.925  1.00  0.00     0.049 A 
ATOM     34  N   UNL A   1      41.490  29.392  30.933  1.00  0.00    -0.248 NA
ATOM     35  C   UNL A   1      39.434  28.354  31.265  1.00  0.00     0.031 C 
ATOM     36  C   UNL A   1      40.396  28.562  26.505  1.00  0.00     0.029 A 
ATOM     37  N   UNL A   1      41.987  28.122  27.979  1.00  0.00    -0.354 N 
ATOM     38  C   UNL A   1      41.411  28.928  32.245  1.00  0.00     0.074 A 
ATOM     39  C   UNL A   1      40.078  28.414  32.428  1.00  0.00     0.031 C 
ATOM     40  C   UNL A   1      41.281  27.735  25.902  1.00  0.00     0.029 A 
ATOM     41  C   UNL A   1      42.323  27.378  26.849  1.00  0.00     0.049 A 
ATOM     42  H   UNL A   1      42.591  28.228  28.749  1.00  0.00     0.167 HD
ATOM     43  C   UNL A   1      42.497  28.810  33.056  1.00  0.00     0.037 A 
ATOM     44  C   UNL A   1      43.330  26.474  26.720  1.00  0.00     0.037 A 
ATOM     45  C   UNL A   1      43.597  29.624  32.629  1.00  0.00     0.049 A 
ATOM     46  C   UNL A   1      44.305  26.721  27.807  1.00  0.00     0.074 A 
ATOM     47  C   UNL A   1      43.822  30.980  32.505  1.00  0.00     0.029 A 
ATOM     48  N   UNL A   1      44.648  29.022  31.989  1.00  0.00    -0.354 N 
ATOM     49  N   UNL A   1      45.098  27.749  27.873  1.00  0.00    -0.248 NA
ATOM     50  C   UNL A   1      44.119  25.985  29.047  1.00  0.00     0.031 C 
ATOM     51  C   UNL A   1      44.715  31.113  31.403  1.00  0.00     0.029 A 
ATOM     52  C   UNL A   1      44.983  29.828  30.933  1.00  0.00     0.049 A 
ATOM     53  H   UNL A   1      45.079  28.174  32.240  1.00  0.00     0.167 HD
ATOM     54  C   UNL A   1      45.161  28.049  29.222  1.00  0.00     0.074 A 
ATOM     55  C   UNL A   1      44.615  26.878  29.903  1.00  0.00     0.031 C 
ATOM     56  C   UNL A   1      45.393  29.324  29.647  1.00  0.00     0.037 A 
BRANCH  43  57
ATOM     57  C   UNL A   1      42.652  27.703  34.065  1.00  0.00     0.064 A 
ATOM     58  C   UNL A   1      43.185  26.462  33.673  1.00  0.00     0.173 A 
ATOM     59  C   UNL A   1      42.031  27.732  35.333  1.00  0.00     0.173 A 
ATOM     60  F   UNL A   1      43.757  26.313  32.469  1.00  0.00    -0.203 F 
ATOM     61  C   UNL A   1      43.069  25.325  34.480  1.00  0.00     0.198 A 
ATOM     62  C   UNL A   1      41.968  26.612  36.158  1.00  0.00     0.198 A 
ATOM     63  F   UNL A   1      41.371  28.813  35.771  1.00  0.00    -0.203 F 
ATOM     64  F   UNL A   1      43.494  24.139  34.022  1.00  0.00    -0.200 F 
ATOM     65  C   UNL A   1      42.463  25.402  35.721  1.00  0.00     0.200 A 
ATOM     66  F   UNL A   1      41.353  26.703  37.346  1.00  0.00    -0.200 F 
ATOM     67  F   UNL A   1      42.307  24.305  36.473  1.00  0.00    -0.200 F 
ENDBRANCH  43  57
BRANCH  44  68
ATOM     68  C   UNL A   1      43.360  25.201  25.949  1.00  0.00     0.064 A 
ATOM     69  C   UNL A   1      44.437  24.894  25.093  1.00  0.00     0.173 A 
ATOM     70  C   UNL A   1      42.505  24.131  26.272  1.00  0.00     0.173 A 
ATOM     71  F   UNL A   1      45.332  25.838  24.768  1.00  0.00    -0.203 F 
ATOM     72  C   UNL A   1      44.662  23.593  24.625  1.00  0.00     0.198 A 
ATOM     73  C   UNL A   1      42.725  22.836  25.796  1.00  0.00     0.198 A 
ATOM     74  F   UNL A   1      41.499  24.293  27.142  1.00  0.00    -0.203 F 
ATOM     75  F   UNL A   1      45.742  23.328  23.877  1.00  0.00    -0.200 F 
ATOM     76  C   UNL A   1      43.811  22.564  24.988  1.00  0.00     0.200 A 
ATOM     77  F   UNL A   1      41.916  21.840  26.187  1.00  0.00    -0.200 F 
ATOM     78  F   UNL A   1      44.064  21.306  24.600  1.00  0.00    -0.200 F 
ENDBRANCH  44  68
BRANCH  56  79
ATOM     79  C   UNL A   1      45.855  30.332  28.632  1.00  0.00     0.064 A 
ATOM     80  C   UNL A   1      44.995  31.020  27.758  1.00  0.00     0.173 A 
ATOM     81  C   UNL A   1      47.203  30.719  28.650  1.00  0.00     0.173 A 
ATOM     82  F   UNL A   1      43.679  30.775  27.752  1.00  0.00    -0.203 F 
ATOM     83  C   UNL A   1      45.475  32.020  26.913  1.00  0.00     0.198 A 
ATOM     84  C   UNL A   1      47.669  31.747  27.837  1.00  0.00     0.198 A 
ATOM     85  F   UNL A   1      48.060  30.131  29.500  1.00  0.00    -0.203 F 
ATOM     86  F   UNL A   1      44.642  32.650  26.073  1.00  0.00    -0.200 F 
ATOM     87  C   UNL A   1      46.809  32.391  26.963  1.00  0.00     0.200 A 
ATOM     88  F   UNL A   1      48.950  32.135  27.925  1.00  0.00    -0.200 F 
ATOM     89  F   UNL A   1      47.262  33.388  26.191  1.00  0.00    -0.200 F 
ENDBRANCH  56  79
ENDBRANCH  30  31
ENDBRANCH  23  25
ENDBRANCH  22  23
ENDBRANCH  21  22
ENDBRANCH   1  21
TORSDOF 14
ENDMDL
MODEL 2
REMARK VINA RESULT:     -11.1      3.911     10.673
REMARK SMILES O=C(Cn1cc(C(=O)C(F)(F)F)c2ccccc21)OCCOC(=O)c1ccc(-c2c3nc(c(-c4c(F)c(F)c(F)c(F)c4F)c4ccc([nH]4)c(-c4c(F)c(F)c(F)c(F)c4F)c4nc(c(-c5c(F)c(F)c(F)c(F)c5F)c5ccc2[nH]5)C=C4)C=C3)cc1
REMARK SMILES IDX 20 1 19 2 2 3 1 4 3 5 4 6 5 7 18 8 6 9 13 10 17 11 14 12
REMARK SMILES IDX 16 13 15 14 7 15 8 16 9 17 10 18 11 19 12 20 21 21 22 22
REMARK SMILES IDX 23 23 24 24 25 25 26 26 87 27 27 28 86 29 28 30 29 31 30 32
REMARK SMILES IDX 80 33 31 34 85 35 79 36 81 37 32 38 84 39 78 40 77 41 33 43
REMARK SMILES IDX 65 44 45 45 64 46 46 47 49 48 63 49 82 50 47 51 48 52 62 54
REMARK SMILES IDX 83 55 50 56 34 57 35 58 43 59 36 60 37 61 41 62 44 63 38 64
REMARK SMILES IDX 39 65 42 66 40 67 66 68 67 69 75 70 68 71 69 72 73 73 76 74
REMARK SMILES IDX 70 75 71 76 74 77 72 78 51 79 52 80 60 81 53 82 54 83 58 84
REMARK SMILES IDX 61 85 55 86 56 87 59 88 57 89
REMARK H PARENT 81 42 49 53
REMARK Flexibility Score: inf
ROOT
ATOM      1  C   UNL A   1      42.616  20.116  26.419  1.00  0.00     0.274 C 
ENDROOT
BRANCH   1   2
ATOM      2  O   UNL A   1      43.068  20.597  25.137  1.00  0.00    -0.461 OA
BRANCH   2   3
ATOM      3  C   UNL A   1      43.704  21.801  25.043  1.00  0.00     0.326 C 
ATOM      4  O   UNL A   1      43.103  22.789  24.627  1.00  0.00    -0.250 OA
BRANCH   3   5
ATOM      5  C   UNL A   1      45.197  21.795  25.253  1.00  0.00     0.244 C 
BRANCH   5   6
ATOM      6  N   UNL A   1      45.805  23.071  25.582  1.00  0.00    -0.335 N 
ATOM      7  C   UNL A   1      46.325  23.918  24.651  1.00  0.00     0.099 A 
ATOM      8  C   UNL A   1      45.737  23.709  26.803  1.00  0.00     0.049 A 
ATOM      9  C   UNL A   1      46.827  25.033  25.291  1.00  0.00     0.053 A 
ATOM     10  C   UNL A   1      46.416  24.926  26.661  1.00  0.00     0.011 A 
ATOM     11  C   UNL A   1      45.144  23.328  28.019  1.00  0.00     0.027 A 
ATOM     12  C   UNL A   1      46.536  25.758  27.796  1.00  0.00     0.011 A 
ATOM     13  C   UNL A   1      45.234  24.192  29.110  1.00  0.00     0.002 A 
ATOM     14  C   UNL A   1      45.932  25.389  29.006  1.00  0.00     0.001 A 
BRANCH   9  15
ATOM     15  C   UNL A   1      47.577  26.094  24.614  1.00  0.00     0.268 C 
ATOM     16  O   UNL A   1      48.748  25.923  24.268  1.00  0.00    -0.284 OA
BRANCH  15  17
ATOM     17  C   UNL A   1      46.836  27.421  24.393  1.00  0.00     0.454 C 
ATOM     18  F   UNL A   1      47.087  27.978  23.170  1.00  0.00    -0.163 F 
ATOM     19  F   UNL A   1      45.477  27.265  24.447  1.00  0.00    -0.163 F 
ATOM     20  F   UNL A   1      47.141  28.383  25.306  1.00  0.00    -0.163 F 
ENDBRANCH  15  17
ENDBRANCH   9  15
ENDBRANCH   5   6
ENDBRANCH   3   5
ENDBRANCH   2   3
ENDBRANCH   1   2
BRANCH   1  21
ATOM     21  C   UNL A   1      41.107  19.850  26.478  1.00  0.00     0.275 C 
BRANCH  21  22
ATOM     22  O   UNL A   1      40.450  20.873  27.239  1.00  0.00    -0.458 OA
BRANCH  22  23
ATOM     23  C   UNL A   1      39.780  21.796  26.500  1.00  0.00     0.338 C 
ATOM     24  O   UNL A   1      38.723  21.640  25.913  1.00  0.00    -0.246 OA
BRANCH  23  25
ATOM     25  C   UNL A   1      40.354  23.115  26.835  1.00  0.00     0.060 A 
ATOM     26  C   UNL A   1      41.444  23.254  27.698  1.00  0.00     0.016 A 
ATOM     27  C   UNL A   1      39.616  24.237  26.437  1.00  0.00     0.016 A 
ATOM     28  C   UNL A   1      41.707  24.507  28.252  1.00  0.00     0.010 A 
ATOM     29  C   UNL A   1      39.880  25.483  26.998  1.00  0.00     0.010 A 
ATOM     30  C   UNL A   1      40.875  25.612  27.970  1.00  0.00    -0.014 A 
BRANCH  30  31
ATOM     31  C   UNL A   1      41.134  26.893  28.663  1.00  0.00     0.031 A 
ATOM     32  C   UNL A   1      42.402  27.568  28.246  1.00  0.00     0.074 A 
ATOM     33  C   UNL A   1      40.278  27.525  29.504  1.00  0.00     0.049 A 
ATOM     34  N   UNL A   1      43.374  28.012  28.981  1.00  0.00    -0.248 NA
ATOM     35  C   UNL A   1      42.652  27.664  26.797  1.00  0.00     0.031 C 
ATOM     36  C   UNL A   1      38.903  27.149  29.848  1.00  0.00     0.029 A 
ATOM     37  N   UNL A   1      40.426  28.724  30.157  1.00  0.00    -0.354 N 
ATOM     38  C   UNL A   1      44.287  28.582  28.094  1.00  0.00     0.074 A 
ATOM     39  C   UNL A   1      43.858  28.226  26.766  1.00  0.00     0.031 C 
ATOM     40  C   UNL A   1      38.277  28.203  30.419  1.00  0.00     0.029 A 
ATOM     41  C   UNL A   1      39.229  29.285  30.599  1.00  0.00     0.049 A 
ATOM     42  H   UNL A   1      41.301  29.150  30.301  1.00  0.00     0.167 HD
ATOM     43  C   UNL A   1      45.235  29.477  28.480  1.00  0.00     0.037 A 
ATOM     44  C   UNL A   1      39.012  30.564  31.005  1.00  0.00     0.037 A 
ATOM     45  C   UNL A   1      45.517  29.413  29.884  1.00  0.00     0.049 A 
ATOM     46  C   UNL A   1      40.322  31.163  31.345  1.00  0.00     0.074 A 
ATOM     47  C   UNL A   1      46.049  28.465  30.734  1.00  0.00     0.029 A 
ATOM     48  N   UNL A   1      45.000  30.384  30.702  1.00  0.00    -0.354 N 
ATOM     49  N   UNL A   1      41.036  30.845  32.385  1.00  0.00    -0.248 NA
ATOM     50  C   UNL A   1      41.027  31.867  30.286  1.00  0.00     0.031 C 
ATOM     51  C   UNL A   1      45.402  28.679  31.986  1.00  0.00     0.029 A 
ATOM     52  C   UNL A   1      44.525  29.749  31.818  1.00  0.00     0.049 A 
ATOM     53  H   UNL A   1      44.975  31.351  30.520  1.00  0.00     0.167 HD
ATOM     54  C   UNL A   1      42.343  30.910  31.938  1.00  0.00     0.074 A 
ATOM     55  C   UNL A   1      42.281  31.632  30.670  1.00  0.00     0.031 C 
ATOM     56  C   UNL A   1      43.316  30.136  32.499  1.00  0.00     0.037 A 
BRANCH  43  57
ATOM     57  C   UNL A   1      45.677  30.629  27.616  1.00  0.00     0.064 A 
ATOM     58  C   UNL A   1      47.048  30.868  27.406  1.00  0.00     0.173 A 
ATOM     59  C   UNL A   1      44.804  31.668  27.222  1.00  0.00     0.173 A 
ATOM     60  F   UNL A   1      47.964  29.966  27.786  1.00  0.00    -0.203 F 
ATOM     61  C   UNL A   1      47.509  32.077  26.876  1.00  0.00     0.198 A 
ATOM     62  C   UNL A   1      45.264  32.847  26.642  1.00  0.00     0.198 A 
ATOM     63  F   UNL A   1      43.491  31.623  27.483  1.00  0.00    -0.203 F 
ATOM     64  F   UNL A   1      48.826  32.307  26.794  1.00  0.00    -0.200 F 
ATOM     65  C   UNL A   1      46.617  33.063  26.493  1.00  0.00     0.200 A 
ATOM     66  F   UNL A   1      44.385  33.799  26.301  1.00  0.00    -0.200 F 
ATOM     67  F   UNL A   1      47.060  34.240  26.031  1.00  0.00    -0.200 F 
ENDBRANCH  43  57
BRANCH  44  68
ATOM     68  C   UNL A   1      37.814  31.426  30.805  1.00  0.00     0.064 A 
ATOM     69  C   UNL A   1      37.373  31.768  29.511  1.00  0.00     0.173 A 
ATOM     70  C   UNL A   1      36.905  31.668  31.851  1.00  0.00     0.173 A 
ATOM     71  F   UNL A   1      38.153  31.530  28.446  1.00  0.00    -0.203 F 
ATOM     72  C   UNL A   1      36.090  32.281  29.278  1.00  0.00     0.198 A 
ATOM     73  C   UNL A   1      35.629  32.189  31.619  1.00  0.00     0.198 A 
ATOM     74  F   UNL A   1      37.189  31.304  33.108  1.00  0.00    -0.203 F 
ATOM     75  F   UNL A   1      35.681  32.519  28.025  1.00  0.00    -0.200 F 
ATOM     76  C   UNL A   1      35.216  32.478  30.333  1.00  0.00     0.200 A 
ATOM     77  F   UNL A   1      34.777  32.339  32.644  1.00  0.00    -0.200 F 
ATOM     78  F   UNL A   1      33.964  32.902  30.107  1.00  0.00    -0.200 F 
ENDBRANCH  44  68
BRANCH  56  79
ATOM     79  C   UNL A   1      42.998  29.428  33.786  1.00  0.00     0.064 A 
ATOM     80  C   UNL A   1      43.132  30.010  35.059  1.00  0.00     0.173 A 
ATOM     81  C   UNL A   1      42.397  28.163  33.715  1.00  0.00     0.173 A 
ATOM     82  F   UNL A   1      43.607  31.254  35.201  1.00  0.00    -0.203 F 
ATOM     83  C   UNL A   1      42.720  29.336  36.208  1.00  0.00     0.198 A 
ATOM     84  C   UNL A   1      41.947  27.512  34.859  1.00  0.00     0.198 A 
ATOM     85  F   UNL A   1      42.198  27.579  32.523  1.00  0.00    -0.203 F 
ATOM     86  F   UNL A   1      42.874  29.901  37.414  1.00  0.00    -0.200 F 
ATOM     87  C   UNL A   1      42.116  28.093  36.105  1.00  0.00     0.200 A 
ATOM     88  F   UNL A   1      41.320  26.332  34.749  1.00  0.00    -0.200 F 
ATOM     89  F   UNL A   1      41.670  27.467  37.202  1.00  0.00    -0.200 F 
ENDBRANCH  56  79
ENDBRANCH  30  31
ENDBRANCH  23  25
ENDBRANCH  22  23
ENDBRANCH  21  22
ENDBRANCH   1  21
TORSDOF 14
ENDMDL
MODEL 3
REMARK VINA RESULT:     -11.0      1.236      2.188
REMARK SMILES O=C(Cn1cc(C(=O)C(F)(F)F)c2ccccc21)OCCOC(=O)c1ccc(-c2c3nc(c(-c4c(F)c(F)c(F)c(F)c4F)c4ccc([nH]4)c(-c4c(F)c(F)c(F)c(F)c4F)c4nc(c(-c5c(F)c(F)c(F)c(F)c5F)c5ccc2[nH]5)C=C4)C=C3)cc1
REMARK SMILES IDX 20 1 19 2 2 3 1 4 3 5 4 6 5 7 18 8 6 9 13 10 17 11 14 12
REMARK SMILES IDX 16 13 15 14 7 15 8 16 9 17 10 18 11 19 12 20 21 21 22 22
REMARK SMILES IDX 23 23 24 24 25 25 26 26 87 27 27 28 86 29 28 30 29 31 30 32
REMARK SMILES IDX 80 33 31 34 85 35 79 36 81 37 32 38 84 39 78 40 77 41 33 43
REMARK SMILES IDX 65 44 45 45 64 46 46 47 49 48 63 49 82 50 47 51 48 52 62 54
REMARK SMILES IDX 83 55 50 56 34 57 35 58 43 59 36 60 37 61 41 62 44 63 38 64
REMARK SMILES IDX 39 65 42 66 40 67 66 68 67 69 75 70 68 71 69 72 73 73 76 74
REMARK SMILES IDX 70 75 71 76 74 77 72 78 51 79 52 80 60 81 53 82 54 83 58 84
REMARK SMILES IDX 61 85 55 86 56 87 59 88 57 89
REMARK H PARENT 81 42 49 53
REMARK Flexibility Score: inf
ROOT
ATOM      1  C   UNL A   1      33.861  34.585  29.341  1.00  0.00     0.274 C 
ENDROOT
BRANCH   1   2
ATOM      2  O   UNL A   1      35.103  34.425  30.057  1.00  0.00    -0.461 OA
BRANCH   2   3
ATOM      3  C   UNL A   1      35.125  33.763  31.250  1.00  0.00     0.326 C 
ATOM      4  O   UNL A   1      34.364  32.819  31.450  1.00  0.00    -0.250 OA
BRANCH   3   5
ATOM      5  C   UNL A   1      35.946  34.384  32.352  1.00  0.00     0.244 C 
BRANCH   5   6
ATOM      6  N   UNL A   1      37.328  33.949  32.446  1.00  0.00    -0.335 N 
ATOM      7  C   UNL A   1      38.366  34.615  31.868  1.00  0.00     0.099 A 
ATOM      8  C   UNL A   1      37.815  32.980  33.298  1.00  0.00     0.049 A 
ATOM      9  C   UNL A   1      39.538  33.940  32.142  1.00  0.00     0.053 A 
ATOM     10  C   UNL A   1      39.199  32.919  33.090  1.00  0.00     0.011 A 
ATOM     11  C   UNL A   1      37.168  32.149  34.228  1.00  0.00     0.027 A 
ATOM     12  C   UNL A   1      39.939  31.958  33.813  1.00  0.00     0.011 A 
ATOM     13  C   UNL A   1      37.931  31.244  34.965  1.00  0.00     0.002 A 
ATOM     14  C   UNL A   1      39.299  31.139  34.754  1.00  0.00     0.001 A 
BRANCH   9  15
ATOM     15  C   UNL A   1      40.838  34.299  31.569  1.00  0.00     0.268 C 
ATOM     16  O   UNL A   1      41.677  34.913  32.231  1.00  0.00    -0.284 OA
BRANCH  15  17
ATOM     17  C   UNL A   1      41.074  33.895  30.105  1.00  0.00     0.454 C 
ATOM     18  F   UNL A   1      42.306  34.265  29.640  1.00  0.00    -0.163 F 
ATOM     19  F   UNL A   1      41.015  32.539  29.931  1.00  0.00    -0.163 F 
ATOM     20  F   UNL A   1      40.176  34.427  29.234  1.00  0.00    -0.163 F 
ENDBRANCH  15  17
ENDBRANCH   9  15
ENDBRANCH   5   6
ENDBRANCH   3   5
ENDBRANCH   2   3
ENDBRANCH   1   2
BRANCH   1  21
ATOM     21  C   UNL A   1      33.791  33.771  28.044  1.00  0.00     0.275 C 
BRANCH  21  22
ATOM     22  O   UNL A   1      34.976  32.979  27.888  1.00  0.00    -0.458 OA
BRANCH  22  23
ATOM     23  C   UNL A   1      34.769  31.635  27.879  1.00  0.00     0.338 C 
ATOM     24  O   UNL A   1      33.924  31.026  27.246  1.00  0.00    -0.246 OA
BRANCH  23  25
ATOM     25  C   UNL A   1      35.971  31.010  28.470  1.00  0.00     0.060 A 
ATOM     26  C   UNL A   1      36.963  31.762  29.103  1.00  0.00     0.016 A 
ATOM     27  C   UNL A   1      36.188  29.662  28.163  1.00  0.00     0.016 A 
ATOM     28  C   UNL A   1      38.214  31.182  29.313  1.00  0.00     0.010 A 
ATOM     29  C   UNL A   1      37.440  29.090  28.369  1.00  0.00     0.010 A 
ATOM     30  C   UNL A   1      38.486  29.868  28.871  1.00  0.00    -0.014 A 
BRANCH  30  31
ATOM     31  C   UNL A   1      39.858  29.335  29.024  1.00  0.00     0.031 A 
ATOM     32  C   UNL A   1      40.273  29.115  30.444  1.00  0.00     0.074 A 
ATOM     33  C   UNL A   1      40.666  28.929  28.014  1.00  0.00     0.049 A 
ATOM     34  N   UNL A   1      41.336  29.531  31.061  1.00  0.00    -0.248 NA
ATOM     35  C   UNL A   1      39.310  28.415  31.312  1.00  0.00     0.031 C 
ATOM     36  C   UNL A   1      40.354  28.841  26.584  1.00  0.00     0.029 A 
ATOM     37  N   UNL A   1      41.930  28.395  28.071  1.00  0.00    -0.354 N 
ATOM     38  C   UNL A   1      41.248  29.014  32.353  1.00  0.00     0.074 A 
ATOM     39  C   UNL A   1      39.930  28.450  32.489  1.00  0.00     0.031 C 
ATOM     40  C   UNL A   1      41.277  28.067  25.967  1.00  0.00     0.029 A 
ATOM     41  C   UNL A   1      42.312  27.708  26.920  1.00  0.00     0.049 A 
ATOM     42  H   UNL A   1      42.516  28.490  28.856  1.00  0.00     0.167 HD
ATOM     43  C   UNL A   1      42.322  28.899  33.180  1.00  0.00     0.037 A 
ATOM     44  C   UNL A   1      43.351  26.842  26.776  1.00  0.00     0.037 A 
ATOM     45  C   UNL A   1      43.402  29.764  32.807  1.00  0.00     0.049 A 
ATOM     46  C   UNL A   1      44.296  27.077  27.891  1.00  0.00     0.074 A 
ATOM     47  C   UNL A   1      43.584  31.131  32.740  1.00  0.00     0.029 A 
ATOM     48  N   UNL A   1      44.484  29.222  32.165  1.00  0.00    -0.354 N 
ATOM     49  N   UNL A   1      45.054  28.127  28.013  1.00  0.00    -0.248 NA
ATOM     50  C   UNL A   1      44.111  26.287  29.098  1.00  0.00     0.031 C 
ATOM     51  C   UNL A   1      44.494  31.335  31.662  1.00  0.00     0.029 A 
ATOM     52  C   UNL A   1      44.812  30.079  31.148  1.00  0.00     0.049 A 
ATOM     53  H   UNL A   1      44.938  28.378  32.392  1.00  0.00     0.167 HD
ATOM     54  C   UNL A   1      45.081  28.375  29.374  1.00  0.00     0.074 A 
ATOM     55  C   UNL A   1      44.562  27.162  29.997  1.00  0.00     0.031 C 
ATOM     56  C   UNL A   1      45.263  29.640  29.852  1.00  0.00     0.037 A 
BRANCH  43  57
ATOM     57  C   UNL A   1      42.494  27.758  34.148  1.00  0.00     0.064 A 
ATOM     58  C   UNL A   1      43.045  26.540  33.711  1.00  0.00     0.173 A 
ATOM     59  C   UNL A   1      41.875  27.733  35.417  1.00  0.00     0.173 A 
ATOM     60  F   UNL A   1      43.616  26.443  32.502  1.00  0.00    -0.203 F 
ATOM     61  C   UNL A   1      42.946  25.373  34.476  1.00  0.00     0.198 A 
ATOM     62  C   UNL A   1      41.829  26.583  36.201  1.00  0.00     0.198 A 
ATOM     63  F   UNL A   1      41.200  28.787  35.895  1.00  0.00    -0.203 F 
ATOM     64  F   UNL A   1      43.387  24.211  33.976  1.00  0.00    -0.200 F 
ATOM     65  C   UNL A   1      42.340  25.397  35.720  1.00  0.00     0.200 A 
ATOM     66  F   UNL A   1      41.215  26.622  37.392  1.00  0.00    -0.200 F 
ATOM     67  F   UNL A   1      42.201  24.271  36.432  1.00  0.00    -0.200 F 
ENDBRANCH  43  57
BRANCH  44  68
ATOM     68  C   UNL A   1      43.437  25.602  25.958  1.00  0.00     0.064 A 
ATOM     69  C   UNL A   1      44.603  25.291  25.230  1.00  0.00     0.173 A 
ATOM     70  C   UNL A   1      42.514  24.552  26.122  1.00  0.00     0.173 A 
ATOM     71  F   UNL A   1      45.561  26.214  25.063  1.00  0.00    -0.203 F 
ATOM     72  C   UNL A   1      44.844  24.003  24.734  1.00  0.00     0.198 A 
ATOM     73  C   UNL A   1      42.751  23.270  25.618  1.00  0.00     0.198 A 
ATOM     74  F   UNL A   1      41.412  24.715  26.866  1.00  0.00    -0.203 F 
ATOM     75  F   UNL A   1      46.000  23.729  24.115  1.00  0.00    -0.200 F 
ATOM     76  C   UNL A   1      43.922  22.992  24.940  1.00  0.00     0.200 A 
ATOM     77  F   UNL A   1      41.868  22.290  25.858  1.00  0.00    -0.200 F 
ATOM     78  F   UNL A   1      44.181  21.742  24.529  1.00  0.00    -0.200 F 
ENDBRANCH  44  68
BRANCH  56  79
ATOM     79  C   UNL A   1      45.711  30.701  28.887  1.00  0.00     0.064 A 
ATOM     80  C   UNL A   1      44.835  31.462  28.092  1.00  0.00     0.173 A 
ATOM     81  C   UNL A   1      47.067  31.058  28.878  1.00  0.00     0.173 A 
ATOM     82  F   UNL A   1      43.514  31.245  28.121  1.00  0.00    -0.203 F 
ATOM     83  C   UNL A   1      45.306  32.504  27.294  1.00  0.00     0.198 A 
ATOM     84  C   UNL A   1      47.527  32.126  28.115  1.00  0.00     0.198 A 
ATOM     85  F   UNL A   1      47.941  30.398  29.654  1.00  0.00    -0.203 F 
ATOM     86  F   UNL A   1      44.458  33.205  26.529  1.00  0.00    -0.200 F 
ATOM     87  C   UNL A   1      46.650  32.843  27.317  1.00  0.00     0.200 A 
ATOM     88  F   UNL A   1      48.818  32.480  28.177  1.00  0.00    -0.200 F 
ATOM     89  F   UNL A   1      47.097  33.878  26.593  1.00  0.00    -0.200 F 
ENDBRANCH  56  79
ENDBRANCH  30  31
ENDBRANCH  23  25
ENDBRANCH  22  23
ENDBRANCH  21  22
ENDBRANCH   1  21
TORSDOF 14
ENDMDL
