MODEL 1
REMARK VINA RESULT:     -12.0      0.000      0.000
REMARK SMILES CNC(=O)NC1=[NH+]N=CN[C@@H]1C(=O)OCCOC(=O)c1ccc(-c2c3nc(c(-c4c(F)c(F)c(F)c(F)c4F)c4ccc([nH]4)c(-c4c(F)c(F)c(F)c(F)c4F)c4nc(c(-c5c(F)c(F)c(F)c(F)c5F)c5ccc2[nH]5)C=C4)C=C3)cc1
REMARK SMILES IDX 16 1 15 2 14 3 12 4 13 5 11 6 1 7 2 8 3 9 4 11 5 12 6 13
REMARK SMILES IDX 7 15 8 16 10 18 9 19 17 21 18 22 19 23 20 24 21 25 82 26
REMARK SMILES IDX 22 27 81 28 23 29 24 30 25 31 75 32 26 33 80 34 74 35 76 36
REMARK SMILES IDX 27 37 79 38 73 39 72 40 28 42 60 43 40 44 59 45 41 46 44 47
REMARK SMILES IDX 58 48 77 49 42 50 43 51 57 53 78 54 45 55 29 56 30 57 38 58
REMARK SMILES IDX 31 59 32 60 36 61 39 62 33 63 34 64 37 65 35 66 61 67 62 68
REMARK SMILES IDX 70 69 63 70 64 71 68 72 71 73 65 74 66 75 69 76 67 77 46 78
REMARK SMILES IDX 47 79 55 80 48 81 49 82 53 83 56 84 50 85 51 86 54 87 52 88
REMARK H PARENT 2 10 5 14 7 17 10 20 76 41 44 52
REMARK Flexibility Score: inf
ROOT
ATOM      1  C   UNL A   1      31.325  31.903  26.517  1.00  0.00     0.275 C 
ENDROOT
BRANCH   1   2
ATOM      2  C   UNL A   1      30.754  31.018  25.402  1.00  0.00     0.274 C 
BRANCH   2   3
ATOM      3  O   UNL A   1      31.732  30.053  24.970  1.00  0.00    -0.460 OA
BRANCH   3   4
ATOM      4  C   UNL A   1      31.377  28.736  25.028  1.00  0.00     0.341 C 
ATOM      5  O   UNL A   1      31.308  28.093  26.070  1.00  0.00    -0.249 OA
BRANCH   4   6
ATOM      6  C   UNL A   1      30.951  28.175  23.666  1.00  0.00     0.308 C 
ATOM      7  C   UNL A   1      32.661  26.123  21.514  1.00  0.00     0.147 C 
ATOM      8  N   UNL A   1      33.611  26.844  22.336  1.00  0.00    -0.321 N 
ATOM      9  C   UNL A   1      33.770  28.189  22.447  1.00  0.00     0.406 C 
ATOM     10  H   UNL A   1      34.216  26.292  22.882  1.00  0.00     0.167 HD
ATOM     11  O   UNL A   1      34.847  28.640  22.826  1.00  0.00    -0.221 OA
ATOM     12  N   UNL A   1      32.736  29.001  22.084  1.00  0.00    -0.191 N 
ATOM     13  C   UNL A   1      31.434  29.057  22.526  1.00  0.00     0.311 C 
ATOM     14  H   UNL A   1      32.958  29.659  21.385  1.00  0.00     0.317 HD
ATOM     15  N   UNL A   1      30.673  29.909  21.907  1.00  0.00    -0.148 N 
ATOM     16  N   UNL A   1      29.298  29.944  22.221  1.00  0.00    -0.077 NA
ATOM     17  H   UNL A   1      31.049  30.517  21.232  1.00  0.00     0.342 HD
ATOM     18  N   UNL A   1      29.507  28.004  23.565  1.00  0.00    -0.350 N 
ATOM     19  C   UNL A   1      28.811  28.998  22.955  1.00  0.00     0.241 C 
ATOM     20  H   UNL A   1      29.057  27.205  23.921  1.00  0.00     0.163 HD
ENDBRANCH   4   6
ENDBRANCH   3   4
ENDBRANCH   2   3
ENDBRANCH   1   2
BRANCH   1  21
ATOM     21  O   UNL A   1      32.654  31.500  26.912  1.00  0.00    -0.458 OA
BRANCH  21  22
ATOM     22  C   UNL A   1      33.387  32.461  27.517  1.00  0.00     0.338 C 
ATOM     23  O   UNL A   1      33.012  33.569  27.867  1.00  0.00    -0.246 OA
BRANCH  22  24
ATOM     24  C   UNL A   1      34.730  31.958  27.849  1.00  0.00     0.060 A 
ATOM     25  C   UNL A   1      34.836  30.606  28.176  1.00  0.00     0.016 A 
ATOM     26  C   UNL A   1      35.828  32.806  27.996  1.00  0.00     0.016 A 
ATOM     27  C   UNL A   1      36.005  30.105  28.731  1.00  0.00     0.010 A 
ATOM     28  C   UNL A   1      37.021  32.293  28.525  1.00  0.00     0.010 A 
ATOM     29  C   UNL A   1      37.101  30.949  28.935  1.00  0.00    -0.014 A 
BRANCH  29  30
ATOM     30  C   UNL A   1      38.270  30.424  29.683  1.00  0.00     0.031 A 
ATOM     31  C   UNL A   1      38.458  30.799  31.128  1.00  0.00     0.074 A 
ATOM     32  C   UNL A   1      39.098  29.533  29.109  1.00  0.00     0.049 A 
ATOM     33  N   UNL A   1      39.418  30.467  31.954  1.00  0.00    -0.248 NA
ATOM     34  C   UNL A   1      37.424  31.659  31.723  1.00  0.00     0.031 C 
ATOM     35  C   UNL A   1      38.978  29.029  27.741  1.00  0.00     0.029 A 
ATOM     36  N   UNL A   1      40.187  28.871  29.617  1.00  0.00    -0.354 N 
ATOM     37  C   UNL A   1      39.127  31.111  33.149  1.00  0.00     0.074 A 
ATOM     38  C   UNL A   1      37.903  31.855  32.942  1.00  0.00     0.031 C 
ATOM     39  C   UNL A   1      39.932  28.108  27.531  1.00  0.00     0.029 A 
ATOM     40  C   UNL A   1      40.761  27.997  28.728  1.00  0.00     0.049 A 
ATOM     41  H   UNL A   1      40.524  29.009  30.531  1.00  0.00     0.167 HD
ATOM     42  C   UNL A   1      39.819  31.085  34.313  1.00  0.00     0.037 A 
ATOM     43  C   UNL A   1      41.843  27.206  28.861  1.00  0.00     0.037 A 
ATOM     44  C   UNL A   1      41.013  30.313  34.534  1.00  0.00     0.049 A 
ATOM     45  C   UNL A   1      42.612  27.219  30.151  1.00  0.00     0.074 A 
ATOM     46  C   UNL A   1      41.789  30.225  35.676  1.00  0.00     0.029 A 
ATOM     47  N   UNL A   1      41.595  29.479  33.590  1.00  0.00    -0.354 N 
ATOM     48  N   UNL A   1      42.360  27.873  31.259  1.00  0.00    -0.248 NA
ATOM     49  C   UNL A   1      43.825  26.392  30.205  1.00  0.00     0.031 C 
ATOM     50  C   UNL A   1      42.857  29.359  35.415  1.00  0.00     0.029 A 
ATOM     51  C   UNL A   1      42.725  28.879  34.122  1.00  0.00     0.049 A 
ATOM     52  H   UNL A   1      41.256  29.335  32.677  1.00  0.00     0.167 HD
ATOM     53  C   UNL A   1      43.370  27.525  32.145  1.00  0.00     0.074 A 
ATOM     54  C   UNL A   1      44.233  26.591  31.451  1.00  0.00     0.031 C 
ATOM     55  C   UNL A   1      43.565  27.943  33.420  1.00  0.00     0.037 A 
BRANCH  42  56
ATOM     56  C   UNL A   1      39.318  31.958  35.425  1.00  0.00     0.064 A 
ATOM     57  C   UNL A   1      39.683  33.307  35.531  1.00  0.00     0.173 A 
ATOM     58  C   UNL A   1      38.459  31.429  36.401  1.00  0.00     0.173 A 
ATOM     59  F   UNL A   1      40.520  33.852  34.635  1.00  0.00    -0.203 F 
ATOM     60  C   UNL A   1      39.232  34.088  36.593  1.00  0.00     0.198 A 
ATOM     61  C   UNL A   1      37.990  32.219  37.446  1.00  0.00     0.198 A 
ATOM     62  F   UNL A   1      38.080  30.144  36.343  1.00  0.00    -0.203 F 
ATOM     63  F   UNL A   1      39.637  35.361  36.706  1.00  0.00    -0.200 F 
ATOM     64  C   UNL A   1      38.383  33.545  37.546  1.00  0.00     0.200 A 
ATOM     65  F   UNL A   1      37.166  31.694  38.364  1.00  0.00    -0.200 F 
ATOM     66  F   UNL A   1      37.956  34.296  38.571  1.00  0.00    -0.200 F 
ENDBRANCH  42  56
BRANCH  43  67
ATOM     67  C   UNL A   1      42.259  26.334  27.735  1.00  0.00     0.064 A 
ATOM     68  C   UNL A   1      43.234  26.756  26.823  1.00  0.00     0.173 A 
ATOM     69  C   UNL A   1      41.700  25.061  27.554  1.00  0.00     0.173 A 
ATOM     70  F   UNL A   1      43.778  27.977  26.942  1.00  0.00    -0.203 F 
ATOM     71  C   UNL A   1      43.633  25.939  25.768  1.00  0.00     0.198 A 
ATOM     72  C   UNL A   1      42.116  24.235  26.512  1.00  0.00     0.198 A 
ATOM     73  F   UNL A   1      40.759  24.615  28.399  1.00  0.00    -0.203 F 
ATOM     74  F   UNL A   1      44.546  26.379  24.890  1.00  0.00    -0.200 F 
ATOM     75  C   UNL A   1      43.078  24.676  25.618  1.00  0.00     0.200 A 
ATOM     76  F   UNL A   1      41.583  23.013  26.376  1.00  0.00    -0.200 F 
ATOM     77  F   UNL A   1      43.467  23.887  24.606  1.00  0.00    -0.200 F 
ENDBRANCH  43  67
BRANCH  55  78
ATOM     78  C   UNL A   1      44.736  27.365  34.156  1.00  0.00     0.064 A 
ATOM     79  C   UNL A   1      44.628  26.170  34.881  1.00  0.00     0.173 A 
ATOM     80  C   UNL A   1      45.984  28.001  34.115  1.00  0.00     0.173 A 
ATOM     81  F   UNL A   1      43.449  25.533  34.963  1.00  0.00    -0.203 F 
ATOM     82  C   UNL A   1      45.726  25.642  35.555  1.00  0.00     0.198 A 
ATOM     83  C   UNL A   1      47.085  27.460  34.772  1.00  0.00     0.198 A 
ATOM     84  F   UNL A   1      46.138  29.146  33.431  1.00  0.00    -0.203 F 
ATOM     85  F   UNL A   1      45.592  24.520  36.274  1.00  0.00    -0.200 F 
ATOM     86  C   UNL A   1      46.954  26.285  35.496  1.00  0.00     0.200 A 
ATOM     87  F   UNL A   1      48.273  28.078  34.708  1.00  0.00    -0.200 F 
ATOM     88  F   UNL A   1      48.009  25.775  36.146  1.00  0.00    -0.200 F 
ENDBRANCH  55  78
ENDBRANCH  29  30
ENDBRANCH  22  24
ENDBRANCH  21  22
ENDBRANCH   1  21
TORSDOF 11
ENDMDL
MODEL 2
REMARK VINA RESULT:     -11.9      3.475      5.185
REMARK SMILES CNC(=O)NC1=[NH+]N=CN[C@@H]1C(=O)OCCOC(=O)c1ccc(-c2c3nc(c(-c4c(F)c(F)c(F)c(F)c4F)c4ccc([nH]4)c(-c4c(F)c(F)c(F)c(F)c4F)c4nc(c(-c5c(F)c(F)c(F)c(F)c5F)c5ccc2[nH]5)C=C4)C=C3)cc1
REMARK SMILES IDX 16 1 15 2 14 3 12 4 13 5 11 6 1 7 2 8 3 9 4 11 5 12 6 13
REMARK SMILES IDX 7 15 8 16 10 18 9 19 17 21 18 22 19 23 20 24 21 25 82 26
REMARK SMILES IDX 22 27 81 28 23 29 24 30 25 31 75 32 26 33 80 34 74 35 76 36
REMARK SMILES IDX 27 37 79 38 73 39 72 40 28 42 60 43 40 44 59 45 41 46 44 47
REMARK SMILES IDX 58 48 77 49 42 50 43 51 57 53 78 54 45 55 29 56 30 57 38 58
REMARK SMILES IDX 31 59 32 60 36 61 39 62 33 63 34 64 37 65 35 66 61 67 62 68
REMARK SMILES IDX 70 69 63 70 64 71 68 72 71 73 65 74 66 75 69 76 67 77 46 78
REMARK SMILES IDX 47 79 55 80 48 81 49 82 53 83 56 84 50 85 51 86 54 87 52 88
REMARK H PARENT 2 10 5 14 7 17 10 20 76 41 44 52
REMARK Flexibility Score: inf
ROOT
ATOM      1  C   UNL A   1      33.890  34.382  27.952  1.00  0.00     0.275 C 
ENDROOT
BRANCH   1   2
ATOM      2  C   UNL A   1      33.473  35.574  28.821  1.00  0.00     0.274 C 
BRANCH   2   3
ATOM      3  O   UNL A   1      32.526  35.163  29.826  1.00  0.00    -0.460 OA
BRANCH   3   4
ATOM      4  C   UNL A   1      32.474  35.900  30.974  1.00  0.00     0.341 C 
ATOM      5  O   UNL A   1      31.434  36.166  31.568  1.00  0.00    -0.249 OA
BRANCH   4   6
ATOM      6  C   UNL A   1      33.864  36.257  31.513  1.00  0.00     0.308 C 
ATOM      7  C   UNL A   1      36.838  34.582  31.173  1.00  0.00     0.147 C 
ATOM      8  N   UNL A   1      35.745  33.641  31.035  1.00  0.00    -0.321 N 
ATOM      9  C   UNL A   1      34.769  33.353  31.936  1.00  0.00     0.406 C 
ATOM     10  H   UNL A   1      35.705  33.149  30.184  1.00  0.00     0.167 HD
ATOM     11  O   UNL A   1      34.188  32.275  31.872  1.00  0.00    -0.221 OA
ATOM     12  N   UNL A   1      34.501  34.260  32.919  1.00  0.00    -0.191 N 
ATOM     13  C   UNL A   1      34.131  35.584  32.849  1.00  0.00     0.311 C 
ATOM     14  H   UNL A   1      34.587  33.909  33.835  1.00  0.00     0.317 HD
ATOM     15  N   UNL A   1      34.027  36.193  33.992  1.00  0.00    -0.148 N 
ATOM     16  N   UNL A   1      33.767  37.580  34.002  1.00  0.00    -0.077 NA
ATOM     17  H   UNL A   1      34.129  35.696  34.835  1.00  0.00     0.342 HD
ATOM     18  N   UNL A   1      34.051  37.697  31.652  1.00  0.00    -0.350 N 
ATOM     19  C   UNL A   1      33.846  38.227  32.885  1.00  0.00     0.241 C 
ATOM     20  H   UNL A   1      34.315  38.258  30.889  1.00  0.00     0.163 HD
ENDBRANCH   4   6
ENDBRANCH   3   4
ENDBRANCH   2   3
ENDBRANCH   1   2
BRANCH   1  21
ATOM     21  O   UNL A   1      33.558  33.116  28.561  1.00  0.00    -0.458 OA
BRANCH  21  22
ATOM     22  C   UNL A   1      33.806  32.030  27.795  1.00  0.00     0.338 C 
ATOM     23  O   UNL A   1      33.121  31.595  26.882  1.00  0.00    -0.246 OA
BRANCH  22  24
ATOM     24  C   UNL A   1      35.131  31.468  28.103  1.00  0.00     0.060 A 
ATOM     25  C   UNL A   1      35.160  30.184  28.650  1.00  0.00     0.016 A 
ATOM     26  C   UNL A   1      36.301  32.222  28.014  1.00  0.00     0.016 A 
ATOM     27  C   UNL A   1      36.333  29.676  29.190  1.00  0.00     0.010 A 
ATOM     28  C   UNL A   1      37.494  31.696  28.529  1.00  0.00     0.010 A 
ATOM     29  C   UNL A   1      37.506  30.437  29.159  1.00  0.00    -0.014 A 
BRANCH  29  30
ATOM     30  C   UNL A   1      38.695  29.937  29.893  1.00  0.00     0.031 A 
ATOM     31  C   UNL A   1      38.912  30.345  31.324  1.00  0.00     0.074 A 
ATOM     32  C   UNL A   1      39.517  29.038  29.320  1.00  0.00     0.049 A 
ATOM     33  N   UNL A   1      39.891  30.039  32.136  1.00  0.00    -0.248 NA
ATOM     34  C   UNL A   1      37.884  31.211  31.922  1.00  0.00     0.031 C 
ATOM     35  C   UNL A   1      39.371  28.503  27.967  1.00  0.00     0.029 A 
ATOM     36  N   UNL A   1      40.622  28.396  29.819  1.00  0.00    -0.354 N 
ATOM     37  C   UNL A   1      39.622  30.707  33.323  1.00  0.00     0.074 A 
ATOM     38  C   UNL A   1      38.388  31.438  33.126  1.00  0.00     0.031 C 
ATOM     39  C   UNL A   1      40.327  27.584  27.757  1.00  0.00     0.029 A 
ATOM     40  C   UNL A   1      41.182  27.506  28.937  1.00  0.00     0.049 A 
ATOM     41  H   UNL A   1      40.978  28.557  30.723  1.00  0.00     0.167 HD
ATOM     42  C   UNL A   1      40.340  30.712  34.472  1.00  0.00     0.037 A 
ATOM     43  C   UNL A   1      42.273  26.726  29.065  1.00  0.00     0.037 A 
ATOM     44  C   UNL A   1      41.543  29.953  34.684  1.00  0.00     0.049 A 
ATOM     45  C   UNL A   1      43.070  26.773  30.337  1.00  0.00     0.074 A 
ATOM     46  C   UNL A   1      42.345  29.897  35.810  1.00  0.00     0.029 A 
ATOM     47  N   UNL A   1      42.110  29.102  33.746  1.00  0.00    -0.354 N 
ATOM     48  N   UNL A   1      42.837  27.450  31.435  1.00  0.00    -0.248 NA
ATOM     49  C   UNL A   1      44.290  25.955  30.382  1.00  0.00     0.031 C 
ATOM     50  C   UNL A   1      43.413  29.032  35.545  1.00  0.00     0.029 A 
ATOM     51  C   UNL A   1      43.257  28.523  34.266  1.00  0.00     0.049 A 
ATOM     52  H   UNL A   1      41.753  28.936  32.844  1.00  0.00     0.167 HD
ATOM     53  C   UNL A   1      43.868  27.129  32.307  1.00  0.00     0.074 A 
ATOM     54  C   UNL A   1      44.723  26.186  31.615  1.00  0.00     0.031 C 
ATOM     55  C   UNL A   1      44.088  27.577  33.567  1.00  0.00     0.037 A 
BRANCH  42  56
ATOM     56  C   UNL A   1      39.856  31.606  35.575  1.00  0.00     0.064 A 
ATOM     57  C   UNL A   1      38.788  31.243  36.409  1.00  0.00     0.173 A 
ATOM     58  C   UNL A   1      40.471  32.847  35.795  1.00  0.00     0.173 A 
ATOM     59  F   UNL A   1      38.153  30.076  36.223  1.00  0.00    -0.203 F 
ATOM     60  C   UNL A   1      38.334  32.106  37.404  1.00  0.00     0.198 A 
ATOM     61  C   UNL A   1      40.031  33.696  36.806  1.00  0.00     0.198 A 
ATOM     62  F   UNL A   1      41.496  33.239  35.024  1.00  0.00    -0.203 F 
ATOM     63  F   UNL A   1      37.278  31.764  38.154  1.00  0.00    -0.200 F 
ATOM     64  C   UNL A   1      38.958  33.329  37.604  1.00  0.00     0.200 A 
ATOM     65  F   UNL A   1      40.638  34.875  37.001  1.00  0.00    -0.200 F 
ATOM     66  F   UNL A   1      38.515  34.160  38.557  1.00  0.00    -0.200 F 
ENDBRANCH  42  56
BRANCH  43  67
ATOM     67  C   UNL A   1      42.671  25.832  27.949  1.00  0.00     0.064 A 
ATOM     68  C   UNL A   1      43.578  26.262  26.973  1.00  0.00     0.173 A 
ATOM     69  C   UNL A   1      42.163  24.529  27.843  1.00  0.00     0.173 A 
ATOM     70  F   UNL A   1      44.071  27.509  27.021  1.00  0.00    -0.203 F 
ATOM     71  C   UNL A   1      43.960  25.424  25.928  1.00  0.00     0.198 A 
ATOM     72  C   UNL A   1      42.563  23.684  26.810  1.00  0.00     0.198 A 
ATOM     73  F   UNL A   1      41.288  24.073  28.751  1.00  0.00    -0.203 F 
ATOM     74  F   UNL A   1      44.805  25.871  24.988  1.00  0.00    -0.200 F 
ATOM     75  C   UNL A   1      43.457  24.134  25.851  1.00  0.00     0.200 A 
ATOM     76  F   UNL A   1      42.081  22.436  26.745  1.00  0.00    -0.200 F 
ATOM     77  F   UNL A   1      43.830  23.326  24.849  1.00  0.00    -0.200 F 
ENDBRANCH  43  67
BRANCH  55  78
ATOM     78  C   UNL A   1      45.278  27.024  34.291  1.00  0.00     0.064 A 
ATOM     79  C   UNL A   1      45.193  25.849  35.052  1.00  0.00     0.173 A 
ATOM     80  C   UNL A   1      46.524  27.662  34.199  1.00  0.00     0.173 A 
ATOM     81  F   UNL A   1      44.019  25.212  35.181  1.00  0.00    -0.203 F 
ATOM     82  C   UNL A   1      46.309  25.344  35.713  1.00  0.00     0.198 A 
ATOM     83  C   UNL A   1      47.642  27.143  34.845  1.00  0.00     0.198 A 
ATOM     84  F   UNL A   1      46.656  28.787  33.480  1.00  0.00    -0.203 F 
ATOM     85  F   UNL A   1      46.197  24.243  36.468  1.00  0.00    -0.200 F 
ATOM     86  C   UNL A   1      47.533  25.989  35.605  1.00  0.00     0.200 A 
ATOM     87  F   UNL A   1      48.826  27.762  34.733  1.00  0.00    -0.200 F 
ATOM     88  F   UNL A   1      48.606  25.501  36.243  1.00  0.00    -0.200 F 
ENDBRANCH  55  78
ENDBRANCH  29  30
ENDBRANCH  22  24
ENDBRANCH  21  22
ENDBRANCH   1  21
TORSDOF 11
ENDMDL
MODEL 3
REMARK VINA RESULT:     -11.9      1.103      2.586
REMARK SMILES CNC(=O)NC1=[NH+]N=CN[C@@H]1C(=O)OCCOC(=O)c1ccc(-c2c3nc(c(-c4c(F)c(F)c(F)c(F)c4F)c4ccc([nH]4)c(-c4c(F)c(F)c(F)c(F)c4F)c4nc(c(-c5c(F)c(F)c(F)c(F)c5F)c5ccc2[nH]5)C=C4)C=C3)cc1
REMARK SMILES IDX 16 1 15 2 14 3 12 4 13 5 11 6 1 7 2 8 3 9 4 11 5 12 6 13
REMARK SMILES IDX 7 15 8 16 10 18 9 19 17 21 18 22 19 23 20 24 21 25 82 26
REMARK SMILES IDX 22 27 81 28 23 29 24 30 25 31 75 32 26 33 80 34 74 35 76 36
REMARK SMILES IDX 27 37 79 38 73 39 72 40 28 42 60 43 40 44 59 45 41 46 44 47
REMARK SMILES IDX 58 48 77 49 42 50 43 51 57 53 78 54 45 55 29 56 30 57 38 58
REMARK SMILES IDX 31 59 32 60 36 61 39 62 33 63 34 64 37 65 35 66 61 67 62 68
REMARK SMILES IDX 70 69 63 70 64 71 68 72 71 73 65 74 66 75 69 76 67 77 46 78
REMARK SMILES IDX 47 79 55 80 48 81 49 82 53 83 56 84 50 85 51 86 54 87 52 88
REMARK H PARENT 2 10 5 14 7 17 10 20 76 41 44 52
REMARK Flexibility Score: inf
ROOT
ATOM      1  C   UNL A   1      31.518  31.181  26.362  1.00  0.00     0.275 C 
ENDROOT
BRANCH   1   2
ATOM      2  C   UNL A   1      31.388  30.130  25.253  1.00  0.00     0.274 C 
BRANCH   2   3
ATOM      3  O   UNL A   1      31.586  28.806  25.784  1.00  0.00    -0.460 OA
BRANCH   3   4
ATOM      4  C   UNL A   1      32.657  28.100  25.316  1.00  0.00     0.341 C 
ATOM      5  O   UNL A   1      33.819  28.481  25.407  1.00  0.00    -0.249 OA
BRANCH   4   6
ATOM      6  C   UNL A   1      32.268  26.719  24.776  1.00  0.00     0.308 C 
ATOM      7  C   UNL A   1      31.809  25.687  21.537  1.00  0.00     0.147 C 
ATOM      8  N   UNL A   1      31.585  27.116  21.616  1.00  0.00    -0.321 N 
ATOM      9  C   UNL A   1      30.675  27.780  22.375  1.00  0.00     0.406 C 
ATOM     10  H   UNL A   1      32.163  27.675  21.049  1.00  0.00     0.167 HD
ATOM     11  O   UNL A   1      30.312  28.903  22.038  1.00  0.00    -0.221 OA
ATOM     12  N   UNL A   1      30.154  27.152  23.468  1.00  0.00    -0.191 N 
ATOM     13  C   UNL A   1      30.766  26.605  24.572  1.00  0.00     0.311 C 
ATOM     14  H   UNL A   1      29.172  27.075  23.467  1.00  0.00     0.317 HD
ATOM     15  N   UNL A   1      29.973  26.003  25.406  1.00  0.00    -0.148 N 
ATOM     16  N   UNL A   1      30.536  25.315  26.503  1.00  0.00    -0.077 NA
ATOM     17  H   UNL A   1      28.998  26.025  25.276  1.00  0.00     0.342 HD
ATOM     18  N   UNL A   1      32.721  25.637  25.644  1.00  0.00    -0.350 N 
ATOM     19  C   UNL A   1      31.816  25.136  26.523  1.00  0.00     0.241 C 
ATOM     20  H   UNL A   1      33.638  25.286  25.593  1.00  0.00     0.163 HD
ENDBRANCH   4   6
ENDBRANCH   3   4
ENDBRANCH   2   3
ENDBRANCH   1   2
BRANCH   1  21
ATOM     21  O   UNL A   1      32.621  30.907  27.252  1.00  0.00    -0.458 OA
BRANCH  21  22
ATOM     22  C   UNL A   1      33.410  31.969  27.527  1.00  0.00     0.338 C 
ATOM     23  O   UNL A   1      33.074  33.139  27.622  1.00  0.00    -0.246 OA
BRANCH  22  24
ATOM     24  C   UNL A   1      34.778  31.530  27.849  1.00  0.00     0.060 A 
ATOM     25  C   UNL A   1      34.954  30.178  28.146  1.00  0.00     0.016 A 
ATOM     26  C   UNL A   1      35.830  32.430  28.016  1.00  0.00     0.016 A 
ATOM     27  C   UNL A   1      36.148  29.726  28.691  1.00  0.00     0.010 A 
ATOM     28  C   UNL A   1      37.048  31.968  28.535  1.00  0.00     0.010 A 
ATOM     29  C   UNL A   1      37.198  30.622  28.915  1.00  0.00    -0.014 A 
BRANCH  29  30
ATOM     30  C   UNL A   1      38.394  30.142  29.652  1.00  0.00     0.031 A 
ATOM     31  C   UNL A   1      38.598  30.551  31.085  1.00  0.00     0.074 A 
ATOM     32  C   UNL A   1      39.233  29.259  29.082  1.00  0.00     0.049 A 
ATOM     33  N   UNL A   1      39.580  30.261  31.900  1.00  0.00    -0.248 NA
ATOM     34  C   UNL A   1      37.554  31.398  31.681  1.00  0.00     0.031 C 
ATOM     35  C   UNL A   1      39.102  28.723  27.727  1.00  0.00     0.029 A 
ATOM     36  N   UNL A   1      40.347  28.635  29.583  1.00  0.00    -0.354 N 
ATOM     37  C   UNL A   1      39.295  30.923  33.087  1.00  0.00     0.074 A 
ATOM     38  C   UNL A   1      38.049  31.633  32.887  1.00  0.00     0.031 C 
ATOM     39  C   UNL A   1      40.074  27.821  27.519  1.00  0.00     0.029 A 
ATOM     40  C   UNL A   1      40.927  27.757  28.702  1.00  0.00     0.049 A 
ATOM     41  H   UNL A   1      40.697  28.801  30.488  1.00  0.00     0.167 HD
ATOM     42  C   UNL A   1      40.008  30.939  34.238  1.00  0.00     0.037 A 
ATOM     43  C   UNL A   1      42.030  26.996  28.832  1.00  0.00     0.037 A 
ATOM     44  C   UNL A   1      41.225  30.201  34.453  1.00  0.00     0.049 A 
ATOM     45  C   UNL A   1      42.822  27.055  30.108  1.00  0.00     0.074 A 
ATOM     46  C   UNL A   1      42.023  30.157  35.582  1.00  0.00     0.029 A 
ATOM     47  N   UNL A   1      41.810  29.362  33.516  1.00  0.00    -0.354 N 
ATOM     48  N   UNL A   1      42.573  27.726  31.206  1.00  0.00    -0.248 NA
ATOM     49  C   UNL A   1      44.056  26.259  30.156  1.00  0.00     0.031 C 
ATOM     50  C   UNL A   1      43.107  29.312  35.320  1.00  0.00     0.029 A 
ATOM     51  C   UNL A   1      42.964  28.802  34.040  1.00  0.00     0.049 A 
ATOM     52  H   UNL A   1      41.458  29.191  32.613  1.00  0.00     0.167 HD
ATOM     53  C   UNL A   1      43.607  27.422  32.081  1.00  0.00     0.074 A 
ATOM     54  C   UNL A   1      44.481  26.495  31.390  1.00  0.00     0.031 C 
ATOM     55  C   UNL A   1      43.815  27.872  33.342  1.00  0.00     0.037 A 
BRANCH  42  56
ATOM     56  C   UNL A   1      39.505  31.823  35.341  1.00  0.00     0.064 A 
ATOM     57  C   UNL A   1      38.631  31.350  36.330  1.00  0.00     0.173 A 
ATOM     58  C   UNL A   1      39.904  33.166  35.402  1.00  0.00     0.173 A 
ATOM     59  F   UNL A   1      38.204  30.078  36.300  1.00  0.00    -0.203 F 
ATOM     60  C   UNL A   1      38.150  32.200  37.323  1.00  0.00     0.198 A 
ATOM     61  C   UNL A   1      39.441  34.006  36.411  1.00  0.00     0.198 A 
ATOM     62  F   UNL A   1      40.739  33.666  34.479  1.00  0.00    -0.203 F 
ATOM     63  F   UNL A   1      37.272  31.741  38.227  1.00  0.00    -0.200 F 
ATOM     64  C   UNL A   1      38.558  33.525  37.365  1.00  0.00     0.200 A 
ATOM     65  F   UNL A   1      39.840  35.285  36.452  1.00  0.00    -0.200 F 
ATOM     66  F   UNL A   1      38.088  34.342  38.318  1.00  0.00    -0.200 F 
ENDBRANCH  42  56
BRANCH  43  67
ATOM     67  C   UNL A   1      42.448  26.110  27.717  1.00  0.00     0.064 A 
ATOM     68  C   UNL A   1      41.898  24.830  27.573  1.00  0.00     0.173 A 
ATOM     69  C   UNL A   1      43.395  26.528  26.770  1.00  0.00     0.173 A 
ATOM     70  F   UNL A   1      41.007  24.380  28.469  1.00  0.00    -0.203 F 
ATOM     71  C   UNL A   1      42.282  23.998  26.523  1.00  0.00     0.198 A 
ATOM     72  C   UNL A   1      43.761  25.703  25.709  1.00  0.00     0.198 A 
ATOM     73  F   UNL A   1      43.952  27.743  26.870  1.00  0.00    -0.203 F 
ATOM     74  F   UNL A   1      41.764  22.765  26.425  1.00  0.00    -0.200 F 
ATOM     75  C   UNL A   1      43.208  24.438  25.589  1.00  0.00     0.200 A 
ATOM     76  F   UNL A   1      44.649  26.136  24.804  1.00  0.00    -0.200 F 
ATOM     77  F   UNL A   1      43.571  23.639  24.576  1.00  0.00    -0.200 F 
ENDBRANCH  43  67
BRANCH  55  78
ATOM     78  C   UNL A   1      45.012  27.339  34.069  1.00  0.00     0.064 A 
ATOM     79  C   UNL A   1      46.251  27.993  34.021  1.00  0.00     0.173 A 
ATOM     80  C   UNL A   1      44.910  26.175  34.844  1.00  0.00     0.173 A 
ATOM     81  F   UNL A   1      46.401  29.102  33.279  1.00  0.00    -0.203 F 
ATOM     82  C   UNL A   1      47.352  27.489  34.707  1.00  0.00     0.198 A 
ATOM     83  C   UNL A   1      46.008  25.685  35.546  1.00  0.00     0.198 A 
ATOM     84  F   UNL A   1      43.744  25.516  34.924  1.00  0.00    -0.203 F 
ATOM     85  F   UNL A   1      48.537  28.106  34.615  1.00  0.00    -0.200 F 
ATOM     86  C   UNL A   1      47.229  26.338  35.472  1.00  0.00     0.200 A 
ATOM     87  F   UNL A   1      45.885  24.577  36.291  1.00  0.00    -0.200 F 
ATOM     88  F   UNL A   1      48.290  25.854  36.132  1.00  0.00    -0.200 F 
ENDBRANCH  55  78
ENDBRANCH  29  30
ENDBRANCH  22  24
ENDBRANCH  21  22
ENDBRANCH   1  21
TORSDOF 11
ENDMDL
