MODEL 1
REMARK VINA RESULT:     -11.0      0.000      0.000
REMARK SMILES O=C(OCCOC(=O)c1ccc(COc2cccc(C(F)(F)F)c2)nc1)c1ccc(-c2c3nc(c(-c4c(F)c(F)c(F)c(F)c4F)c4ccc([nH]4)c(-c4c(F)c(F)c(F)c(F)c4F)c4nc(c(-c5c(F)c(F)c(F)c(F)c5F)c5ccc2[nH]5)C=C4)C=C3)cc1
REMARK SMILES IDX 5 1 4 2 3 3 2 4 1 5 27 6 28 7 89 8 29 9 88 10 30 11 31 12
REMARK SMILES IDX 32 13 82 14 33 15 87 16 81 17 83 18 34 19 86 20 80 21 79 22
REMARK SMILES IDX 35 24 67 25 47 26 66 27 48 28 51 29 65 30 84 31 49 32 50 33
REMARK SMILES IDX 64 35 85 36 52 37 36 38 37 39 45 40 38 41 39 42 43 43 46 44
REMARK SMILES IDX 40 45 41 46 44 47 42 48 68 49 69 50 77 51 70 52 71 53 75 54
REMARK SMILES IDX 78 55 72 56 73 57 76 58 74 59 53 60 54 61 62 62 55 63 56 64
REMARK SMILES IDX 60 65 63 66 57 67 58 68 61 69 59 70 6 71 7 72 8 73 9 74
REMARK SMILES IDX 10 75 26 76 11 77 25 78 12 79 13 80 14 81 15 82 16 83 24 84
REMARK SMILES IDX 17 85 19 86 18 87 20 88 21 89 22 90 23 91
REMARK H PARENT 83 23 51 34
REMARK Flexibility Score: inf
ROOT
ATOM      1  C   UNL A   1      41.796  19.832  27.070  1.00  0.00     0.275 C 
ENDROOT
BRANCH   1   2
ATOM      2  C   UNL A   1      40.780  20.886  27.515  1.00  0.00     0.275 C 
BRANCH   2   3
ATOM      3  O   UNL A   1      40.300  21.750  26.466  1.00  0.00    -0.458 OA
BRANCH   3   4
ATOM      4  C   UNL A   1      39.359  22.723  26.492  1.00  0.00     0.338 C 
ATOM      5  O   UNL A   1      38.243  22.487  26.033  1.00  0.00    -0.246 OA
BRANCH   4   6
ATOM      6  C   UNL A   1      39.645  24.131  26.903  1.00  0.00     0.060 A 
ATOM      7  C   UNL A   1      40.230  25.112  26.103  1.00  0.00     0.016 A 
ATOM      8  C   UNL A   1      39.310  24.475  28.228  1.00  0.00     0.016 A 
ATOM      9  C   UNL A   1      40.426  26.410  26.585  1.00  0.00     0.010 A 
ATOM     10  C   UNL A   1      39.484  25.776  28.712  1.00  0.00     0.010 A 
ATOM     11  C   UNL A   1      40.067  26.746  27.892  1.00  0.00    -0.014 A 
BRANCH  11  12
ATOM     12  C   UNL A   1      40.498  28.052  28.437  1.00  0.00     0.031 A 
ATOM     13  C   UNL A   1      41.970  28.321  28.533  1.00  0.00     0.074 A 
ATOM     14  C   UNL A   1      39.604  29.009  28.742  1.00  0.00     0.049 A 
ATOM     15  N   UNL A   1      42.589  29.439  28.804  1.00  0.00    -0.248 NA
ATOM     16  C   UNL A   1      42.866  27.187  28.253  1.00  0.00     0.031 C 
ATOM     17  C   UNL A   1      38.156  28.874  28.622  1.00  0.00     0.029 A 
ATOM     18  N   UNL A   1      39.780  30.288  29.204  1.00  0.00    -0.354 N 
ATOM     19  C   UNL A   1      43.941  29.153  28.680  1.00  0.00     0.074 A 
ATOM     20  C   UNL A   1      44.059  27.743  28.384  1.00  0.00     0.031 C 
ATOM     21  C   UNL A   1      37.567  30.010  29.033  1.00  0.00     0.029 A 
ATOM     22  C   UNL A   1      38.603  30.963  29.418  1.00  0.00     0.049 A 
ATOM     23  H   UNL A   1      40.666  30.684  29.366  1.00  0.00     0.167 HD
ATOM     24  C   UNL A   1      44.990  30.001  28.769  1.00  0.00     0.037 A 
ATOM     25  C   UNL A   1      38.393  32.221  29.851  1.00  0.00     0.037 A 
ATOM     26  C   UNL A   1      44.866  31.393  29.101  1.00  0.00     0.049 A 
ATOM     27  C   UNL A   1      39.585  33.117  30.059  1.00  0.00     0.074 A 
ATOM     28  C   UNL A   1      45.859  32.344  29.237  1.00  0.00     0.029 A 
ATOM     29  N   UNL A   1      43.660  32.025  29.371  1.00  0.00    -0.354 N 
ATOM     30  N   UNL A   1      40.856  32.857  29.866  1.00  0.00    -0.248 NA
ATOM     31  C   UNL A   1      39.313  34.489  30.506  1.00  0.00     0.031 C 
ATOM     32  C   UNL A   1      45.258  33.543  29.637  1.00  0.00     0.029 A 
ATOM     33  C   UNL A   1      43.886  33.350  29.702  1.00  0.00     0.049 A 
ATOM     34  H   UNL A   1      42.775  31.595  29.332  1.00  0.00     0.167 HD
ATOM     35  C   UNL A   1      41.532  34.044  30.116  1.00  0.00     0.074 A 
ATOM     36  C   UNL A   1      40.526  35.024  30.478  1.00  0.00     0.031 C 
ATOM     37  C   UNL A   1      42.860  34.305  30.041  1.00  0.00     0.037 A 
BRANCH  24  38
ATOM     38  C   UNL A   1      46.350  29.419  28.522  1.00  0.00     0.064 A 
ATOM     39  C   UNL A   1      47.215  29.107  29.584  1.00  0.00     0.173 A 
ATOM     40  C   UNL A   1      46.810  29.212  27.215  1.00  0.00     0.173 A 
ATOM     41  F   UNL A   1      46.829  29.311  30.852  1.00  0.00    -0.203 F 
ATOM     42  C   UNL A   1      48.504  28.640  29.342  1.00  0.00     0.198 A 
ATOM     43  C   UNL A   1      48.092  28.723  26.978  1.00  0.00     0.198 A 
ATOM     44  F   UNL A   1      46.024  29.502  26.167  1.00  0.00    -0.203 F 
ATOM     45  F   UNL A   1      49.334  28.407  30.368  1.00  0.00    -0.200 F 
ATOM     46  C   UNL A   1      48.941  28.448  28.039  1.00  0.00     0.200 A 
ATOM     47  F   UNL A   1      48.513  28.535  25.719  1.00  0.00    -0.200 F 
ATOM     48  F   UNL A   1      50.186  28.011  27.808  1.00  0.00    -0.200 F 
ENDBRANCH  24  38
BRANCH  25  49
ATOM     49  C   UNL A   1      37.009  32.720  30.067  1.00  0.00     0.064 A 
ATOM     50  C   UNL A   1      36.279  33.319  29.029  1.00  0.00     0.173 A 
ATOM     51  C   UNL A   1      36.392  32.621  31.322  1.00  0.00     0.173 A 
ATOM     52  F   UNL A   1      36.829  33.449  27.813  1.00  0.00    -0.203 F 
ATOM     53  C   UNL A   1      34.998  33.822  29.247  1.00  0.00     0.198 A 
ATOM     54  C   UNL A   1      35.101  33.105  31.533  1.00  0.00     0.198 A 
ATOM     55  F   UNL A   1      37.041  32.048  32.346  1.00  0.00    -0.203 F 
ATOM     56  F   UNL A   1      34.340  34.428  28.249  1.00  0.00    -0.200 F 
ATOM     57  C   UNL A   1      34.408  33.714  30.498  1.00  0.00     0.200 A 
ATOM     58  F   UNL A   1      34.531  32.985  32.740  1.00  0.00    -0.200 F 
ATOM     59  F   UNL A   1      33.177  34.198  30.706  1.00  0.00    -0.200 F 
ENDBRANCH  25  49
BRANCH  37  60
ATOM     60  C   UNL A   1      43.294  35.716  30.305  1.00  0.00     0.064 A 
ATOM     61  C   UNL A   1      43.693  36.137  31.582  1.00  0.00     0.173 A 
ATOM     62  C   UNL A   1      43.352  36.644  29.255  1.00  0.00     0.173 A 
ATOM     63  F   UNL A   1      43.639  35.288  32.619  1.00  0.00    -0.203 F 
ATOM     64  C   UNL A   1      44.109  37.447  31.802  1.00  0.00     0.198 A 
ATOM     65  C   UNL A   1      43.797  37.943  29.473  1.00  0.00     0.198 A 
ATOM     66  F   UNL A   1      42.986  36.286  28.015  1.00  0.00    -0.203 F 
ATOM     67  F   UNL A   1      44.440  37.842  33.039  1.00  0.00    -0.200 F 
ATOM     68  C   UNL A   1      44.168  38.346  30.747  1.00  0.00     0.200 A 
ATOM     69  F   UNL A   1      43.866  38.807  28.451  1.00  0.00    -0.200 F 
ATOM     70  F   UNL A   1      44.577  39.604  30.961  1.00  0.00    -0.200 F 
ENDBRANCH  37  60
ENDBRANCH  11  12
ENDBRANCH   4   6
ENDBRANCH   3   4
ENDBRANCH   2   3
ENDBRANCH   1   2
BRANCH   1  71
ATOM     71  O   UNL A   1      42.115  19.914  25.675  1.00  0.00    -0.458 OA
BRANCH  71  72
ATOM     72  C   UNL A   1      43.408  19.618  25.386  1.00  0.00     0.339 C 
ATOM     73  O   UNL A   1      43.878  18.510  25.188  1.00  0.00    -0.246 OA
BRANCH  72  74
ATOM     74  C   UNL A   1      44.173  20.852  25.196  1.00  0.00     0.078 A 
ATOM     75  C   UNL A   1      43.584  22.097  24.989  1.00  0.00     0.019 A 
ATOM     76  C   UNL A   1      45.555  20.771  25.258  1.00  0.00     0.127 A 
ATOM     77  C   UNL A   1      44.403  23.226  24.918  1.00  0.00     0.028 A 
ATOM     78  N   UNL A   1      46.371  21.845  25.143  1.00  0.00    -0.257 NA
ATOM     79  C   UNL A   1      45.786  23.068  25.043  1.00  0.00     0.078 A 
BRANCH  79  80
ATOM     80  C   UNL A   1      46.662  24.271  25.342  1.00  0.00     0.285 C 
BRANCH  80  81
ATOM     81  O   UNL A   1      47.415  24.158  26.574  1.00  0.00    -0.487 OA
BRANCH  81  82
ATOM     82  C   UNL A   1      46.710  24.416  27.719  1.00  0.00     0.120 A 
ATOM     83  C   UNL A   1      47.233  25.339  28.616  1.00  0.00     0.046 A 
ATOM     84  C   UNL A   1      45.565  23.705  28.078  1.00  0.00     0.059 A 
ATOM     85  C   UNL A   1      46.568  25.594  29.820  1.00  0.00     0.004 A 
ATOM     86  C   UNL A   1      44.840  24.001  29.237  1.00  0.00     0.059 A 
ATOM     87  C   UNL A   1      45.366  24.946  30.121  1.00  0.00     0.013 A 
BRANCH  86  88
ATOM     88  C   UNL A   1      43.537  23.293  29.509  1.00  0.00     0.416 C 
ATOM     89  F   UNL A   1      43.397  22.141  28.802  1.00  0.00    -0.166 F 
ATOM     90  F   UNL A   1      43.392  22.953  30.821  1.00  0.00    -0.166 F 
ATOM     91  F   UNL A   1      42.439  24.051  29.215  1.00  0.00    -0.166 F 
ENDBRANCH  86  88
ENDBRANCH  81  82
ENDBRANCH  80  81
ENDBRANCH  79  80
ENDBRANCH  72  74
ENDBRANCH  71  72
ENDBRANCH   1  71
TORSDOF 15
ENDMDL
MODEL 2
REMARK VINA RESULT:     -10.8      5.030      9.852
REMARK SMILES O=C(OCCOC(=O)c1ccc(COc2cccc(C(F)(F)F)c2)nc1)c1ccc(-c2c3nc(c(-c4c(F)c(F)c(F)c(F)c4F)c4ccc([nH]4)c(-c4c(F)c(F)c(F)c(F)c4F)c4nc(c(-c5c(F)c(F)c(F)c(F)c5F)c5ccc2[nH]5)C=C4)C=C3)cc1
REMARK SMILES IDX 5 1 4 2 3 3 2 4 1 5 27 6 28 7 89 8 29 9 88 10 30 11 31 12
REMARK SMILES IDX 32 13 82 14 33 15 87 16 81 17 83 18 34 19 86 20 80 21 79 22
REMARK SMILES IDX 35 24 67 25 47 26 66 27 48 28 51 29 65 30 84 31 49 32 50 33
REMARK SMILES IDX 64 35 85 36 52 37 36 38 37 39 45 40 38 41 39 42 43 43 46 44
REMARK SMILES IDX 40 45 41 46 44 47 42 48 68 49 69 50 77 51 70 52 71 53 75 54
REMARK SMILES IDX 78 55 72 56 73 57 76 58 74 59 53 60 54 61 62 62 55 63 56 64
REMARK SMILES IDX 60 65 63 66 57 67 58 68 61 69 59 70 6 71 7 72 8 73 9 74
REMARK SMILES IDX 10 75 26 76 11 77 25 78 12 79 13 80 14 81 15 82 16 83 24 84
REMARK SMILES IDX 17 85 19 86 18 87 20 88 21 89 22 90 23 91
REMARK H PARENT 83 23 51 34
REMARK Flexibility Score: inf
ROOT
ATOM      1  C   UNL A   1      43.124  21.020  26.176  1.00  0.00     0.275 C 
ENDROOT
BRANCH   1   2
ATOM      2  C   UNL A   1      43.647  21.913  25.049  1.00  0.00     0.275 C 
BRANCH   2   3
ATOM      3  O   UNL A   1      43.092  23.243  25.020  1.00  0.00    -0.458 OA
BRANCH   3   4
ATOM      4  C   UNL A   1      43.689  24.446  25.193  1.00  0.00     0.338 C 
ATOM      5  O   UNL A   1      44.732  24.688  24.588  1.00  0.00    -0.246 OA
BRANCH   4   6
ATOM      6  C   UNL A   1      43.239  25.449  26.206  1.00  0.00     0.060 A 
ATOM      7  C   UNL A   1      43.633  26.786  26.260  1.00  0.00     0.016 A 
ATOM      8  C   UNL A   1      42.359  24.980  27.201  1.00  0.00     0.016 A 
ATOM      9  C   UNL A   1      43.126  27.645  27.240  1.00  0.00     0.010 A 
ATOM     10  C   UNL A   1      41.832  25.837  28.173  1.00  0.00     0.010 A 
ATOM     11  C   UNL A   1      42.234  27.175  28.207  1.00  0.00    -0.014 A 
BRANCH  11  12
ATOM     12  C   UNL A   1      41.903  28.047  29.355  1.00  0.00     0.031 A 
ATOM     13  C   UNL A   1      40.678  28.906  29.253  1.00  0.00     0.074 A 
ATOM     14  C   UNL A   1      42.615  28.000  30.494  1.00  0.00     0.049 A 
ATOM     15  N   UNL A   1      40.084  29.611  30.180  1.00  0.00    -0.248 NA
ATOM     16  C   UNL A   1      40.011  28.950  27.941  1.00  0.00     0.031 C 
ATOM     17  C   UNL A   1      43.781  27.152  30.721  1.00  0.00     0.029 A 
ATOM     18  N   UNL A   1      42.458  28.669  31.681  1.00  0.00    -0.354 N 
ATOM     19  C   UNL A   1      38.954  30.141  29.574  1.00  0.00     0.074 A 
ATOM     20  C   UNL A   1      38.980  29.741  28.185  1.00  0.00     0.031 C 
ATOM     21  C   UNL A   1      44.261  27.374  31.956  1.00  0.00     0.029 A 
ATOM     22  C   UNL A   1      43.413  28.361  32.618  1.00  0.00     0.049 A 
ATOM     23  H   UNL A   1      41.729  29.310  31.844  1.00  0.00     0.167 HD
ATOM     24  C   UNL A   1      37.962  30.867  30.137  1.00  0.00     0.037 A 
ATOM     25  C   UNL A   1      43.565  28.810  33.879  1.00  0.00     0.037 A 
ATOM     26  C   UNL A   1      37.964  31.292  31.509  1.00  0.00     0.049 A 
ATOM     27  C   UNL A   1      42.507  29.716  34.450  1.00  0.00     0.074 A 
ATOM     28  C   UNL A   1      37.023  32.045  32.185  1.00  0.00     0.029 A 
ATOM     29  N   UNL A   1      38.981  31.010  32.411  1.00  0.00    -0.354 N 
ATOM     30  N   UNL A   1      41.403  30.150  33.892  1.00  0.00    -0.248 NA
ATOM     31  C   UNL A   1      42.695  30.162  35.837  1.00  0.00     0.031 C 
ATOM     32  C   UNL A   1      37.494  32.261  33.485  1.00  0.00     0.029 A 
ATOM     33  C   UNL A   1      38.705  31.600  33.632  1.00  0.00     0.049 A 
ATOM     34  H   UNL A   1      39.780  30.471  32.212  1.00  0.00     0.167 HD
ATOM     35  C   UNL A   1      40.738  30.876  34.871  1.00  0.00     0.074 A 
ATOM     36  C   UNL A   1      41.568  30.824  36.059  1.00  0.00     0.031 C 
ATOM     37  C   UNL A   1      39.545  31.515  34.801  1.00  0.00     0.037 A 
BRANCH  24  38
ATOM     38  C   UNL A   1      36.820  31.252  29.246  1.00  0.00     0.064 A 
ATOM     39  C   UNL A   1      36.682  32.563  28.759  1.00  0.00     0.173 A 
ATOM     40  C   UNL A   1      35.831  30.318  28.910  1.00  0.00     0.173 A 
ATOM     41  F   UNL A   1      37.589  33.499  29.075  1.00  0.00    -0.203 F 
ATOM     42  C   UNL A   1      35.576  32.930  27.997  1.00  0.00     0.198 A 
ATOM     43  C   UNL A   1      34.739  30.684  28.127  1.00  0.00     0.198 A 
ATOM     44  F   UNL A   1      35.913  29.056  29.356  1.00  0.00    -0.203 F 
ATOM     45  F   UNL A   1      35.434  34.200  27.595  1.00  0.00    -0.200 F 
ATOM     46  C   UNL A   1      34.607  31.990  27.681  1.00  0.00     0.200 A 
ATOM     47  F   UNL A   1      33.803  29.774  27.820  1.00  0.00    -0.200 F 
ATOM     48  F   UNL A   1      33.537  32.348  26.958  1.00  0.00    -0.200 F 
ENDBRANCH  24  38
BRANCH  25  49
ATOM     49  C   UNL A   1      44.728  28.373  34.696  1.00  0.00     0.064 A 
ATOM     50  C   UNL A   1      45.919  29.114  34.726  1.00  0.00     0.173 A 
ATOM     51  C   UNL A   1      44.678  27.194  35.453  1.00  0.00     0.173 A 
ATOM     52  F   UNL A   1      46.022  30.243  34.009  1.00  0.00    -0.203 F 
ATOM     53  C   UNL A   1      47.021  28.679  35.459  1.00  0.00     0.198 A 
ATOM     54  C   UNL A   1      45.774  26.771  36.205  1.00  0.00     0.198 A 
ATOM     55  F   UNL A   1      43.561  26.453  35.468  1.00  0.00    -0.203 F 
ATOM     56  F   UNL A   1      48.160  29.384  35.435  1.00  0.00    -0.200 F 
ATOM     57  C   UNL A   1      46.947  27.508  36.200  1.00  0.00     0.200 A 
ATOM     58  F   UNL A   1      45.693  25.647  36.929  1.00  0.00    -0.200 F 
ATOM     59  F   UNL A   1      48.007  27.090  36.905  1.00  0.00    -0.200 F 
ENDBRANCH  25  49
BRANCH  37  60
ATOM     60  C   UNL A   1      39.044  32.165  36.056  1.00  0.00     0.064 A 
ATOM     61  C   UNL A   1      39.360  33.494  36.375  1.00  0.00     0.173 A 
ATOM     62  C   UNL A   1      38.201  31.459  36.928  1.00  0.00     0.173 A 
ATOM     63  F   UNL A   1      40.174  34.203  35.579  1.00  0.00    -0.203 F 
ATOM     64  C   UNL A   1      38.870  34.084  37.537  1.00  0.00     0.198 A 
ATOM     65  C   UNL A   1      37.690  32.061  38.072  1.00  0.00     0.198 A 
ATOM     66  F   UNL A   1      37.866  30.188  36.663  1.00  0.00    -0.203 F 
ATOM     67  F   UNL A   1      39.222  35.338  37.847  1.00  0.00    -0.200 F 
ATOM     68  C   UNL A   1      38.030  33.370  38.379  1.00  0.00     0.200 A 
ATOM     69  F   UNL A   1      36.868  31.376  38.879  1.00  0.00    -0.200 F 
ATOM     70  F   UNL A   1      37.553  33.944  39.493  1.00  0.00    -0.200 F 
ENDBRANCH  37  60
ENDBRANCH  11  12
ENDBRANCH   4   6
ENDBRANCH   3   4
ENDBRANCH   2   3
ENDBRANCH   1   2
BRANCH   1  71
ATOM     71  O   UNL A   1      42.052  20.164  25.763  1.00  0.00    -0.458 OA
BRANCH  71  72
ATOM     72  C   UNL A   1      41.033  20.085  26.656  1.00  0.00     0.339 C 
ATOM     73  O   UNL A   1      41.122  19.840  27.848  1.00  0.00    -0.246 OA
BRANCH  72  74
ATOM     74  C   UNL A   1      39.777  20.486  26.019  1.00  0.00     0.078 A 
ATOM     75  C   UNL A   1      38.960  19.606  25.312  1.00  0.00     0.019 A 
ATOM     76  C   UNL A   1      39.372  21.803  26.159  1.00  0.00     0.127 A 
ATOM     77  C   UNL A   1      37.734  20.067  24.828  1.00  0.00     0.028 A 
ATOM     78  N   UNL A   1      38.211  22.284  25.657  1.00  0.00    -0.257 NA
ATOM     79  C   UNL A   1      37.373  21.398  25.057  1.00  0.00     0.078 A 
BRANCH  79  80
ATOM     80  C   UNL A   1      35.929  21.832  24.885  1.00  0.00     0.285 C 
BRANCH  80  81
ATOM     81  O   UNL A   1      34.979  21.015  25.612  1.00  0.00    -0.487 OA
BRANCH  81  82
ATOM     82  C   UNL A   1      34.210  20.183  24.844  1.00  0.00     0.120 A 
ATOM     83  C   UNL A   1      33.091  20.717  24.217  1.00  0.00     0.046 A 
ATOM     84  C   UNL A   1      34.431  18.808  24.767  1.00  0.00     0.059 A 
ATOM     85  C   UNL A   1      32.253  19.890  23.463  1.00  0.00     0.004 A 
ATOM     86  C   UNL A   1      33.653  17.976  23.954  1.00  0.00     0.059 A 
ATOM     87  C   UNL A   1      32.543  18.530  23.313  1.00  0.00     0.013 A 
BRANCH  86  88
ATOM     88  C   UNL A   1      34.018  16.520  23.803  1.00  0.00     0.416 C 
ATOM     89  F   UNL A   1      35.043  16.140  24.610  1.00  0.00    -0.166 F 
ATOM     90  F   UNL A   1      32.977  15.690  24.094  1.00  0.00    -0.166 F 
ATOM     91  F   UNL A   1      34.394  16.187  22.533  1.00  0.00    -0.166 F 
ENDBRANCH  86  88
ENDBRANCH  81  82
ENDBRANCH  80  81
ENDBRANCH  79  80
ENDBRANCH  72  74
ENDBRANCH  71  72
ENDBRANCH   1  71
TORSDOF 15
ENDMDL
MODEL 3
REMARK VINA RESULT:     -10.8      5.486     11.319
REMARK SMILES O=C(OCCOC(=O)c1ccc(COc2cccc(C(F)(F)F)c2)nc1)c1ccc(-c2c3nc(c(-c4c(F)c(F)c(F)c(F)c4F)c4ccc([nH]4)c(-c4c(F)c(F)c(F)c(F)c4F)c4nc(c(-c5c(F)c(F)c(F)c(F)c5F)c5ccc2[nH]5)C=C4)C=C3)cc1
REMARK SMILES IDX 5 1 4 2 3 3 2 4 1 5 27 6 28 7 89 8 29 9 88 10 30 11 31 12
REMARK SMILES IDX 32 13 82 14 33 15 87 16 81 17 83 18 34 19 86 20 80 21 79 22
REMARK SMILES IDX 35 24 67 25 47 26 66 27 48 28 51 29 65 30 84 31 49 32 50 33
REMARK SMILES IDX 64 35 85 36 52 37 36 38 37 39 45 40 38 41 39 42 43 43 46 44
REMARK SMILES IDX 40 45 41 46 44 47 42 48 68 49 69 50 77 51 70 52 71 53 75 54
REMARK SMILES IDX 78 55 72 56 73 57 76 58 74 59 53 60 54 61 62 62 55 63 56 64
REMARK SMILES IDX 60 65 63 66 57 67 58 68 61 69 59 70 6 71 7 72 8 73 9 74
REMARK SMILES IDX 10 75 26 76 11 77 25 78 12 79 13 80 14 81 15 82 16 83 24 84
REMARK SMILES IDX 17 85 19 86 18 87 20 88 21 89 22 90 23 91
REMARK H PARENT 83 23 51 34
REMARK Flexibility Score: inf
ROOT
ATOM      1  C   UNL A   1      32.478  30.789  26.907  1.00  0.00     0.275 C 
ENDROOT
BRANCH   1   2
ATOM      2  C   UNL A   1      32.016  32.247  26.843  1.00  0.00     0.275 C 
BRANCH   2   3
ATOM      3  O   UNL A   1      32.565  33.104  27.864  1.00  0.00    -0.458 OA
BRANCH   3   4
ATOM      4  C   UNL A   1      33.809  33.621  27.999  1.00  0.00     0.338 C 
ATOM      5  O   UNL A   1      34.042  34.743  27.553  1.00  0.00    -0.246 OA
BRANCH   4   6
ATOM      6  C   UNL A   1      34.972  32.840  28.522  1.00  0.00     0.060 A 
ATOM      7  C   UNL A   1      34.901  31.610  29.174  1.00  0.00     0.016 A 
ATOM      8  C   UNL A   1      36.243  33.425  28.355  1.00  0.00     0.016 A 
ATOM      9  C   UNL A   1      36.060  30.954  29.599  1.00  0.00     0.010 A 
ATOM     10  C   UNL A   1      37.409  32.768  28.760  1.00  0.00     0.010 A 
ATOM     11  C   UNL A   1      37.317  31.532  29.406  1.00  0.00    -0.014 A 
BRANCH  11  12
ATOM     12  C   UNL A   1      38.491  30.923  30.068  1.00  0.00     0.031 A 
ATOM     13  C   UNL A   1      38.763  31.297  31.495  1.00  0.00     0.074 A 
ATOM     14  C   UNL A   1      39.234  29.989  29.450  1.00  0.00     0.049 A 
ATOM     15  N   UNL A   1      39.612  30.771  32.339  1.00  0.00    -0.248 NA
ATOM     16  C   UNL A   1      37.946  32.384  32.059  1.00  0.00     0.031 C 
ATOM     17  C   UNL A   1      39.015  29.508  28.090  1.00  0.00     0.029 A 
ATOM     18  N   UNL A   1      40.316  29.268  29.886  1.00  0.00    -0.354 N 
ATOM     19  C   UNL A   1      39.397  31.432  33.540  1.00  0.00     0.074 A 
ATOM     20  C   UNL A   1      38.393  32.444  33.302  1.00  0.00     0.031 C 
ATOM     21  C   UNL A   1      39.953  28.595  27.783  1.00  0.00     0.029 A 
ATOM     22  C   UNL A   1      40.822  28.409  28.942  1.00  0.00     0.049 A 
ATOM     23  H   UNL A   1      40.694  29.359  30.790  1.00  0.00     0.167 HD
ATOM     24  C   UNL A   1      39.960  31.188  34.744  1.00  0.00     0.037 A 
ATOM     25  C   UNL A   1      41.857  27.549  29.018  1.00  0.00     0.037 A 
ATOM     26  C   UNL A   1      40.983  30.205  34.963  1.00  0.00     0.049 A 
ATOM     27  C   UNL A   1      42.550  27.379  30.344  1.00  0.00     0.074 A 
ATOM     28  C   UNL A   1      41.641  29.882  36.135  1.00  0.00     0.029 A 
ATOM     29  N   UNL A   1      41.513  29.396  33.967  1.00  0.00    -0.354 N 
ATOM     30  N   UNL A   1      42.289  27.955  31.493  1.00  0.00    -0.248 NA
ATOM     31  C   UNL A   1      43.656  26.414  30.394  1.00  0.00     0.031 C 
ATOM     32  C   UNL A   1      42.603  28.911  35.838  1.00  0.00     0.029 A 
ATOM     33  C   UNL A   1      42.510  28.593  34.491  1.00  0.00     0.049 A 
ATOM     34  H   UNL A   1      41.222  29.393  33.026  1.00  0.00     0.167 HD
ATOM     35  C   UNL A   1      43.158  27.386  32.413  1.00  0.00     0.074 A 
ATOM     36  C   UNL A   1      43.957  26.421  31.685  1.00  0.00     0.031 C 
ATOM     37  C   UNL A   1      43.277  27.628  33.741  1.00  0.00     0.037 A 
BRANCH  24  38
ATOM     38  C   UNL A   1      39.482  32.025  35.893  1.00  0.00     0.064 A 
ATOM     39  C   UNL A   1      40.115  33.232  36.231  1.00  0.00     0.173 A 
ATOM     40  C   UNL A   1      38.413  31.597  36.690  1.00  0.00     0.173 A 
ATOM     41  F   UNL A   1      41.160  33.671  35.514  1.00  0.00    -0.203 F 
ATOM     42  C   UNL A   1      39.714  33.962  37.346  1.00  0.00     0.198 A 
ATOM     43  C   UNL A   1      37.999  32.343  37.791  1.00  0.00     0.198 A 
ATOM     44  F   UNL A   1      37.780  30.447  36.413  1.00  0.00    -0.203 F 
ATOM     45  F   UNL A   1      40.372  35.080  37.686  1.00  0.00    -0.200 F 
ATOM     46  C   UNL A   1      38.655  33.518  38.125  1.00  0.00     0.200 A 
ATOM     47  F   UNL A   1      36.974  31.914  38.541  1.00  0.00    -0.200 F 
ATOM     48  F   UNL A   1      38.279  34.215  39.205  1.00  0.00    -0.200 F 
ENDBRANCH  24  38
BRANCH  25  49
ATOM     49  C   UNL A   1      42.262  26.755  27.829  1.00  0.00     0.064 A 
ATOM     50  C   UNL A   1      41.693  25.501  27.561  1.00  0.00     0.173 A 
ATOM     51  C   UNL A   1      43.241  27.227  26.943  1.00  0.00     0.173 A 
ATOM     52  F   UNL A   1      40.762  24.999  28.384  1.00  0.00    -0.203 F 
ATOM     53  C   UNL A   1      42.107  24.741  26.468  1.00  0.00     0.198 A 
ATOM     54  C   UNL A   1      43.638  26.475  25.838  1.00  0.00     0.198 A 
ATOM     55  F   UNL A   1      43.811  28.424  27.147  1.00  0.00    -0.203 F 
ATOM     56  F   UNL A   1      41.577  23.528  26.259  1.00  0.00    -0.200 F 
ATOM     57  C   UNL A   1      43.077  25.229  25.606  1.00  0.00     0.200 A 
ATOM     58  F   UNL A   1      44.567  26.957  25.001  1.00  0.00    -0.200 F 
ATOM     59  F   UNL A   1      43.475  24.497  24.556  1.00  0.00    -0.200 F 
ENDBRANCH  25  49
BRANCH  37  60
ATOM     60  C   UNL A   1      44.271  26.801  34.500  1.00  0.00     0.064 A 
ATOM     61  C   UNL A   1      43.927  25.560  35.054  1.00  0.00     0.173 A 
ATOM     62  C   UNL A   1      45.597  27.240  34.635  1.00  0.00     0.173 A 
ATOM     63  F   UNL A   1      42.668  25.107  34.963  1.00  0.00    -0.203 F 
ATOM     64  C   UNL A   1      44.870  24.800  35.739  1.00  0.00     0.198 A 
ATOM     65  C   UNL A   1      46.544  26.464  35.294  1.00  0.00     0.198 A 
ATOM     66  F   UNL A   1      45.975  28.418  34.117  1.00  0.00    -0.203 F 
ATOM     67  F   UNL A   1      44.509  23.639  36.303  1.00  0.00    -0.200 F 
ATOM     68  C   UNL A   1      46.178  25.248  35.852  1.00  0.00     0.200 A 
ATOM     69  F   UNL A   1      47.810  26.892  35.392  1.00  0.00    -0.200 F 
ATOM     70  F   UNL A   1      47.086  24.510  36.506  1.00  0.00    -0.200 F 
ENDBRANCH  37  60
ENDBRANCH  11  12
ENDBRANCH   4   6
ENDBRANCH   3   4
ENDBRANCH   2   3
ENDBRANCH   1   2
BRANCH   1  71
ATOM     71  O   UNL A   1      31.403  29.853  26.757  1.00  0.00    -0.458 OA
BRANCH  71  72
ATOM     72  C   UNL A   1      31.757  28.564  26.992  1.00  0.00     0.339 C 
ATOM     73  O   UNL A   1      31.628  27.948  28.037  1.00  0.00    -0.246 OA
BRANCH  72  74
ATOM     74  C   UNL A   1      32.205  27.934  25.747  1.00  0.00     0.078 A 
ATOM     75  C   UNL A   1      33.427  27.281  25.614  1.00  0.00     0.019 A 
ATOM     76  C   UNL A   1      31.346  27.968  24.661  1.00  0.00     0.127 A 
ATOM     77  C   UNL A   1      33.714  26.627  24.413  1.00  0.00     0.028 A 
ATOM     78  N   UNL A   1      31.623  27.383  23.472  1.00  0.00    -0.257 NA
ATOM     79  C   UNL A   1      32.771  26.662  23.382  1.00  0.00     0.078 A 
BRANCH  79  80
ATOM     80  C   UNL A   1      32.872  25.679  22.230  1.00  0.00     0.285 C 
BRANCH  80  81
ATOM     81  O   UNL A   1      34.028  24.809  22.299  1.00  0.00    -0.487 OA
BRANCH  81  82
ATOM     82  C   UNL A   1      33.814  23.594  22.893  1.00  0.00     0.120 A 
ATOM     83  C   UNL A   1      32.575  22.989  22.718  1.00  0.00     0.046 A 
ATOM     84  C   UNL A   1      34.734  23.003  23.759  1.00  0.00     0.059 A 
ATOM     85  C   UNL A   1      32.300  21.770  23.347  1.00  0.00     0.004 A 
ATOM     86  C   UNL A   1      34.511  21.748  24.335  1.00  0.00     0.059 A 
ATOM     87  C   UNL A   1      33.270  21.141  24.134  1.00  0.00     0.013 A 
BRANCH  86  88
ATOM     88  C   UNL A   1      35.595  21.096  25.156  1.00  0.00     0.416 C 
ATOM     89  F   UNL A   1      35.758  19.777  24.874  1.00  0.00    -0.166 F 
ATOM     90  F   UNL A   1      36.813  21.678  24.967  1.00  0.00    -0.166 F 
ATOM     91  F   UNL A   1      35.371  21.170  26.502  1.00  0.00    -0.166 F 
ENDBRANCH  86  88
ENDBRANCH  81  82
ENDBRANCH  80  81
ENDBRANCH  79  80
ENDBRANCH  72  74
ENDBRANCH  71  72
ENDBRANCH   1  71
TORSDOF 15
ENDMDL
