MODEL 1
REMARK VINA RESULT:     -12.2      0.000      0.000
REMARK SMILES CC(C)c1ccc([C@]2(C(=O)OCCOC(=O)c3ccc(-c4c5nc(c(-c6c(F)c(F)c(F)c(F)c6F)c6ccc([nH]6)c(-c6c(F)c(F)c(F)c(F)c6F)c6nc(c(-c7c(F)c(F)c(F)c(F)c7F)c7ccc4[nH]7)C=C6)C=C5)cc3)CCC[C@@H]2C)cc1
REMARK SMILES IDX 12 1 11 2 9 3 10 4 8 5 80 6 83 7 81 8 82 9 84 10 7 11 4 12
REMARK SMILES IDX 5 13 86 14 6 15 85 16 2 17 1 18 3 19 13 20 14 21 15 22 16 23
REMARK SMILES IDX 17 24 18 25 79 26 19 27 78 28 20 29 21 30 22 31 72 32 23 33
REMARK SMILES IDX 77 34 71 35 73 36 24 37 76 38 70 39 69 40 25 42 57 43 37 44
REMARK SMILES IDX 56 45 38 46 41 47 55 48 74 49 39 50 40 51 54 53 75 54 42 55
REMARK SMILES IDX 26 56 27 57 35 58 28 59 29 60 33 61 36 62 30 63 31 64 34 65
REMARK SMILES IDX 32 66 58 67 59 68 67 69 60 70 61 71 65 72 68 73 62 74 63 75
REMARK SMILES IDX 66 76 64 77 43 78 44 79 52 80 45 81 46 82 50 83 53 84 47 85
REMARK SMILES IDX 48 86 51 87 49 88
REMARK H PARENT 73 41 41 52
REMARK Flexibility Score: inf
ROOT
ATOM      1  C   UNL A   1      32.814  29.285  24.345  1.00  0.00     0.274 C 
ENDROOT
BRANCH   1   2
ATOM      2  O   UNL A   1      33.306  27.990  24.746  1.00  0.00    -0.461 OA
BRANCH   2   3
ATOM      3  C   UNL A   1      32.992  26.924  23.957  1.00  0.00     0.316 C 
ATOM      4  O   UNL A   1      32.934  26.978  22.732  1.00  0.00    -0.251 OA
BRANCH   3   5
ATOM      5  C   UNL A   1      32.628  25.655  24.786  1.00  0.00     0.095 C 
ATOM      6  C   UNL A   1      32.123  26.006  26.210  1.00  0.00     0.024 C 
ATOM      7  C   UNL A   1      31.327  25.059  24.150  1.00  0.00     0.008 C 
ATOM      8  C   UNL A   1      30.645  26.390  26.074  1.00  0.00     0.002 C 
ATOM      9  C   UNL A   1      30.228  26.003  24.658  1.00  0.00     0.005 C 
ATOM     10  C   UNL A   1      30.987  23.619  24.561  1.00  0.00     0.009 C 
BRANCH   5  11
ATOM     11  C   UNL A   1      33.834  24.697  24.784  1.00  0.00    -0.030 A 
ATOM     12  C   UNL A   1      36.148  23.022  24.839  1.00  0.00    -0.045 A 
ATOM     13  C   UNL A   1      35.469  23.351  26.018  1.00  0.00     0.004 A 
ATOM     14  C   UNL A   1      35.613  23.478  23.628  1.00  0.00     0.004 A 
ATOM     15  C   UNL A   1      34.332  24.168  25.989  1.00  0.00     0.005 A 
ATOM     16  C   UNL A   1      34.472  24.295  23.599  1.00  0.00     0.005 A 
BRANCH  12  17
ATOM     17  C   UNL A   1      37.416  22.184  24.842  1.00  0.00     0.013 C 
ATOM     18  C   UNL A   1      38.420  22.620  25.913  1.00  0.00     0.012 C 
ATOM     19  C   UNL A   1      37.096  20.700  24.992  1.00  0.00     0.012 C 
ENDBRANCH  12  17
ENDBRANCH   5  11
ENDBRANCH   3   5
ENDBRANCH   2   3
ENDBRANCH   1   2
BRANCH   1  20
ATOM     20  C   UNL A   1      31.762  29.768  25.336  1.00  0.00     0.275 C 
BRANCH  20  21
ATOM     21  O   UNL A   1      32.344  29.801  26.650  1.00  0.00    -0.458 OA
BRANCH  21  22
ATOM     22  C   UNL A   1      32.897  30.974  27.024  1.00  0.00     0.338 C 
ATOM     23  O   UNL A   1      32.420  32.093  26.938  1.00  0.00    -0.246 OA
BRANCH  22  24
ATOM     24  C   UNL A   1      34.225  30.709  27.595  1.00  0.00     0.060 A 
ATOM     25  C   UNL A   1      34.724  29.409  27.591  1.00  0.00     0.016 A 
ATOM     26  C   UNL A   1      34.926  31.732  28.237  1.00  0.00     0.016 A 
ATOM     27  C   UNL A   1      35.884  29.115  28.300  1.00  0.00     0.010 A 
ATOM     28  C   UNL A   1      36.134  31.445  28.883  1.00  0.00     0.010 A 
ATOM     29  C   UNL A   1      36.606  30.124  28.959  1.00  0.00    -0.014 A 
BRANCH  29  30
ATOM     30  C   UNL A   1      37.778  29.765  29.808  1.00  0.00     0.031 A 
ATOM     31  C   UNL A   1      38.967  29.066  29.194  1.00  0.00     0.074 A 
ATOM     32  C   UNL A   1      37.860  30.183  31.087  1.00  0.00     0.049 A 
ATOM     33  N   UNL A   1      40.048  28.603  29.775  1.00  0.00    -0.248 NA
ATOM     34  C   UNL A   1      38.943  28.864  27.737  1.00  0.00     0.031 C 
ATOM     35  C   UNL A   1      36.846  30.975  31.782  1.00  0.00     0.029 A 
ATOM     36  N   UNL A   1      38.881  30.079  32.001  1.00  0.00    -0.354 N 
ATOM     37  C   UNL A   1      40.781  27.981  28.774  1.00  0.00     0.074 A 
ATOM     38  C   UNL A   1      40.048  28.158  27.538  1.00  0.00     0.031 C 
ATOM     39  C   UNL A   1      37.343  31.388  32.959  1.00  0.00     0.029 A 
ATOM     40  C   UNL A   1      38.670  30.809  33.147  1.00  0.00     0.049 A 
ATOM     41  H   UNL A   1      39.686  29.533  31.851  1.00  0.00     0.167 HD
ATOM     42  C   UNL A   1      41.950  27.304  28.880  1.00  0.00     0.037 A 
ATOM     43  C   UNL A   1      39.456  30.990  34.225  1.00  0.00     0.037 A 
ATOM     44  C   UNL A   1      42.725  27.199  30.088  1.00  0.00     0.049 A 
ATOM     45  C   UNL A   1      40.762  30.250  34.318  1.00  0.00     0.074 A 
ATOM     46  C   UNL A   1      43.884  26.478  30.316  1.00  0.00     0.029 A 
ATOM     47  N   UNL A   1      42.439  27.877  31.263  1.00  0.00    -0.354 N 
ATOM     48  N   UNL A   1      41.365  29.517  33.416  1.00  0.00    -0.248 NA
ATOM     49  C   UNL A   1      41.473  30.327  35.604  1.00  0.00     0.031 C 
ATOM     50  C   UNL A   1      44.293  26.708  31.635  1.00  0.00     0.029 A 
ATOM     51  C   UNL A   1      43.402  27.595  32.218  1.00  0.00     0.049 A 
ATOM     52  H   UNL A   1      41.666  28.471  31.399  1.00  0.00     0.167 HD
ATOM     53  C   UNL A   1      42.508  29.023  34.030  1.00  0.00     0.074 A 
ATOM     54  C   UNL A   1      42.547  29.585  35.364  1.00  0.00     0.031 C 
ATOM     55  C   UNL A   1      43.425  28.153  33.543  1.00  0.00     0.037 A 
BRANCH  42  56
ATOM     56  C   UNL A   1      42.434  26.562  27.672  1.00  0.00     0.064 A 
ATOM     57  C   UNL A   1      43.395  27.093  26.802  1.00  0.00     0.173 A 
ATOM     58  C   UNL A   1      41.948  25.271  27.410  1.00  0.00     0.173 A 
ATOM     59  F   UNL A   1      43.874  28.330  27.000  1.00  0.00    -0.203 F 
ATOM     60  C   UNL A   1      43.844  26.361  25.705  1.00  0.00     0.198 A 
ATOM     61  C   UNL A   1      42.416  24.534  26.326  1.00  0.00     0.198 A 
ATOM     62  F   UNL A   1      41.029  24.718  28.217  1.00  0.00    -0.203 F 
ATOM     63  F   UNL A   1      44.741  26.898  24.866  1.00  0.00    -0.200 F 
ATOM     64  C   UNL A   1      43.361  25.081  25.473  1.00  0.00     0.200 A 
ATOM     65  F   UNL A   1      41.953  23.295  26.110  1.00  0.00    -0.200 F 
ATOM     66  F   UNL A   1      43.802  24.377  24.421  1.00  0.00    -0.200 F 
ENDBRANCH  42  56
BRANCH  43  67
ATOM     67  C   UNL A   1      39.029  31.901  35.320  1.00  0.00     0.064 A 
ATOM     68  C   UNL A   1      39.370  33.261  35.288  1.00  0.00     0.173 A 
ATOM     69  C   UNL A   1      38.290  31.440  36.419  1.00  0.00     0.173 A 
ATOM     70  F   UNL A   1      40.106  33.743  34.274  1.00  0.00    -0.203 F 
ATOM     71  C   UNL A   1      38.989  34.123  36.314  1.00  0.00     0.198 A 
ATOM     72  C   UNL A   1      37.883  32.310  37.428  1.00  0.00     0.198 A 
ATOM     73  F   UNL A   1      37.950  30.146  36.505  1.00  0.00    -0.203 F 
ATOM     74  F   UNL A   1      39.361  35.410  36.277  1.00  0.00    -0.200 F 
ATOM     75  C   UNL A   1      38.237  33.649  37.378  1.00  0.00     0.200 A 
ATOM     76  F   UNL A   1      37.150  31.849  38.451  1.00  0.00    -0.200 F 
ATOM     77  F   UNL A   1      37.864  34.481  38.359  1.00  0.00    -0.200 F 
ENDBRANCH  43  67
BRANCH  55  78
ATOM     78  C   UNL A   1      44.529  27.731  34.464  1.00  0.00     0.064 A 
ATOM     79  C   UNL A   1      45.721  28.464  34.542  1.00  0.00     0.173 A 
ATOM     80  C   UNL A   1      44.382  26.617  35.302  1.00  0.00     0.173 A 
ATOM     81  F   UNL A   1      45.911  29.530  33.750  1.00  0.00    -0.203 F 
ATOM     82  C   UNL A   1      46.737  28.087  35.416  1.00  0.00     0.198 A 
ATOM     83  C   UNL A   1      45.392  26.254  36.189  1.00  0.00     0.198 A 
ATOM     84  F   UNL A   1      43.257  25.887  35.267  1.00  0.00    -0.203 F 
ATOM     85  F   UNL A   1      47.882  28.782  35.450  1.00  0.00    -0.200 F 
ATOM     86  C   UNL A   1      46.570  26.986  36.242  1.00  0.00     0.200 A 
ATOM     87  F   UNL A   1      45.228  25.194  36.993  1.00  0.00    -0.200 F 
ATOM     88  F   UNL A   1      47.546  26.625  37.085  1.00  0.00    -0.200 F 
ENDBRANCH  55  78
ENDBRANCH  29  30
ENDBRANCH  22  24
ENDBRANCH  21  22
ENDBRANCH  20  21
ENDBRANCH   1  20
TORSDOF 13
ENDMDL
MODEL 2
REMARK VINA RESULT:     -12.2      4.411      9.537
REMARK SMILES CC(C)c1ccc([C@]2(C(=O)OCCOC(=O)c3ccc(-c4c5nc(c(-c6c(F)c(F)c(F)c(F)c6F)c6ccc([nH]6)c(-c6c(F)c(F)c(F)c(F)c6F)c6nc(c(-c7c(F)c(F)c(F)c(F)c7F)c7ccc4[nH]7)C=C6)C=C5)cc3)CCC[C@@H]2C)cc1
REMARK SMILES IDX 12 1 11 2 9 3 10 4 8 5 80 6 83 7 81 8 82 9 84 10 7 11 4 12
REMARK SMILES IDX 5 13 86 14 6 15 85 16 2 17 1 18 3 19 13 20 14 21 15 22 16 23
REMARK SMILES IDX 17 24 18 25 79 26 19 27 78 28 20 29 21 30 22 31 72 32 23 33
REMARK SMILES IDX 77 34 71 35 73 36 24 37 76 38 70 39 69 40 25 42 57 43 37 44
REMARK SMILES IDX 56 45 38 46 41 47 55 48 74 49 39 50 40 51 54 53 75 54 42 55
REMARK SMILES IDX 26 56 27 57 35 58 28 59 29 60 33 61 36 62 30 63 31 64 34 65
REMARK SMILES IDX 32 66 58 67 59 68 67 69 60 70 61 71 65 72 68 73 62 74 63 75
REMARK SMILES IDX 66 76 64 77 43 78 44 79 52 80 45 81 46 82 50 83 53 84 47 85
REMARK SMILES IDX 48 86 51 87 49 88
REMARK H PARENT 73 41 41 52
REMARK Flexibility Score: inf
ROOT
ATOM      1  C   UNL A   1      36.654  22.600  23.493  1.00  0.00     0.274 C 
ENDROOT
BRANCH   1   2
ATOM      2  O   UNL A   1      35.801  23.558  24.153  1.00  0.00    -0.461 OA
BRANCH   2   3
ATOM      3  C   UNL A   1      34.552  23.746  23.643  1.00  0.00     0.316 C 
ATOM      4  O   UNL A   1      34.335  24.215  22.530  1.00  0.00    -0.251 OA
BRANCH   3   5
ATOM      5  C   UNL A   1      33.431  23.383  24.663  1.00  0.00     0.095 C 
ATOM      6  C   UNL A   1      33.744  23.898  26.093  1.00  0.00     0.024 C 
ATOM      7  C   UNL A   1      32.188  24.263  24.299  1.00  0.00     0.008 C 
ATOM      8  C   UNL A   1      33.352  25.380  26.126  1.00  0.00     0.002 C 
ATOM      9  C   UNL A   1      32.571  25.648  24.843  1.00  0.00     0.005 C 
ATOM     10  C   UNL A   1      30.856  23.824  24.927  1.00  0.00     0.009 C 
BRANCH   5  11
ATOM     11  C   UNL A   1      33.175  21.865  24.603  1.00  0.00    -0.030 A 
ATOM     12  C   UNL A   1      32.840  19.030  24.497  1.00  0.00    -0.045 A 
ATOM     13  C   UNL A   1      33.249  19.663  25.676  1.00  0.00     0.004 A 
ATOM     14  C   UNL A   1      32.528  19.838  23.395  1.00  0.00     0.004 A 
ATOM     15  C   UNL A   1      33.407  21.053  25.728  1.00  0.00     0.005 A 
ATOM     16  C   UNL A   1      32.686  21.231  23.449  1.00  0.00     0.005 A 
BRANCH  12  17
ATOM     17  C   UNL A   1      32.711  17.519  24.391  1.00  0.00     0.013 C 
ATOM     18  C   UNL A   1      33.667  16.907  23.364  1.00  0.00     0.012 C 
ATOM     19  C   UNL A   1      32.901  16.853  25.751  1.00  0.00     0.012 C 
ENDBRANCH  12  17
ENDBRANCH   5  11
ENDBRANCH   3   5
ENDBRANCH   2   3
ENDBRANCH   1   2
BRANCH   1  20
ATOM     20  C   UNL A   1      36.797  21.354  24.358  1.00  0.00     0.275 C 
BRANCH  20  21
ATOM     21  O   UNL A   1      37.269  21.745  25.659  1.00  0.00    -0.458 OA
BRANCH  21  22
ATOM     22  C   UNL A   1      38.569  21.495  25.919  1.00  0.00     0.338 C 
ATOM     23  O   UNL A   1      39.185  20.455  25.753  1.00  0.00    -0.246 OA
BRANCH  22  24
ATOM     24  C   UNL A   1      39.189  22.718  26.448  1.00  0.00     0.060 A 
ATOM     25  C   UNL A   1      38.578  23.948  26.217  1.00  0.00     0.016 A 
ATOM     26  C   UNL A   1      40.434  22.654  27.076  1.00  0.00     0.016 A 
ATOM     27  C   UNL A   1      39.252  25.122  26.539  1.00  0.00     0.010 A 
ATOM     28  C   UNL A   1      41.072  23.837  27.470  1.00  0.00     0.010 A 
ATOM     29  C   UNL A   1      40.508  25.087  27.167  1.00  0.00    -0.014 A 
BRANCH  29  30
ATOM     30  C   UNL A   1      41.259  26.355  27.395  1.00  0.00     0.031 A 
ATOM     31  C   UNL A   1      40.730  27.381  28.366  1.00  0.00     0.074 A 
ATOM     32  C   UNL A   1      42.482  26.540  26.857  1.00  0.00     0.049 A 
ATOM     33  N   UNL A   1      41.193  28.575  28.646  1.00  0.00    -0.248 NA
ATOM     34  C   UNL A   1      39.524  27.018  29.128  1.00  0.00     0.031 C 
ATOM     35  C   UNL A   1      43.180  25.584  25.998  1.00  0.00     0.029 A 
ATOM     36  N   UNL A   1      43.392  27.555  27.028  1.00  0.00    -0.354 N 
ATOM     37  C   UNL A   1      40.291  29.134  29.541  1.00  0.00     0.074 A 
ATOM     38  C   UNL A   1      39.272  28.137  29.794  1.00  0.00     0.031 C 
ATOM     39  C   UNL A   1      44.445  25.997  25.821  1.00  0.00     0.029 A 
ATOM     40  C   UNL A   1      44.620  27.294  26.469  1.00  0.00     0.049 A 
ATOM     41  H   UNL A   1      43.185  28.391  27.505  1.00  0.00     0.167 HD
ATOM     42  C   UNL A   1      40.300  30.374  30.087  1.00  0.00     0.037 A 
ATOM     43  C   UNL A   1      45.757  28.016  26.475  1.00  0.00     0.037 A 
ATOM     44  C   UNL A   1      41.355  31.336  29.907  1.00  0.00     0.049 A 
ATOM     45  C   UNL A   1      45.758  29.382  27.105  1.00  0.00     0.074 A 
ATOM     46  C   UNL A   1      41.424  32.643  30.357  1.00  0.00     0.029 A 
ATOM     47  N   UNL A   1      42.551  31.074  29.257  1.00  0.00    -0.354 N 
ATOM     48  N   UNL A   1      44.823  29.972  27.807  1.00  0.00    -0.248 NA
ATOM     49  C   UNL A   1      46.962  30.202  26.899  1.00  0.00     0.031 C 
ATOM     50  C   UNL A   1      42.657  33.177  29.967  1.00  0.00     0.029 A 
ATOM     51  C   UNL A   1      43.366  32.193  29.298  1.00  0.00     0.049 A 
ATOM     52  H   UNL A   1      42.786  30.219  28.828  1.00  0.00     0.167 HD
ATOM     53  C   UNL A   1      45.310  31.237  28.102  1.00  0.00     0.074 A 
ATOM     54  C   UNL A   1      46.648  31.312  27.553  1.00  0.00     0.031 C 
ATOM     55  C   UNL A   1      44.690  32.258  28.741  1.00  0.00     0.037 A 
BRANCH  42  56
ATOM     56  C   UNL A   1      39.098  30.792  30.877  1.00  0.00     0.064 A 
ATOM     57  C   UNL A   1      39.014  30.609  32.263  1.00  0.00     0.173 A 
ATOM     58  C   UNL A   1      38.029  31.430  30.229  1.00  0.00     0.173 A 
ATOM     59  F   UNL A   1      40.002  29.988  32.924  1.00  0.00    -0.203 F 
ATOM     60  C   UNL A   1      37.893  31.040  32.972  1.00  0.00     0.198 A 
ATOM     61  C   UNL A   1      36.921  31.879  30.943  1.00  0.00     0.198 A 
ATOM     62  F   UNL A   1      38.065  31.632  28.902  1.00  0.00    -0.203 F 
ATOM     63  F   UNL A   1      37.815  30.828  34.293  1.00  0.00    -0.200 F 
ATOM     64  C   UNL A   1      36.853  31.680  32.312  1.00  0.00     0.200 A 
ATOM     65  F   UNL A   1      35.923  32.504  30.304  1.00  0.00    -0.200 F 
ATOM     66  F   UNL A   1      35.781  32.100  32.998  1.00  0.00    -0.200 F 
ENDBRANCH  42  56
BRANCH  43  67
ATOM     67  C   UNL A   1      46.994  27.475  25.852  1.00  0.00     0.064 A 
ATOM     68  C   UNL A   1      47.949  26.806  26.632  1.00  0.00     0.173 A 
ATOM     69  C   UNL A   1      47.257  27.621  24.483  1.00  0.00     0.173 A 
ATOM     70  F   UNL A   1      47.759  26.671  27.954  1.00  0.00    -0.203 F 
ATOM     71  C   UNL A   1      49.119  26.306  26.065  1.00  0.00     0.198 A 
ATOM     72  C   UNL A   1      48.412  27.094  23.912  1.00  0.00     0.198 A 
ATOM     73  F   UNL A   1      46.383  28.265  23.697  1.00  0.00    -0.203 F 
ATOM     74  F   UNL A   1      50.033  25.705  26.840  1.00  0.00    -0.200 F 
ATOM     75  C   UNL A   1      49.345  26.441  24.704  1.00  0.00     0.200 A 
ATOM     76  F   UNL A   1      48.623  27.219  22.595  1.00  0.00    -0.200 F 
ATOM     77  F   UNL A   1      50.467  25.953  24.158  1.00  0.00    -0.200 F 
ENDBRANCH  43  67
BRANCH  55  78
ATOM     78  C   UNL A   1      45.437  33.553  28.854  1.00  0.00     0.064 A 
ATOM     79  C   UNL A   1      46.304  33.792  29.929  1.00  0.00     0.173 A 
ATOM     80  C   UNL A   1      45.321  34.541  27.867  1.00  0.00     0.173 A 
ATOM     81  F   UNL A   1      46.437  32.880  30.905  1.00  0.00    -0.203 F 
ATOM     82  C   UNL A   1      47.017  34.984  30.022  1.00  0.00     0.198 A 
ATOM     83  C   UNL A   1      46.051  35.723  27.952  1.00  0.00     0.198 A 
ATOM     84  F   UNL A   1      44.507  34.355  26.816  1.00  0.00    -0.203 F 
ATOM     85  F   UNL A   1      47.815  35.206  31.075  1.00  0.00    -0.200 F 
ATOM     86  C   UNL A   1      46.894  35.946  29.031  1.00  0.00     0.200 A 
ATOM     87  F   UNL A   1      45.937  36.650  26.991  1.00  0.00    -0.200 F 
ATOM     88  F   UNL A   1      47.583  37.091  29.119  1.00  0.00    -0.200 F 
ENDBRANCH  55  78
ENDBRANCH  29  30
ENDBRANCH  22  24
ENDBRANCH  21  22
ENDBRANCH  20  21
ENDBRANCH   1  20
TORSDOF 13
ENDMDL
MODEL 3
REMARK VINA RESULT:     -12.1      0.201      1.712
REMARK SMILES CC(C)c1ccc([C@]2(C(=O)OCCOC(=O)c3ccc(-c4c5nc(c(-c6c(F)c(F)c(F)c(F)c6F)c6ccc([nH]6)c(-c6c(F)c(F)c(F)c(F)c6F)c6nc(c(-c7c(F)c(F)c(F)c(F)c7F)c7ccc4[nH]7)C=C6)C=C5)cc3)CCC[C@@H]2C)cc1
REMARK SMILES IDX 12 1 11 2 9 3 10 4 8 5 80 6 83 7 81 8 82 9 84 10 7 11 4 12
REMARK SMILES IDX 5 13 86 14 6 15 85 16 2 17 1 18 3 19 13 20 14 21 15 22 16 23
REMARK SMILES IDX 17 24 18 25 79 26 19 27 78 28 20 29 21 30 22 31 72 32 23 33
REMARK SMILES IDX 77 34 71 35 73 36 24 37 76 38 70 39 69 40 25 42 57 43 37 44
REMARK SMILES IDX 56 45 38 46 41 47 55 48 74 49 39 50 40 51 54 53 75 54 42 55
REMARK SMILES IDX 26 56 27 57 35 58 28 59 29 60 33 61 36 62 30 63 31 64 34 65
REMARK SMILES IDX 32 66 58 67 59 68 67 69 60 70 61 71 65 72 68 73 62 74 63 75
REMARK SMILES IDX 66 76 64 77 43 78 44 79 52 80 45 81 46 82 50 83 53 84 47 85
REMARK SMILES IDX 48 86 51 87 49 88
REMARK H PARENT 73 41 41 52
REMARK Flexibility Score: inf
ROOT
ATOM      1  C   UNL A   1      32.897  29.328  24.542  1.00  0.00     0.274 C 
ENDROOT
BRANCH   1   2
ATOM      2  O   UNL A   1      33.017  27.951  24.955  1.00  0.00    -0.461 OA
BRANCH   2   3
ATOM      3  C   UNL A   1      32.806  26.990  24.014  1.00  0.00     0.316 C 
ATOM      4  O   UNL A   1      32.823  27.206  22.805  1.00  0.00    -0.251 OA
BRANCH   3   5
ATOM      5  C   UNL A   1      32.453  25.608  24.641  1.00  0.00     0.095 C 
ATOM      6  C   UNL A   1      31.761  25.746  26.023  1.00  0.00     0.024 C 
ATOM      7  C   UNL A   1      31.286  25.009  23.785  1.00  0.00     0.008 C 
ATOM      8  C   UNL A   1      30.283  26.045  25.750  1.00  0.00     0.002 C 
ATOM      9  C   UNL A   1      30.063  25.808  24.258  1.00  0.00     0.005 C 
ATOM     10  C   UNL A   1      31.018  23.509  23.985  1.00  0.00     0.009 C 
BRANCH   5  11
ATOM     11  C   UNL A   1      33.725  24.739  24.679  1.00  0.00    -0.030 A 
ATOM     12  C   UNL A   1      36.007  23.020  24.701  1.00  0.00    -0.045 A 
ATOM     13  C   UNL A   1      35.461  23.477  23.496  1.00  0.00     0.004 A 
ATOM     14  C   UNL A   1      35.445  23.493  25.894  1.00  0.00     0.004 A 
ATOM     15  C   UNL A   1      34.346  24.324  23.487  1.00  0.00     0.005 A 
ATOM     16  C   UNL A   1      34.328  24.343  25.884  1.00  0.00     0.005 A 
BRANCH  12  17
ATOM     17  C   UNL A   1      37.182  22.057  24.744  1.00  0.00     0.013 C 
ATOM     18  C   UNL A   1      38.253  22.464  25.759  1.00  0.00     0.012 C 
ATOM     19  C   UNL A   1      36.716  20.629  25.011  1.00  0.00     0.012 C 
ENDBRANCH  12  17
ENDBRANCH   5  11
ENDBRANCH   3   5
ENDBRANCH   2   3
ENDBRANCH   1   2
BRANCH   1  20
ATOM     20  C   UNL A   1      31.845  30.032  25.391  1.00  0.00     0.275 C 
BRANCH  20  21
ATOM     21  O   UNL A   1      32.326  30.124  26.742  1.00  0.00    -0.458 OA
BRANCH  21  22
ATOM     22  C   UNL A   1      32.954  31.272  27.073  1.00  0.00     0.338 C 
ATOM     23  O   UNL A   1      32.544  32.415  26.958  1.00  0.00    -0.246 OA
BRANCH  22  24
ATOM     24  C   UNL A   1      34.272  30.945  27.635  1.00  0.00     0.060 A 
ATOM     25  C   UNL A   1      34.663  29.611  27.727  1.00  0.00     0.016 A 
ATOM     26  C   UNL A   1      35.071  31.954  28.174  1.00  0.00     0.016 A 
ATOM     27  C   UNL A   1      35.815  29.280  28.433  1.00  0.00     0.010 A 
ATOM     28  C   UNL A   1      36.270  31.621  28.815  1.00  0.00     0.010 A 
ATOM     29  C   UNL A   1      36.635  30.276  28.990  1.00  0.00    -0.014 A 
BRANCH  29  30
ATOM     30  C   UNL A   1      37.798  29.890  29.840  1.00  0.00     0.031 A 
ATOM     31  C   UNL A   1      38.979  29.179  29.225  1.00  0.00     0.074 A 
ATOM     32  C   UNL A   1      37.880  30.294  31.124  1.00  0.00     0.049 A 
ATOM     33  N   UNL A   1      40.049  28.693  29.805  1.00  0.00    -0.248 NA
ATOM     34  C   UNL A   1      38.958  28.992  27.765  1.00  0.00     0.031 C 
ATOM     35  C   UNL A   1      36.876  31.095  31.822  1.00  0.00     0.029 A 
ATOM     36  N   UNL A   1      38.896  30.165  32.041  1.00  0.00    -0.354 N 
ATOM     37  C   UNL A   1      40.778  28.070  28.801  1.00  0.00     0.074 A 
ATOM     38  C   UNL A   1      40.053  28.271  27.564  1.00  0.00     0.031 C 
ATOM     39  C   UNL A   1      37.375  31.488  33.005  1.00  0.00     0.029 A 
ATOM     40  C   UNL A   1      38.692  30.887  33.193  1.00  0.00     0.049 A 
ATOM     41  H   UNL A   1      39.693  29.608  31.888  1.00  0.00     0.167 HD
ATOM     42  C   UNL A   1      41.936  27.375  28.905  1.00  0.00     0.037 A 
ATOM     43  C   UNL A   1      39.475  31.046  34.276  1.00  0.00     0.037 A 
ATOM     44  C   UNL A   1      42.703  27.246  30.115  1.00  0.00     0.049 A 
ATOM     45  C   UNL A   1      40.770  30.284  34.367  1.00  0.00     0.074 A 
ATOM     46  C   UNL A   1      43.850  26.505  30.341  1.00  0.00     0.029 A 
ATOM     47  N   UNL A   1      42.423  27.917  31.295  1.00  0.00    -0.354 N 
ATOM     48  N   UNL A   1      41.366  29.551  33.460  1.00  0.00    -0.248 NA
ATOM     49  C   UNL A   1      41.477  30.337  35.657  1.00  0.00     0.031 C 
ATOM     50  C   UNL A   1      44.257  26.716  31.663  1.00  0.00     0.029 A 
ATOM     51  C   UNL A   1      43.378  27.610  32.251  1.00  0.00     0.049 A 
ATOM     52  H   UNL A   1      41.658  28.521  31.434  1.00  0.00     0.167 HD
ATOM     53  C   UNL A   1      42.498  29.034  34.074  1.00  0.00     0.074 A 
ATOM     54  C   UNL A   1      42.539  29.582  35.413  1.00  0.00     0.031 C 
ATOM     55  C   UNL A   1      43.403  28.154  33.582  1.00  0.00     0.037 A 
BRANCH  42  56
ATOM     56  C   UNL A   1      42.413  26.638  27.691  1.00  0.00     0.064 A 
ATOM     57  C   UNL A   1      43.373  27.170  26.822  1.00  0.00     0.173 A 
ATOM     58  C   UNL A   1      41.922  25.349  27.425  1.00  0.00     0.173 A 
ATOM     59  F   UNL A   1      43.858  28.404  27.024  1.00  0.00    -0.203 F 
ATOM     60  C   UNL A   1      43.817  26.442  25.719  1.00  0.00     0.198 A 
ATOM     61  C   UNL A   1      42.384  24.617  26.335  1.00  0.00     0.198 A 
ATOM     62  F   UNL A   1      41.004  24.795  28.231  1.00  0.00    -0.203 F 
ATOM     63  F   UNL A   1      44.713  26.980  24.880  1.00  0.00    -0.200 F 
ATOM     64  C   UNL A   1      43.328  25.164  25.482  1.00  0.00     0.200 A 
ATOM     65  F   UNL A   1      41.916  23.380  26.114  1.00  0.00    -0.200 F 
ATOM     66  F   UNL A   1      43.764  24.464  24.425  1.00  0.00    -0.200 F 
ENDBRANCH  42  56
BRANCH  43  67
ATOM     67  C   UNL A   1      39.058  31.952  35.379  1.00  0.00     0.064 A 
ATOM     68  C   UNL A   1      38.308  31.460  36.458  1.00  0.00     0.173 A 
ATOM     69  C   UNL A   1      39.382  33.315  35.378  1.00  0.00     0.173 A 
ATOM     70  F   UNL A   1      37.943  30.169  36.487  1.00  0.00    -0.203 F 
ATOM     71  C   UNL A   1      37.897  32.300  37.490  1.00  0.00     0.198 A 
ATOM     72  C   UNL A   1      38.998  34.147  36.427  1.00  0.00     0.198 A 
ATOM     73  F   UNL A   1      40.086  33.837  34.363  1.00  0.00    -0.203 F 
ATOM     74  F   UNL A   1      37.148  31.814  38.490  1.00  0.00    -0.200 F 
ATOM     75  C   UNL A   1      38.252  33.641  37.479  1.00  0.00     0.200 A 
ATOM     76  F   UNL A   1      39.349  35.441  36.416  1.00  0.00    -0.200 F 
ATOM     77  F   UNL A   1      37.864  34.446  38.477  1.00  0.00    -0.200 F 
ENDBRANCH  43  67
BRANCH  55  78
ATOM     78  C   UNL A   1      44.496  27.706  34.504  1.00  0.00     0.064 A 
ATOM     79  C   UNL A   1      44.342  26.563  35.301  1.00  0.00     0.173 A 
ATOM     80  C   UNL A   1      45.717  28.392  34.562  1.00  0.00     0.173 A 
ATOM     81  F   UNL A   1      43.186  25.882  35.287  1.00  0.00    -0.203 F 
ATOM     82  C   UNL A   1      45.366  26.131  36.139  1.00  0.00     0.198 A 
ATOM     83  C   UNL A   1      46.747  27.946  35.386  1.00  0.00     0.198 A 
ATOM     84  F   UNL A   1      45.914  29.488  33.815  1.00  0.00    -0.203 F 
ATOM     85  F   UNL A   1      45.185  25.056  36.917  1.00  0.00    -0.200 F 
ATOM     86  C   UNL A   1      46.569  26.820  36.177  1.00  0.00     0.200 A 
ATOM     87  F   UNL A   1      47.912  28.608  35.418  1.00  0.00    -0.200 F 
ATOM     88  F   UNL A   1      47.556  26.402  36.981  1.00  0.00    -0.200 F 
ENDBRANCH  55  78
ENDBRANCH  29  30
ENDBRANCH  22  24
ENDBRANCH  21  22
ENDBRANCH  20  21
ENDBRANCH   1  20
TORSDOF 13
ENDMDL
