MODEL 1
REMARK VINA RESULT:     -12.4      0.000      0.000
REMARK SMILES Cc1cccc([C@H]([NH3+])[C@H](O)C(=O)OCCOC(=O)c2ccc(-c3c4nc(c(-c5c(F)c(F)c(F)c(F)c5F)c5ccc([nH]5)c(-c5c(F)c(F)c(F)c(F)c5F)c5nc(c(-c6c(F)c(F)c(F)c(F)c6F)c6ccc3[nH]6)C=C5)C=C4)cc2)c1
REMARK SMILES IDX 14 1 13 2 11 3 12 4 9 5 7 6 6 7 1 8 2 9 3 10 82 11 4 12 5 13
REMARK SMILES IDX 8 14 10 18 15 20 16 21 17 22 18 23 19 24 20 25 81 26 21 27
REMARK SMILES IDX 80 28 22 29 23 30 24 31 74 32 25 33 79 34 73 35 75 36 26 37
REMARK SMILES IDX 78 38 72 39 71 40 27 42 59 43 39 44 58 45 40 46 43 47 57 48
REMARK SMILES IDX 76 49 41 50 42 51 56 53 77 54 44 55 28 56 29 57 37 58 30 59
REMARK SMILES IDX 31 60 35 61 38 62 32 63 33 64 36 65 34 66 60 67 61 68 69 69
REMARK SMILES IDX 62 70 63 71 67 72 70 73 64 74 65 75 68 76 66 77 45 78 46 79
REMARK SMILES IDX 54 80 47 81 48 82 52 83 55 84 49 85 50 86 53 87 51 88
REMARK H PARENT 8 15 8 16 8 17 10 19 75 41 43 52
REMARK Flexibility Score: inf
ROOT
ATOM      1  C   UNL A   1      41.833  20.363  26.493  1.00  0.00     0.274 C 
ENDROOT
BRANCH   1   2
ATOM      2  O   UNL A   1      42.716  20.071  25.407  1.00  0.00    -0.460 OA
BRANCH   2   3
ATOM      3  C   UNL A   1      43.323  18.846  25.529  1.00  0.00     0.341 C 
ATOM      4  O   UNL A   1      42.721  17.796  25.433  1.00  0.00    -0.249 OA
BRANCH   3   5
ATOM      5  C   UNL A   1      44.852  19.004  25.627  1.00  0.00     0.287 C 
BRANCH   5   6
ATOM      6  C   UNL A   1      45.428  19.856  24.445  1.00  0.00     0.252 C 
BRANCH   6   7
ATOM      7  C   UNL A   1      45.667  21.309  24.838  1.00  0.00     0.013 A 
ATOM      8  C   UNL A   1      45.415  23.542  27.923  1.00  0.00     0.044 C 
ATOM      9  C   UNL A   1      45.703  23.079  26.527  1.00  0.00    -0.051 A 
ATOM     10  C   UNL A   1      46.344  23.926  25.621  1.00  0.00     0.003 A 
ATOM     11  C   UNL A   1      45.379  21.776  26.132  1.00  0.00     0.013 A 
ATOM     12  C   UNL A   1      46.607  23.495  24.324  1.00  0.00     0.001 A 
ATOM     13  C   UNL A   1      46.253  22.205  23.932  1.00  0.00     0.010 A 
ENDBRANCH   6   7
BRANCH   6  14
ATOM     14  N   UNL A   1      44.512  19.774  23.279  1.00  0.00    -0.349 N 
ATOM     15  H   UNL A   1      44.967  20.177  22.460  1.00  0.00     0.345 HD
ATOM     16  H   UNL A   1      43.657  20.289  23.481  1.00  0.00     0.345 HD
ATOM     17  H   UNL A   1      44.286  18.796  23.094  1.00  0.00     0.345 HD
ENDBRANCH   6  14
ENDBRANCH   5   6
BRANCH   5  18
ATOM     18  O   UNL A   1      45.558  17.785  25.822  1.00  0.00    -0.376 OA
ATOM     19  H   UNL A   1      46.052  17.566  25.016  1.00  0.00     0.212 HD
ENDBRANCH   5  18
ENDBRANCH   3   5
ENDBRANCH   2   3
ENDBRANCH   1   2
BRANCH   1  20
ATOM     20  C   UNL A   1      41.624  21.867  26.674  1.00  0.00     0.275 C 
BRANCH  20  21
ATOM     21  O   UNL A   1      40.379  22.340  27.267  1.00  0.00    -0.458 OA
BRANCH  21  22
ATOM     22  C   UNL A   1      39.526  23.316  26.877  1.00  0.00     0.338 C 
ATOM     23  O   UNL A   1      38.631  23.110  26.068  1.00  0.00    -0.246 OA
BRANCH  22  24
ATOM     24  C   UNL A   1      39.679  24.661  27.458  1.00  0.00     0.060 A 
ATOM     25  C   UNL A   1      40.210  25.696  26.667  1.00  0.00     0.016 A 
ATOM     26  C   UNL A   1      39.269  24.911  28.760  1.00  0.00     0.016 A 
ATOM     27  C   UNL A   1      40.188  27.015  27.127  1.00  0.00     0.010 A 
ATOM     28  C   UNL A   1      39.194  26.218  29.195  1.00  0.00     0.010 A 
ATOM     29  C   UNL A   1      39.645  27.275  28.385  1.00  0.00    -0.014 A 
BRANCH  29  30
ATOM     30  C   UNL A   1      39.673  28.582  29.039  1.00  0.00     0.031 A 
ATOM     31  C   UNL A   1      38.661  29.641  28.840  1.00  0.00     0.074 A 
ATOM     32  C   UNL A   1      40.657  28.715  29.947  1.00  0.00     0.049 A 
ATOM     33  N   UNL A   1      38.821  30.888  29.142  1.00  0.00    -0.248 NA
ATOM     34  C   UNL A   1      37.375  29.383  28.220  1.00  0.00     0.031 C 
ATOM     35  C   UNL A   1      40.819  29.700  31.001  1.00  0.00     0.029 A 
ATOM     36  N   UNL A   1      41.864  27.998  29.939  1.00  0.00    -0.354 N 
ATOM     37  C   UNL A   1      37.598  31.524  29.009  1.00  0.00     0.074 A 
ATOM     38  C   UNL A   1      36.771  30.573  28.312  1.00  0.00     0.031 C 
ATOM     39  C   UNL A   1      42.119  29.731  31.351  1.00  0.00     0.029 A 
ATOM     40  C   UNL A   1      42.833  28.908  30.380  1.00  0.00     0.049 A 
ATOM     41  H   UNL A   1      42.001  27.058  29.677  1.00  0.00     0.167 HD
ATOM     42  C   UNL A   1      37.389  32.717  29.646  1.00  0.00     0.037 A 
ATOM     43  C   UNL A   1      43.771  29.380  29.506  1.00  0.00     0.037 A 
ATOM     44  C   UNL A   1      38.624  33.158  30.288  1.00  0.00     0.049 A 
ATOM     45  C   UNL A   1      43.756  30.881  29.429  1.00  0.00     0.074 A 
ATOM     46  C   UNL A   1      39.097  32.986  31.578  1.00  0.00     0.029 A 
ATOM     47  N   UNL A   1      39.701  33.571  29.513  1.00  0.00    -0.354 N 
ATOM     48  N   UNL A   1      42.673  31.606  29.486  1.00  0.00    -0.248 NA
ATOM     49  C   UNL A   1      44.977  31.669  29.337  1.00  0.00     0.031 C 
ATOM     50  C   UNL A   1      40.496  33.202  31.555  1.00  0.00     0.029 A 
ATOM     51  C   UNL A   1      40.858  33.551  30.264  1.00  0.00     0.049 A 
ATOM     52  H   UNL A   1      39.646  33.839  28.568  1.00  0.00     0.167 HD
ATOM     53  C   UNL A   1      43.036  32.928  29.523  1.00  0.00     0.074 A 
ATOM     54  C   UNL A   1      44.483  32.917  29.401  1.00  0.00     0.031 C 
ATOM     55  C   UNL A   1      42.135  33.938  29.695  1.00  0.00     0.037 A 
BRANCH  42  56
ATOM     56  C   UNL A   1      36.034  33.337  29.982  1.00  0.00     0.064 A 
ATOM     57  C   UNL A   1      35.247  33.928  28.961  1.00  0.00     0.173 A 
ATOM     58  C   UNL A   1      35.482  33.459  31.270  1.00  0.00     0.173 A 
ATOM     59  F   UNL A   1      35.566  33.798  27.667  1.00  0.00    -0.203 F 
ATOM     60  C   UNL A   1      34.092  34.676  29.226  1.00  0.00     0.198 A 
ATOM     61  C   UNL A   1      34.346  34.235  31.541  1.00  0.00     0.198 A 
ATOM     62  F   UNL A   1      35.976  32.788  32.313  1.00  0.00    -0.203 F 
ATOM     63  F   UNL A   1      33.411  35.229  28.212  1.00  0.00    -0.200 F 
ATOM     64  C   UNL A   1      33.661  34.859  30.520  1.00  0.00     0.200 A 
ATOM     65  F   UNL A   1      33.920  34.370  32.806  1.00  0.00    -0.200 F 
ATOM     66  F   UNL A   1      32.579  35.606  30.781  1.00  0.00    -0.200 F 
ENDBRANCH  42  56
BRANCH  43  67
ATOM     67  C   UNL A   1      44.046  28.478  28.345  1.00  0.00     0.064 A 
ATOM     68  C   UNL A   1      43.291  28.632  27.163  1.00  0.00     0.173 A 
ATOM     69  C   UNL A   1      45.210  27.702  28.260  1.00  0.00     0.173 A 
ATOM     70  F   UNL A   1      42.166  29.367  27.177  1.00  0.00    -0.203 F 
ATOM     71  C   UNL A   1      43.732  28.126  25.940  1.00  0.00     0.198 A 
ATOM     72  C   UNL A   1      45.641  27.183  27.035  1.00  0.00     0.198 A 
ATOM     73  F   UNL A   1      45.981  27.507  29.338  1.00  0.00    -0.203 F 
ATOM     74  F   UNL A   1      43.039  28.379  24.821  1.00  0.00    -0.200 F 
ATOM     75  C   UNL A   1      44.918  27.416  25.874  1.00  0.00     0.200 A 
ATOM     76  F   UNL A   1      46.803  26.514  26.966  1.00  0.00    -0.200 F 
ATOM     77  F   UNL A   1      45.383  26.986  24.693  1.00  0.00    -0.200 F 
ENDBRANCH  43  67
BRANCH  55  78
ATOM     78  C   UNL A   1      42.422  35.400  29.478  1.00  0.00     0.064 A 
ATOM     79  C   UNL A   1      43.272  36.147  30.310  1.00  0.00     0.173 A 
ATOM     80  C   UNL A   1      41.969  36.063  28.312  1.00  0.00     0.173 A 
ATOM     81  F   UNL A   1      43.869  35.593  31.374  1.00  0.00    -0.203 F 
ATOM     82  C   UNL A   1      43.586  37.480  30.038  1.00  0.00     0.198 A 
ATOM     83  C   UNL A   1      42.332  37.374  28.014  1.00  0.00     0.198 A 
ATOM     84  F   UNL A   1      41.186  35.449  27.414  1.00  0.00    -0.203 F 
ATOM     85  F   UNL A   1      44.365  38.163  30.888  1.00  0.00    -0.200 F 
ATOM     86  C   UNL A   1      43.126  38.089  28.885  1.00  0.00     0.200 A 
ATOM     87  F   UNL A   1      41.926  37.931  26.864  1.00  0.00    -0.200 F 
ATOM     88  F   UNL A   1      43.469  39.353  28.605  1.00  0.00    -0.200 F 
ENDBRANCH  55  78
ENDBRANCH  29  30
ENDBRANCH  22  24
ENDBRANCH  21  22
ENDBRANCH  20  21
ENDBRANCH   1  20
TORSDOF 15
ENDMDL
MODEL 2
REMARK VINA RESULT:     -12.3      5.327     12.369
REMARK SMILES Cc1cccc([C@H]([NH3+])[C@H](O)C(=O)OCCOC(=O)c2ccc(-c3c4nc(c(-c5c(F)c(F)c(F)c(F)c5F)c5ccc([nH]5)c(-c5c(F)c(F)c(F)c(F)c5F)c5nc(c(-c6c(F)c(F)c(F)c(F)c6F)c6ccc3[nH]6)C=C5)C=C4)cc2)c1
REMARK SMILES IDX 14 1 13 2 11 3 12 4 9 5 7 6 6 7 1 8 2 9 3 10 82 11 4 12 5 13
REMARK SMILES IDX 8 14 10 18 15 20 16 21 17 22 18 23 19 24 20 25 81 26 21 27
REMARK SMILES IDX 80 28 22 29 23 30 24 31 74 32 25 33 79 34 73 35 75 36 26 37
REMARK SMILES IDX 78 38 72 39 71 40 27 42 59 43 39 44 58 45 40 46 43 47 57 48
REMARK SMILES IDX 76 49 41 50 42 51 56 53 77 54 44 55 28 56 29 57 37 58 30 59
REMARK SMILES IDX 31 60 35 61 38 62 32 63 33 64 36 65 34 66 60 67 61 68 69 69
REMARK SMILES IDX 62 70 63 71 67 72 70 73 64 74 65 75 68 76 66 77 45 78 46 79
REMARK SMILES IDX 54 80 47 81 48 82 52 83 55 84 49 85 50 86 53 87 51 88
REMARK H PARENT 8 15 8 16 8 17 10 19 75 41 43 52
REMARK Flexibility Score: inf
ROOT
ATOM      1  C   UNL A   1      33.145  29.548  25.520  1.00  0.00     0.274 C 
ENDROOT
BRANCH   1   2
ATOM      2  O   UNL A   1      32.140  28.537  25.410  1.00  0.00    -0.460 OA
BRANCH   2   3
ATOM      3  C   UNL A   1      32.309  27.737  24.306  1.00  0.00     0.341 C 
ATOM      4  O   UNL A   1      32.568  26.554  24.379  1.00  0.00    -0.249 OA
BRANCH   3   5
ATOM      5  C   UNL A   1      31.958  28.507  23.019  1.00  0.00     0.287 C 
BRANCH   5   6
ATOM      6  C   UNL A   1      30.427  28.435  22.693  1.00  0.00     0.252 C 
BRANCH   6   7
ATOM      7  C   UNL A   1      29.768  29.810  22.690  1.00  0.00     0.013 A 
ATOM      8  C   UNL A   1      28.018  32.164  20.249  1.00  0.00     0.044 C 
ATOM      9  C   UNL A   1      28.566  31.591  21.521  1.00  0.00    -0.051 A 
ATOM     10  C   UNL A   1      28.335  32.231  22.740  1.00  0.00     0.003 A 
ATOM     11  C   UNL A   1      29.271  30.382  21.506  1.00  0.00     0.013 A 
ATOM     12  C   UNL A   1      28.847  31.698  23.919  1.00  0.00     0.001 A 
ATOM     13  C   UNL A   1      29.574  30.509  23.890  1.00  0.00     0.010 A 
ENDBRANCH   6   7
BRANCH   6  14
ATOM     14  N   UNL A   1      29.754  27.535  23.663  1.00  0.00    -0.349 N 
ATOM     15  H   UNL A   1      28.752  27.727  23.666  1.00  0.00     0.345 HD
ATOM     16  H   UNL A   1      30.133  27.696  24.595  1.00  0.00     0.345 HD
ATOM     17  H   UNL A   1      29.913  26.565  23.393  1.00  0.00     0.345 HD
ENDBRANCH   6  14
ENDBRANCH   5   6
BRANCH   5  18
ATOM     18  O   UNL A   1      32.774  28.184  21.900  1.00  0.00    -0.376 OA
ATOM     19  H   UNL A   1      33.672  27.976  22.203  1.00  0.00     0.212 HD
ENDBRANCH   5  18
ENDBRANCH   3   5
ENDBRANCH   2   3
ENDBRANCH   1   2
BRANCH   1  20
ATOM     20  C   UNL A   1      33.175  30.178  26.914  1.00  0.00     0.275 C 
BRANCH  20  21
ATOM     21  O   UNL A   1      34.347  29.973  27.755  1.00  0.00    -0.458 OA
BRANCH  21  22
ATOM     22  C   UNL A   1      35.464  30.720  27.916  1.00  0.00     0.338 C 
ATOM     23  O   UNL A   1      35.445  31.941  27.836  1.00  0.00    -0.246 OA
BRANCH  22  24
ATOM     24  C   UNL A   1      36.736  30.036  28.208  1.00  0.00     0.060 A 
ATOM     25  C   UNL A   1      36.864  29.301  29.400  1.00  0.00     0.016 A 
ATOM     26  C   UNL A   1      37.782  30.088  27.297  1.00  0.00     0.016 A 
ATOM     27  C   UNL A   1      37.983  28.490  29.609  1.00  0.00     0.010 A 
ATOM     28  C   UNL A   1      38.861  29.247  27.474  1.00  0.00     0.010 A 
ATOM     29  C   UNL A   1      38.968  28.442  28.623  1.00  0.00    -0.014 A 
BRANCH  29  30
ATOM     30  C   UNL A   1      40.242  27.740  28.765  1.00  0.00     0.031 A 
ATOM     31  C   UNL A   1      40.459  26.319  28.423  1.00  0.00     0.074 A 
ATOM     32  C   UNL A   1      41.262  28.535  29.139  1.00  0.00     0.049 A 
ATOM     33  N   UNL A   1      41.456  25.601  28.826  1.00  0.00    -0.248 NA
ATOM     34  C   UNL A   1      39.518  25.558  27.621  1.00  0.00     0.031 C 
ATOM     35  C   UNL A   1      42.692  28.297  29.078  1.00  0.00     0.029 A 
ATOM     36  N   UNL A   1      41.129  29.733  29.858  1.00  0.00    -0.354 N 
ATOM     37  C   UNL A   1      41.428  24.399  28.137  1.00  0.00     0.074 A 
ATOM     38  C   UNL A   1      40.136  24.378  27.503  1.00  0.00     0.031 C 
ATOM     39  C   UNL A   1      43.295  29.130  29.947  1.00  0.00     0.029 A 
ATOM     40  C   UNL A   1      42.233  29.768  30.719  1.00  0.00     0.049 A 
ATOM     41  H   UNL A   1      40.413  30.404  29.775  1.00  0.00     0.167 HD
ATOM     42  C   UNL A   1      42.566  23.643  28.061  1.00  0.00     0.037 A 
ATOM     43  C   UNL A   1      42.051  29.610  32.064  1.00  0.00     0.037 A 
ATOM     44  C   UNL A   1      43.618  24.249  28.872  1.00  0.00     0.049 A 
ATOM     45  C   UNL A   1      42.859  28.463  32.604  1.00  0.00     0.074 A 
ATOM     46  C   UNL A   1      44.636  25.128  28.544  1.00  0.00     0.029 A 
ATOM     47  N   UNL A   1      43.513  24.250  30.258  1.00  0.00    -0.354 N 
ATOM     48  N   UNL A   1      43.064  27.346  31.962  1.00  0.00    -0.248 NA
ATOM     49  C   UNL A   1      43.538  28.525  33.891  1.00  0.00     0.031 C 
ATOM     50  C   UNL A   1      45.079  25.739  29.742  1.00  0.00     0.029 A 
ATOM     51  C   UNL A   1      44.364  25.193  30.795  1.00  0.00     0.049 A 
ATOM     52  H   UNL A   1      42.920  23.662  30.779  1.00  0.00     0.167 HD
ATOM     53  C   UNL A   1      43.947  26.585  32.685  1.00  0.00     0.074 A 
ATOM     54  C   UNL A   1      44.193  27.353  33.893  1.00  0.00     0.031 C 
ATOM     55  C   UNL A   1      44.451  25.403  32.229  1.00  0.00     0.037 A 
BRANCH  42  56
ATOM     56  C   UNL A   1      42.863  22.558  27.028  1.00  0.00     0.064 A 
ATOM     57  C   UNL A   1      42.235  21.290  27.124  1.00  0.00     0.173 A 
ATOM     58  C   UNL A   1      43.793  22.655  25.977  1.00  0.00     0.173 A 
ATOM     59  F   UNL A   1      41.239  21.065  27.991  1.00  0.00    -0.203 F 
ATOM     60  C   UNL A   1      42.601  20.197  26.329  1.00  0.00     0.198 A 
ATOM     61  C   UNL A   1      44.184  21.553  25.202  1.00  0.00     0.198 A 
ATOM     62  F   UNL A   1      44.320  23.826  25.610  1.00  0.00    -0.203 F 
ATOM     63  F   UNL A   1      41.982  19.018  26.492  1.00  0.00    -0.200 F 
ATOM     64  C   UNL A   1      43.601  20.318  25.391  1.00  0.00     0.200 A 
ATOM     65  F   UNL A   1      45.135  21.703  24.267  1.00  0.00    -0.200 F 
ATOM     66  F   UNL A   1      43.980  19.265  24.655  1.00  0.00    -0.200 F 
ENDBRANCH  42  56
BRANCH  43  67
ATOM     67  C   UNL A   1      40.690  29.989  32.554  1.00  0.00     0.064 A 
ATOM     68  C   UNL A   1      40.298  31.343  32.511  1.00  0.00     0.173 A 
ATOM     69  C   UNL A   1      39.680  29.040  32.764  1.00  0.00     0.173 A 
ATOM     70  F   UNL A   1      41.218  32.302  32.309  1.00  0.00    -0.203 F 
ATOM     71  C   UNL A   1      38.956  31.720  32.568  1.00  0.00     0.198 A 
ATOM     72  C   UNL A   1      38.337  29.423  32.836  1.00  0.00     0.198 A 
ATOM     73  F   UNL A   1      39.970  27.734  32.819  1.00  0.00    -0.203 F 
ATOM     74  F   UNL A   1      38.616  33.008  32.421  1.00  0.00    -0.200 F 
ATOM     75  C   UNL A   1      37.974  30.757  32.712  1.00  0.00     0.200 A 
ATOM     76  F   UNL A   1      37.382  28.488  32.953  1.00  0.00    -0.200 F 
ATOM     77  F   UNL A   1      36.680  31.104  32.699  1.00  0.00    -0.200 F 
ENDBRANCH  43  67
BRANCH  55  78
ATOM     78  C   UNL A   1      45.200  24.400  33.066  1.00  0.00     0.064 A 
ATOM     79  C   UNL A   1      46.484  24.637  33.584  1.00  0.00     0.173 A 
ATOM     80  C   UNL A   1      44.570  23.214  33.514  1.00  0.00     0.173 A 
ATOM     81  F   UNL A   1      47.132  25.784  33.338  1.00  0.00    -0.203 F 
ATOM     82  C   UNL A   1      47.121  23.724  34.425  1.00  0.00     0.198 A 
ATOM     83  C   UNL A   1      45.185  22.334  34.401  1.00  0.00     0.198 A 
ATOM     84  F   UNL A   1      43.327  22.890  33.128  1.00  0.00    -0.203 F 
ATOM     85  F   UNL A   1      48.365  23.977  34.855  1.00  0.00    -0.200 F 
ATOM     86  C   UNL A   1      46.467  22.580  34.843  1.00  0.00     0.200 A 
ATOM     87  F   UNL A   1      44.516  21.259  34.842  1.00  0.00    -0.200 F 
ATOM     88  F   UNL A   1      47.065  21.730  35.688  1.00  0.00    -0.200 F 
ENDBRANCH  55  78
ENDBRANCH  29  30
ENDBRANCH  22  24
ENDBRANCH  21  22
ENDBRANCH  20  21
ENDBRANCH   1  20
TORSDOF 15
ENDMDL
MODEL 3
REMARK VINA RESULT:     -12.3      3.272      5.333
REMARK SMILES Cc1cccc([C@H]([NH3+])[C@H](O)C(=O)OCCOC(=O)c2ccc(-c3c4nc(c(-c5c(F)c(F)c(F)c(F)c5F)c5ccc([nH]5)c(-c5c(F)c(F)c(F)c(F)c5F)c5nc(c(-c6c(F)c(F)c(F)c(F)c6F)c6ccc3[nH]6)C=C5)C=C4)cc2)c1
REMARK SMILES IDX 14 1 13 2 11 3 12 4 9 5 7 6 6 7 1 8 2 9 3 10 82 11 4 12 5 13
REMARK SMILES IDX 8 14 10 18 15 20 16 21 17 22 18 23 19 24 20 25 81 26 21 27
REMARK SMILES IDX 80 28 22 29 23 30 24 31 74 32 25 33 79 34 73 35 75 36 26 37
REMARK SMILES IDX 78 38 72 39 71 40 27 42 59 43 39 44 58 45 40 46 43 47 57 48
REMARK SMILES IDX 76 49 41 50 42 51 56 53 77 54 44 55 28 56 29 57 37 58 30 59
REMARK SMILES IDX 31 60 35 61 38 62 32 63 33 64 36 65 34 66 60 67 61 68 69 69
REMARK SMILES IDX 62 70 63 71 67 72 70 73 64 74 65 75 68 76 66 77 45 78 46 79
REMARK SMILES IDX 54 80 47 81 48 82 52 83 55 84 49 85 50 86 53 87 51 88
REMARK H PARENT 8 15 8 16 8 17 10 19 75 41 43 52
REMARK Flexibility Score: inf
ROOT
ATOM      1  C   UNL A   1      36.535  21.519  25.392  1.00  0.00     0.274 C 
ENDROOT
BRANCH   1   2
ATOM      2  O   UNL A   1      35.630  22.586  25.097  1.00  0.00    -0.460 OA
BRANCH   2   3
ATOM      3  C   UNL A   1      34.595  22.670  25.996  1.00  0.00     0.341 C 
ATOM      4  O   UNL A   1      34.243  23.713  26.506  1.00  0.00    -0.249 OA
BRANCH   3   5
ATOM      5  C   UNL A   1      33.870  21.316  26.116  1.00  0.00     0.287 C 
BRANCH   5   6
ATOM      6  C   UNL A   1      32.839  21.100  24.956  1.00  0.00     0.252 C 
BRANCH   6   7
ATOM      7  C   UNL A   1      33.049  19.776  24.231  1.00  0.00     0.013 A 
ATOM      8  C   UNL A   1      34.944  16.497  24.704  1.00  0.00     0.044 C 
ATOM      9  C   UNL A   1      34.030  17.537  24.130  1.00  0.00    -0.051 A 
ATOM     10  C   UNL A   1      33.238  17.244  23.018  1.00  0.00     0.003 A 
ATOM     11  C   UNL A   1      33.923  18.795  24.733  1.00  0.00     0.013 A 
ATOM     12  C   UNL A   1      32.391  18.212  22.486  1.00  0.00     0.001 A 
ATOM     13  C   UNL A   1      32.314  19.472  23.076  1.00  0.00     0.010 A 
ENDBRANCH   6   7
BRANCH   6  14
ATOM     14  N   UNL A   1      32.917  22.236  24.003  1.00  0.00    -0.349 N 
ATOM     15  H   UNL A   1      33.891  22.516  23.887  1.00  0.00     0.345 HD
ATOM     16  H   UNL A   1      32.378  23.021  24.366  1.00  0.00     0.345 HD
ATOM     17  H   UNL A   1      32.536  21.949  23.101  1.00  0.00     0.345 HD
ENDBRANCH   6  14
ENDBRANCH   5   6
BRANCH   5  18
ATOM     18  O   UNL A   1      33.315  21.058  27.400  1.00  0.00    -0.376 OA
ATOM     19  H   UNL A   1      34.024  21.048  28.063  1.00  0.00     0.212 HD
ENDBRANCH   5  18
ENDBRANCH   3   5
ENDBRANCH   2   3
ENDBRANCH   1   2
BRANCH   1  20
ATOM     20  C   UNL A   1      37.995  21.975  25.343  1.00  0.00     0.275 C 
BRANCH  20  21
ATOM     21  O   UNL A   1      38.396  23.139  26.123  1.00  0.00    -0.458 OA
BRANCH  21  22
ATOM     22  C   UNL A   1      39.580  23.454  26.698  1.00  0.00     0.338 C 
ATOM     23  O   UNL A   1      40.516  22.667  26.730  1.00  0.00    -0.246 OA
BRANCH  22  24
ATOM     24  C   UNL A   1      39.743  24.793  27.291  1.00  0.00     0.060 A 
ATOM     25  C   UNL A   1      40.262  25.836  26.504  1.00  0.00     0.016 A 
ATOM     26  C   UNL A   1      39.354  25.028  28.603  1.00  0.00     0.016 A 
ATOM     27  C   UNL A   1      40.248  27.150  26.979  1.00  0.00     0.010 A 
ATOM     28  C   UNL A   1      39.286  26.330  29.053  1.00  0.00     0.010 A 
ATOM     29  C   UNL A   1      39.725  27.397  28.248  1.00  0.00    -0.014 A 
BRANCH  29  30
ATOM     30  C   UNL A   1      39.764  28.696  28.916  1.00  0.00     0.031 A 
ATOM     31  C   UNL A   1      38.732  29.745  28.771  1.00  0.00     0.074 A 
ATOM     32  C   UNL A   1      40.783  28.830  29.786  1.00  0.00     0.049 A 
ATOM     33  N   UNL A   1      38.889  30.990  29.081  1.00  0.00    -0.248 NA
ATOM     34  C   UNL A   1      37.425  29.477  28.201  1.00  0.00     0.031 C 
ATOM     35  C   UNL A   1      40.975  29.805  30.843  1.00  0.00     0.029 A 
ATOM     36  N   UNL A   1      41.997  28.129  29.720  1.00  0.00    -0.354 N 
ATOM     37  C   UNL A   1      37.654  31.612  29.005  1.00  0.00     0.074 A 
ATOM     38  C   UNL A   1      36.811  30.658  28.331  1.00  0.00     0.031 C 
ATOM     39  C   UNL A   1      42.287  29.849  31.141  1.00  0.00     0.029 A 
ATOM     40  C   UNL A   1      42.972  29.046  30.133  1.00  0.00     0.049 A 
ATOM     41  H   UNL A   1      42.134  27.194  29.441  1.00  0.00     0.167 HD
ATOM     42  C   UNL A   1      37.457  32.795  29.665  1.00  0.00     0.037 A 
ATOM     43  C   UNL A   1      43.868  29.539  29.227  1.00  0.00     0.037 A 
ATOM     44  C   UNL A   1      38.711  33.243  30.262  1.00  0.00     0.049 A 
ATOM     45  C   UNL A   1      43.832  31.041  29.168  1.00  0.00     0.074 A 
ATOM     46  C   UNL A   1      39.238  33.063  31.530  1.00  0.00     0.029 A 
ATOM     47  N   UNL A   1      39.751  33.679  29.449  1.00  0.00    -0.354 N 
ATOM     48  N   UNL A   1      42.743  31.752  29.278  1.00  0.00    -0.248 NA
ATOM     49  C   UNL A   1      45.038  31.846  29.037  1.00  0.00     0.031 C 
ATOM     50  C   UNL A   1      40.632  33.297  31.453  1.00  0.00     0.029 A 
ATOM     51  C   UNL A   1      40.938  33.665  30.153  1.00  0.00     0.049 A 
ATOM     52  H   UNL A   1      39.654  33.957  28.511  1.00  0.00     0.167 HD
ATOM     53  C   UNL A   1      43.091  33.078  29.317  1.00  0.00     0.074 A 
ATOM     54  C   UNL A   1      44.532  33.086  29.136  1.00  0.00     0.031 C 
ATOM     55  C   UNL A   1      42.186  34.074  29.537  1.00  0.00     0.037 A 
BRANCH  42  56
ATOM     56  C   UNL A   1      36.110  33.394  30.063  1.00  0.00     0.064 A 
ATOM     57  C   UNL A   1      35.286  34.010  29.086  1.00  0.00     0.173 A 
ATOM     58  C   UNL A   1      35.598  33.472  31.371  1.00  0.00     0.173 A 
ATOM     59  F   UNL A   1      35.564  33.923  27.779  1.00  0.00    -0.203 F 
ATOM     60  C   UNL A   1      34.136  34.741  29.411  1.00  0.00     0.198 A 
ATOM     61  C   UNL A   1      34.466  34.231  31.702  1.00  0.00     0.198 A 
ATOM     62  F   UNL A   1      36.129  32.772  32.377  1.00  0.00    -0.203 F 
ATOM     63  F   UNL A   1      33.419  35.321  28.437  1.00  0.00    -0.200 F 
ATOM     64  C   UNL A   1      33.744  34.881  30.723  1.00  0.00     0.200 A 
ATOM     65  F   UNL A   1      34.079  34.323  32.983  1.00  0.00    -0.200 F 
ATOM     66  F   UNL A   1      32.667  35.610  31.041  1.00  0.00    -0.200 F 
ENDBRANCH  42  56
BRANCH  43  67
ATOM     67  C   UNL A   1      44.106  28.654  28.045  1.00  0.00     0.064 A 
ATOM     68  C   UNL A   1      44.804  27.442  28.226  1.00  0.00     0.173 A 
ATOM     69  C   UNL A   1      43.411  28.815  26.838  1.00  0.00     0.173 A 
ATOM     70  F   UNL A   1      45.486  27.224  29.362  1.00  0.00    -0.203 F 
ATOM     71  C   UNL A   1      44.724  26.404  27.297  1.00  0.00     0.198 A 
ATOM     72  C   UNL A   1      43.346  27.779  25.902  1.00  0.00     0.198 A 
ATOM     73  F   UNL A   1      42.725  29.938  26.590  1.00  0.00    -0.203 F 
ATOM     74  F   UNL A   1      45.318  25.230  27.551  1.00  0.00    -0.200 F 
ATOM     75  C   UNL A   1      43.979  26.568  26.142  1.00  0.00     0.200 A 
ATOM     76  F   UNL A   1      42.605  27.928  24.793  1.00  0.00    -0.200 F 
ATOM     77  F   UNL A   1      43.841  25.553  25.278  1.00  0.00    -0.200 F 
ENDBRANCH  43  67
BRANCH  55  78
ATOM     78  C   UNL A   1      42.446  35.542  29.327  1.00  0.00     0.064 A 
ATOM     79  C   UNL A   1      43.304  36.295  30.145  1.00  0.00     0.173 A 
ATOM     80  C   UNL A   1      41.957  36.208  28.177  1.00  0.00     0.173 A 
ATOM     81  F   UNL A   1      43.932  35.741  31.191  1.00  0.00    -0.203 F 
ATOM     82  C   UNL A   1      43.592  37.635  29.878  1.00  0.00     0.198 A 
ATOM     83  C   UNL A   1      42.294  37.527  27.881  1.00  0.00     0.198 A 
ATOM     84  F   UNL A   1      41.163  35.590  27.291  1.00  0.00    -0.203 F 
ATOM     85  F   UNL A   1      44.379  38.322  30.717  1.00  0.00    -0.200 F 
ATOM     86  C   UNL A   1      43.097  38.246  28.741  1.00  0.00     0.200 A 
ATOM     87  F   UNL A   1      41.854  38.087  26.746  1.00  0.00    -0.200 F 
ATOM     88  F   UNL A   1      43.414  39.518  28.465  1.00  0.00    -0.200 F 
ENDBRANCH  55  78
ENDBRANCH  29  30
ENDBRANCH  22  24
ENDBRANCH  21  22
ENDBRANCH  20  21
ENDBRANCH   1  20
TORSDOF 15
ENDMDL
