MODEL 1
REMARK VINA RESULT:     -12.4      0.000      0.000
REMARK SMILES Cc1cc(C(=O)OCCOC(=O)c2ccc(-c3c4nc(c(-c5c(F)c(F)c(F)c(F)c5F)c5ccc([nH]5)c(-c5c(F)c(F)c(F)c(F)c5F)c5nc(c(-c6c(F)c(F)c(F)c(F)c6F)c6ccc3[nH]6)C=C5)C=C4)cc2)c([N+](=O)[O-])cc1[N+](=O)[O-]
REMARK SMILES IDX 9 1 8 2 7 3 5 4 6 5 4 6 1 7 2 8 3 9 81 10 80 11 76 12 82 13
REMARK SMILES IDX 83 14 84 15 77 16 78 17 79 18 10 19 11 20 12 21 13 22 14 23
REMARK SMILES IDX 75 24 15 25 74 26 16 27 17 28 18 29 68 30 19 31 73 32 67 33
REMARK SMILES IDX 69 34 20 35 72 36 66 37 65 38 21 40 53 41 33 42 52 43 34 44
REMARK SMILES IDX 37 45 51 46 70 47 35 48 36 49 50 51 71 52 38 53 22 54 23 55
REMARK SMILES IDX 31 56 24 57 25 58 29 59 32 60 26 61 27 62 30 63 28 64 54 65
REMARK SMILES IDX 55 66 63 67 56 68 57 69 61 70 64 71 58 72 59 73 62 74 60 75
REMARK SMILES IDX 39 76 40 77 48 78 41 79 42 80 46 81 49 82 43 83 44 84 47 85
REMARK SMILES IDX 45 86
REMARK H PARENT 69 39 37 50
REMARK Flexibility Score: inf
ROOT
ATOM      1  C   UNL A   1      36.767  32.564  28.684  1.00  0.00     0.275 C 
ENDROOT
BRANCH   1   2
ATOM      2  C   UNL A   1      37.831  32.566  29.791  1.00  0.00     0.275 C 
BRANCH   2   3
ATOM      3  O   UNL A   1      37.525  33.401  30.923  1.00  0.00    -0.458 OA
BRANCH   3   4
ATOM      4  C   UNL A   1      36.547  32.863  31.692  1.00  0.00     0.345 C 
ATOM      5  O   UNL A   1      36.523  31.725  32.134  1.00  0.00    -0.246 OA
BRANCH   4   6
ATOM      6  C   UNL A   1      35.394  33.737  31.956  1.00  0.00     0.138 A 
ATOM      7  C   UNL A   1      32.863  35.590  29.812  1.00  0.00     0.052 C 
ATOM      8  C   UNL A   1      33.629  35.199  31.055  1.00  0.00     0.028 A 
ATOM      9  C   UNL A   1      34.486  34.073  30.942  1.00  0.00     0.033 A 
ATOM     10  C   UNL A   1      33.654  35.944  32.259  1.00  0.00     0.279 A 
ATOM     11  C   UNL A   1      34.521  35.570  33.304  1.00  0.00     0.172 A 
ATOM     12  C   UNL A   1      35.394  34.490  33.131  1.00  0.00     0.290 A 
BRANCH  10  13
ATOM     13  N   UNL A   1      32.822  37.147  32.499  1.00  0.00     0.063 N 
ATOM     14  O   UNL A   1      31.678  36.962  32.938  1.00  0.00    -0.258 OA
ATOM     15  O   UNL A   1      33.299  38.262  32.270  1.00  0.00    -0.258 OA
ENDBRANCH  10  13
BRANCH  12  16
ATOM     16  N   UNL A   1      36.334  34.181  34.204  1.00  0.00     0.063 N 
ATOM     17  O   UNL A   1      35.979  33.344  35.045  1.00  0.00    -0.258 OA
ATOM     18  O   UNL A   1      37.398  34.813  34.218  1.00  0.00    -0.258 OA
ENDBRANCH  12  16
ENDBRANCH   4   6
ENDBRANCH   3   4
ENDBRANCH   2   3
ENDBRANCH   1   2
BRANCH   1  19
ATOM     19  O   UNL A   1      36.574  31.401  27.829  1.00  0.00    -0.458 OA
BRANCH  19  20
ATOM     20  C   UNL A   1      36.484  30.117  28.231  1.00  0.00     0.338 C 
ATOM     21  O   UNL A   1      35.417  29.589  28.537  1.00  0.00    -0.246 OA
BRANCH  20  22
ATOM     22  C   UNL A   1      37.743  29.365  28.305  1.00  0.00     0.060 A 
ATOM     23  C   UNL A   1      38.660  29.464  27.243  1.00  0.00     0.016 A 
ATOM     24  C   UNL A   1      38.059  28.678  29.472  1.00  0.00     0.016 A 
ATOM     25  C   UNL A   1      39.949  28.979  27.393  1.00  0.00     0.010 A 
ATOM     26  C   UNL A   1      39.365  28.337  29.687  1.00  0.00     0.010 A 
ATOM     27  C   UNL A   1      40.282  28.433  28.627  1.00  0.00    -0.014 A 
BRANCH  27  28
ATOM     28  C   UNL A   1      41.428  27.570  28.820  1.00  0.00     0.031 A 
ATOM     29  C   UNL A   1      41.352  26.133  28.532  1.00  0.00     0.074 A 
ATOM     30  C   UNL A   1      42.520  28.322  29.091  1.00  0.00     0.049 A 
ATOM     31  N   UNL A   1      42.150  25.256  29.021  1.00  0.00    -0.248 NA
ATOM     32  C   UNL A   1      40.310  25.527  27.708  1.00  0.00     0.031 C 
ATOM     33  C   UNL A   1      43.939  28.047  29.048  1.00  0.00     0.029 A 
ATOM     34  N   UNL A   1      42.455  29.636  29.609  1.00  0.00    -0.354 N 
ATOM     35  C   UNL A   1      41.978  24.092  28.291  1.00  0.00     0.074 A 
ATOM     36  C   UNL A   1      40.704  24.250  27.646  1.00  0.00     0.031 C 
ATOM     37  C   UNL A   1      44.569  28.965  29.813  1.00  0.00     0.029 A 
ATOM     38  C   UNL A   1      43.541  29.772  30.470  1.00  0.00     0.049 A 
ATOM     39  H   UNL A   1      41.776  30.319  29.403  1.00  0.00     0.167 HD
ATOM     40  C   UNL A   1      43.050  23.255  28.159  1.00  0.00     0.037 A 
ATOM     41  C   UNL A   1      43.265  29.797  31.808  1.00  0.00     0.037 A 
ATOM     42  C   UNL A   1      44.159  23.811  28.937  1.00  0.00     0.049 A 
ATOM     43  C   UNL A   1      43.793  28.532  32.437  1.00  0.00     0.074 A 
ATOM     44  C   UNL A   1      45.210  24.636  28.569  1.00  0.00     0.029 A 
ATOM     45  N   UNL A   1      44.031  23.919  30.317  1.00  0.00    -0.354 N 
ATOM     46  N   UNL A   1      43.777  27.357  31.862  1.00  0.00    -0.248 NA
ATOM     47  C   UNL A   1      44.513  28.550  33.701  1.00  0.00     0.031 C 
ATOM     48  C   UNL A   1      45.642  25.324  29.736  1.00  0.00     0.029 A 
ATOM     49  C   UNL A   1      44.853  24.919  30.802  1.00  0.00     0.049 A 
ATOM     50  H   UNL A   1      43.437  23.362  30.872  1.00  0.00     0.167 HD
ATOM     51  C   UNL A   1      44.556  26.503  32.598  1.00  0.00     0.074 A 
ATOM     52  C   UNL A   1      44.970  27.290  33.749  1.00  0.00     0.031 C 
ATOM     53  C   UNL A   1      44.877  25.230  32.221  1.00  0.00     0.037 A 
BRANCH  40  54
ATOM     54  C   UNL A   1      43.253  22.154  27.131  1.00  0.00     0.064 A 
ATOM     55  C   UNL A   1      42.425  21.004  27.165  1.00  0.00     0.173 A 
ATOM     56  C   UNL A   1      44.240  22.121  26.126  1.00  0.00     0.173 A 
ATOM     57  F   UNL A   1      41.395  20.908  28.017  1.00  0.00    -0.203 F 
ATOM     58  C   UNL A   1      42.613  19.903  26.322  1.00  0.00     0.198 A 
ATOM     59  C   UNL A   1      44.436  21.012  25.289  1.00  0.00     0.198 A 
ATOM     60  F   UNL A   1      45.034  23.165  25.879  1.00  0.00    -0.203 F 
ATOM     61  F   UNL A   1      41.802  18.840  26.426  1.00  0.00    -0.200 F 
ATOM     62  C   UNL A   1      43.629  19.900  25.393  1.00  0.00     0.200 A 
ATOM     63  F   UNL A   1      45.417  21.036  24.374  1.00  0.00    -0.200 F 
ATOM     64  F   UNL A   1      43.815  18.844  24.589  1.00  0.00    -0.200 F 
ENDBRANCH  40  54
BRANCH  41  65
ATOM     65  C   UNL A   1      41.987  30.509  32.164  1.00  0.00     0.064 A 
ATOM     66  C   UNL A   1      40.884  29.732  32.597  1.00  0.00     0.173 A 
ATOM     67  C   UNL A   1      41.883  31.893  32.355  1.00  0.00     0.173 A 
ATOM     68  F   UNL A   1      40.900  28.399  32.435  1.00  0.00    -0.203 F 
ATOM     69  C   UNL A   1      39.802  30.288  33.282  1.00  0.00     0.198 A 
ATOM     70  C   UNL A   1      40.780  32.453  33.020  1.00  0.00     0.198 A 
ATOM     71  F   UNL A   1      42.875  32.710  31.977  1.00  0.00    -0.203 F 
ATOM     72  F   UNL A   1      38.845  29.492  33.781  1.00  0.00    -0.200 F 
ATOM     73  C   UNL A   1      39.758  31.649  33.506  1.00  0.00     0.200 A 
ATOM     74  F   UNL A   1      40.751  33.770  33.278  1.00  0.00    -0.200 F 
ATOM     75  F   UNL A   1      38.764  32.183  34.231  1.00  0.00    -0.200 F 
ENDBRANCH  41  65
BRANCH  53  76
ATOM     76  C   UNL A   1      45.350  24.167  33.178  1.00  0.00     0.064 A 
ATOM     77  C   UNL A   1      44.561  23.064  33.541  1.00  0.00     0.173 A 
ATOM     78  C   UNL A   1      46.694  24.129  33.619  1.00  0.00     0.173 A 
ATOM     79  F   UNL A   1      43.321  22.897  33.059  1.00  0.00    -0.203 F 
ATOM     80  C   UNL A   1      45.046  22.054  34.369  1.00  0.00     0.198 A 
ATOM     81  C   UNL A   1      47.199  23.072  34.369  1.00  0.00     0.198 A 
ATOM     82  F   UNL A   1      47.572  25.094  33.305  1.00  0.00    -0.203 F 
ATOM     83  F   UNL A   1      44.226  21.064  34.749  1.00  0.00    -0.200 F 
ATOM     84  C   UNL A   1      46.366  22.050  34.771  1.00  0.00     0.200 A 
ATOM     85  F   UNL A   1      48.502  23.042  34.682  1.00  0.00    -0.200 F 
ATOM     86  F   UNL A   1      46.841  21.049  35.522  1.00  0.00    -0.200 F 
ENDBRANCH  53  76
ENDBRANCH  27  28
ENDBRANCH  20  22
ENDBRANCH  19  20
ENDBRANCH   1  19
TORSDOF 13
ENDMDL
MODEL 2
REMARK VINA RESULT:     -11.8      3.561      6.466
REMARK SMILES Cc1cc(C(=O)OCCOC(=O)c2ccc(-c3c4nc(c(-c5c(F)c(F)c(F)c(F)c5F)c5ccc([nH]5)c(-c5c(F)c(F)c(F)c(F)c5F)c5nc(c(-c6c(F)c(F)c(F)c(F)c6F)c6ccc3[nH]6)C=C5)C=C4)cc2)c([N+](=O)[O-])cc1[N+](=O)[O-]
REMARK SMILES IDX 9 1 8 2 7 3 5 4 6 5 4 6 1 7 2 8 3 9 81 10 80 11 76 12 82 13
REMARK SMILES IDX 83 14 84 15 77 16 78 17 79 18 10 19 11 20 12 21 13 22 14 23
REMARK SMILES IDX 75 24 15 25 74 26 16 27 17 28 18 29 68 30 19 31 73 32 67 33
REMARK SMILES IDX 69 34 20 35 72 36 66 37 65 38 21 40 53 41 33 42 52 43 34 44
REMARK SMILES IDX 37 45 51 46 70 47 35 48 36 49 50 51 71 52 38 53 22 54 23 55
REMARK SMILES IDX 31 56 24 57 25 58 29 59 32 60 26 61 27 62 30 63 28 64 54 65
REMARK SMILES IDX 55 66 63 67 56 68 57 69 61 70 64 71 58 72 59 73 62 74 60 75
REMARK SMILES IDX 39 76 40 77 48 78 41 79 42 80 46 81 49 82 43 83 44 84 47 85
REMARK SMILES IDX 45 86
REMARK H PARENT 69 39 37 50
REMARK Flexibility Score: inf
ROOT
ATOM      1  C   UNL A   1      34.306  29.443  26.700  1.00  0.00     0.275 C 
ENDROOT
BRANCH   1   2
ATOM      2  C   UNL A   1      33.998  27.949  26.525  1.00  0.00     0.275 C 
BRANCH   2   3
ATOM      3  O   UNL A   1      33.812  27.526  25.162  1.00  0.00    -0.458 OA
BRANCH   3   4
ATOM      4  C   UNL A   1      32.678  26.799  25.014  1.00  0.00     0.345 C 
ATOM      5  O   UNL A   1      31.539  27.242  24.971  1.00  0.00    -0.246 OA
BRANCH   4   6
ATOM      6  C   UNL A   1      32.860  25.341  24.959  1.00  0.00     0.138 A 
ATOM      7  C   UNL A   1      33.977  22.666  27.414  1.00  0.00     0.052 C 
ATOM      8  C   UNL A   1      33.616  23.285  26.084  1.00  0.00     0.028 A 
ATOM      9  C   UNL A   1      33.048  24.585  26.125  1.00  0.00     0.033 A 
ATOM     10  C   UNL A   1      33.925  22.726  24.819  1.00  0.00     0.279 A 
ATOM     11  C   UNL A   1      33.678  23.461  23.643  1.00  0.00     0.172 A 
ATOM     12  C   UNL A   1      33.173  24.763  23.728  1.00  0.00     0.290 A 
BRANCH  10  13
ATOM     13  N   UNL A   1      34.534  21.387  24.639  1.00  0.00     0.063 N 
ATOM     14  O   UNL A   1      35.768  21.312  24.728  1.00  0.00    -0.258 OA
ATOM     15  O   UNL A   1      33.799  20.418  24.427  1.00  0.00    -0.258 OA
ENDBRANCH  10  13
BRANCH  12  16
ATOM     16  N   UNL A   1      33.005  25.522  22.493  1.00  0.00     0.063 N 
ATOM     17  O   UNL A   1      31.862  25.598  22.025  1.00  0.00    -0.258 OA
ATOM     18  O   UNL A   1      34.028  25.996  21.982  1.00  0.00    -0.258 OA
ENDBRANCH  12  16
ENDBRANCH   4   6
ENDBRANCH   3   4
ENDBRANCH   2   3
ENDBRANCH   1   2
BRANCH   1  19
ATOM     19  O   UNL A   1      34.944  29.942  27.910  1.00  0.00    -0.458 OA
BRANCH  19  20
ATOM     20  C   UNL A   1      36.124  30.592  27.985  1.00  0.00     0.338 C 
ATOM     21  O   UNL A   1      36.225  31.808  27.837  1.00  0.00    -0.246 OA
BRANCH  20  22
ATOM     22  C   UNL A   1      37.310  29.765  28.240  1.00  0.00     0.060 A 
ATOM     23  C   UNL A   1      37.330  28.932  29.374  1.00  0.00     0.016 A 
ATOM     24  C   UNL A   1      38.329  29.724  27.295  1.00  0.00     0.016 A 
ATOM     25  C   UNL A   1      38.311  27.962  29.504  1.00  0.00     0.010 A 
ATOM     26  C   UNL A   1      39.206  28.676  27.336  1.00  0.00     0.010 A 
ATOM     27  C   UNL A   1      39.229  27.844  28.467  1.00  0.00    -0.014 A 
BRANCH  27  28
ATOM     28  C   UNL A   1      40.497  27.162  28.615  1.00  0.00     0.031 A 
ATOM     29  C   UNL A   1      40.622  25.727  28.341  1.00  0.00     0.074 A 
ATOM     30  C   UNL A   1      41.476  28.071  28.832  1.00  0.00     0.049 A 
ATOM     31  N   UNL A   1      41.561  24.983  28.801  1.00  0.00    -0.248 NA
ATOM     32  C   UNL A   1      39.647  24.962  27.569  1.00  0.00     0.031 C 
ATOM     33  C   UNL A   1      42.917  28.008  28.728  1.00  0.00     0.029 A 
ATOM     34  N   UNL A   1      41.239  29.369  29.343  1.00  0.00    -0.354 N 
ATOM     35  C   UNL A   1      41.532  23.797  28.088  1.00  0.00     0.074 A 
ATOM     36  C   UNL A   1      40.222  23.756  27.499  1.00  0.00     0.031 C 
ATOM     37  C   UNL A   1      43.436  29.019  29.458  1.00  0.00     0.029 A 
ATOM     38  C   UNL A   1      42.329  29.675  30.153  1.00  0.00     0.049 A 
ATOM     39  H   UNL A   1      40.459  29.941  29.161  1.00  0.00     0.167 HD
ATOM     40  C   UNL A   1      42.709  23.126  27.915  1.00  0.00     0.037 A 
ATOM     41  C   UNL A   1      42.110  29.678  31.501  1.00  0.00     0.037 A 
ATOM     42  C   UNL A   1      43.756  23.849  28.639  1.00  0.00     0.049 A 
ATOM     43  C   UNL A   1      42.845  28.513  32.116  1.00  0.00     0.074 A 
ATOM     44  C   UNL A   1      44.656  24.815  28.218  1.00  0.00     0.029 A 
ATOM     45  N   UNL A   1      43.672  23.957  30.022  1.00  0.00    -0.354 N 
ATOM     46  N   UNL A   1      42.979  27.340  31.551  1.00  0.00    -0.248 NA
ATOM     47  C   UNL A   1      43.608  28.655  33.347  1.00  0.00     0.031 C 
ATOM     48  C   UNL A   1      45.031  25.575  29.360  1.00  0.00     0.029 A 
ATOM     49  C   UNL A   1      44.358  25.073  30.463  1.00  0.00     0.049 A 
ATOM     50  H   UNL A   1      43.192  23.326  30.607  1.00  0.00     0.167 HD
ATOM     51  C   UNL A   1      43.906  26.621  32.259  1.00  0.00     0.074 A 
ATOM     52  C   UNL A   1      44.248  27.476  33.384  1.00  0.00     0.031 C 
ATOM     53  C   UNL A   1      44.396  25.404  31.878  1.00  0.00     0.037 A 
BRANCH  40  54
ATOM     54  C   UNL A   1      43.029  22.052  26.887  1.00  0.00     0.064 A 
ATOM     55  C   UNL A   1      42.414  20.779  26.990  1.00  0.00     0.173 A 
ATOM     56  C   UNL A   1      43.937  22.165  25.816  1.00  0.00     0.173 A 
ATOM     57  F   UNL A   1      41.474  20.528  27.913  1.00  0.00    -0.203 F 
ATOM     58  C   UNL A   1      42.731  19.707  26.149  1.00  0.00     0.198 A 
ATOM     59  C   UNL A   1      44.264  21.087  24.980  1.00  0.00     0.198 A 
ATOM     60  F   UNL A   1      44.523  23.322  25.504  1.00  0.00    -0.203 F 
ATOM     61  F   UNL A   1      42.122  18.524  26.320  1.00  0.00    -0.200 F 
ATOM     62  C   UNL A   1      43.668  19.856  25.151  1.00  0.00     0.200 A 
ATOM     63  F   UNL A   1      45.163  21.256  23.999  1.00  0.00    -0.200 F 
ATOM     64  F   UNL A   1      43.978  18.829  24.348  1.00  0.00    -0.200 F 
ENDBRANCH  40  54
BRANCH  41  65
ATOM     65  C   UNL A   1      40.758  30.199  31.908  1.00  0.00     0.064 A 
ATOM     66  C   UNL A   1      39.758  29.261  32.272  1.00  0.00     0.173 A 
ATOM     67  C   UNL A   1      40.488  31.539  32.211  1.00  0.00     0.173 A 
ATOM     68  F   UNL A   1      39.936  27.957  32.002  1.00  0.00    -0.203 F 
ATOM     69  C   UNL A   1      38.621  29.624  32.995  1.00  0.00     0.198 A 
ATOM     70  C   UNL A   1      39.329  31.906  32.915  1.00  0.00     0.198 A 
ATOM     71  F   UNL A   1      41.371  32.498  31.905  1.00  0.00    -0.203 F 
ATOM     72  F   UNL A   1      37.770  28.681  33.424  1.00  0.00    -0.200 F 
ATOM     73  C   UNL A   1      38.414  30.947  33.329  1.00  0.00     0.200 A 
ATOM     74  F   UNL A   1      39.142  33.184  33.278  1.00  0.00    -0.200 F 
ATOM     75  F   UNL A   1      37.366  31.296  34.090  1.00  0.00    -0.200 F 
ENDBRANCH  41  65
BRANCH  53  76
ATOM     76  C   UNL A   1      45.061  24.436  32.820  1.00  0.00     0.064 A 
ATOM     77  C   UNL A   1      46.319  24.675  33.395  1.00  0.00     0.173 A 
ATOM     78  C   UNL A   1      44.363  23.311  33.321  1.00  0.00     0.173 A 
ATOM     79  F   UNL A   1      47.014  25.790  33.127  1.00  0.00    -0.203 F 
ATOM     80  C   UNL A   1      46.882  23.801  34.322  1.00  0.00     0.198 A 
ATOM     81  C   UNL A   1      44.892  22.492  34.313  1.00  0.00     0.198 A 
ATOM     82  F   UNL A   1      43.132  22.990  32.896  1.00  0.00    -0.203 F 
ATOM     83  F   UNL A   1      48.119  24.036  34.781  1.00  0.00    -0.200 F 
ATOM     84  C   UNL A   1      46.165  22.719  34.791  1.00  0.00     0.200 A 
ATOM     85  F   UNL A   1      44.151  21.495  34.818  1.00  0.00    -0.200 F 
ATOM     86  F   UNL A   1      46.690  21.912  35.721  1.00  0.00    -0.200 F 
ENDBRANCH  53  76
ENDBRANCH  27  28
ENDBRANCH  20  22
ENDBRANCH  19  20
ENDBRANCH   1  19
TORSDOF 13
ENDMDL
MODEL 3
REMARK VINA RESULT:     -11.8      3.332      5.884
REMARK SMILES Cc1cc(C(=O)OCCOC(=O)c2ccc(-c3c4nc(c(-c5c(F)c(F)c(F)c(F)c5F)c5ccc([nH]5)c(-c5c(F)c(F)c(F)c(F)c5F)c5nc(c(-c6c(F)c(F)c(F)c(F)c6F)c6ccc3[nH]6)C=C5)C=C4)cc2)c([N+](=O)[O-])cc1[N+](=O)[O-]
REMARK SMILES IDX 9 1 8 2 7 3 5 4 6 5 4 6 1 7 2 8 3 9 81 10 80 11 76 12 82 13
REMARK SMILES IDX 83 14 84 15 77 16 78 17 79 18 10 19 11 20 12 21 13 22 14 23
REMARK SMILES IDX 75 24 15 25 74 26 16 27 17 28 18 29 68 30 19 31 73 32 67 33
REMARK SMILES IDX 69 34 20 35 72 36 66 37 65 38 21 40 53 41 33 42 52 43 34 44
REMARK SMILES IDX 37 45 51 46 70 47 35 48 36 49 50 51 71 52 38 53 22 54 23 55
REMARK SMILES IDX 31 56 24 57 25 58 29 59 32 60 26 61 27 62 30 63 28 64 54 65
REMARK SMILES IDX 55 66 63 67 56 68 57 69 61 70 64 71 58 72 59 73 62 74 60 75
REMARK SMILES IDX 39 76 40 77 48 78 41 79 42 80 46 81 49 82 43 83 44 84 47 85
REMARK SMILES IDX 45 86
REMARK H PARENT 69 39 37 50
REMARK Flexibility Score: inf
ROOT
ATOM      1  C   UNL A   1      33.788  30.635  27.344  1.00  0.00     0.275 C 
ENDROOT
BRANCH   1   2
ATOM      2  C   UNL A   1      32.631  29.766  26.829  1.00  0.00     0.275 C 
BRANCH   2   3
ATOM      3  O   UNL A   1      32.837  28.347  26.955  1.00  0.00    -0.458 OA
BRANCH   3   4
ATOM      4  C   UNL A   1      33.043  27.763  25.750  1.00  0.00     0.345 C 
ATOM      5  O   UNL A   1      33.062  28.330  24.668  1.00  0.00    -0.246 OA
BRANCH   4   6
ATOM      6  C   UNL A   1      33.200  26.300  25.771  1.00  0.00     0.138 A 
ATOM      7  C   UNL A   1      36.017  23.877  24.979  1.00  0.00     0.052 C 
ATOM      8  C   UNL A   1      34.611  24.343  25.280  1.00  0.00     0.028 A 
ATOM      9  C   UNL A   1      34.463  25.702  25.663  1.00  0.00     0.033 A 
ATOM     10  C   UNL A   1      33.441  23.571  25.077  1.00  0.00     0.279 A 
ATOM     11  C   UNL A   1      32.171  24.156  25.246  1.00  0.00     0.172 A 
ATOM     12  C   UNL A   1      32.066  25.514  25.565  1.00  0.00     0.290 A 
BRANCH  10  13
ATOM     13  N   UNL A   1      33.456  22.148  24.661  1.00  0.00     0.063 N 
ATOM     14  O   UNL A   1      33.250  21.909  23.463  1.00  0.00    -0.258 OA
ATOM     15  O   UNL A   1      33.685  21.279  25.507  1.00  0.00    -0.258 OA
ENDBRANCH  10  13
BRANCH  12  16
ATOM     16  N   UNL A   1      30.735  26.103  25.654  1.00  0.00     0.063 N 
ATOM     17  O   UNL A   1      30.201  26.460  24.595  1.00  0.00    -0.258 OA
ATOM     18  O   UNL A   1      30.257  26.245  26.787  1.00  0.00    -0.258 OA
ENDBRANCH  12  16
ENDBRANCH   4   6
ENDBRANCH   3   4
ENDBRANCH   2   3
ENDBRANCH   1   2
BRANCH   1  19
ATOM     19  O   UNL A   1      35.051  30.038  27.754  1.00  0.00    -0.458 OA
BRANCH  19  20
ATOM     20  C   UNL A   1      36.206  30.692  27.992  1.00  0.00     0.338 C 
ATOM     21  O   UNL A   1      36.294  31.918  27.970  1.00  0.00    -0.246 OA
BRANCH  20  22
ATOM     22  C   UNL A   1      37.383  29.860  28.271  1.00  0.00     0.060 A 
ATOM     23  C   UNL A   1      37.377  29.028  29.405  1.00  0.00     0.016 A 
ATOM     24  C   UNL A   1      38.420  29.813  27.345  1.00  0.00     0.016 A 
ATOM     25  C   UNL A   1      38.351  28.054  29.555  1.00  0.00     0.010 A 
ATOM     26  C   UNL A   1      39.290  28.761  27.403  1.00  0.00     0.010 A 
ATOM     27  C   UNL A   1      39.287  27.930  28.535  1.00  0.00    -0.014 A 
BRANCH  27  28
ATOM     28  C   UNL A   1      40.549  27.242  28.708  1.00  0.00     0.031 A 
ATOM     29  C   UNL A   1      40.673  25.806  28.434  1.00  0.00     0.074 A 
ATOM     30  C   UNL A   1      41.528  28.146  28.946  1.00  0.00     0.049 A 
ATOM     31  N   UNL A   1      41.599  25.057  28.911  1.00  0.00    -0.248 NA
ATOM     32  C   UNL A   1      39.710  25.047  27.641  1.00  0.00     0.031 C 
ATOM     33  C   UNL A   1      42.971  28.076  28.872  1.00  0.00     0.029 A 
ATOM     34  N   UNL A   1      41.287  29.443  29.455  1.00  0.00    -0.354 N 
ATOM     35  C   UNL A   1      41.579  23.872  28.196  1.00  0.00     0.074 A 
ATOM     36  C   UNL A   1      40.282  23.839  27.581  1.00  0.00     0.031 C 
ATOM     37  C   UNL A   1      43.479  29.083  29.614  1.00  0.00     0.029 A 
ATOM     38  C   UNL A   1      42.361  29.743  30.288  1.00  0.00     0.049 A 
ATOM     39  H   UNL A   1      40.513  30.019  29.258  1.00  0.00     0.167 HD
ATOM     40  C   UNL A   1      42.757  23.196  28.046  1.00  0.00     0.037 A 
ATOM     41  C   UNL A   1      42.115  29.744  31.631  1.00  0.00     0.037 A 
ATOM     42  C   UNL A   1      43.792  23.913  28.792  1.00  0.00     0.049 A 
ATOM     43  C   UNL A   1      42.832  28.575  32.259  1.00  0.00     0.074 A 
ATOM     44  C   UNL A   1      44.705  24.875  28.392  1.00  0.00     0.029 A 
ATOM     45  N   UNL A   1      43.680  24.019  30.174  1.00  0.00    -0.354 N 
ATOM     46  N   UNL A   1      42.972  27.403  31.695  1.00  0.00    -0.248 NA
ATOM     47  C   UNL A   1      43.570  28.711  33.506  1.00  0.00     0.031 C 
ATOM     48  C   UNL A   1      45.060  25.632  29.542  1.00  0.00     0.029 A 
ATOM     49  C   UNL A   1      44.362  25.131  30.630  1.00  0.00     0.049 A 
ATOM     50  H   UNL A   1      43.185  23.389  30.747  1.00  0.00     0.167 HD
ATOM     51  C   UNL A   1      43.881  26.678  32.420  1.00  0.00     0.074 A 
ATOM     52  C   UNL A   1      44.204  27.530  33.553  1.00  0.00     0.031 C 
ATOM     53  C   UNL A   1      44.372  25.460  32.046  1.00  0.00     0.037 A 
BRANCH  40  54
ATOM     54  C   UNL A   1      43.092  22.122  27.023  1.00  0.00     0.064 A 
ATOM     55  C   UNL A   1      42.404  20.883  27.057  1.00  0.00     0.173 A 
ATOM     56  C   UNL A   1      44.081  22.202  26.022  1.00  0.00     0.173 A 
ATOM     57  F   UNL A   1      41.389  20.670  27.905  1.00  0.00    -0.203 F 
ATOM     58  C   UNL A   1      42.724  19.809  26.220  1.00  0.00     0.198 A 
ATOM     59  C   UNL A   1      44.409  21.121  25.190  1.00  0.00     0.198 A 
ATOM     60  F   UNL A   1      44.748  23.331  25.774  1.00  0.00    -0.203 F 
ATOM     61  F   UNL A   1      42.043  18.659  26.324  1.00  0.00    -0.200 F 
ATOM     62  C   UNL A   1      43.737  19.922  25.295  1.00  0.00     0.200 A 
ATOM     63  F   UNL A   1      45.385  21.257  24.279  1.00  0.00    -0.200 F 
ATOM     64  F   UNL A   1      44.050  18.893  24.496  1.00  0.00    -0.200 F 
ENDBRANCH  40  54
BRANCH  41  65
ATOM     65  C   UNL A   1      40.757  30.271  32.012  1.00  0.00     0.064 A 
ATOM     66  C   UNL A   1      39.752  29.339  32.373  1.00  0.00     0.173 A 
ATOM     67  C   UNL A   1      40.483  31.615  32.292  1.00  0.00     0.173 A 
ATOM     68  F   UNL A   1      39.933  28.031  32.124  1.00  0.00    -0.203 F 
ATOM     69  C   UNL A   1      38.605  29.712  33.075  1.00  0.00     0.198 A 
ATOM     70  C   UNL A   1      39.314  31.992  32.974  1.00  0.00     0.198 A 
ATOM     71  F   UNL A   1      41.371  32.570  31.986  1.00  0.00    -0.203 F 
ATOM     72  F   UNL A   1      37.747  28.774  33.504  1.00  0.00    -0.200 F 
ATOM     73  C   UNL A   1      38.393  31.039  33.388  1.00  0.00     0.200 A 
ATOM     74  F   UNL A   1      39.122  33.275  33.317  1.00  0.00    -0.200 F 
ATOM     75  F   UNL A   1      37.335  31.399  34.129  1.00  0.00    -0.200 F 
ENDBRANCH  41  65
BRANCH  53  76
ATOM     76  C   UNL A   1      45.014  24.487  33.000  1.00  0.00     0.064 A 
ATOM     77  C   UNL A   1      44.402  23.284  33.387  1.00  0.00     0.173 A 
ATOM     78  C   UNL A   1      46.358  24.650  33.414  1.00  0.00     0.173 A 
ATOM     79  F   UNL A   1      43.191  22.933  32.932  1.00  0.00    -0.203 F 
ATOM     80  C   UNL A   1      45.045  22.364  34.212  1.00  0.00     0.198 A 
ATOM     81  C   UNL A   1      47.026  23.686  34.161  1.00  0.00     0.198 A 
ATOM     82  F   UNL A   1      47.079  25.729  33.076  1.00  0.00    -0.203 F 
ATOM     83  F   UNL A   1      44.386  21.269  34.615  1.00  0.00    -0.200 F 
ATOM     84  C   UNL A   1      46.359  22.557  34.587  1.00  0.00     0.200 A 
ATOM     85  F   UNL A   1      48.325  23.849  34.447  1.00  0.00    -0.200 F 
ATOM     86  F   UNL A   1      46.989  21.644  35.336  1.00  0.00    -0.200 F 
ENDBRANCH  53  76
ENDBRANCH  27  28
ENDBRANCH  20  22
ENDBRANCH  19  20
ENDBRANCH   1  19
TORSDOF 13
ENDMDL
