MODEL 1
REMARK VINA RESULT:     -11.7      0.000      0.000
REMARK SMILES C[C@]1(C(=O)NCc2ccc(C(=O)OCCOC(=O)c3ccc(-c4c5nc(c(-c6c(F)c(F)c(F)c(F)c6F)c6ccc([nH]6)c(-c6c(F)c(F)c(F)c(F)c6F)c6nc(c(-c7c(F)c(F)c(F)c(F)c7F)c7ccc4[nH]7)C=C6)C=C5)cc3)o2)CCC[NH2+]C1
REMARK SMILES IDX 14 1 13 2 11 3 12 4 10 5 7 6 8 7 82 8 9 9 6 10 5 11 3 12
REMARK SMILES IDX 4 13 2 15 1 16 83 17 87 18 84 19 86 20 85 21 15 24 16 25
REMARK SMILES IDX 17 26 18 27 19 28 20 29 81 30 21 31 80 32 22 33 23 34 24 35
REMARK SMILES IDX 74 36 25 37 79 38 73 39 75 40 26 41 78 42 72 43 71 44 27 46
REMARK SMILES IDX 59 47 39 48 58 49 40 50 43 51 57 52 76 53 41 54 42 55 56 57
REMARK SMILES IDX 77 58 44 59 28 60 29 61 37 62 30 63 31 64 35 65 38 66 32 67
REMARK SMILES IDX 33 68 36 69 34 70 60 71 61 72 69 73 62 74 63 75 67 76 70 77
REMARK SMILES IDX 64 78 65 79 68 80 66 81 45 82 46 83 54 84 47 85 48 86 52 87
REMARK SMILES IDX 55 88 49 89 50 90 53 91 51 92
REMARK H PARENT 5 14 86 22 86 23 75 45 43 56
REMARK Flexibility Score: inf
ROOT
ATOM      1  C   UNL A   1      33.855  35.826  28.899  1.00  0.00     0.275 C 
ENDROOT
BRANCH   1   2
ATOM      2  O   UNL A   1      34.038  34.423  29.169  1.00  0.00    -0.456 OA
BRANCH   2   3
ATOM      3  C   UNL A   1      33.501  33.558  28.256  1.00  0.00     0.374 C 
ATOM      4  O   UNL A   1      32.485  33.775  27.611  1.00  0.00    -0.242 OA
BRANCH   3   5
ATOM      5  C   UNL A   1      34.365  32.408  28.106  1.00  0.00     0.211 A 
ATOM      6  C   UNL A   1      34.780  30.295  27.607  1.00  0.00     0.124 A 
ATOM      7  C   UNL A   1      36.005  30.905  27.766  1.00  0.00     0.048 A 
ATOM      8  O   UNL A   1      33.782  31.189  27.863  1.00  0.00    -0.452 OA
ATOM      9  C   UNL A   1      35.740  32.258  28.087  1.00  0.00     0.058 A 
BRANCH   6  10
ATOM     10  C   UNL A   1      34.373  28.914  27.251  1.00  0.00     0.191 C 
BRANCH  10  11
ATOM     11  N   UNL A   1      32.991  28.692  27.616  1.00  0.00    -0.348 N 
ATOM     12  C   UNL A   1      31.998  27.864  27.223  1.00  0.00     0.232 C 
ATOM     13  O   UNL A   1      31.031  27.842  28.003  1.00  0.00    -0.274 OA
ATOM     14  H   UNL A   1      32.699  29.300  28.334  1.00  0.00     0.163 HD
BRANCH  12  15
ATOM     15  C   UNL A   1      31.883  27.123  25.871  1.00  0.00     0.095 C 
ATOM     16  C   UNL A   1      31.566  28.229  24.829  1.00  0.00     0.028 C 
ATOM     17  C   UNL A   1      33.072  26.307  25.344  1.00  0.00     0.028 C 
ATOM     18  C   UNL A   1      30.652  26.170  25.960  1.00  0.00     0.277 C 
ATOM     19  C   UNL A   1      33.288  25.008  26.120  1.00  0.00     0.063 C 
ATOM     20  N   UNL A   1      30.925  24.954  26.742  1.00  0.00    -0.345 N 
ATOM     21  C   UNL A   1      32.013  24.175  26.163  1.00  0.00     0.260 C 
ATOM     22  H   UNL A   1      31.180  25.223  27.693  1.00  0.00     0.346 HD
ATOM     23  H   UNL A   1      30.083  24.378  26.739  1.00  0.00     0.346 HD
ENDBRANCH  12  15
ENDBRANCH  10  11
ENDBRANCH   6  10
ENDBRANCH   3   5
ENDBRANCH   2   3
ENDBRANCH   1   2
BRANCH   1  24
ATOM     24  C   UNL A   1      32.814  36.438  29.843  1.00  0.00     0.275 C 
BRANCH  24  25
ATOM     25  O   UNL A   1      32.398  35.505  30.860  1.00  0.00    -0.458 OA
BRANCH  25  26
ATOM     26  C   UNL A   1      32.680  35.870  32.134  1.00  0.00     0.338 C 
ATOM     27  O   UNL A   1      32.025  36.615  32.845  1.00  0.00    -0.246 OA
BRANCH  26  28
ATOM     28  C   UNL A   1      33.843  35.110  32.621  1.00  0.00     0.060 A 
ATOM     29  C   UNL A   1      35.101  35.695  32.479  1.00  0.00     0.016 A 
ATOM     30  C   UNL A   1      33.720  33.825  33.157  1.00  0.00     0.016 A 
ATOM     31  C   UNL A   1      36.240  35.004  32.876  1.00  0.00     0.010 A 
ATOM     32  C   UNL A   1      34.873  33.124  33.539  1.00  0.00     0.010 A 
ATOM     33  C   UNL A   1      36.142  33.708  33.392  1.00  0.00    -0.014 A 
BRANCH  33  34
ATOM     34  C   UNL A   1      37.390  32.973  33.711  1.00  0.00     0.031 A 
ATOM     35  C   UNL A   1      38.083  33.205  35.022  1.00  0.00     0.074 A 
ATOM     36  C   UNL A   1      37.856  32.039  32.862  1.00  0.00     0.049 A 
ATOM     37  N   UNL A   1      39.212  32.708  35.466  1.00  0.00    -0.248 NA
ATOM     38  C   UNL A   1      37.423  34.126  35.959  1.00  0.00     0.031 C 
ATOM     39  C   UNL A   1      37.228  31.665  31.595  1.00  0.00     0.029 A 
ATOM     40  N   UNL A   1      38.955  31.222  32.947  1.00  0.00    -0.354 N 
ATOM     41  C   UNL A   1      39.405  33.270  36.719  1.00  0.00     0.074 A 
ATOM     42  C   UNL A   1      38.288  34.159  36.962  1.00  0.00     0.031 C 
ATOM     43  C   UNL A   1      37.944  30.680  31.028  1.00  0.00     0.029 A 
ATOM     44  C   UNL A   1      39.102  30.387  31.868  1.00  0.00     0.049 A 
ATOM     45  H   UNL A   1      39.579  31.234  33.708  1.00  0.00     0.167 HD
ATOM     46  C   UNL A   1      40.422  33.059  37.589  1.00  0.00     0.037 A 
ATOM     47  C   UNL A   1      40.073  29.497  31.581  1.00  0.00     0.037 A 
ATOM     48  C   UNL A   1      41.511  32.145  37.363  1.00  0.00     0.049 A 
ATOM     49  C   UNL A   1      41.215  29.315  32.543  1.00  0.00     0.074 A 
ATOM     50  C   UNL A   1      42.590  31.864  38.185  1.00  0.00     0.029 A 
ATOM     51  N   UNL A   1      41.651  31.349  36.236  1.00  0.00    -0.354 N 
ATOM     52  N   UNL A   1      41.417  29.886  33.706  1.00  0.00    -0.248 NA
ATOM     53  C   UNL A   1      42.271  28.374  32.146  1.00  0.00     0.031 C 
ATOM     54  C   UNL A   1      43.401  30.924  37.538  1.00  0.00     0.029 A 
ATOM     55  C   UNL A   1      42.808  30.592  36.331  1.00  0.00     0.049 A 
ATOM     56  H   UNL A   1      41.022  31.326  35.479  1.00  0.00     0.167 HD
ATOM     57  C   UNL A   1      42.611  29.367  34.184  1.00  0.00     0.074 A 
ATOM     58  C   UNL A   1      43.082  28.420  33.194  1.00  0.00     0.031 C 
ATOM     59  C   UNL A   1      43.263  29.655  35.336  1.00  0.00     0.037 A 
BRANCH  46  60
ATOM     60  C   UNL A   1      40.425  33.862  38.855  1.00  0.00     0.064 A 
ATOM     61  C   UNL A   1      39.719  33.452  39.994  1.00  0.00     0.173 A 
ATOM     62  C   UNL A   1      41.176  35.045  38.935  1.00  0.00     0.173 A 
ATOM     63  F   UNL A   1      38.976  32.335  39.963  1.00  0.00    -0.203 F 
ATOM     64  C   UNL A   1      39.746  34.209  41.163  1.00  0.00     0.198 A 
ATOM     65  C   UNL A   1      41.221  35.786  40.113  1.00  0.00     0.198 A 
ATOM     66  F   UNL A   1      41.874  35.477  37.874  1.00  0.00    -0.203 F 
ATOM     67  F   UNL A   1      39.033  33.820  42.229  1.00  0.00    -0.200 F 
ATOM     68  C   UNL A   1      40.502  35.371  41.223  1.00  0.00     0.200 A 
ATOM     69  F   UNL A   1      41.958  36.904  40.172  1.00  0.00    -0.200 F 
ATOM     70  F   UNL A   1      40.530  36.096  42.350  1.00  0.00    -0.200 F 
ENDBRANCH  46  60
BRANCH  47  71
ATOM     71  C   UNL A   1      40.016  28.729  30.312  1.00  0.00     0.064 A 
ATOM     72  C   UNL A   1      39.409  27.468  30.256  1.00  0.00     0.173 A 
ATOM     73  C   UNL A   1      40.575  29.241  29.131  1.00  0.00     0.173 A 
ATOM     74  F   UNL A   1      38.890  26.923  31.366  1.00  0.00    -0.203 F 
ATOM     75  C   UNL A   1      39.369  26.744  29.066  1.00  0.00     0.198 A 
ATOM     76  C   UNL A   1      40.511  28.527  27.937  1.00  0.00     0.198 A 
ATOM     77  F   UNL A   1      41.175  30.440  29.136  1.00  0.00    -0.203 F 
ATOM     78  F   UNL A   1      38.818  25.522  29.045  1.00  0.00    -0.200 F 
ATOM     79  C   UNL A   1      39.913  27.277  27.907  1.00  0.00     0.200 A 
ATOM     80  F   UNL A   1      41.032  29.049  26.818  1.00  0.00    -0.200 F 
ATOM     81  F   UNL A   1      39.871  26.580  26.763  1.00  0.00    -0.200 F 
ENDBRANCH  47  71
BRANCH  59  82
ATOM     82  C   UNL A   1      44.548  28.927  35.595  1.00  0.00     0.064 A 
ATOM     83  C   UNL A   1      45.780  29.453  35.179  1.00  0.00     0.173 A 
ATOM     84  C   UNL A   1      44.552  27.713  36.296  1.00  0.00     0.173 A 
ATOM     85  F   UNL A   1      45.825  30.604  34.491  1.00  0.00    -0.203 F 
ATOM     86  C   UNL A   1      46.969  28.777  35.438  1.00  0.00     0.198 A 
ATOM     87  C   UNL A   1      45.745  27.052  36.574  1.00  0.00     0.198 A 
ATOM     88  F   UNL A   1      43.399  27.172  36.720  1.00  0.00    -0.203 F 
ATOM     89  F   UNL A   1      48.132  29.278  34.998  1.00  0.00    -0.200 F 
ATOM     90  C   UNL A   1      46.951  27.581  36.140  1.00  0.00     0.200 A 
ATOM     91  F   UNL A   1      45.728  25.901  37.260  1.00  0.00    -0.200 F 
ATOM     92  F   UNL A   1      48.098  26.934  36.393  1.00  0.00    -0.200 F 
ENDBRANCH  59  82
ENDBRANCH  33  34
ENDBRANCH  26  28
ENDBRANCH  25  26
ENDBRANCH  24  25
ENDBRANCH   1  24
TORSDOF 14
ENDMDL
MODEL 2
REMARK VINA RESULT:     -11.3      2.647      4.666
REMARK SMILES C[C@]1(C(=O)NCc2ccc(C(=O)OCCOC(=O)c3ccc(-c4c5nc(c(-c6c(F)c(F)c(F)c(F)c6F)c6ccc([nH]6)c(-c6c(F)c(F)c(F)c(F)c6F)c6nc(c(-c7c(F)c(F)c(F)c(F)c7F)c7ccc4[nH]7)C=C6)C=C5)cc3)o2)CCC[NH2+]C1
REMARK SMILES IDX 14 1 13 2 11 3 12 4 10 5 7 6 8 7 82 8 9 9 6 10 5 11 3 12
REMARK SMILES IDX 4 13 2 15 1 16 83 17 87 18 84 19 86 20 85 21 15 24 16 25
REMARK SMILES IDX 17 26 18 27 19 28 20 29 81 30 21 31 80 32 22 33 23 34 24 35
REMARK SMILES IDX 74 36 25 37 79 38 73 39 75 40 26 41 78 42 72 43 71 44 27 46
REMARK SMILES IDX 59 47 39 48 58 49 40 50 43 51 57 52 76 53 41 54 42 55 56 57
REMARK SMILES IDX 77 58 44 59 28 60 29 61 37 62 30 63 31 64 35 65 38 66 32 67
REMARK SMILES IDX 33 68 36 69 34 70 60 71 61 72 69 73 62 74 63 75 67 76 70 77
REMARK SMILES IDX 64 78 65 79 68 80 66 81 45 82 46 83 54 84 47 85 48 86 52 87
REMARK SMILES IDX 55 88 49 89 50 90 53 91 51 92
REMARK H PARENT 5 14 86 22 86 23 75 45 43 56
REMARK Flexibility Score: inf
ROOT
ATOM      1  C   UNL A   1      31.865  30.985  26.307  1.00  0.00     0.275 C 
ENDROOT
BRANCH   1   2
ATOM      2  O   UNL A   1      31.978  29.902  27.250  1.00  0.00    -0.456 OA
BRANCH   2   3
ATOM      3  C   UNL A   1      32.768  28.853  26.871  1.00  0.00     0.374 C 
ATOM      4  O   UNL A   1      33.980  28.808  27.027  1.00  0.00    -0.242 OA
BRANCH   3   5
ATOM      5  C   UNL A   1      31.944  27.783  26.355  1.00  0.00     0.211 A 
ATOM      6  C   UNL A   1      30.456  26.924  24.963  1.00  0.00     0.124 A 
ATOM      7  C   UNL A   1      30.983  25.866  25.669  1.00  0.00     0.048 A 
ATOM      8  O   UNL A   1      30.997  28.094  25.410  1.00  0.00    -0.452 OA
ATOM      9  C   UNL A   1      31.935  26.415  26.563  1.00  0.00     0.058 A 
BRANCH   6  10
ATOM     10  C   UNL A   1      29.447  27.019  23.880  1.00  0.00     0.191 C 
BRANCH  10  11
ATOM     11  N   UNL A   1      29.919  27.903  22.836  1.00  0.00    -0.348 N 
ATOM     12  C   UNL A   1      29.614  29.144  22.395  1.00  0.00     0.232 C 
ATOM     13  O   UNL A   1      30.465  29.621  21.626  1.00  0.00    -0.274 OA
ATOM     14  H   UNL A   1      30.648  27.496  22.313  1.00  0.00     0.163 HD
BRANCH  12  15
ATOM     15  C   UNL A   1      28.286  29.906  22.605  1.00  0.00     0.095 C 
ATOM     16  C   UNL A   1      27.225  28.805  22.870  1.00  0.00     0.028 C 
ATOM     17  C   UNL A   1      28.171  30.949  23.726  1.00  0.00     0.028 C 
ATOM     18  C   UNL A   1      27.931  30.610  21.260  1.00  0.00     0.277 C 
ATOM     19  C   UNL A   1      28.944  32.232  23.420  1.00  0.00     0.063 C 
ATOM     20  N   UNL A   1      28.730  31.822  21.020  1.00  0.00    -0.345 N 
ATOM     21  C   UNL A   1      28.534  32.812  22.072  1.00  0.00     0.260 C 
ATOM     22  H   UNL A   1      29.717  31.566  20.986  1.00  0.00     0.346 HD
ATOM     23  H   UNL A   1      28.428  32.233  20.135  1.00  0.00     0.346 HD
ENDBRANCH  12  15
ENDBRANCH  10  11
ENDBRANCH   6  10
ENDBRANCH   3   5
ENDBRANCH   2   3
ENDBRANCH   1   2
BRANCH   1  24
ATOM     24  C   UNL A   1      31.724  32.331  27.025  1.00  0.00     0.275 C 
BRANCH  24  25
ATOM     25  O   UNL A   1      32.896  33.154  26.857  1.00  0.00    -0.458 OA
BRANCH  25  26
ATOM     26  C   UNL A   1      33.308  33.812  27.967  1.00  0.00     0.338 C 
ATOM     27  O   UNL A   1      32.722  34.712  28.547  1.00  0.00    -0.246 OA
BRANCH  26  28
ATOM     28  C   UNL A   1      34.531  33.181  28.492  1.00  0.00     0.060 A 
ATOM     29  C   UNL A   1      34.425  31.882  28.989  1.00  0.00     0.016 A 
ATOM     30  C   UNL A   1      35.750  33.861  28.553  1.00  0.00     0.016 A 
ATOM     31  C   UNL A   1      35.535  31.255  29.543  1.00  0.00     0.010 A 
ATOM     32  C   UNL A   1      36.863  33.231  29.129  1.00  0.00     0.010 A 
ATOM     33  C   UNL A   1      36.758  31.925  29.635  1.00  0.00    -0.014 A 
BRANCH  33  34
ATOM     34  C   UNL A   1      37.889  31.252  30.321  1.00  0.00     0.031 A 
ATOM     35  C   UNL A   1      38.138  31.502  31.779  1.00  0.00     0.074 A 
ATOM     36  C   UNL A   1      38.640  30.356  29.655  1.00  0.00     0.049 A 
ATOM     37  N   UNL A   1      39.104  31.059  32.546  1.00  0.00    -0.248 NA
ATOM     38  C   UNL A   1      37.176  32.374  32.469  1.00  0.00     0.031 C 
ATOM     39  C   UNL A   1      38.448  29.967  28.259  1.00  0.00     0.029 A 
ATOM     40  N   UNL A   1      39.705  29.597  30.073  1.00  0.00    -0.354 N 
ATOM     41  C   UNL A   1      38.877  31.613  33.797  1.00  0.00     0.074 A 
ATOM     42  C   UNL A   1      37.692  32.439  33.687  1.00  0.00     0.031 C 
ATOM     43  C   UNL A   1      39.354  29.029  27.938  1.00  0.00     0.029 A 
ATOM     44  C   UNL A   1      40.217  28.785  29.091  1.00  0.00     0.049 A 
ATOM     45  H   UNL A   1      40.067  29.631  30.987  1.00  0.00     0.167 HD
ATOM     46  C   UNL A   1      39.592  31.444  34.935  1.00  0.00     0.037 A 
ATOM     47  C   UNL A   1      41.275  27.952  29.115  1.00  0.00     0.037 A 
ATOM     48  C   UNL A   1      40.747  30.591  35.053  1.00  0.00     0.049 A 
ATOM     49  C   UNL A   1      42.080  27.817  30.379  1.00  0.00     0.074 A 
ATOM     50  C   UNL A   1      41.538  30.355  36.165  1.00  0.00     0.029 A 
ATOM     51  N   UNL A   1      41.265  29.819  34.024  1.00  0.00    -0.354 N 
ATOM     52  N   UNL A   1      41.889  28.381  31.547  1.00  0.00    -0.248 NA
ATOM     53  C   UNL A   1      43.256  26.938  30.324  1.00  0.00     0.031 C 
ATOM     54  C   UNL A   1      42.557  29.469  35.798  1.00  0.00     0.029 A 
ATOM     55  C   UNL A   1      42.377  29.122  34.469  1.00  0.00     0.049 A 
ATOM     56  H   UNL A   1      40.897  29.774  33.112  1.00  0.00     0.167 HD
ATOM     57  C   UNL A   1      42.908  27.919  32.366  1.00  0.00     0.074 A 
ATOM     58  C   UNL A   1      43.708  27.012  31.569  1.00  0.00     0.031 C 
ATOM     59  C   UNL A   1      43.162  28.224  33.661  1.00  0.00     0.037 A 
BRANCH  46  60
ATOM     60  C   UNL A   1      39.167  32.228  36.140  1.00  0.00     0.064 A 
ATOM     61  C   UNL A   1      39.649  33.520  36.392  1.00  0.00     0.173 A 
ATOM     62  C   UNL A   1      38.236  31.686  37.039  1.00  0.00     0.173 A 
ATOM     63  F   UNL A   1      40.551  34.077  35.569  1.00  0.00    -0.203 F 
ATOM     64  C   UNL A   1      39.231  34.233  37.512  1.00  0.00     0.198 A 
ATOM     65  C   UNL A   1      37.801  32.411  38.145  1.00  0.00     0.198 A 
ATOM     66  F   UNL A   1      37.740  30.455  36.840  1.00  0.00    -0.203 F 
ATOM     67  F   UNL A   1      39.734  35.451  37.756  1.00  0.00    -0.200 F 
ATOM     68  C   UNL A   1      38.304  33.680  38.384  1.00  0.00     0.200 A 
ATOM     69  F   UNL A   1      36.899  31.880  38.981  1.00  0.00    -0.200 F 
ATOM     70  F   UNL A   1      37.899  34.370  39.460  1.00  0.00    -0.200 F 
ENDBRANCH  46  60
BRANCH  47  71
ATOM     71  C   UNL A   1      41.649  27.200  27.891  1.00  0.00     0.064 A 
ATOM     72  C   UNL A   1      42.491  27.764  26.923  1.00  0.00     0.173 A 
ATOM     73  C   UNL A   1      41.165  25.904  27.662  1.00  0.00     0.173 A 
ATOM     74  F   UNL A   1      42.952  29.014  27.082  1.00  0.00    -0.203 F 
ATOM     75  C   UNL A   1      42.829  27.061  25.769  1.00  0.00     0.198 A 
ATOM     76  C   UNL A   1      41.525  25.192  26.520  1.00  0.00     0.198 A 
ATOM     77  F   UNL A   1      40.348  25.323  28.554  1.00  0.00    -0.203 F 
ATOM     78  F   UNL A   1      43.604  27.637  24.839  1.00  0.00    -0.200 F 
ATOM     79  C   UNL A   1      42.352  25.774  25.572  1.00  0.00     0.200 A 
ATOM     80  F   UNL A   1      41.067  23.946  26.337  1.00  0.00    -0.200 F 
ATOM     81  F   UNL A   1      42.681  25.098  24.462  1.00  0.00    -0.200 F 
ENDBRANCH  47  71
BRANCH  59  82
ATOM     82  C   UNL A   1      44.347  27.562  34.300  1.00  0.00     0.064 A 
ATOM     83  C   UNL A   1      45.606  28.180  34.318  1.00  0.00     0.173 A 
ATOM     84  C   UNL A   1      44.213  26.317  34.931  1.00  0.00     0.173 A 
ATOM     85  F   UNL A   1      45.786  29.364  33.714  1.00  0.00    -0.203 F 
ATOM     86  C   UNL A   1      46.694  27.562  34.928  1.00  0.00     0.198 A 
ATOM     87  C   UNL A   1      45.298  25.714  35.560  1.00  0.00     0.198 A 
ATOM     88  F   UNL A   1      43.027  25.689  34.946  1.00  0.00    -0.203 F 
ATOM     89  F   UNL A   1      47.898  28.152  34.900  1.00  0.00    -0.200 F 
ATOM     90  C   UNL A   1      46.539  26.334  35.553  1.00  0.00     0.200 A 
ATOM     91  F   UNL A   1      45.145  24.532  36.172  1.00  0.00    -0.200 F 
ATOM     92  F   UNL A   1      47.588  25.744  36.143  1.00  0.00    -0.200 F 
ENDBRANCH  59  82
ENDBRANCH  33  34
ENDBRANCH  26  28
ENDBRANCH  25  26
ENDBRANCH  24  25
ENDBRANCH   1  24
TORSDOF 14
ENDMDL
MODEL 3
REMARK VINA RESULT:     -11.2      6.069     11.310
REMARK SMILES C[C@]1(C(=O)NCc2ccc(C(=O)OCCOC(=O)c3ccc(-c4c5nc(c(-c6c(F)c(F)c(F)c(F)c6F)c6ccc([nH]6)c(-c6c(F)c(F)c(F)c(F)c6F)c6nc(c(-c7c(F)c(F)c(F)c(F)c7F)c7ccc4[nH]7)C=C6)C=C5)cc3)o2)CCC[NH2+]C1
REMARK SMILES IDX 14 1 13 2 11 3 12 4 10 5 7 6 8 7 82 8 9 9 6 10 5 11 3 12
REMARK SMILES IDX 4 13 2 15 1 16 83 17 87 18 84 19 86 20 85 21 15 24 16 25
REMARK SMILES IDX 17 26 18 27 19 28 20 29 81 30 21 31 80 32 22 33 23 34 24 35
REMARK SMILES IDX 74 36 25 37 79 38 73 39 75 40 26 41 78 42 72 43 71 44 27 46
REMARK SMILES IDX 59 47 39 48 58 49 40 50 43 51 57 52 76 53 41 54 42 55 56 57
REMARK SMILES IDX 77 58 44 59 28 60 29 61 37 62 30 63 31 64 35 65 38 66 32 67
REMARK SMILES IDX 33 68 36 69 34 70 60 71 61 72 69 73 62 74 63 75 67 76 70 77
REMARK SMILES IDX 64 78 65 79 68 80 66 81 45 82 46 83 54 84 47 85 48 86 52 87
REMARK SMILES IDX 55 88 49 89 50 90 53 91 51 92
REMARK H PARENT 5 14 86 22 86 23 75 45 43 56
REMARK Flexibility Score: inf
ROOT
ATOM      1  C   UNL A   1      40.771  20.013  26.556  1.00  0.00     0.275 C 
ENDROOT
BRANCH   1   2
ATOM      2  O   UNL A   1      42.160  19.720  26.799  1.00  0.00    -0.456 OA
BRANCH   2   3
ATOM      3  C   UNL A   1      42.738  18.803  25.966  1.00  0.00     0.374 C 
ATOM      4  O   UNL A   1      42.285  17.689  25.742  1.00  0.00    -0.242 OA
BRANCH   3   5
ATOM      5  C   UNL A   1      43.897  19.386  25.327  1.00  0.00     0.211 A 
ATOM      6  C   UNL A   1      45.008  21.041  24.371  1.00  0.00     0.124 A 
ATOM      7  C   UNL A   1      45.922  20.034  24.588  1.00  0.00     0.048 A 
ATOM      8  O   UNL A   1      43.768  20.634  24.769  1.00  0.00    -0.452 OA
ATOM      9  C   UNL A   1      45.211  18.972  25.200  1.00  0.00     0.058 A 
BRANCH   6  10
ATOM     10  C   UNL A   1      45.117  22.403  23.793  1.00  0.00     0.191 C 
BRANCH  10  11
ATOM     11  N   UNL A   1      46.160  23.147  24.466  1.00  0.00    -0.348 N 
ATOM     12  C   UNL A   1      46.243  23.944  25.554  1.00  0.00     0.232 C 
ATOM     13  O   UNL A   1      47.409  24.163  25.922  1.00  0.00    -0.274 OA
ATOM     14  H   UNL A   1      47.030  23.047  24.016  1.00  0.00     0.163 HD
BRANCH  12  15
ATOM     15  C   UNL A   1      45.089  24.714  26.235  1.00  0.00     0.095 C 
ATOM     16  C   UNL A   1      44.840  25.951  25.331  1.00  0.00     0.028 C 
ATOM     17  C   UNL A   1      43.738  24.021  26.465  1.00  0.00     0.028 C 
ATOM     18  C   UNL A   1      45.609  25.217  27.616  1.00  0.00     0.277 C 
ATOM     19  C   UNL A   1      43.793  22.976  27.579  1.00  0.00     0.063 C 
ATOM     20  N   UNL A   1      45.659  24.153  28.631  1.00  0.00    -0.345 N 
ATOM     21  C   UNL A   1      44.342  23.574  28.868  1.00  0.00     0.260 C 
ATOM     22  H   UNL A   1      46.290  23.418  28.309  1.00  0.00     0.346 HD
ATOM     23  H   UNL A   1      45.990  24.561  29.505  1.00  0.00     0.346 HD
ENDBRANCH  12  15
ENDBRANCH  10  11
ENDBRANCH   6  10
ENDBRANCH   3   5
ENDBRANCH   2   3
ENDBRANCH   1   2
BRANCH   1  24
ATOM     24  C   UNL A   1      40.580  21.473  26.132  1.00  0.00     0.275 C 
BRANCH  24  25
ATOM     25  O   UNL A   1      39.545  22.123  26.897  1.00  0.00    -0.458 OA
BRANCH  25  26
ATOM     26  C   UNL A   1      39.007  23.227  26.327  1.00  0.00     0.338 C 
ATOM     27  O   UNL A   1      38.125  23.262  25.483  1.00  0.00    -0.246 OA
BRANCH  26  28
ATOM     28  C   UNL A   1      39.538  24.433  26.983  1.00  0.00     0.060 A 
ATOM     29  C   UNL A   1      39.266  24.603  28.341  1.00  0.00     0.016 A 
ATOM     30  C   UNL A   1      40.242  25.414  26.279  1.00  0.00     0.016 A 
ATOM     31  C   UNL A   1      39.698  25.745  29.002  1.00  0.00     0.010 A 
ATOM     32  C   UNL A   1      40.662  26.574  26.946  1.00  0.00     0.010 A 
ATOM     33  C   UNL A   1      40.384  26.750  28.312  1.00  0.00    -0.014 A 
BRANCH  33  34
ATOM     34  C   UNL A   1      40.741  27.995  29.036  1.00  0.00     0.031 A 
ATOM     35  C   UNL A   1      42.152  28.215  29.498  1.00  0.00     0.074 A 
ATOM     36  C   UNL A   1      39.820  28.960  29.207  1.00  0.00     0.049 A 
ATOM     37  N   UNL A   1      42.654  29.204  30.195  1.00  0.00    -0.248 NA
ATOM     38  C   UNL A   1      43.130  27.180  29.133  1.00  0.00     0.031 C 
ATOM     39  C   UNL A   1      38.438  28.899  28.734  1.00  0.00     0.029 A 
ATOM     40  N   UNL A   1      39.915  30.190  29.809  1.00  0.00    -0.354 N 
ATOM     41  C   UNL A   1      43.996  28.902  30.368  1.00  0.00     0.074 A 
ATOM     42  C   UNL A   1      44.231  27.628  29.719  1.00  0.00     0.031 C 
ATOM     43  C   UNL A   1      37.817  30.047  29.049  1.00  0.00     0.029 A 
ATOM     44  C   UNL A   1      38.744  30.904  29.785  1.00  0.00     0.049 A 
ATOM     45  H   UNL A   1      40.744  30.527  30.220  1.00  0.00     0.167 HD
ATOM     46  C   UNL A   1      44.946  29.624  31.009  1.00  0.00     0.037 A 
ATOM     47  C   UNL A   1      38.447  32.107  30.313  1.00  0.00     0.037 A 
ATOM     48  C   UNL A   1      44.721  30.908  31.620  1.00  0.00     0.049 A 
ATOM     49  C   UNL A   1      39.508  32.868  31.059  1.00  0.00     0.074 A 
ATOM     50  C   UNL A   1      45.621  31.716  32.294  1.00  0.00     0.029 A 
ATOM     51  N   UNL A   1      43.507  31.580  31.615  1.00  0.00    -0.354 N 
ATOM     52  N   UNL A   1      40.765  32.554  31.262  1.00  0.00    -0.248 NA
ATOM     53  C   UNL A   1      39.107  34.147  31.662  1.00  0.00     0.031 C 
ATOM     54  C   UNL A   1      44.943  32.860  32.728  1.00  0.00     0.029 A 
ATOM     55  C   UNL A   1      43.631  32.784  32.292  1.00  0.00     0.049 A 
ATOM     56  H   UNL A   1      42.680  31.251  31.195  1.00  0.00     0.167 HD
ATOM     57  C   UNL A   1      41.306  33.596  32.001  1.00  0.00     0.074 A 
ATOM     58  C   UNL A   1      40.246  34.563  32.197  1.00  0.00     0.031 C 
ATOM     59  C   UNL A   1      42.565  33.735  32.480  1.00  0.00     0.037 A 
BRANCH  46  60
ATOM     60  C   UNL A   1      46.315  29.022  31.116  1.00  0.00     0.064 A 
ATOM     61  C   UNL A   1      47.308  29.263  30.156  1.00  0.00     0.173 A 
ATOM     62  C   UNL A   1      46.646  28.218  32.217  1.00  0.00     0.173 A 
ATOM     63  F   UNL A   1      47.037  30.015  29.078  1.00  0.00    -0.203 F 
ATOM     64  C   UNL A   1      48.576  28.702  30.282  1.00  0.00     0.198 A 
ATOM     65  C   UNL A   1      47.922  27.679  32.354  1.00  0.00     0.198 A 
ATOM     66  F   UNL A   1      45.733  27.961  33.167  1.00  0.00    -0.203 F 
ATOM     67  F   UNL A   1      49.499  28.913  29.334  1.00  0.00    -0.200 F 
ATOM     68  C   UNL A   1      48.884  27.916  31.384  1.00  0.00     0.200 A 
ATOM     69  F   UNL A   1      48.220  26.927  33.422  1.00  0.00    -0.200 F 
ATOM     70  F   UNL A   1      50.106  27.380  31.506  1.00  0.00    -0.200 F 
ENDBRANCH  46  60
BRANCH  47  71
ATOM     71  C   UNL A   1      37.073  32.654  30.175  1.00  0.00     0.064 A 
ATOM     72  C   UNL A   1      36.690  33.369  29.033  1.00  0.00     0.173 A 
ATOM     73  C   UNL A   1      36.118  32.475  31.187  1.00  0.00     0.173 A 
ATOM     74  F   UNL A   1      37.578  33.593  28.053  1.00  0.00    -0.203 F 
ATOM     75  C   UNL A   1      35.404  33.892  28.911  1.00  0.00     0.198 A 
ATOM     76  C   UNL A   1      34.826  32.977  31.052  1.00  0.00     0.198 A 
ATOM     77  F   UNL A   1      36.439  31.806  32.304  1.00  0.00    -0.203 F 
ATOM     78  F   UNL A   1      35.073  34.607  27.826  1.00  0.00    -0.200 F 
ATOM     79  C   UNL A   1      34.472  33.689  29.917  1.00  0.00     0.200 A 
ATOM     80  F   UNL A   1      33.926  32.772  32.024  1.00  0.00    -0.200 F 
ATOM     81  F   UNL A   1      33.234  34.190  29.797  1.00  0.00    -0.200 F 
ENDBRANCH  47  71
BRANCH  59  82
ATOM     82  C   UNL A   1      42.870  34.984  33.252  1.00  0.00     0.064 A 
ATOM     83  C   UNL A   1      43.322  36.145  32.610  1.00  0.00     0.173 A 
ATOM     84  C   UNL A   1      42.674  35.030  34.640  1.00  0.00     0.173 A 
ATOM     85  F   UNL A   1      43.539  36.145  31.286  1.00  0.00    -0.203 F 
ATOM     86  C   UNL A   1      43.587  37.304  33.335  1.00  0.00     0.198 A 
ATOM     87  C   UNL A   1      42.918  36.196  35.358  1.00  0.00     0.198 A 
ATOM     88  F   UNL A   1      42.237  33.945  35.298  1.00  0.00    -0.203 F 
ATOM     89  F   UNL A   1      44.055  38.392  32.708  1.00  0.00    -0.200 F 
ATOM     90  C   UNL A   1      43.379  37.331  34.706  1.00  0.00     0.200 A 
ATOM     91  F   UNL A   1      42.708  36.224  36.681  1.00  0.00    -0.200 F 
ATOM     92  F   UNL A   1      43.631  38.449  35.401  1.00  0.00    -0.200 F 
ENDBRANCH  59  82
ENDBRANCH  33  34
ENDBRANCH  26  28
ENDBRANCH  25  26
ENDBRANCH  24  25
ENDBRANCH   1  24
TORSDOF 14
ENDMDL
