MODEL 1
REMARK VINA RESULT:     -12.7      0.000      0.000
REMARK SMILES Cc1cc(S(F)(F)(F)(F)F)cc2c1O[C@H](C(F)(F)F)C(C(=O)OCCOC(=O)c1ccc(-c3c4nc(c(-c5c(F)c(F)c(F)c(F)c5F)c5ccc([nH]5)c(-c5c(F)c(F)c(F)c(F)c5F)c5nc(c(-c6c(F)c(F)c(F)c(F)c6F)c6ccc3[nH]6)C=C5)C=C4)cc1)=C2
REMARK SMILES IDX 25 1 24 2 23 3 21 4 22 5 20 6 1 7 2 8 3 9 13 10 4 11 12 12
REMARK SMILES IDX 14 13 11 14 92 15 15 16 5 17 6 18 7 19 8 20 9 21 10 22 16 23
REMARK SMILES IDX 17 24 18 25 19 26 26 27 27 28 28 29 29 30 30 31 91 32 31 33
REMARK SMILES IDX 90 34 32 35 33 36 34 37 84 38 35 39 89 40 83 41 85 42 36 43
REMARK SMILES IDX 88 44 82 45 81 46 37 48 69 49 49 50 68 51 50 52 53 53 67 54
REMARK SMILES IDX 86 55 51 56 52 57 66 59 87 60 54 61 38 62 39 63 47 64 40 65
REMARK SMILES IDX 41 66 45 67 48 68 42 69 43 70 46 71 44 72 70 73 71 74 79 75
REMARK SMILES IDX 72 76 73 77 77 78 80 79 74 80 75 81 78 82 76 83 55 84 56 85
REMARK SMILES IDX 64 86 57 87 58 88 62 89 65 90 59 91 60 92 63 93 61 94
REMARK H PARENT 85 47 53 58
REMARK Flexibility Score: inf
ROOT
ATOM      1  C   UNL A   1      37.458  21.440  24.791  1.00  0.00     0.275 C 
ENDROOT
BRANCH   1   2
ATOM      2  C   UNL A   1      36.123  20.872  25.242  1.00  0.00     0.275 C 
BRANCH   2   3
ATOM      3  O   UNL A   1      35.073  21.498  24.519  1.00  0.00    -0.459 OA
BRANCH   3   4
ATOM      4  C   UNL A   1      34.178  22.376  25.185  1.00  0.00     0.338 C 
ATOM      5  O   UNL A   1      33.485  21.954  26.163  1.00  0.00    -0.246 OA
BRANCH   4   6
ATOM      6  C   UNL A   1      34.047  23.819  24.729  1.00  0.00     0.087 C 
ATOM      7  C   UNL A   1      33.652  28.145  21.952  1.00  0.00     0.048 C 
ATOM      8  C   UNL A   1      33.689  27.781  23.427  1.00  0.00    -0.007 A 
ATOM      9  C   UNL A   1      33.597  28.779  24.372  1.00  0.00     0.031 A 
ATOM     10  C   UNL A   1      33.808  26.455  23.842  1.00  0.00     0.130 A 
ATOM     11  C   UNL A   1      33.626  28.477  25.728  1.00  0.00     0.108 A 
ATOM     12  C   UNL A   1      33.832  26.152  25.222  1.00  0.00     0.019 A 
ATOM     13  O   UNL A   1      33.912  25.346  22.885  1.00  0.00    -0.475 OA
ATOM     14  C   UNL A   1      33.735  27.184  26.157  1.00  0.00     0.036 A 
ATOM     15  C   UNL A   1      33.958  24.753  25.628  1.00  0.00     0.027 C 
ATOM     16  C   UNL A   1      34.026  24.088  23.360  1.00  0.00     0.316 C 
BRANCH  11  17
ATOM     17  S   UNL A   1      33.516  29.814  26.943  1.00  0.00     0.310 S 
ATOM     18  F   UNL A   1      33.798  28.814  28.141  1.00  0.00    -0.094 F 
ATOM     19  F   UNL A   1      31.989  29.461  27.097  1.00  0.00    -0.094 F 
ATOM     20  F   UNL A   1      33.388  30.947  28.001  1.00  0.00    -0.094 F 
ATOM     21  F   UNL A   1      35.075  30.061  26.878  1.00  0.00    -0.094 F 
ATOM     22  F   UNL A   1      33.683  28.595  25.952  1.00  0.00    -0.094 F 
ENDBRANCH  11  17
BRANCH  16  23
ATOM     23  C   UNL A   1      32.712  23.460  22.927  1.00  0.00     0.430 C 
ATOM     24  F   UNL A   1      32.943  22.247  22.431  1.00  0.00    -0.167 F 
ATOM     25  F   UNL A   1      31.899  23.362  23.975  1.00  0.00    -0.167 F 
ATOM     26  F   UNL A   1      32.144  24.218  21.994  1.00  0.00    -0.167 F 
ENDBRANCH  16  23
ENDBRANCH   4   6
ENDBRANCH   3   4
ENDBRANCH   2   3
ENDBRANCH   1   2
BRANCH   1  27
ATOM     27  O   UNL A   1      37.759  22.602  25.552  1.00  0.00    -0.458 OA
BRANCH  27  28
ATOM     28  C   UNL A   1      38.959  22.663  26.309  1.00  0.00     0.338 C 
ATOM     29  O   UNL A   1      39.645  21.610  26.498  1.00  0.00    -0.246 OA
BRANCH  28  30
ATOM     30  C   UNL A   1      39.421  23.987  26.895  1.00  0.00     0.060 A 
ATOM     31  C   UNL A   1      40.341  24.776  26.213  1.00  0.00     0.016 A 
ATOM     32  C   UNL A   1      38.961  24.420  28.050  1.00  0.00     0.016 A 
ATOM     33  C   UNL A   1      40.337  26.156  26.517  1.00  0.00     0.010 A 
ATOM     34  C   UNL A   1      39.394  25.640  28.581  1.00  0.00     0.010 A 
ATOM     35  C   UNL A   1      40.065  26.496  27.840  1.00  0.00    -0.014 A 
BRANCH  35  36
ATOM     36  C   UNL A   1      40.533  27.823  28.416  1.00  0.00     0.031 A 
ATOM     37  C   UNL A   1      41.901  27.962  28.657  1.00  0.00     0.074 A 
ATOM     38  C   UNL A   1      39.599  28.816  28.658  1.00  0.00     0.049 A 
ATOM     39  N   UNL A   1      42.540  29.039  29.115  1.00  0.00    -0.248 NA
ATOM     40  C   UNL A   1      42.890  26.897  28.432  1.00  0.00     0.031 C 
ATOM     41  C   UNL A   1      38.219  28.687  28.408  1.00  0.00     0.029 A 
ATOM     42  N   UNL A   1      39.818  30.075  29.171  1.00  0.00    -0.354 N 
ATOM     43  C   UNL A   1      43.850  28.796  29.198  1.00  0.00     0.074 A 
ATOM     44  C   UNL A   1      44.092  27.414  28.766  1.00  0.00     0.031 C 
ATOM     45  C   UNL A   1      37.613  29.846  28.776  1.00  0.00     0.029 A 
ATOM     46  C   UNL A   1      38.604  30.720  29.261  1.00  0.00     0.049 A 
ATOM     47  H   UNL A   1      40.691  30.449  29.429  1.00  0.00     0.167 HD
ATOM     48  C   UNL A   1      44.852  29.674  29.615  1.00  0.00     0.037 A 
ATOM     49  C   UNL A   1      38.355  31.997  29.739  1.00  0.00     0.037 A 
ATOM     50  C   UNL A   1      44.608  30.968  30.051  1.00  0.00     0.049 A 
ATOM     51  C   UNL A   1      39.351  32.857  30.211  1.00  0.00     0.074 A 
ATOM     52  C   UNL A   1      45.607  31.869  30.468  1.00  0.00     0.029 A 
ATOM     53  N   UNL A   1      43.391  31.605  30.164  1.00  0.00    -0.354 N 
ATOM     54  N   UNL A   1      40.665  32.627  30.256  1.00  0.00    -0.248 NA
ATOM     55  C   UNL A   1      39.096  34.199  30.749  1.00  0.00     0.031 C 
ATOM     56  C   UNL A   1      45.000  33.028  30.835  1.00  0.00     0.029 A 
ATOM     57  C   UNL A   1      43.613  32.871  30.655  1.00  0.00     0.049 A 
ATOM     58  H   UNL A   1      42.514  31.219  29.934  1.00  0.00     0.167 HD
ATOM     59  C   UNL A   1      41.299  33.691  30.753  1.00  0.00     0.074 A 
ATOM     60  C   UNL A   1      40.299  34.714  31.084  1.00  0.00     0.031 C 
ATOM     61  C   UNL A   1      42.674  33.850  30.940  1.00  0.00     0.037 A 
BRANCH  48  62
ATOM     62  C   UNL A   1      46.291  29.186  29.589  1.00  0.00     0.064 A 
ATOM     63  C   UNL A   1      46.850  28.584  30.699  1.00  0.00     0.173 A 
ATOM     64  C   UNL A   1      47.029  29.266  28.417  1.00  0.00     0.173 A 
ATOM     65  F   UNL A   1      46.150  28.504  31.827  1.00  0.00    -0.203 F 
ATOM     66  C   UNL A   1      48.076  28.086  30.652  1.00  0.00     0.198 A 
ATOM     67  C   UNL A   1      48.308  28.727  28.402  1.00  0.00     0.198 A 
ATOM     68  F   UNL A   1      46.522  29.844  27.333  1.00  0.00    -0.203 F 
ATOM     69  F   UNL A   1      48.587  27.518  31.741  1.00  0.00    -0.200 F 
ATOM     70  C   UNL A   1      48.804  28.139  29.549  1.00  0.00     0.200 A 
ATOM     71  F   UNL A   1      49.046  28.778  27.297  1.00  0.00    -0.200 F 
ATOM     72  F   UNL A   1      50.029  27.620  29.545  1.00  0.00    -0.200 F 
ENDBRANCH  48  62
BRANCH  49  73
ATOM     73  C   UNL A   1      36.918  32.492  29.749  1.00  0.00     0.064 A 
ATOM     74  C   UNL A   1      36.408  33.199  28.678  1.00  0.00     0.173 A 
ATOM     75  C   UNL A   1      36.130  32.307  30.875  1.00  0.00     0.173 A 
ATOM     76  F   UNL A   1      37.156  33.380  27.594  1.00  0.00    -0.203 F 
ATOM     77  C   UNL A   1      35.183  33.696  28.719  1.00  0.00     0.198 A 
ATOM     78  C   UNL A   1      34.848  32.837  30.882  1.00  0.00     0.198 A 
ATOM     79  F   UNL A   1      36.593  31.636  31.926  1.00  0.00    -0.203 F 
ATOM     80  F   UNL A   1      34.724  34.378  27.672  1.00  0.00    -0.200 F 
ATOM     81  C   UNL A   1      34.402  33.533  29.775  1.00  0.00     0.200 A 
ATOM     82  F   UNL A   1      34.058  32.678  31.939  1.00  0.00    -0.200 F 
ATOM     83  F   UNL A   1      33.176  34.047  29.771  1.00  0.00    -0.200 F 
ENDBRANCH  49  73
BRANCH  61  84
ATOM     84  C   UNL A   1      43.170  35.178  31.489  1.00  0.00     0.064 A 
ATOM     85  C   UNL A   1      43.566  36.165  30.611  1.00  0.00     0.173 A 
ATOM     86  C   UNL A   1      43.222  35.424  32.854  1.00  0.00     0.173 A 
ATOM     87  F   UNL A   1      43.519  35.939  29.301  1.00  0.00    -0.203 F 
ATOM     88  C   UNL A   1      43.994  37.336  31.057  1.00  0.00     0.198 A 
ATOM     89  C   UNL A   1      43.670  36.664  33.286  1.00  0.00     0.198 A 
ATOM     90  F   UNL A   1      42.853  34.492  33.728  1.00  0.00    -0.203 F 
ATOM     91  F   UNL A   1      44.374  38.264  30.183  1.00  0.00    -0.200 F 
ATOM     92  C   UNL A   1      44.051  37.606  32.350  1.00  0.00     0.200 A 
ATOM     93  F   UNL A   1      43.732  36.943  34.585  1.00  0.00    -0.200 F 
ATOM     94  F   UNL A   1      44.482  38.798  32.755  1.00  0.00    -0.200 F 
ENDBRANCH  61  84
ENDBRANCH  35  36
ENDBRANCH  28  30
ENDBRANCH  27  28
ENDBRANCH   1  27
TORSDOF 13
ENDMDL
MODEL 2
REMARK VINA RESULT:     -12.7      0.491      7.041
REMARK SMILES Cc1cc(S(F)(F)(F)(F)F)cc2c1O[C@H](C(F)(F)F)C(C(=O)OCCOC(=O)c1ccc(-c3c4nc(c(-c5c(F)c(F)c(F)c(F)c5F)c5ccc([nH]5)c(-c5c(F)c(F)c(F)c(F)c5F)c5nc(c(-c6c(F)c(F)c(F)c(F)c6F)c6ccc3[nH]6)C=C5)C=C4)cc1)=C2
REMARK SMILES IDX 25 1 24 2 23 3 21 4 22 5 20 6 1 7 2 8 3 9 13 10 4 11 12 12
REMARK SMILES IDX 14 13 11 14 92 15 15 16 5 17 6 18 7 19 8 20 9 21 10 22 16 23
REMARK SMILES IDX 17 24 18 25 19 26 26 27 27 28 28 29 29 30 30 31 91 32 31 33
REMARK SMILES IDX 90 34 32 35 33 36 34 37 84 38 35 39 89 40 83 41 85 42 36 43
REMARK SMILES IDX 88 44 82 45 81 46 37 48 69 49 49 50 68 51 50 52 53 53 67 54
REMARK SMILES IDX 86 55 51 56 52 57 66 59 87 60 54 61 38 62 39 63 47 64 40 65
REMARK SMILES IDX 41 66 45 67 48 68 42 69 43 70 46 71 44 72 70 73 71 74 79 75
REMARK SMILES IDX 72 76 73 77 77 78 80 79 74 80 75 81 78 82 76 83 55 84 56 85
REMARK SMILES IDX 64 86 57 87 58 88 62 89 65 90 59 91 60 92 63 93 61 94
REMARK H PARENT 85 47 53 58
REMARK Flexibility Score: inf
ROOT
ATOM      1  C   UNL A   1      37.408  21.703  24.647  1.00  0.00     0.275 C 
ENDROOT
BRANCH   1   2
ATOM      2  C   UNL A   1      36.182  21.003  25.211  1.00  0.00     0.275 C 
BRANCH   2   3
ATOM      3  O   UNL A   1      35.017  21.494  24.564  1.00  0.00    -0.459 OA
BRANCH   3   4
ATOM      4  C   UNL A   1      34.152  22.391  25.245  1.00  0.00     0.338 C 
ATOM      5  O   UNL A   1      33.479  21.988  26.245  1.00  0.00    -0.246 OA
BRANCH   4   6
ATOM      6  C   UNL A   1      34.029  23.832  24.778  1.00  0.00     0.087 C 
ATOM      7  C   UNL A   1      33.653  28.138  21.970  1.00  0.00     0.048 C 
ATOM      8  C   UNL A   1      33.694  27.786  23.448  1.00  0.00    -0.007 A 
ATOM      9  C   UNL A   1      33.612  28.791  24.385  1.00  0.00     0.031 A 
ATOM     10  C   UNL A   1      33.805  26.462  23.872  1.00  0.00     0.130 A 
ATOM     11  C   UNL A   1      33.644  28.500  25.743  1.00  0.00     0.108 A 
ATOM     12  C   UNL A   1      33.833  26.170  25.254  1.00  0.00     0.019 A 
ATOM     13  O   UNL A   1      33.898  25.346  22.923  1.00  0.00    -0.475 OA
ATOM     14  C   UNL A   1      33.746  27.210  26.182  1.00  0.00     0.036 A 
ATOM     15  C   UNL A   1      33.951  24.773  25.671  1.00  0.00     0.027 C 
ATOM     16  C   UNL A   1      34.004  24.090  23.407  1.00  0.00     0.316 C 
BRANCH  11  17
ATOM     17  S   UNL A   1      33.549  29.847  26.948  1.00  0.00     0.310 S 
ATOM     18  F   UNL A   1      33.836  28.855  28.152  1.00  0.00    -0.094 F 
ATOM     19  F   UNL A   1      32.022  29.500  27.117  1.00  0.00    -0.094 F 
ATOM     20  F   UNL A   1      33.433  30.989  27.998  1.00  0.00    -0.094 F 
ATOM     21  F   UNL A   1      35.108  30.088  26.870  1.00  0.00    -0.094 F 
ATOM     22  F   UNL A   1      33.704  28.619  25.966  1.00  0.00    -0.094 F 
ENDBRANCH  11  17
BRANCH  16  23
ATOM     23  C   UNL A   1      32.684  23.468  22.984  1.00  0.00     0.430 C 
ATOM     24  F   UNL A   1      32.905  22.248  22.500  1.00  0.00    -0.167 F 
ATOM     25  F   UNL A   1      31.874  23.387  24.036  1.00  0.00    -0.167 F 
ATOM     26  F   UNL A   1      32.119  24.221  22.045  1.00  0.00    -0.167 F 
ENDBRANCH  16  23
ENDBRANCH   4   6
ENDBRANCH   3   4
ENDBRANCH   2   3
ENDBRANCH   1   2
BRANCH   1  27
ATOM     27  O   UNL A   1      37.727  22.825  25.457  1.00  0.00    -0.458 OA
BRANCH  27  28
ATOM     28  C   UNL A   1      38.957  22.864  26.166  1.00  0.00     0.338 C 
ATOM     29  O   UNL A   1      39.674  21.818  26.248  1.00  0.00    -0.246 OA
BRANCH  28  30
ATOM     30  C   UNL A   1      39.414  24.154  26.825  1.00  0.00     0.060 A 
ATOM     31  C   UNL A   1      40.334  24.981  26.192  1.00  0.00     0.016 A 
ATOM     32  C   UNL A   1      38.949  24.520  28.001  1.00  0.00     0.016 A 
ATOM     33  C   UNL A   1      40.326  26.342  26.572  1.00  0.00     0.010 A 
ATOM     34  C   UNL A   1      39.378  25.710  28.601  1.00  0.00     0.010 A 
ATOM     35  C   UNL A   1      40.050  26.607  27.911  1.00  0.00    -0.014 A 
BRANCH  35  36
ATOM     36  C   UNL A   1      40.513  27.901  28.561  1.00  0.00     0.031 A 
ATOM     37  C   UNL A   1      39.550  28.892  28.758  1.00  0.00     0.074 A 
ATOM     38  C   UNL A   1      41.842  28.029  28.930  1.00  0.00     0.049 A 
ATOM     39  N   UNL A   1      39.712  30.080  29.342  1.00  0.00    -0.248 NA
ATOM     40  C   UNL A   1      38.145  28.771  28.337  1.00  0.00     0.031 C 
ATOM     41  C   UNL A   1      42.818  27.031  28.742  1.00  0.00     0.029 A 
ATOM     42  N   UNL A   1      42.453  29.110  29.526  1.00  0.00    -0.354 N 
ATOM     43  C   UNL A   1      38.556  30.745  29.362  1.00  0.00     0.074 A 
ATOM     44  C   UNL A   1      37.533  29.916  28.711  1.00  0.00     0.031 C 
ATOM     45  C   UNL A   1      44.002  27.507  29.207  1.00  0.00     0.029 A 
ATOM     46  C   UNL A   1      43.787  28.810  29.695  1.00  0.00     0.049 A 
ATOM     47  H   UNL A   1      42.013  29.951  29.786  1.00  0.00     0.167 HD
ATOM     48  C   UNL A   1      38.313  32.010  29.899  1.00  0.00     0.037 A 
ATOM     49  C   UNL A   1      44.775  29.615  30.238  1.00  0.00     0.037 A 
ATOM     50  C   UNL A   1      39.293  32.799  30.483  1.00  0.00     0.049 A 
ATOM     51  C   UNL A   1      44.545  30.905  30.725  1.00  0.00     0.074 A 
ATOM     52  C   UNL A   1      39.064  34.073  31.038  1.00  0.00     0.029 A 
ATOM     53  N   UNL A   1      40.632  32.509  30.631  1.00  0.00    -0.354 N 
ATOM     54  N   UNL A   1      43.380  31.554  30.780  1.00  0.00    -0.248 NA
ATOM     55  C   UNL A   1      45.589  31.779  31.273  1.00  0.00     0.031 C 
ATOM     56  C   UNL A   1      40.249  34.548  31.503  1.00  0.00     0.029 A 
ATOM     57  C   UNL A   1      41.238  33.580  31.248  1.00  0.00     0.049 A 
ATOM     58  H   UNL A   1      41.077  31.679  30.344  1.00  0.00     0.167 HD
ATOM     59  C   UNL A   1      43.552  32.759  31.326  1.00  0.00     0.074 A 
ATOM     60  C   UNL A   1      44.977  32.925  31.645  1.00  0.00     0.031 C 
ATOM     61  C   UNL A   1      42.577  33.726  31.577  1.00  0.00     0.037 A 
BRANCH  48  62
ATOM     62  C   UNL A   1      36.895  32.555  29.842  1.00  0.00     0.064 A 
ATOM     63  C   UNL A   1      36.038  32.402  30.914  1.00  0.00     0.173 A 
ATOM     64  C   UNL A   1      36.478  33.290  28.741  1.00  0.00     0.173 A 
ATOM     65  F   UNL A   1      36.429  31.699  31.973  1.00  0.00    -0.203 F 
ATOM     66  C   UNL A   1      34.831  32.945  30.898  1.00  0.00     0.198 A 
ATOM     67  C   UNL A   1      35.210  33.851  28.761  1.00  0.00     0.198 A 
ATOM     68  F   UNL A   1      37.277  33.452  27.691  1.00  0.00    -0.203 F 
ATOM     69  F   UNL A   1      34.028  32.773  31.944  1.00  0.00    -0.200 F 
ATOM     70  C   UNL A   1      34.405  33.657  29.867  1.00  0.00     0.200 A 
ATOM     71  F   UNL A   1      34.774  34.567  27.728  1.00  0.00    -0.200 F 
ATOM     72  F   UNL A   1      33.187  34.191  29.896  1.00  0.00    -0.200 F 
ENDBRANCH  48  62
BRANCH  49  73
ATOM     73  C   UNL A   1      46.190  29.064  30.311  1.00  0.00     0.064 A 
ATOM     74  C   UNL A   1      47.035  29.146  29.222  1.00  0.00     0.173 A 
ATOM     75  C   UNL A   1      46.617  28.398  31.450  1.00  0.00     0.173 A 
ATOM     76  F   UNL A   1      46.635  29.784  28.126  1.00  0.00    -0.203 F 
ATOM     77  C   UNL A   1      48.239  28.598  29.259  1.00  0.00     0.198 A 
ATOM     78  C   UNL A   1      47.886  27.840  31.456  1.00  0.00     0.198 A 
ATOM     79  F   UNL A   1      45.825  28.296  32.514  1.00  0.00    -0.203 F 
ATOM     80  F   UNL A   1      49.026  28.690  28.190  1.00  0.00    -0.200 F 
ATOM     81  C   UNL A   1      48.679  27.961  30.331  1.00  0.00     0.200 A 
ATOM     82  F   UNL A   1      48.336  27.198  32.530  1.00  0.00    -0.200 F 
ATOM     83  F   UNL A   1      49.898  27.429  30.326  1.00  0.00    -0.200 F 
ENDBRANCH  49  73
BRANCH  61  84
ATOM     84  C   UNL A   1      43.009  35.018  32.250  1.00  0.00     0.064 A 
ATOM     85  C   UNL A   1      43.446  36.071  31.471  1.00  0.00     0.173 A 
ATOM     86  C   UNL A   1      42.965  35.168  33.629  1.00  0.00     0.173 A 
ATOM     87  F   UNL A   1      43.492  35.937  30.149  1.00  0.00    -0.203 F 
ATOM     88  C   UNL A   1      43.821  37.213  32.026  1.00  0.00     0.198 A 
ATOM     89  C   UNL A   1      43.359  36.381  34.175  1.00  0.00     0.198 A 
ATOM     90  F   UNL A   1      42.555  34.172  34.408  1.00  0.00    -0.203 F 
ATOM     91  F   UNL A   1      44.242  38.205  31.247  1.00  0.00    -0.200 F 
ATOM     92  C   UNL A   1      43.784  37.392  33.336  1.00  0.00     0.200 A 
ATOM     93  F   UNL A   1      43.327  36.568  35.492  1.00  0.00    -0.200 F 
ATOM     94  F   UNL A   1      44.164  38.558  33.851  1.00  0.00    -0.200 F 
ENDBRANCH  61  84
ENDBRANCH  35  36
ENDBRANCH  28  30
ENDBRANCH  27  28
ENDBRANCH   1  27
TORSDOF 13
ENDMDL
MODEL 3
REMARK VINA RESULT:     -12.6      0.896      1.560
REMARK SMILES Cc1cc(S(F)(F)(F)(F)F)cc2c1O[C@H](C(F)(F)F)C(C(=O)OCCOC(=O)c1ccc(-c3c4nc(c(-c5c(F)c(F)c(F)c(F)c5F)c5ccc([nH]5)c(-c5c(F)c(F)c(F)c(F)c5F)c5nc(c(-c6c(F)c(F)c(F)c(F)c6F)c6ccc3[nH]6)C=C5)C=C4)cc1)=C2
REMARK SMILES IDX 25 1 24 2 23 3 21 4 22 5 20 6 1 7 2 8 3 9 13 10 4 11 12 12
REMARK SMILES IDX 14 13 11 14 92 15 15 16 5 17 6 18 7 19 8 20 9 21 10 22 16 23
REMARK SMILES IDX 17 24 18 25 19 26 26 27 27 28 28 29 29 30 30 31 91 32 31 33
REMARK SMILES IDX 90 34 32 35 33 36 34 37 84 38 35 39 89 40 83 41 85 42 36 43
REMARK SMILES IDX 88 44 82 45 81 46 37 48 69 49 49 50 68 51 50 52 53 53 67 54
REMARK SMILES IDX 86 55 51 56 52 57 66 59 87 60 54 61 38 62 39 63 47 64 40 65
REMARK SMILES IDX 41 66 45 67 48 68 42 69 43 70 46 71 44 72 70 73 71 74 79 75
REMARK SMILES IDX 72 76 73 77 77 78 80 79 74 80 75 81 78 82 76 83 55 84 56 85
REMARK SMILES IDX 64 86 57 87 58 88 62 89 65 90 59 91 60 92 63 93 61 94
REMARK H PARENT 85 47 53 58
REMARK Flexibility Score: inf
ROOT
ATOM      1  C   UNL A   1      37.327  21.980  24.629  1.00  0.00     0.275 C 
ENDROOT
BRANCH   1   2
ATOM      2  C   UNL A   1      36.268  21.180  25.369  1.00  0.00     0.275 C 
BRANCH   2   3
ATOM      3  O   UNL A   1      34.994  21.435  24.794  1.00  0.00    -0.459 OA
BRANCH   3   4
ATOM      4  C   UNL A   1      34.103  22.348  25.417  1.00  0.00     0.338 C 
ATOM      5  O   UNL A   1      33.380  21.966  26.390  1.00  0.00    -0.246 OA
BRANCH   4   6
ATOM      6  C   UNL A   1      34.014  23.782  24.921  1.00  0.00     0.087 C 
ATOM      7  C   UNL A   1      33.710  28.036  22.026  1.00  0.00     0.048 C 
ATOM      8  C   UNL A   1      33.769  27.714  23.510  1.00  0.00    -0.007 A 
ATOM      9  C   UNL A   1      33.735  28.742  24.427  1.00  0.00     0.031 A 
ATOM     10  C   UNL A   1      33.850  26.397  23.961  1.00  0.00     0.130 A 
ATOM     11  C   UNL A   1      33.784  28.479  25.790  1.00  0.00     0.108 A 
ATOM     12  C   UNL A   1      33.895  26.134  25.349  1.00  0.00     0.019 A 
ATOM     13  O   UNL A   1      33.892  25.258  23.035  1.00  0.00    -0.475 OA
ATOM     14  C   UNL A   1      33.857  27.195  26.255  1.00  0.00     0.036 A 
ATOM     15  C   UNL A   1      33.980  24.743  25.794  1.00  0.00     0.027 C 
ATOM     16  C   UNL A   1      33.971  24.011  23.545  1.00  0.00     0.316 C 
BRANCH  11  17
ATOM     17  S   UNL A   1      33.750  29.853  26.967  1.00  0.00     0.310 S 
ATOM     18  F   UNL A   1      33.905  28.866  28.198  1.00  0.00    -0.094 F 
ATOM     19  F   UNL A   1      32.194  29.636  27.076  1.00  0.00    -0.094 F 
ATOM     20  F   UNL A   1      33.687  31.022  27.992  1.00  0.00    -0.094 F 
ATOM     21  F   UNL A   1      35.326  29.964  26.951  1.00  0.00    -0.094 F 
ATOM     22  F   UNL A   1      33.844  28.597  26.013  1.00  0.00    -0.094 F 
ENDBRANCH  11  17
BRANCH  16  23
ATOM     23  C   UNL A   1      32.625  23.419  23.160  1.00  0.00     0.430 C 
ATOM     24  F   UNL A   1      31.809  23.454  24.210  1.00  0.00    -0.167 F 
ATOM     25  F   UNL A   1      32.097  24.125  22.164  1.00  0.00    -0.167 F 
ATOM     26  F   UNL A   1      32.791  22.158  22.772  1.00  0.00    -0.167 F 
ENDBRANCH  16  23
ENDBRANCH   4   6
ENDBRANCH   3   4
ENDBRANCH   2   3
ENDBRANCH   1   2
BRANCH   1  27
ATOM     27  O   UNL A   1      37.714  23.096  25.417  1.00  0.00    -0.458 OA
BRANCH  27  28
ATOM     28  C   UNL A   1      38.948  23.077  26.119  1.00  0.00     0.338 C 
ATOM     29  O   UNL A   1      39.670  22.031  26.103  1.00  0.00    -0.246 OA
BRANCH  28  30
ATOM     30  C   UNL A   1      39.406  24.306  26.888  1.00  0.00     0.060 A 
ATOM     31  C   UNL A   1      40.301  25.201  26.316  1.00  0.00     0.016 A 
ATOM     32  C   UNL A   1      38.963  24.553  28.102  1.00  0.00     0.016 A 
ATOM     33  C   UNL A   1      40.286  26.520  26.822  1.00  0.00     0.010 A 
ATOM     34  C   UNL A   1      39.391  25.687  28.802  1.00  0.00     0.010 A 
ATOM     35  C   UNL A   1      40.036  26.654  28.186  1.00  0.00    -0.014 A 
BRANCH  35  36
ATOM     36  C   UNL A   1      40.499  27.888  28.945  1.00  0.00     0.031 A 
ATOM     37  C   UNL A   1      41.836  27.923  29.343  1.00  0.00     0.074 A 
ATOM     38  C   UNL A   1      39.591  28.904  29.192  1.00  0.00     0.049 A 
ATOM     39  N   UNL A   1      42.471  28.909  29.978  1.00  0.00    -0.248 NA
ATOM     40  C   UNL A   1      42.794  26.830  29.112  1.00  0.00     0.031 C 
ATOM     41  C   UNL A   1      38.242  28.880  28.786  1.00  0.00     0.029 A 
ATOM     42  N   UNL A   1      39.810  30.090  29.856  1.00  0.00    -0.354 N 
ATOM     43  C   UNL A   1      43.750  28.584  30.172  1.00  0.00     0.074 A 
ATOM     44  C   UNL A   1      43.974  27.240  29.624  1.00  0.00     0.031 C 
ATOM     45  C   UNL A   1      37.654  30.030  29.209  1.00  0.00     0.029 A 
ATOM     46  C   UNL A   1      38.625  30.792  29.885  1.00  0.00     0.049 A 
ATOM     47  H   UNL A   1      40.666  30.386  30.243  1.00  0.00     0.167 HD
ATOM     48  C   UNL A   1      44.739  29.356  30.783  1.00  0.00     0.037 A 
ATOM     49  C   UNL A   1      38.385  32.027  30.467  1.00  0.00     0.037 A 
ATOM     50  C   UNL A   1      44.509  30.611  31.326  1.00  0.00     0.049 A 
ATOM     51  C   UNL A   1      39.361  32.776  31.130  1.00  0.00     0.074 A 
ATOM     52  C   UNL A   1      45.497  31.407  31.939  1.00  0.00     0.029 A 
ATOM     53  N   UNL A   1      43.318  31.303  31.377  1.00  0.00    -0.354 N 
ATOM     54  N   UNL A   1      40.649  32.467  31.289  1.00  0.00    -0.248 NA
ATOM     55  C   UNL A   1      39.110  34.069  31.777  1.00  0.00     0.031 C 
ATOM     56  C   UNL A   1      44.908  32.557  32.362  1.00  0.00     0.029 A 
ATOM     57  C   UNL A   1      43.543  32.499  32.021  1.00  0.00     0.049 A 
ATOM     58  H   UNL A   1      42.456  30.994  31.016  1.00  0.00     0.167 HD
ATOM     59  C   UNL A   1      41.274  33.437  31.960  1.00  0.00     0.074 A 
ATOM     60  C   UNL A   1      40.291  34.478  32.291  1.00  0.00     0.031 C 
ATOM     61  C   UNL A   1      42.625  33.497  32.307  1.00  0.00     0.037 A 
BRANCH  48  62
ATOM     62  C   UNL A   1      46.149  28.791  30.858  1.00  0.00     0.064 A 
ATOM     63  C   UNL A   1      46.543  28.023  31.936  1.00  0.00     0.173 A 
ATOM     64  C   UNL A   1      47.025  28.971  29.798  1.00  0.00     0.173 A 
ATOM     65  F   UNL A   1      45.709  27.846  32.957  1.00  0.00    -0.203 F 
ATOM     66  C   UNL A   1      47.742  27.464  31.964  1.00  0.00     0.198 A 
ATOM     67  C   UNL A   1      48.271  28.364  29.858  1.00  0.00     0.198 A 
ATOM     68  F   UNL A   1      46.678  29.709  28.748  1.00  0.00    -0.203 F 
ATOM     69  F   UNL A   1      48.093  26.735  33.021  1.00  0.00    -0.200 F 
ATOM     70  C   UNL A   1      48.600  27.610  30.968  1.00  0.00     0.200 A 
ATOM     71  F   UNL A   1      49.139  28.508  28.860  1.00  0.00    -0.200 F 
ATOM     72  F   UNL A   1      49.792  27.024  31.035  1.00  0.00    -0.200 F 
ENDBRANCH  48  62
BRANCH  49  73
ATOM     73  C   UNL A   1      36.980  32.600  30.378  1.00  0.00     0.064 A 
ATOM     74  C   UNL A   1      36.613  33.407  29.319  1.00  0.00     0.173 A 
ATOM     75  C   UNL A   1      36.076  32.383  31.408  1.00  0.00     0.173 A 
ATOM     76  F   UNL A   1      37.472  33.620  28.326  1.00  0.00    -0.203 F 
ATOM     77  C   UNL A   1      35.416  33.969  29.281  1.00  0.00     0.198 A 
ATOM     78  C   UNL A   1      34.829  32.984  31.333  1.00  0.00     0.198 A 
ATOM     79  F   UNL A   1      36.400  31.617  32.446  1.00  0.00    -0.203 F 
ATOM     80  F   UNL A   1      35.097  34.746  28.249  1.00  0.00    -0.200 F 
ATOM     81  C   UNL A   1      34.529  33.778  30.243  1.00  0.00     0.200 A 
ATOM     82  F   UNL A   1      33.931  32.797  32.296  1.00  0.00    -0.200 F 
ATOM     83  F   UNL A   1      33.335  34.359  30.162  1.00  0.00    -0.200 F 
ENDBRANCH  49  73
BRANCH  61  84
ATOM     84  C   UNL A   1      43.118  34.731  33.044  1.00  0.00     0.064 A 
ATOM     85  C   UNL A   1      43.180  34.714  34.422  1.00  0.00     0.173 A 
ATOM     86  C   UNL A   1      43.519  35.872  32.362  1.00  0.00     0.173 A 
ATOM     87  F   UNL A   1      42.798  33.627  35.085  1.00  0.00    -0.203 F 
ATOM     88  C   UNL A   1      43.614  35.770  35.094  1.00  0.00     0.198 A 
ATOM     89  C   UNL A   1      43.974  36.957  33.097  1.00  0.00     0.198 A 
ATOM     90  F   UNL A   1      43.467  35.923  31.034  1.00  0.00    -0.203 F 
ATOM     91  F   UNL A   1      43.655  35.723  36.422  1.00  0.00    -0.200 F 
ATOM     92  C   UNL A   1      44.009  36.870  34.474  1.00  0.00     0.200 A 
ATOM     93  F   UNL A   1      44.372  38.068  32.482  1.00  0.00    -0.200 F 
ATOM     94  F   UNL A   1      44.444  37.906  35.188  1.00  0.00    -0.200 F 
ENDBRANCH  61  84
ENDBRANCH  35  36
ENDBRANCH  28  30
ENDBRANCH  27  28
ENDBRANCH   1  27
TORSDOF 13
ENDMDL
