MODEL 1
REMARK VINA RESULT:     -12.3      0.000      0.000
REMARK SMILES Cc1ccc(C(=O)N2C[C@H](C(=O)OCCOC(=O)c3ccc(-c4c5nc(c(-c6c(F)c(F)c(F)c(F)c6F)c6ccc([nH]6)c(-c6c(F)c(F)c(F)c(F)c6F)c6nc(c(-c7c(F)c(F)c(F)c(F)c7F)c7ccc4[nH]7)C=C6)C=C5)cc3)Oc3ccccc32)o1
REMARK SMILES IDX 14 1 13 2 11 3 12 4 10 5 8 6 9 7 88 8 83 9 87 10 82 11 84 12
REMARK SMILES IDX 86 13 85 14 6 15 7 16 5 17 1 18 2 19 3 20 89 21 4 22 15 23
REMARK SMILES IDX 16 24 17 25 18 26 19 27 20 28 81 29 21 30 80 31 22 32 23 33
REMARK SMILES IDX 24 34 74 35 25 36 79 37 73 38 75 39 26 40 78 41 72 42 71 43
REMARK SMILES IDX 27 45 59 46 39 47 58 48 40 49 43 50 57 51 76 52 41 53 42 54
REMARK SMILES IDX 56 56 77 57 44 58 28 59 29 60 37 61 30 62 31 63 35 64 38 65
REMARK SMILES IDX 32 66 33 67 36 68 34 69 60 70 61 71 69 72 62 73 63 74 67 75
REMARK SMILES IDX 70 76 64 77 65 78 68 79 66 80 45 81 46 82 54 83 47 84 48 85
REMARK SMILES IDX 52 86 55 87 49 88 50 89 53 90 51 91
REMARK H PARENT 75 44 43 55
REMARK Flexibility Score: inf
ROOT
ATOM      1  C   UNL A   1      31.379  31.785  26.893  1.00  0.00     0.274 C 
ENDROOT
BRANCH   1   2
ATOM      2  O   UNL A   1      31.954  30.842  25.962  1.00  0.00    -0.459 OA
BRANCH   2   3
ATOM      3  C   UNL A   1      32.385  29.673  26.507  1.00  0.00     0.349 C 
ATOM      4  O   UNL A   1      33.109  29.598  27.496  1.00  0.00    -0.248 OA
BRANCH   3   5
ATOM      5  C   UNL A   1      31.898  28.439  25.767  1.00  0.00     0.302 C 
ATOM      6  N   UNL A   1      31.499  27.281  23.656  1.00  0.00    -0.298 N 
ATOM      7  C   UNL A   1      32.178  28.435  24.266  1.00  0.00     0.183 C 
ATOM      8  C   UNL A   1      31.445  26.102  24.467  1.00  0.00     0.087 A 
ATOM      9  C   UNL A   1      31.967  26.132  25.777  1.00  0.00     0.144 A 
ATOM     10  C   UNL A   1      30.937  24.890  23.982  1.00  0.00     0.030 A 
ATOM     11  O   UNL A   1      32.465  27.272  26.368  1.00  0.00    -0.475 OA
ATOM     12  C   UNL A   1      32.001  24.979  26.562  1.00  0.00     0.049 A 
ATOM     13  C   UNL A   1      30.953  23.741  24.778  1.00  0.00     0.002 A 
ATOM     14  C   UNL A   1      31.486  23.785  26.064  1.00  0.00     0.004 A 
BRANCH   6  15
ATOM     15  C   UNL A   1      30.776  27.396  22.461  1.00  0.00     0.294 C 
ATOM     16  O   UNL A   1      31.184  26.866  21.424  1.00  0.00    -0.265 OA
BRANCH  15  17
ATOM     17  C   UNL A   1      29.572  28.213  22.480  1.00  0.00     0.192 A 
ATOM     18  C   UNL A   1      28.264  31.303  21.220  1.00  0.00     0.087 C 
ATOM     19  C   UNL A   1      28.423  30.025  21.939  1.00  0.00     0.101 A 
ATOM     20  C   UNL A   1      27.667  29.355  22.874  1.00  0.00     0.046 A 
ATOM     21  O   UNL A   1      29.563  29.331  21.681  1.00  0.00    -0.456 OA
ATOM     22  C   UNL A   1      28.405  28.196  23.225  1.00  0.00     0.056 A 
ENDBRANCH  15  17
ENDBRANCH   6  15
ENDBRANCH   3   5
ENDBRANCH   2   3
ENDBRANCH   1   2
BRANCH   1  23
ATOM     23  C   UNL A   1      32.103  33.138  26.886  1.00  0.00     0.275 C 
BRANCH  23  24
ATOM     24  O   UNL A   1      32.648  33.482  28.175  1.00  0.00    -0.458 OA
BRANCH  24  25
ATOM     25  C   UNL A   1      33.785  34.213  28.126  1.00  0.00     0.338 C 
ATOM     26  O   UNL A   1      33.875  35.413  27.927  1.00  0.00    -0.246 OA
BRANCH  25  27
ATOM     27  C   UNL A   1      34.951  33.396  28.499  1.00  0.00     0.060 A 
ATOM     28  C   UNL A   1      34.709  32.186  29.158  1.00  0.00     0.016 A 
ATOM     29  C   UNL A   1      36.256  33.860  28.327  1.00  0.00     0.016 A 
ATOM     30  C   UNL A   1      35.768  31.445  29.672  1.00  0.00     0.010 A 
ATOM     31  C   UNL A   1      37.321  33.117  28.850  1.00  0.00     0.010 A 
ATOM     32  C   UNL A   1      37.079  31.920  29.547  1.00  0.00    -0.014 A 
BRANCH  32  33
ATOM     33  C   UNL A   1      38.171  31.206  30.248  1.00  0.00     0.031 A 
ATOM     34  C   UNL A   1      38.407  31.470  31.707  1.00  0.00     0.074 A 
ATOM     35  C   UNL A   1      38.904  30.284  29.599  1.00  0.00     0.049 A 
ATOM     36  N   UNL A   1      39.324  30.980  32.502  1.00  0.00    -0.248 NA
ATOM     37  C   UNL A   1      37.485  32.413  32.360  1.00  0.00     0.031 C 
ATOM     38  C   UNL A   1      38.730  29.903  28.199  1.00  0.00     0.029 A 
ATOM     39  N   UNL A   1      39.937  29.496  30.039  1.00  0.00    -0.354 N 
ATOM     40  C   UNL A   1      39.100  31.564  33.742  1.00  0.00     0.074 A 
ATOM     41  C   UNL A   1      37.972  32.459  33.591  1.00  0.00     0.031 C 
ATOM     42  C   UNL A   1      39.625  28.949  27.894  1.00  0.00     0.029 A 
ATOM     43  C   UNL A   1      40.455  28.678  29.066  1.00  0.00     0.049 A 
ATOM     44  H   UNL A   1      40.275  29.516  30.963  1.00  0.00     0.167 HD
ATOM     45  C   UNL A   1      39.773  31.368  34.900  1.00  0.00     0.037 A 
ATOM     46  C   UNL A   1      41.491  27.820  29.116  1.00  0.00     0.037 A 
ATOM     47  C   UNL A   1      40.881  30.462  35.053  1.00  0.00     0.049 A 
ATOM     48  C   UNL A   1      42.246  27.648  30.406  1.00  0.00     0.074 A 
ATOM     49  C   UNL A   1      41.631  30.197  36.185  1.00  0.00     0.029 A 
ATOM     50  N   UNL A   1      41.392  29.666  34.039  1.00  0.00    -0.354 N 
ATOM     51  N   UNL A   1      42.040  28.219  31.568  1.00  0.00    -0.248 NA
ATOM     52  C   UNL A   1      43.379  26.711  30.391  1.00  0.00     0.031 C 
ATOM     53  C   UNL A   1      42.616  29.261  35.848  1.00  0.00     0.029 A 
ATOM     54  C   UNL A   1      42.455  28.917  34.516  1.00  0.00     0.049 A 
ATOM     55  H   UNL A   1      41.049  29.637  33.116  1.00  0.00     0.167 HD
ATOM     56  C   UNL A   1      42.998  27.696  32.426  1.00  0.00     0.074 A 
ATOM     57  C   UNL A   1      43.781  26.753  31.654  1.00  0.00     0.031 C 
ATOM     58  C   UNL A   1      43.213  27.975  33.735  1.00  0.00     0.037 A 
BRANCH  45  59
ATOM     59  C   UNL A   1      39.346  32.173  36.090  1.00  0.00     0.064 A 
ATOM     60  C   UNL A   1      38.366  31.710  36.980  1.00  0.00     0.173 A 
ATOM     61  C   UNL A   1      39.943  33.414  36.355  1.00  0.00     0.173 A 
ATOM     62  F   UNL A   1      37.755  30.537  36.761  1.00  0.00    -0.203 F 
ATOM     63  C   UNL A   1      37.986  32.471  38.082  1.00  0.00     0.198 A 
ATOM     64  C   UNL A   1      39.577  34.163  37.469  1.00  0.00     0.198 A 
ATOM     65  F   UNL A   1      40.886  33.901  35.533  1.00  0.00    -0.203 F 
ATOM     66  F   UNL A   1      37.020  32.030  38.899  1.00  0.00    -0.200 F 
ATOM     67  C   UNL A   1      38.595  33.694  38.329  1.00  0.00     0.200 A 
ATOM     68  F   UNL A   1      40.171  35.339  37.711  1.00  0.00    -0.200 F 
ATOM     69  F   UNL A   1      38.229  34.424  39.392  1.00  0.00    -0.200 F 
ENDBRANCH  45  59
BRANCH  46  70
ATOM     70  C   UNL A   1      41.881  27.063  27.900  1.00  0.00     0.064 A 
ATOM     71  C   UNL A   1      41.353  25.792  27.638  1.00  0.00     0.173 A 
ATOM     72  C   UNL A   1      42.796  27.594  26.980  1.00  0.00     0.173 A 
ATOM     73  F   UNL A   1      40.495  25.233  28.504  1.00  0.00    -0.203 F 
ATOM     74  C   UNL A   1      41.735  25.075  26.507  1.00  0.00     0.198 A 
ATOM     75  C   UNL A   1      43.159  26.887  25.836  1.00  0.00     0.198 A 
ATOM     76  F   UNL A   1      43.333  28.806  27.188  1.00  0.00    -0.203 F 
ATOM     77  F   UNL A   1      41.246  23.844  26.300  1.00  0.00    -0.200 F 
ATOM     78  C   UNL A   1      42.633  25.624  25.603  1.00  0.00     0.200 A 
ATOM     79  F   UNL A   1      44.021  27.424  24.963  1.00  0.00    -0.200 F 
ATOM     80  F   UNL A   1      42.998  24.935  24.514  1.00  0.00    -0.200 F 
ENDBRANCH  46  70
BRANCH  58  81
ATOM     81  C   UNL A   1      44.316  27.227  34.423  1.00  0.00     0.064 A 
ATOM     82  C   UNL A   1      45.614  27.749  34.505  1.00  0.00     0.173 A 
ATOM     83  C   UNL A   1      44.058  25.994  35.040  1.00  0.00     0.173 A 
ATOM     84  F   UNL A   1      45.911  28.918  33.918  1.00  0.00    -0.203 F 
ATOM     85  C   UNL A   1      46.623  27.051  35.164  1.00  0.00     0.198 A 
ATOM     86  C   UNL A   1      45.064  25.311  35.717  1.00  0.00     0.198 A 
ATOM     87  F   UNL A   1      42.830  25.457  34.993  1.00  0.00    -0.203 F 
ATOM     88  F   UNL A   1      47.866  27.549  35.199  1.00  0.00    -0.200 F 
ATOM     89  C   UNL A   1      46.346  25.837  35.774  1.00  0.00     0.200 A 
ATOM     90  F   UNL A   1      44.793  24.141  36.315  1.00  0.00    -0.200 F 
ATOM     91  F   UNL A   1      47.317  25.168  36.412  1.00  0.00    -0.200 F 
ENDBRANCH  58  81
ENDBRANCH  32  33
ENDBRANCH  25  27
ENDBRANCH  24  25
ENDBRANCH  23  24
ENDBRANCH   1  23
TORSDOF 13
ENDMDL
MODEL 2
REMARK VINA RESULT:     -12.3      1.888      8.025
REMARK SMILES Cc1ccc(C(=O)N2C[C@H](C(=O)OCCOC(=O)c3ccc(-c4c5nc(c(-c6c(F)c(F)c(F)c(F)c6F)c6ccc([nH]6)c(-c6c(F)c(F)c(F)c(F)c6F)c6nc(c(-c7c(F)c(F)c(F)c(F)c7F)c7ccc4[nH]7)C=C6)C=C5)cc3)Oc3ccccc32)o1
REMARK SMILES IDX 14 1 13 2 11 3 12 4 10 5 8 6 9 7 88 8 83 9 87 10 82 11 84 12
REMARK SMILES IDX 86 13 85 14 6 15 7 16 5 17 1 18 2 19 3 20 89 21 4 22 15 23
REMARK SMILES IDX 16 24 17 25 18 26 19 27 20 28 81 29 21 30 80 31 22 32 23 33
REMARK SMILES IDX 24 34 74 35 25 36 79 37 73 38 75 39 26 40 78 41 72 42 71 43
REMARK SMILES IDX 27 45 59 46 39 47 58 48 40 49 43 50 57 51 76 52 41 53 42 54
REMARK SMILES IDX 56 56 77 57 44 58 28 59 29 60 37 61 30 62 31 63 35 64 38 65
REMARK SMILES IDX 32 66 33 67 36 68 34 69 60 70 61 71 69 72 62 73 63 74 67 75
REMARK SMILES IDX 70 76 64 77 65 78 68 79 66 80 45 81 46 82 54 83 47 84 48 85
REMARK SMILES IDX 52 86 55 87 49 88 50 89 53 90 51 91
REMARK H PARENT 75 44 43 55
REMARK Flexibility Score: inf
ROOT
ATOM      1  C   UNL A   1      31.117  30.052  24.935  1.00  0.00     0.274 C 
ENDROOT
BRANCH   1   2
ATOM      2  O   UNL A   1      30.970  28.684  24.494  1.00  0.00    -0.459 OA
BRANCH   2   3
ATOM      3  C   UNL A   1      32.069  28.140  23.905  1.00  0.00     0.349 C 
ATOM      4  O   UNL A   1      32.871  28.771  23.222  1.00  0.00    -0.248 OA
BRANCH   3   5
ATOM      5  C   UNL A   1      32.218  26.648  24.155  1.00  0.00     0.302 C 
ATOM      6  N   UNL A   1      33.656  24.685  24.330  1.00  0.00    -0.298 N 
ATOM      7  C   UNL A   1      33.658  26.155  24.273  1.00  0.00     0.183 C 
ATOM      8  C   UNL A   1      32.547  24.099  25.021  1.00  0.00     0.087 A 
ATOM      9  C   UNL A   1      31.526  24.928  25.531  1.00  0.00     0.144 A 
ATOM     10  C   UNL A   1      32.465  22.722  25.262  1.00  0.00     0.030 A 
ATOM     11  O   UNL A   1      31.487  26.291  25.332  1.00  0.00    -0.475 OA
ATOM     12  C   UNL A   1      30.475  24.396  26.277  1.00  0.00     0.049 A 
ATOM     13  C   UNL A   1      31.400  22.188  25.992  1.00  0.00     0.002 A 
ATOM     14  C   UNL A   1      30.408  23.023  26.501  1.00  0.00     0.004 A 
BRANCH   6  15
ATOM     15  C   UNL A   1      34.557  23.914  23.583  1.00  0.00     0.294 C 
ATOM     16  O   UNL A   1      34.383  23.734  22.375  1.00  0.00    -0.265 OA
BRANCH  15  17
ATOM     17  C   UNL A   1      35.659  23.288  24.300  1.00  0.00     0.192 A 
ATOM     18  C   UNL A   1      38.376  24.078  26.501  1.00  0.00     0.087 C 
ATOM     19  C   UNL A   1      37.436  23.363  25.615  1.00  0.00     0.101 A 
ATOM     20  C   UNL A   1      37.391  22.088  25.103  1.00  0.00     0.046 A 
ATOM     21  O   UNL A   1      36.383  24.087  25.152  1.00  0.00    -0.456 OA
ATOM     22  C   UNL A   1      36.255  22.039  24.256  1.00  0.00     0.056 A 
ENDBRANCH  15  17
ENDBRANCH   6  15
ENDBRANCH   3   5
ENDBRANCH   2   3
ENDBRANCH   1   2
BRANCH   1  23
ATOM     23  C   UNL A   1      31.778  30.161  26.314  1.00  0.00     0.275 C 
BRANCH  23  24
ATOM     24  O   UNL A   1      33.179  30.492  26.234  1.00  0.00    -0.458 OA
BRANCH  24  25
ATOM     25  C   UNL A   1      33.591  31.410  27.137  1.00  0.00     0.338 C 
ATOM     26  O   UNL A   1      32.951  32.357  27.562  1.00  0.00    -0.246 OA
BRANCH  25  27
ATOM     27  C   UNL A   1      34.907  31.048  27.690  1.00  0.00     0.060 A 
ATOM     28  C   UNL A   1      35.124  29.707  28.018  1.00  0.00     0.016 A 
ATOM     29  C   UNL A   1      35.862  32.018  28.001  1.00  0.00     0.016 A 
ATOM     30  C   UNL A   1      36.285  29.328  28.685  1.00  0.00     0.010 A 
ATOM     31  C   UNL A   1      37.027  31.638  28.677  1.00  0.00     0.010 A 
ATOM     32  C   UNL A   1      37.231  30.295  29.044  1.00  0.00    -0.014 A 
BRANCH  32  33
ATOM     33  C   UNL A   1      38.373  29.899  29.900  1.00  0.00     0.031 A 
ATOM     34  C   UNL A   1      39.409  28.957  29.358  1.00  0.00     0.074 A 
ATOM     35  C   UNL A   1      38.513  30.426  31.129  1.00  0.00     0.049 A 
ATOM     36  N   UNL A   1      40.467  28.458  29.945  1.00  0.00    -0.248 NA
ATOM     37  C   UNL A   1      39.230  28.518  27.965  1.00  0.00     0.031 C 
ATOM     38  C   UNL A   1      37.603  31.391  31.741  1.00  0.00     0.029 A 
ATOM     39  N   UNL A   1      39.483  30.227  32.078  1.00  0.00    -0.354 N 
ATOM     40  C   UNL A   1      41.071  27.638  29.002  1.00  0.00     0.074 A 
ATOM     41  C   UNL A   1      40.252  27.690  27.808  1.00  0.00     0.031 C 
ATOM     42  C   UNL A   1      38.060  31.705  32.964  1.00  0.00     0.029 A 
ATOM     43  C   UNL A   1      39.274  30.938  33.233  1.00  0.00     0.049 A 
ATOM     44  H   UNL A   1      40.256  29.631  31.944  1.00  0.00     0.167 HD
ATOM     45  C   UNL A   1      42.206  26.910  29.121  1.00  0.00     0.037 A 
ATOM     46  C   UNL A   1      39.976  30.953  34.381  1.00  0.00     0.037 A 
ATOM     47  C   UNL A   1      43.030  26.875  30.300  1.00  0.00     0.049 A 
ATOM     48  C   UNL A   1      41.215  30.107  34.501  1.00  0.00     0.074 A 
ATOM     49  C   UNL A   1      44.197  26.165  30.520  1.00  0.00     0.029 A 
ATOM     50  N   UNL A   1      42.773  27.592  31.460  1.00  0.00    -0.354 N 
ATOM     51  N   UNL A   1      41.768  29.318  33.611  1.00  0.00    -0.248 NA
ATOM     52  C   UNL A   1      41.928  30.153  35.786  1.00  0.00     0.031 C 
ATOM     53  C   UNL A   1      44.631  26.429  31.824  1.00  0.00     0.029 A 
ATOM     54  C   UNL A   1      43.754  27.332  32.403  1.00  0.00     0.049 A 
ATOM     55  H   UNL A   1      42.007  28.197  31.593  1.00  0.00     0.167 HD
ATOM     56  C   UNL A   1      42.901  28.793  34.217  1.00  0.00     0.074 A 
ATOM     57  C   UNL A   1      42.964  29.360  35.548  1.00  0.00     0.031 C 
ATOM     58  C   UNL A   1      43.806  27.917  33.718  1.00  0.00     0.037 A 
BRANCH  45  59
ATOM     59  C   UNL A   1      42.609  26.065  27.950  1.00  0.00     0.064 A 
ATOM     60  C   UNL A   1      42.076  24.783  27.749  1.00  0.00     0.173 A 
ATOM     61  C   UNL A   1      43.522  26.555  27.006  1.00  0.00     0.173 A 
ATOM     62  F   UNL A   1      41.212  24.264  28.633  1.00  0.00    -0.203 F 
ATOM     63  C   UNL A   1      42.460  24.015  26.652  1.00  0.00     0.198 A 
ATOM     64  C   UNL A   1      43.887  25.794  25.899  1.00  0.00     0.198 A 
ATOM     65  F   UNL A   1      44.059  27.776  27.154  1.00  0.00    -0.203 F 
ATOM     66  F   UNL A   1      41.971  22.777  26.499  1.00  0.00    -0.200 F 
ATOM     67  C   UNL A   1      43.360  24.523  25.726  1.00  0.00     0.200 A 
ATOM     68  F   UNL A   1      44.751  26.288  25.002  1.00  0.00    -0.200 F 
ATOM     69  F   UNL A   1      43.728  23.782  24.670  1.00  0.00    -0.200 F 
ENDBRANCH  45  59
BRANCH  46  70
ATOM     70  C   UNL A   1      39.519  31.796  35.515  1.00  0.00     0.064 A 
ATOM     71  C   UNL A   1      38.591  31.314  36.447  1.00  0.00     0.173 A 
ATOM     72  C   UNL A   1      39.999  33.103  35.684  1.00  0.00     0.173 A 
ATOM     73  F   UNL A   1      38.085  30.080  36.310  1.00  0.00    -0.203 F 
ATOM     74  C   UNL A   1      38.149  32.113  37.499  1.00  0.00     0.198 A 
ATOM     75  C   UNL A   1      39.575  33.892  36.750  1.00  0.00     0.198 A 
ATOM     76  F   UNL A   1      40.887  33.611  34.816  1.00  0.00    -0.203 F 
ATOM     77  F   UNL A   1      37.229  31.643  38.353  1.00  0.00    -0.200 F 
ATOM     78  C   UNL A   1      38.645  33.399  37.654  1.00  0.00     0.200 A 
ATOM     79  F   UNL A   1      40.063  35.131  36.900  1.00  0.00    -0.200 F 
ATOM     80  F   UNL A   1      38.221  34.166  38.668  1.00  0.00    -0.200 F 
ENDBRANCH  46  70
BRANCH  58  81
ATOM     81  C   UNL A   1      44.960  27.545  34.600  1.00  0.00     0.064 A 
ATOM     82  C   UNL A   1      44.897  26.439  35.459  1.00  0.00     0.173 A 
ATOM     83  C   UNL A   1      46.153  28.280  34.555  1.00  0.00     0.173 A 
ATOM     84  F   UNL A   1      43.772  25.714  35.547  1.00  0.00    -0.203 F 
ATOM     85  C   UNL A   1      45.984  26.095  36.260  1.00  0.00     0.198 A 
ATOM     86  C   UNL A   1      47.244  27.919  35.339  1.00  0.00     0.198 A 
ATOM     87  F   UNL A   1      46.262  29.343  33.745  1.00  0.00    -0.203 F 
ATOM     88  F   UNL A   1      45.891  25.057  37.102  1.00  0.00    -0.200 F 
ATOM     89  C   UNL A   1      47.157  26.831  36.194  1.00  0.00     0.200 A 
ATOM     90  F   UNL A   1      48.382  28.626  35.269  1.00  0.00    -0.200 F 
ATOM     91  F   UNL A   1      48.204  26.495  36.961  1.00  0.00    -0.200 F 
ENDBRANCH  58  81
ENDBRANCH  32  33
ENDBRANCH  25  27
ENDBRANCH  24  25
ENDBRANCH  23  24
ENDBRANCH   1  23
TORSDOF 13
ENDMDL
MODEL 3
REMARK VINA RESULT:     -12.2      1.934      3.727
REMARK SMILES Cc1ccc(C(=O)N2C[C@H](C(=O)OCCOC(=O)c3ccc(-c4c5nc(c(-c6c(F)c(F)c(F)c(F)c6F)c6ccc([nH]6)c(-c6c(F)c(F)c(F)c(F)c6F)c6nc(c(-c7c(F)c(F)c(F)c(F)c7F)c7ccc4[nH]7)C=C6)C=C5)cc3)Oc3ccccc32)o1
REMARK SMILES IDX 14 1 13 2 11 3 12 4 10 5 8 6 9 7 88 8 83 9 87 10 82 11 84 12
REMARK SMILES IDX 86 13 85 14 6 15 7 16 5 17 1 18 2 19 3 20 89 21 4 22 15 23
REMARK SMILES IDX 16 24 17 25 18 26 19 27 20 28 81 29 21 30 80 31 22 32 23 33
REMARK SMILES IDX 24 34 74 35 25 36 79 37 73 38 75 39 26 40 78 41 72 42 71 43
REMARK SMILES IDX 27 45 59 46 39 47 58 48 40 49 43 50 57 51 76 52 41 53 42 54
REMARK SMILES IDX 56 56 77 57 44 58 28 59 29 60 37 61 30 62 31 63 35 64 38 65
REMARK SMILES IDX 32 66 33 67 36 68 34 69 60 70 61 71 69 72 62 73 63 74 67 75
REMARK SMILES IDX 70 76 64 77 65 78 68 79 66 80 45 81 46 82 54 83 47 84 48 85
REMARK SMILES IDX 52 86 55 87 49 88 50 89 53 90 51 91
REMARK H PARENT 75 44 43 55
REMARK Flexibility Score: inf
ROOT
ATOM      1  C   UNL A   1      31.149  30.161  25.004  1.00  0.00     0.274 C 
ENDROOT
BRANCH   1   2
ATOM      2  O   UNL A   1      31.054  28.738  24.773  1.00  0.00    -0.459 OA
BRANCH   2   3
ATOM      3  C   UNL A   1      32.085  28.191  24.074  1.00  0.00     0.349 C 
ATOM      4  O   UNL A   1      32.836  28.826  23.339  1.00  0.00    -0.248 OA
BRANCH   3   5
ATOM      5  C   UNL A   1      32.226  26.691  24.270  1.00  0.00     0.302 C 
ATOM      6  N   UNL A   1      33.651  24.712  24.365  1.00  0.00    -0.298 N 
ATOM      7  C   UNL A   1      33.663  26.184  24.359  1.00  0.00     0.183 C 
ATOM      8  C   UNL A   1      32.543  24.110  25.044  1.00  0.00     0.087 A 
ATOM      9  C   UNL A   1      31.532  24.928  25.590  1.00  0.00     0.144 A 
ATOM     10  C   UNL A   1      32.453  22.726  25.237  1.00  0.00     0.030 A 
ATOM     11  O   UNL A   1      31.502  26.297  25.439  1.00  0.00    -0.475 OA
ATOM     12  C   UNL A   1      30.483  24.378  26.326  1.00  0.00     0.049 A 
ATOM     13  C   UNL A   1      31.390  22.174  25.956  1.00  0.00     0.002 A 
ATOM     14  C   UNL A   1      30.408  22.997  26.502  1.00  0.00     0.004 A 
BRANCH   6  15
ATOM     15  C   UNL A   1      34.541  23.962  23.584  1.00  0.00     0.294 C 
ATOM     16  O   UNL A   1      34.342  23.802  22.378  1.00  0.00    -0.265 OA
BRANCH  15  17
ATOM     17  C   UNL A   1      35.663  23.331  24.266  1.00  0.00     0.192 A 
ATOM     18  C   UNL A   1      38.361  24.082  26.502  1.00  0.00     0.087 C 
ATOM     19  C   UNL A   1      37.441  23.388  25.581  1.00  0.00     0.101 A 
ATOM     20  C   UNL A   1      37.431  22.141  25.001  1.00  0.00     0.046 A 
ATOM     21  O   UNL A   1      36.365  24.104  25.159  1.00  0.00    -0.456 OA
ATOM     22  C   UNL A   1      36.295  22.105  24.154  1.00  0.00     0.056 A 
ENDBRANCH  15  17
ENDBRANCH   6  15
ENDBRANCH   3   5
ENDBRANCH   2   3
ENDBRANCH   1   2
BRANCH   1  23
ATOM     23  C   UNL A   1      31.736  30.497  26.381  1.00  0.00     0.275 C 
BRANCH  23  24
ATOM     24  O   UNL A   1      33.171  30.632  26.355  1.00  0.00    -0.458 OA
BRANCH  24  25
ATOM     25  C   UNL A   1      33.668  31.526  27.239  1.00  0.00     0.338 C 
ATOM     26  O   UNL A   1      33.087  32.491  27.708  1.00  0.00    -0.246 OA
BRANCH  25  27
ATOM     27  C   UNL A   1      34.999  31.113  27.712  1.00  0.00     0.060 A 
ATOM     28  C   UNL A   1      35.195  29.756  27.989  1.00  0.00     0.016 A 
ATOM     29  C   UNL A   1      35.995  32.047  28.001  1.00  0.00     0.016 A 
ATOM     30  C   UNL A   1      36.378  29.327  28.583  1.00  0.00     0.010 A 
ATOM     31  C   UNL A   1      37.183  31.616  28.604  1.00  0.00     0.010 A 
ATOM     32  C   UNL A   1      37.367  30.257  28.921  1.00  0.00    -0.014 A 
BRANCH  32  33
ATOM     33  C   UNL A   1      38.540  29.805  29.704  1.00  0.00     0.031 A 
ATOM     34  C   UNL A   1      38.733  30.315  31.104  1.00  0.00     0.074 A 
ATOM     35  C   UNL A   1      39.391  28.900  29.190  1.00  0.00     0.049 A 
ATOM     36  N   UNL A   1      39.702  30.073  31.950  1.00  0.00    -0.248 NA
ATOM     37  C   UNL A   1      37.692  31.217  31.622  1.00  0.00     0.031 C 
ATOM     38  C   UNL A   1      39.275  28.293  27.866  1.00  0.00     0.029 A 
ATOM     39  N   UNL A   1      40.516  28.328  29.728  1.00  0.00    -0.354 N 
ATOM     40  C   UNL A   1      39.398  30.803  33.091  1.00  0.00     0.074 A 
ATOM     41  C   UNL A   1      38.163  31.511  32.825  1.00  0.00     0.031 C 
ATOM     42  C   UNL A   1      40.288  27.428  27.694  1.00  0.00     0.029 A 
ATOM     43  C   UNL A   1      41.140  27.447  28.881  1.00  0.00     0.049 A 
ATOM     44  H   UNL A   1      40.843  28.530  30.634  1.00  0.00     0.167 HD
ATOM     45  C   UNL A   1      40.085  30.873  34.255  1.00  0.00     0.037 A 
ATOM     46  C   UNL A   1      42.279  26.748  29.043  1.00  0.00     0.037 A 
ATOM     47  C   UNL A   1      41.301  30.153  34.526  1.00  0.00     0.049 A 
ATOM     48  C   UNL A   1      43.044  26.872  30.334  1.00  0.00     0.074 A 
ATOM     49  C   UNL A   1      42.074  30.161  35.674  1.00  0.00     0.029 A 
ATOM     50  N   UNL A   1      41.916  29.286  33.635  1.00  0.00    -0.354 N 
ATOM     51  N   UNL A   1      42.760  27.580  31.400  1.00  0.00    -0.248 NA
ATOM     52  C   UNL A   1      44.290  26.098  30.442  1.00  0.00     0.031 C 
ATOM     53  C   UNL A   1      43.175  29.321  35.466  1.00  0.00     0.029 A 
ATOM     54  C   UNL A   1      43.066  28.762  34.203  1.00  0.00     0.049 A 
ATOM     55  H   UNL A   1      41.585  29.074  32.732  1.00  0.00     0.167 HD
ATOM     56  C   UNL A   1      43.774  27.322  32.312  1.00  0.00     0.074 A 
ATOM     57  C   UNL A   1      44.677  26.383  31.679  1.00  0.00     0.031 C 
ATOM     58  C   UNL A   1      43.945  27.819  33.561  1.00  0.00     0.037 A 
BRANCH  45  59
ATOM     59  C   UNL A   1      39.551  31.786  35.317  1.00  0.00     0.064 A 
ATOM     60  C   UNL A   1      38.633  31.340  36.279  1.00  0.00     0.173 A 
ATOM     61  C   UNL A   1      39.982  33.119  35.386  1.00  0.00     0.173 A 
ATOM     62  F   UNL A   1      38.179  30.079  36.245  1.00  0.00    -0.203 F 
ATOM     63  C   UNL A   1      38.151  32.203  37.261  1.00  0.00     0.198 A 
ATOM     64  C   UNL A   1      39.515  33.973  36.381  1.00  0.00     0.198 A 
ATOM     65  F   UNL A   1      40.859  33.593  34.489  1.00  0.00    -0.203 F 
ATOM     66  F   UNL A   1      37.244  31.768  38.146  1.00  0.00    -0.200 F 
ATOM     67  C   UNL A   1      38.597  33.516  37.314  1.00  0.00     0.200 A 
ATOM     68  F   UNL A   1      39.952  35.238  36.437  1.00  0.00    -0.200 F 
ATOM     69  F   UNL A   1      38.133  34.344  38.261  1.00  0.00    -0.200 F 
ENDBRANCH  45  59
BRANCH  46  70
ATOM     70  C   UNL A   1      42.771  25.873  27.949  1.00  0.00     0.064 A 
ATOM     71  C   UNL A   1      43.661  26.355  26.982  1.00  0.00     0.173 A 
ATOM     72  C   UNL A   1      42.353  24.538  27.848  1.00  0.00     0.173 A 
ATOM     73  F   UNL A   1      44.067  27.633  27.022  1.00  0.00    -0.203 F 
ATOM     74  C   UNL A   1      44.106  25.538  25.945  1.00  0.00     0.198 A 
ATOM     75  C   UNL A   1      42.818  23.715  26.826  1.00  0.00     0.198 A 
ATOM     76  F   UNL A   1      41.498  24.031  28.749  1.00  0.00    -0.203 F 
ATOM     77  F   UNL A   1      44.926  26.035  25.008  1.00  0.00    -0.200 F 
ATOM     78  C   UNL A   1      43.689  24.217  25.871  1.00  0.00     0.200 A 
ATOM     79  F   UNL A   1      42.418  22.437  26.762  1.00  0.00    -0.200 F 
ATOM     80  F   UNL A   1      44.120  23.431  24.874  1.00  0.00    -0.200 F 
ENDBRANCH  46  70
BRANCH  58  81
ATOM     81  C   UNL A   1      45.132  27.333  34.337  1.00  0.00     0.064 A 
ATOM     82  C   UNL A   1      45.065  26.181  35.131  1.00  0.00     0.173 A 
ATOM     83  C   UNL A   1      46.359  28.007  34.251  1.00  0.00     0.173 A 
ATOM     84  F   UNL A   1      43.909  25.511  35.255  1.00  0.00    -0.203 F 
ATOM     85  C   UNL A   1      46.181  25.731  35.832  1.00  0.00     0.198 A 
ATOM     86  C   UNL A   1      47.478  27.541  34.934  1.00  0.00     0.198 A 
ATOM     87  F   UNL A   1      46.474  29.111  33.499  1.00  0.00    -0.203 F 
ATOM     88  F   UNL A   1      46.087  24.648  36.616  1.00  0.00    -0.200 F 
ATOM     89  C   UNL A   1      47.388  26.407  35.727  1.00  0.00     0.200 A 
ATOM     90  F   UNL A   1      48.647  28.191  34.826  1.00  0.00    -0.200 F 
ATOM     91  F   UNL A   1      48.463  25.970  36.398  1.00  0.00    -0.200 F 
ENDBRANCH  58  81
ENDBRANCH  32  33
ENDBRANCH  25  27
ENDBRANCH  24  25
ENDBRANCH  23  24
ENDBRANCH   1  23
TORSDOF 13
ENDMDL
