MODEL 1
REMARK VINA RESULT:     -13.8      0.000      0.000
REMARK SMILES CC(=O)O[C@@H]1CC[C@]23C(=O)O[C@]4(CC[C@]2(O)C1)[C@H]3CC[C@]1(C)[C@H](C(=O)OCCOC(=O)c2ccc(-c3c5nc(c(-c6c(F)c(F)c(F)c(F)c6F)c6ccc([nH]6)c(-c6c(F)c(F)c(F)c(F)c6F)c6nc(c(-c7c(F)c(F)c(F)c(F)c7F)c7ccc3[nH]7)C=C6)C=C5)cc2)CC[C@@H]14
REMARK SMILES IDX 27 1 26 2 24 3 25 4 23 5 5 6 6 7 17 8 7 9 15 10 8 11 14 12
REMARK SMILES IDX 9 13 18 14 13 15 10 16 11 17 12 18 19 19 97 20 20 21 21 22
REMARK SMILES IDX 96 23 22 24 95 25 4 26 2 27 1 28 3 29 16 30 28 32 29 33
REMARK SMILES IDX 30 34 31 35 32 36 33 37 94 38 34 39 93 40 35 41 36 42 37 43
REMARK SMILES IDX 87 44 38 45 92 46 86 47 88 48 39 49 91 50 85 51 84 52 40 54
REMARK SMILES IDX 72 55 52 56 71 57 53 58 56 59 70 60 89 61 54 62 55 63 69 65
REMARK SMILES IDX 90 66 57 67 41 68 42 69 50 70 43 71 44 72 48 73 51 74 45 75
REMARK SMILES IDX 46 76 49 77 47 78 73 79 74 80 82 81 75 82 76 83 80 84 83 85
REMARK SMILES IDX 77 86 78 87 81 88 79 89 58 90 59 91 67 92 60 93 61 94 65 95
REMARK SMILES IDX 68 96 62 97 63 98 66 99 64 100
REMARK H PARENT 16 31 88 53 56 64
REMARK Flexibility Score: inf
ROOT
ATOM      1  C   UNL A   1      31.032  29.580  24.909  1.00  0.00     0.274 C 
ENDROOT
BRANCH   1   2
ATOM      2  O   UNL A   1      31.867  29.291  23.771  1.00  0.00    -0.462 OA
BRANCH   2   3
ATOM      3  C   UNL A   1      32.097  27.977  23.565  1.00  0.00     0.309 C 
ATOM      4  O   UNL A   1      32.489  27.510  22.496  1.00  0.00    -0.252 OA
BRANCH   3   5
ATOM      5  C   UNL A   1      32.019  27.110  24.809  1.00  0.00     0.105 C 
ATOM      6  C   UNL A   1      37.151  21.371  24.653  1.00  0.00     0.179 C 
ATOM      7  C   UNL A   1      36.870  22.460  23.666  1.00  0.00     0.047 C 
ATOM      8  C   UNL A   1      35.874  20.512  24.728  1.00  0.00     0.081 C 
ATOM      9  C   UNL A   1      35.632  23.158  24.159  1.00  0.00     0.026 C 
ATOM     10  C   UNL A   1      34.454  21.224  24.801  1.00  0.00     0.085 C 
ATOM     11  C   UNL A   1      34.107  22.370  23.756  1.00  0.00     0.103 C 
ATOM     12  C   UNL A   1      34.208  21.594  26.290  1.00  0.00     0.041 C 
ATOM     13  C   UNL A   1      33.905  23.767  23.336  1.00  0.00     0.316 C 
ATOM     14  C   UNL A   1      32.493  22.769  24.436  1.00  0.00     0.054 C 
ATOM     15  C   UNL A   1      33.474  22.909  26.594  1.00  0.00     0.052 C 
ATOM     16  O   UNL A   1      33.955  24.215  22.193  1.00  0.00    -0.251 OA
ATOM     17  O   UNL A   1      33.785  24.491  24.492  1.00  0.00    -0.458 OA
ATOM     18  C   UNL A   1      32.968  23.776  25.419  1.00  0.00     0.120 C 
ATOM     19  C   UNL A   1      31.294  23.376  23.627  1.00  0.00     0.009 C 
ATOM     20  C   UNL A   1      32.193  24.949  25.993  1.00  0.00     0.040 C 
ATOM     21  C   UNL A   1      31.145  24.926  23.599  1.00  0.00     0.008 C 
ATOM     22  C   UNL A   1      31.331  25.703  24.938  1.00  0.00    -0.013 C 
ATOM     23  C   UNL A   1      33.242  26.000  26.505  1.00  0.00     0.009 C 
ATOM     24  C   UNL A   1      29.948  25.909  25.610  1.00  0.00     0.013 C 
ATOM     25  C   UNL A   1      33.432  26.981  25.366  1.00  0.00     0.016 C 
BRANCH   6  26
ATOM     26  O   UNL A   1      37.685  21.769  25.962  1.00  0.00    -0.462 OA
BRANCH  26  27
ATOM     27  C   UNL A   1      38.967  22.188  26.187  1.00  0.00     0.302 C 
ATOM     28  C   UNL A   1      39.015  23.634  26.578  1.00  0.00     0.139 C 
ATOM     29  O   UNL A   1      39.986  21.510  26.158  1.00  0.00    -0.253 OA
ENDBRANCH  26  27
ENDBRANCH   6  26
BRANCH  10  30
ATOM     30  O   UNL A   1      33.593  20.106  24.442  1.00  0.00    -0.389 OA
ATOM     31  H   UNL A   1      33.589  19.996  23.479  1.00  0.00     0.211 HD
ENDBRANCH  10  30
ENDBRANCH   3   5
ENDBRANCH   2   3
ENDBRANCH   1   2
BRANCH   1  32
ATOM     32  C   UNL A   1      31.612  30.756  25.693  1.00  0.00     0.275 C 
BRANCH  32  33
ATOM     33  O   UNL A   1      32.758  30.352  26.477  1.00  0.00    -0.458 OA
BRANCH  33  34
ATOM     34  C   UNL A   1      33.338  31.355  27.170  1.00  0.00     0.338 C 
ATOM     35  O   UNL A   1      32.840  32.427  27.478  1.00  0.00    -0.246 OA
BRANCH  34  36
ATOM     36  C   UNL A   1      34.715  31.029  27.565  1.00  0.00     0.060 A 
ATOM     37  C   UNL A   1      35.041  29.729  27.943  1.00  0.00     0.016 A 
ATOM     38  C   UNL A   1      35.603  32.071  27.819  1.00  0.00     0.016 A 
ATOM     39  C   UNL A   1      36.166  29.490  28.725  1.00  0.00     0.010 A 
ATOM     40  C   UNL A   1      36.808  31.803  28.473  1.00  0.00     0.010 A 
ATOM     41  C   UNL A   1      37.079  30.520  28.982  1.00  0.00    -0.014 A 
BRANCH  41  42
ATOM     42  C   UNL A   1      38.310  30.259  29.776  1.00  0.00     0.031 A 
ATOM     43  C   UNL A   1      39.409  29.394  29.218  1.00  0.00     0.074 A 
ATOM     44  C   UNL A   1      38.432  30.783  31.013  1.00  0.00     0.049 A 
ATOM     45  N   UNL A   1      40.471  28.911  29.814  1.00  0.00    -0.248 NA
ATOM     46  C   UNL A   1      39.292  29.008  27.803  1.00  0.00     0.031 C 
ATOM     47  C   UNL A   1      37.459  31.665  31.660  1.00  0.00     0.029 A 
ATOM     48  N   UNL A   1      39.424  30.641  31.952  1.00  0.00    -0.354 N 
ATOM     49  C   UNL A   1      41.119  28.129  28.864  1.00  0.00     0.074 A 
ATOM     50  C   UNL A   1      40.322  28.186  27.658  1.00  0.00     0.031 C 
ATOM     51  C   UNL A   1      37.908  32.002  32.876  1.00  0.00     0.029 A 
ATOM     52  C   UNL A   1      39.153  31.290  33.132  1.00  0.00     0.049 A 
ATOM     53  H   UNL A   1      40.247  30.125  31.796  1.00  0.00     0.167 HD
ATOM     54  C   UNL A   1      42.274  27.432  28.991  1.00  0.00     0.037 A 
ATOM     55  C   UNL A   1      39.806  31.278  34.309  1.00  0.00     0.037 A 
ATOM     56  C   UNL A   1      43.076  27.408  30.189  1.00  0.00     0.049 A 
ATOM     57  C   UNL A   1      41.056  30.455  34.438  1.00  0.00     0.074 A 
ATOM     58  C   UNL A   1      44.275  26.753  30.413  1.00  0.00     0.029 A 
ATOM     59  N   UNL A   1      42.759  28.069  31.368  1.00  0.00    -0.354 N 
ATOM     60  N   UNL A   1      41.656  29.711  33.540  1.00  0.00    -0.248 NA
ATOM     61  C   UNL A   1      41.720  30.466  35.748  1.00  0.00     0.031 C 
ATOM     62  C   UNL A   1      44.651  26.969  31.743  1.00  0.00     0.029 A 
ATOM     63  C   UNL A   1      43.726  27.818  32.328  1.00  0.00     0.049 A 
ATOM     64  H   UNL A   1      41.963  28.634  31.501  1.00  0.00     0.167 HD
ATOM     65  C   UNL A   1      42.784  29.196  34.163  1.00  0.00     0.074 A 
ATOM     66  C   UNL A   1      42.792  29.724  35.512  1.00  0.00     0.031 C 
ATOM     67  C   UNL A   1      43.728  28.360  33.664  1.00  0.00     0.037 A 
BRANCH  54  68
ATOM     68  C   UNL A   1      42.728  26.609  27.817  1.00  0.00     0.064 A 
ATOM     69  C   UNL A   1      42.319  25.279  27.635  1.00  0.00     0.173 A 
ATOM     70  C   UNL A   1      43.559  27.175  26.837  1.00  0.00     0.173 A 
ATOM     71  F   UNL A   1      41.532  24.684  28.544  1.00  0.00    -0.203 F 
ATOM     72  C   UNL A   1      42.751  24.537  26.537  1.00  0.00     0.198 A 
ATOM     73  C   UNL A   1      43.961  26.442  25.723  1.00  0.00     0.198 A 
ATOM     74  F   UNL A   1      43.975  28.444  26.953  1.00  0.00    -0.203 F 
ATOM     75  F   UNL A   1      42.391  23.253  26.415  1.00  0.00    -0.200 F 
ATOM     76  C   UNL A   1      43.565  25.122  25.578  1.00  0.00     0.200 A 
ATOM     77  F   UNL A   1      44.733  27.015  24.789  1.00  0.00    -0.200 F 
ATOM     78  F   UNL A   1      43.973  24.411  24.519  1.00  0.00    -0.200 F 
ENDBRANCH  54  68
BRANCH  55  79
ATOM     79  C   UNL A   1      39.273  32.049  35.462  1.00  0.00     0.064 A 
ATOM     80  C   UNL A   1      39.602  33.400  35.640  1.00  0.00     0.173 A 
ATOM     81  C   UNL A   1      38.427  31.455  36.412  1.00  0.00     0.173 A 
ATOM     82  F   UNL A   1      40.424  34.008  34.772  1.00  0.00    -0.203 F 
ATOM     83  C   UNL A   1      39.129  34.118  36.736  1.00  0.00     0.198 A 
ATOM     84  C   UNL A   1      37.925  32.185  37.487  1.00  0.00     0.198 A 
ATOM     85  F   UNL A   1      38.076  30.166  36.287  1.00  0.00    -0.203 F 
ATOM     86  F   UNL A   1      39.505  35.392  36.912  1.00  0.00    -0.200 F 
ATOM     87  C   UNL A   1      38.285  33.512  37.654  1.00  0.00     0.200 A 
ATOM     88  F   UNL A   1      37.095  31.599  38.361  1.00  0.00    -0.200 F 
ATOM     89  F   UNL A   1      37.826  34.206  38.705  1.00  0.00    -0.200 F 
ENDBRANCH  55  79
BRANCH  67  90
ATOM     90  C   UNL A   1      44.883  28.017  34.561  1.00  0.00     0.064 A 
ATOM     91  C   UNL A   1      44.872  26.884  35.388  1.00  0.00     0.173 A 
ATOM     92  C   UNL A   1      46.029  28.828  34.577  1.00  0.00     0.173 A 
ATOM     93  F   UNL A   1      43.795  26.084  35.423  1.00  0.00    -0.203 F 
ATOM     94  C   UNL A   1      45.948  26.597  36.224  1.00  0.00     0.198 A 
ATOM     95  C   UNL A   1      47.118  28.517  35.385  1.00  0.00     0.198 A 
ATOM     96  F   UNL A   1      46.096  29.920  33.800  1.00  0.00    -0.203 F 
ATOM     97  F   UNL A   1      45.889  25.545  37.052  1.00  0.00    -0.200 F 
ATOM     98  C   UNL A   1      47.072  27.409  36.216  1.00  0.00     0.200 A 
ATOM     99  F   UNL A   1      48.210  29.293  35.363  1.00  0.00    -0.200 F 
ATOM    100  F   UNL A   1      48.109  27.128  37.017  1.00  0.00    -0.200 F 
ENDBRANCH  67  90
ENDBRANCH  41  42
ENDBRANCH  34  36
ENDBRANCH  33  34
ENDBRANCH  32  33
ENDBRANCH   1  32
TORSDOF 14
ENDMDL
MODEL 2
REMARK VINA RESULT:     -13.7      3.558      9.477
REMARK SMILES CC(=O)O[C@@H]1CC[C@]23C(=O)O[C@]4(CC[C@]2(O)C1)[C@H]3CC[C@]1(C)[C@H](C(=O)OCCOC(=O)c2ccc(-c3c5nc(c(-c6c(F)c(F)c(F)c(F)c6F)c6ccc([nH]6)c(-c6c(F)c(F)c(F)c(F)c6F)c6nc(c(-c7c(F)c(F)c(F)c(F)c7F)c7ccc3[nH]7)C=C6)C=C5)cc2)CC[C@@H]14
REMARK SMILES IDX 27 1 26 2 24 3 25 4 23 5 5 6 6 7 17 8 7 9 15 10 8 11 14 12
REMARK SMILES IDX 9 13 18 14 13 15 10 16 11 17 12 18 19 19 97 20 20 21 21 22
REMARK SMILES IDX 96 23 22 24 95 25 4 26 2 27 1 28 3 29 16 30 28 32 29 33
REMARK SMILES IDX 30 34 31 35 32 36 33 37 94 38 34 39 93 40 35 41 36 42 37 43
REMARK SMILES IDX 87 44 38 45 92 46 86 47 88 48 39 49 91 50 85 51 84 52 40 54
REMARK SMILES IDX 72 55 52 56 71 57 53 58 56 59 70 60 89 61 54 62 55 63 69 65
REMARK SMILES IDX 90 66 57 67 41 68 42 69 50 70 43 71 44 72 48 73 51 74 45 75
REMARK SMILES IDX 46 76 49 77 47 78 73 79 74 80 82 81 75 82 76 83 80 84 83 85
REMARK SMILES IDX 77 86 78 87 81 88 79 89 58 90 59 91 67 92 60 93 61 94 65 95
REMARK SMILES IDX 68 96 62 97 63 98 66 99 64 100
REMARK H PARENT 16 31 88 53 56 64
REMARK Flexibility Score: inf
ROOT
ATOM      1  C   UNL A   1      35.028  20.560  24.747  1.00  0.00     0.274 C 
ENDROOT
BRANCH   1   2
ATOM      2  O   UNL A   1      34.155  20.773  25.873  1.00  0.00    -0.462 OA
BRANCH   2   3
ATOM      3  C   UNL A   1      33.428  21.909  25.810  1.00  0.00     0.309 C 
ATOM      4  O   UNL A   1      32.546  22.202  26.617  1.00  0.00    -0.252 OA
BRANCH   3   5
ATOM      5  C   UNL A   1      33.898  22.914  24.773  1.00  0.00     0.105 C 
ATOM      6  C   UNL A   1      32.024  30.132  26.690  1.00  0.00     0.179 C 
ATOM      7  C   UNL A   1      31.778  28.836  27.398  1.00  0.00     0.047 C 
ATOM      8  C   UNL A   1      31.247  30.056  25.362  1.00  0.00     0.081 C 
ATOM      9  C   UNL A   1      32.205  27.755  26.443  1.00  0.00     0.026 C 
ATOM     10  C   UNL A   1      31.301  28.723  24.497  1.00  0.00     0.085 C 
ATOM     11  C   UNL A   1      31.024  27.328  25.205  1.00  0.00     0.103 C 
ATOM     12  C   UNL A   1      32.604  28.785  23.651  1.00  0.00     0.041 C 
ATOM     13  C   UNL A   1      31.415  26.031  25.783  1.00  0.00     0.316 C 
ATOM     14  C   UNL A   1      31.326  26.312  23.755  1.00  0.00     0.054 C 
ATOM     15  C   UNL A   1      33.367  27.474  23.406  1.00  0.00     0.052 C 
ATOM     16  O   UNL A   1      30.785  25.356  26.592  1.00  0.00    -0.251 OA
ATOM     17  O   UNL A   1      32.689  25.793  25.339  1.00  0.00    -0.458 OA
ATOM     18  C   UNL A   1      32.788  26.153  23.961  1.00  0.00     0.120 C 
ATOM     19  C   UNL A   1      30.693  24.901  23.490  1.00  0.00     0.009 C 
ATOM     20  C   UNL A   1      33.672  25.012  23.490  1.00  0.00     0.040 C 
ATOM     21  C   UNL A   1      31.492  23.647  23.954  1.00  0.00     0.008 C 
ATOM     22  C   UNL A   1      33.024  23.606  23.667  1.00  0.00    -0.013 C 
ATOM     23  C   UNL A   1      34.951  25.001  24.401  1.00  0.00     0.009 C 
ATOM     24  C   UNL A   1      33.277  22.867  22.327  1.00  0.00     0.013 C 
ATOM     25  C   UNL A   1      34.658  24.010  25.510  1.00  0.00     0.016 C 
BRANCH   6  26
ATOM     26  O   UNL A   1      33.419  30.567  26.547  1.00  0.00    -0.462 OA
BRANCH  26  27
ATOM     27  C   UNL A   1      34.202  31.030  27.568  1.00  0.00     0.302 C 
ATOM     28  C   UNL A   1      35.304  30.069  27.899  1.00  0.00     0.139 C 
ATOM     29  O   UNL A   1      34.114  32.108  28.141  1.00  0.00    -0.253 OA
ENDBRANCH  26  27
ENDBRANCH   6  26
BRANCH  10  30
ATOM     30  O   UNL A   1      30.158  28.943  23.623  1.00  0.00    -0.389 OA
ATOM     31  H   UNL A   1      29.584  29.625  24.006  1.00  0.00     0.211 HD
ENDBRANCH  10  30
ENDBRANCH   3   5
ENDBRANCH   2   3
ENDBRANCH   1   2
BRANCH   1  32
ATOM     32  C   UNL A   1      36.458  20.328  25.236  1.00  0.00     0.275 C 
BRANCH  32  33
ATOM     33  O   UNL A   1      37.136  21.579  25.490  1.00  0.00    -0.458 OA
BRANCH  33  34
ATOM     34  C   UNL A   1      38.455  21.453  25.751  1.00  0.00     0.338 C 
ATOM     35  O   UNL A   1      39.185  20.525  25.441  1.00  0.00    -0.246 OA
BRANCH  34  36
ATOM     36  C   UNL A   1      38.986  22.610  26.484  1.00  0.00     0.060 A 
ATOM     37  C   UNL A   1      38.552  23.895  26.165  1.00  0.00     0.016 A 
ATOM     38  C   UNL A   1      40.108  22.434  27.289  1.00  0.00     0.016 A 
ATOM     39  C   UNL A   1      39.328  24.998  26.501  1.00  0.00     0.010 A 
ATOM     40  C   UNL A   1      40.803  23.554  27.754  1.00  0.00     0.010 A 
ATOM     41  C   UNL A   1      40.454  24.846  27.320  1.00  0.00    -0.014 A 
BRANCH  41  42
ATOM     42  C   UNL A   1      41.261  26.030  27.724  1.00  0.00     0.031 A 
ATOM     43  C   UNL A   1      40.655  27.110  28.580  1.00  0.00     0.074 A 
ATOM     44  C   UNL A   1      42.536  26.145  27.302  1.00  0.00     0.049 A 
ATOM     45  N   UNL A   1      41.132  28.290  28.892  1.00  0.00    -0.248 NA
ATOM     46  C   UNL A   1      39.327  26.834  29.152  1.00  0.00     0.031 C 
ATOM     47  C   UNL A   1      43.256  25.156  26.498  1.00  0.00     0.029 A 
ATOM     48  N   UNL A   1      43.451  27.153  27.483  1.00  0.00    -0.354 N 
ATOM     49  C   UNL A   1      40.147  28.911  29.652  1.00  0.00     0.074 A 
ATOM     50  C   UNL A   1      39.037  27.987  29.738  1.00  0.00     0.031 C 
ATOM     51  C   UNL A   1      44.503  25.592  26.273  1.00  0.00     0.029 A 
ATOM     52  C   UNL A   1      44.643  26.928  26.836  1.00  0.00     0.049 A 
ATOM     53  H   UNL A   1      43.273  27.956  28.022  1.00  0.00     0.167 HD
ATOM     54  C   UNL A   1      40.172  30.139  30.224  1.00  0.00     0.037 A 
ATOM     55  C   UNL A   1      45.714  27.726  26.671  1.00  0.00     0.037 A 
ATOM     56  C   UNL A   1      41.297  31.039  30.156  1.00  0.00     0.049 A 
ATOM     57  C   UNL A   1      45.695  29.103  27.272  1.00  0.00     0.074 A 
ATOM     58  C   UNL A   1      41.432  32.296  30.722  1.00  0.00     0.029 A 
ATOM     59  N   UNL A   1      42.480  30.779  29.479  1.00  0.00    -0.354 N 
ATOM     60  N   UNL A   1      44.758  29.686  27.980  1.00  0.00    -0.248 NA
ATOM     61  C   UNL A   1      46.884  29.935  27.049  1.00  0.00     0.031 C 
ATOM     62  C   UNL A   1      42.672  32.818  30.337  1.00  0.00     0.029 A 
ATOM     63  C   UNL A   1      43.340  31.860  29.593  1.00  0.00     0.049 A 
ATOM     64  H   UNL A   1      42.679  29.948  28.990  1.00  0.00     0.167 HD
ATOM     65  C   UNL A   1      45.256  30.937  28.315  1.00  0.00     0.074 A 
ATOM     66  C   UNL A   1      46.584  31.022  27.745  1.00  0.00     0.031 C 
ATOM     67  C   UNL A   1      44.666  31.926  29.030  1.00  0.00     0.037 A 
BRANCH  54  68
ATOM     68  C   UNL A   1      38.937  30.600  30.948  1.00  0.00     0.064 A 
ATOM     69  C   UNL A   1      38.743  30.367  32.318  1.00  0.00     0.173 A 
ATOM     70  C   UNL A   1      37.945  31.321  30.263  1.00  0.00     0.173 A 
ATOM     71  F   UNL A   1      39.653  29.676  33.021  1.00  0.00    -0.203 F 
ATOM     72  C   UNL A   1      37.590  30.806  32.966  1.00  0.00     0.198 A 
ATOM     73  C   UNL A   1      36.812  31.790  30.921  1.00  0.00     0.198 A 
ATOM     74  F   UNL A   1      38.080  31.581  28.954  1.00  0.00    -0.203 F 
ATOM     75  F   UNL A   1      37.403  30.524  34.262  1.00  0.00    -0.200 F 
ATOM     76  C   UNL A   1      36.630  31.524  32.269  1.00  0.00     0.200 A 
ATOM     77  F   UNL A   1      35.893  32.498  30.249  1.00  0.00    -0.200 F 
ATOM     78  F   UNL A   1      35.525  31.954  32.895  1.00  0.00    -0.200 F 
ENDBRANCH  54  68
BRANCH  55  79
ATOM     79  C   UNL A   1      46.880  27.250  25.881  1.00  0.00     0.064 A 
ATOM     80  C   UNL A   1      47.912  26.521  26.487  1.00  0.00     0.173 A 
ATOM     81  C   UNL A   1      46.990  27.515  24.507  1.00  0.00     0.173 A 
ATOM     82  F   UNL A   1      47.864  26.260  27.802  1.00  0.00    -0.203 F 
ATOM     83  C   UNL A   1      49.021  26.099  25.757  1.00  0.00     0.198 A 
ATOM     84  C   UNL A   1      48.081  27.060  23.770  1.00  0.00     0.198 A 
ATOM     85  F   UNL A   1      46.028  28.204  23.876  1.00  0.00    -0.203 F 
ATOM     86  F   UNL A   1      50.019  25.453  26.373  1.00  0.00    -0.200 F 
ATOM     87  C   UNL A   1      49.101  26.362  24.397  1.00  0.00     0.200 A 
ATOM     88  F   UNL A   1      48.144  27.302  22.453  1.00  0.00    -0.200 F 
ATOM     89  F   UNL A   1      50.166  25.951  23.695  1.00  0.00    -0.200 F 
ENDBRANCH  55  79
BRANCH  67  90
ATOM     90  C   UNL A   1      45.480  33.162  29.291  1.00  0.00     0.064 A 
ATOM     91  C   UNL A   1      45.439  34.275  28.437  1.00  0.00     0.173 A 
ATOM     92  C   UNL A   1      46.299  33.239  30.428  1.00  0.00     0.173 A 
ATOM     93  F   UNL A   1      44.684  34.247  27.328  1.00  0.00    -0.203 F 
ATOM     94  C   UNL A   1      46.216  35.401  28.691  1.00  0.00     0.198 A 
ATOM     95  C   UNL A   1      47.045  34.382  30.699  1.00  0.00     0.198 A 
ATOM     96  F   UNL A   1      46.371  32.207  31.283  1.00  0.00    -0.203 F 
ATOM     97  F   UNL A   1      46.209  36.426  27.828  1.00  0.00    -0.200 F 
ATOM     98  C   UNL A   1      47.012  35.457  29.826  1.00  0.00     0.200 A 
ATOM     99  F   UNL A   1      47.801  34.440  31.805  1.00  0.00    -0.200 F 
ATOM    100  F   UNL A   1      47.755  36.545  30.072  1.00  0.00    -0.200 F 
ENDBRANCH  67  90
ENDBRANCH  41  42
ENDBRANCH  34  36
ENDBRANCH  33  34
ENDBRANCH  32  33
ENDBRANCH   1  32
TORSDOF 14
ENDMDL
MODEL 3
REMARK VINA RESULT:     -13.7      3.765      9.577
REMARK SMILES CC(=O)O[C@@H]1CC[C@]23C(=O)O[C@]4(CC[C@]2(O)C1)[C@H]3CC[C@]1(C)[C@H](C(=O)OCCOC(=O)c2ccc(-c3c5nc(c(-c6c(F)c(F)c(F)c(F)c6F)c6ccc([nH]6)c(-c6c(F)c(F)c(F)c(F)c6F)c6nc(c(-c7c(F)c(F)c(F)c(F)c7F)c7ccc3[nH]7)C=C6)C=C5)cc2)CC[C@@H]14
REMARK SMILES IDX 27 1 26 2 24 3 25 4 23 5 5 6 6 7 17 8 7 9 15 10 8 11 14 12
REMARK SMILES IDX 9 13 18 14 13 15 10 16 11 17 12 18 19 19 97 20 20 21 21 22
REMARK SMILES IDX 96 23 22 24 95 25 4 26 2 27 1 28 3 29 16 30 28 32 29 33
REMARK SMILES IDX 30 34 31 35 32 36 33 37 94 38 34 39 93 40 35 41 36 42 37 43
REMARK SMILES IDX 87 44 38 45 92 46 86 47 88 48 39 49 91 50 85 51 84 52 40 54
REMARK SMILES IDX 72 55 52 56 71 57 53 58 56 59 70 60 89 61 54 62 55 63 69 65
REMARK SMILES IDX 90 66 57 67 41 68 42 69 50 70 43 71 44 72 48 73 51 74 45 75
REMARK SMILES IDX 46 76 49 77 47 78 73 79 74 80 82 81 75 82 76 83 80 84 83 85
REMARK SMILES IDX 77 86 78 87 81 88 79 89 58 90 59 91 67 92 60 93 61 94 65 95
REMARK SMILES IDX 68 96 62 97 63 98 66 99 64 100
REMARK H PARENT 16 31 88 53 56 64
REMARK Flexibility Score: inf
ROOT
ATOM      1  C   UNL A   1      35.564  20.077  25.040  1.00  0.00     0.274 C 
ENDROOT
BRANCH   1   2
ATOM      2  O   UNL A   1      34.763  21.054  24.348  1.00  0.00    -0.462 OA
BRANCH   2   3
ATOM      3  C   UNL A   1      33.433  20.927  24.542  1.00  0.00     0.309 C 
ATOM      4  O   UNL A   1      32.746  20.053  24.014  1.00  0.00    -0.252 OA
BRANCH   3   5
ATOM      5  C   UNL A   1      32.853  21.829  25.616  1.00  0.00     0.105 C 
ATOM      6  C   UNL A   1      30.262  28.475  22.714  1.00  0.00     0.179 C 
ATOM      7  C   UNL A   1      30.899  27.297  22.046  1.00  0.00     0.047 C 
ATOM      8  C   UNL A   1      31.322  29.058  23.668  1.00  0.00     0.081 C 
ATOM      9  C   UNL A   1      31.361  26.390  23.154  1.00  0.00     0.026 C 
ATOM     10  C   UNL A   1      32.188  28.077  24.572  1.00  0.00     0.085 C 
ATOM     11  C   UNL A   1      32.900  26.827  23.897  1.00  0.00     0.103 C 
ATOM     12  C   UNL A   1      31.336  27.751  25.831  1.00  0.00     0.041 C 
ATOM     13  C   UNL A   1      33.052  25.396  23.582  1.00  0.00     0.316 C 
ATOM     14  C   UNL A   1      33.576  26.147  25.416  1.00  0.00     0.054 C 
ATOM     15  C   UNL A   1      31.430  26.333  26.416  1.00  0.00     0.052 C 
ATOM     16  O   UNL A   1      33.667  24.903  22.640  1.00  0.00    -0.251 OA
ATOM     17  O   UNL A   1      32.256  24.730  24.475  1.00  0.00    -0.458 OA
ATOM     18  C   UNL A   1      32.397  25.315  25.769  1.00  0.00     0.120 C 
ATOM     19  C   UNL A   1      34.869  25.263  25.516  1.00  0.00     0.009 C 
ATOM     20  C   UNL A   1      32.374  24.044  26.599  1.00  0.00     0.040 C 
ATOM     21  C   UNL A   1      34.700  23.717  25.452  1.00  0.00     0.008 C 
ATOM     22  C   UNL A   1      33.548  23.071  26.282  1.00  0.00    -0.013 C 
ATOM     23  C   UNL A   1      31.066  23.260  26.221  1.00  0.00     0.009 C 
ATOM     24  C   UNL A   1      34.096  22.627  27.664  1.00  0.00     0.013 C 
ATOM     25  C   UNL A   1      31.474  22.275  25.144  1.00  0.00     0.016 C 
BRANCH   6  26
ATOM     26  O   UNL A   1      28.946  28.269  23.332  1.00  0.00    -0.462 OA
BRANCH  26  27
ATOM     27  C   UNL A   1      27.798  28.907  22.953  1.00  0.00     0.302 C 
ATOM     28  C   UNL A   1      28.069  29.976  21.938  1.00  0.00     0.139 C 
ATOM     29  O   UNL A   1      26.654  28.649  23.304  1.00  0.00    -0.253 OA
ENDBRANCH  26  27
ENDBRANCH   6  26
BRANCH  10  30
ATOM     30  O   UNL A   1      33.270  28.974  24.952  1.00  0.00    -0.389 OA
ATOM     31  H   UNL A   1      33.028  29.449  25.762  1.00  0.00     0.211 HD
ENDBRANCH  10  30
ENDBRANCH   3   5
ENDBRANCH   2   3
ENDBRANCH   1   2
BRANCH   1  32
ATOM     32  C   UNL A   1      37.042  20.293  24.716  1.00  0.00     0.275 C 
BRANCH  32  33
ATOM     33  O   UNL A   1      37.562  21.462  25.390  1.00  0.00    -0.458 OA
BRANCH  33  34
ATOM     34  C   UNL A   1      38.785  21.290  25.934  1.00  0.00     0.338 C 
ATOM     35  O   UNL A   1      39.488  20.293  25.877  1.00  0.00    -0.246 OA
BRANCH  34  36
ATOM     36  C   UNL A   1      39.247  22.490  26.646  1.00  0.00     0.060 A 
ATOM     37  C   UNL A   1      38.756  23.744  26.288  1.00  0.00     0.016 A 
ATOM     38  C   UNL A   1      40.361  22.390  27.474  1.00  0.00     0.016 A 
ATOM     39  C   UNL A   1      39.471  24.892  26.608  1.00  0.00     0.010 A 
ATOM     40  C   UNL A   1      40.992  23.554  27.921  1.00  0.00     0.010 A 
ATOM     41  C   UNL A   1      40.588  24.816  27.449  1.00  0.00    -0.014 A 
BRANCH  41  42
ATOM     42  C   UNL A   1      41.329  26.048  27.836  1.00  0.00     0.031 A 
ATOM     43  C   UNL A   1      40.634  27.150  28.590  1.00  0.00     0.074 A 
ATOM     44  C   UNL A   1      42.625  26.185  27.489  1.00  0.00     0.049 A 
ATOM     45  N   UNL A   1      41.052  28.361  28.864  1.00  0.00    -0.248 NA
ATOM     46  C   UNL A   1      39.282  26.859  29.091  1.00  0.00     0.031 C 
ATOM     47  C   UNL A   1      43.426  25.180  26.789  1.00  0.00     0.029 A 
ATOM     48  N   UNL A   1      43.494  27.233  27.670  1.00  0.00    -0.354 N 
ATOM     49  C   UNL A   1      40.001  28.988  29.524  1.00  0.00     0.074 A 
ATOM     50  C   UNL A   1      38.918  28.031  29.593  1.00  0.00     0.031 C 
ATOM     51  C   UNL A   1      44.671  25.647  26.618  1.00  0.00     0.029 A 
ATOM     52  C   UNL A   1      44.731  27.016  27.114  1.00  0.00     0.049 A 
ATOM     53  H   UNL A   1      43.255  28.057  28.151  1.00  0.00     0.167 HD
ATOM     54  C   UNL A   1      39.950  30.245  30.027  1.00  0.00     0.037 A 
ATOM     55  C   UNL A   1      45.785  27.841  26.972  1.00  0.00     0.037 A 
ATOM     56  C   UNL A   1      41.047  31.179  29.979  1.00  0.00     0.049 A 
ATOM     57  C   UNL A   1      45.683  29.247  27.492  1.00  0.00     0.074 A 
ATOM     58  C   UNL A   1      41.106  32.469  30.481  1.00  0.00     0.029 A 
ATOM     59  N   UNL A   1      42.280  30.925  29.394  1.00  0.00    -0.354 N 
ATOM     60  N   UNL A   1      44.683  29.834  28.105  1.00  0.00    -0.248 NA
ATOM     61  C   UNL A   1      46.857  30.108  27.298  1.00  0.00     0.031 C 
ATOM     62  C   UNL A   1      42.350  33.013  30.147  1.00  0.00     0.029 A 
ATOM     63  C   UNL A   1      43.096  32.040  29.501  1.00  0.00     0.049 A 
ATOM     64  H   UNL A   1      42.536  30.076  28.966  1.00  0.00     0.167 HD
ATOM     65  C   UNL A   1      45.119  31.118  28.400  1.00  0.00     0.074 A 
ATOM     66  C   UNL A   1      46.478  31.220  27.911  1.00  0.00     0.031 C 
ATOM     67  C   UNL A   1      44.453  32.123  29.020  1.00  0.00     0.037 A 
BRANCH  54  68
ATOM     68  C   UNL A   1      38.657  30.700  30.645  1.00  0.00     0.064 A 
ATOM     69  C   UNL A   1      38.445  30.685  32.031  1.00  0.00     0.173 A 
ATOM     70  C   UNL A   1      37.622  31.195  29.833  1.00  0.00     0.173 A 
ATOM     71  F   UNL A   1      39.394  30.215  32.855  1.00  0.00    -0.203 F 
ATOM     72  C   UNL A   1      37.238  31.115  32.579  1.00  0.00     0.198 A 
ATOM     73  C   UNL A   1      36.431  31.656  30.386  1.00  0.00     0.198 A 
ATOM     74  F   UNL A   1      37.771  31.241  28.501  1.00  0.00    -0.203 F 
ATOM     75  F   UNL A   1      37.039  31.040  33.902  1.00  0.00    -0.200 F 
ATOM     76  C   UNL A   1      36.235  31.607  31.757  1.00  0.00     0.200 A 
ATOM     77  F   UNL A   1      35.471  32.148  29.590  1.00  0.00    -0.200 F 
ATOM     78  F   UNL A   1      35.078  32.028  32.285  1.00  0.00    -0.200 F 
ENDBRANCH  54  68
BRANCH  55  79
ATOM     79  C   UNL A   1      47.014  27.364  26.284  1.00  0.00     0.064 A 
ATOM     80  C   UNL A   1      47.172  27.520  24.900  1.00  0.00     0.173 A 
ATOM     81  C   UNL A   1      48.053  26.741  26.992  1.00  0.00     0.173 A 
ATOM     82  F   UNL A   1      46.198  28.091  24.175  1.00  0.00    -0.203 F 
ATOM     83  C   UNL A   1      48.309  27.048  24.248  1.00  0.00     0.198 A 
ATOM     84  C   UNL A   1      49.205  26.303  26.344  1.00  0.00     0.198 A 
ATOM     85  F   UNL A   1      47.955  26.571  28.319  1.00  0.00    -0.203 F 
ATOM     86  F   UNL A   1      48.409  27.159  22.917  1.00  0.00    -0.200 F 
ATOM     87  C   UNL A   1      49.328  26.446  24.971  1.00  0.00     0.200 A 
ATOM     88  F   UNL A   1      50.195  25.738  27.051  1.00  0.00    -0.200 F 
ATOM     89  F   UNL A   1      50.423  25.997  24.343  1.00  0.00    -0.200 F 
ENDBRANCH  55  79
BRANCH  67  90
ATOM     90  C   UNL A   1      45.208  33.399  29.262  1.00  0.00     0.064 A 
ATOM     91  C   UNL A   1      45.181  34.464  28.349  1.00  0.00     0.173 A 
ATOM     92  C   UNL A   1      45.955  33.564  30.439  1.00  0.00     0.173 A 
ATOM     93  F   UNL A   1      44.496  34.353  27.201  1.00  0.00    -0.203 F 
ATOM     94  C   UNL A   1      45.904  35.630  28.588  1.00  0.00     0.198 A 
ATOM     95  C   UNL A   1      46.645  34.745  30.692  1.00  0.00     0.198 A 
ATOM     96  F   UNL A   1      46.009  32.580  31.350  1.00  0.00    -0.203 F 
ATOM     97  F   UNL A   1      45.915  36.609  27.672  1.00  0.00    -0.200 F 
ATOM     98  C   UNL A   1      46.629  35.773  29.762  1.00  0.00     0.200 A 
ATOM     99  F   UNL A   1      47.330  34.887  31.835  1.00  0.00    -0.200 F 
ATOM    100  F   UNL A   1      47.319  36.898  29.993  1.00  0.00    -0.200 F 
ENDBRANCH  67  90
ENDBRANCH  41  42
ENDBRANCH  34  36
ENDBRANCH  33  34
ENDBRANCH  32  33
ENDBRANCH   1  32
TORSDOF 14
ENDMDL
