MODEL 1
REMARK VINA RESULT:     -12.1      0.000      0.000
REMARK SMILES O=C(Nc1cccc(F)c1)N[C@@H]1C=C[C@@H](C(=O)OCCOC(=O)c2ccc(-c3c4nc(c(-c5c(F)c(F)c(F)c(F)c5F)c5ccc([nH]5)c(-c5c(F)c(F)c(F)c(F)c5F)c5nc(c(-c6c(F)c(F)c(F)c(F)c6F)c6ccc3[nH]6)C=C5)C=C4)cc2)C1
REMARK SMILES IDX 19 1 18 2 16 3 17 4 15 5 12 6 13 7 87 8 14 9 11 10 1 11 2 12
REMARK SMILES IDX 3 13 4 16 5 17 10 18 6 19 8 20 7 21 9 22 20 23 21 24 22 25
REMARK SMILES IDX 23 26 24 27 25 28 86 29 26 30 85 31 27 32 28 33 29 34 79 35
REMARK SMILES IDX 30 36 84 37 78 38 80 39 31 40 83 41 77 42 76 43 32 45 64 46
REMARK SMILES IDX 44 47 63 48 45 49 48 50 62 51 81 52 46 53 47 54 61 56 82 57
REMARK SMILES IDX 49 58 33 59 34 60 42 61 35 62 36 63 40 64 43 65 37 66 38 67
REMARK SMILES IDX 41 68 39 69 65 70 66 71 74 72 67 73 68 74 72 75 75 76 69 77
REMARK SMILES IDX 70 78 73 79 71 80 50 81 51 82 59 83 52 84 53 85 57 86 60 87
REMARK SMILES IDX 54 88 55 89 58 90 56 91
REMARK H PARENT 3 14 11 15 80 44 48 55
REMARK Flexibility Score: inf
ROOT
ATOM      1  C   UNL A   1      38.975  20.571  25.407  1.00  0.00     0.274 C 
ENDROOT
BRANCH   1   2
ATOM      2  O   UNL A   1      39.222  21.873  25.966  1.00  0.00    -0.462 OA
BRANCH   2   3
ATOM      3  C   UNL A   1      38.244  22.806  25.829  1.00  0.00     0.312 C 
ATOM      4  O   UNL A   1      38.352  23.980  26.165  1.00  0.00    -0.252 OA
BRANCH   3   5
ATOM      5  C   UNL A   1      36.994  22.252  25.154  1.00  0.00     0.124 C 
ATOM      6  C   UNL A   1      34.605  22.556  24.801  1.00  0.00     0.107 C 
ATOM      7  C   UNL A   1      35.399  23.044  23.630  1.00  0.00    -0.006 C 
ATOM      8  C   UNL A   1      35.665  22.439  25.898  1.00  0.00     0.048 C 
ATOM      9  C   UNL A   1      36.715  22.904  23.830  1.00  0.00    -0.014 C 
BRANCH   6  10
ATOM     10  N   UNL A   1      33.876  21.372  24.401  1.00  0.00    -0.332 N 
ATOM     11  O   UNL A   1      31.797  22.202  23.871  1.00  0.00    -0.248 OA
ATOM     12  C   UNL A   1      32.573  21.263  24.008  1.00  0.00     0.319 C 
ATOM     13  N   UNL A   1      32.184  20.007  23.618  1.00  0.00    -0.308 N 
ATOM     14  H   UNL A   1      31.456  19.983  22.957  1.00  0.00     0.171 HD
ATOM     15  H   UNL A   1      34.388  20.532  24.415  1.00  0.00     0.165 HD
BRANCH  13  16
ATOM     16  C   UNL A   1      32.669  18.751  24.018  1.00  0.00     0.045 A 
ATOM     17  C   UNL A   1      32.443  18.239  25.303  1.00  0.00     0.026 A 
ATOM     18  C   UNL A   1      33.343  17.971  23.078  1.00  0.00     0.065 A 
ATOM     19  C   UNL A   1      32.926  16.977  25.659  1.00  0.00     0.005 A 
ATOM     20  C   UNL A   1      33.842  16.726  23.452  1.00  0.00     0.125 A 
ATOM     21  C   UNL A   1      33.641  16.224  24.733  1.00  0.00     0.039 A 
ATOM     22  F   UNL A   1      34.533  16.001  22.563  1.00  0.00    -0.207 F 
ENDBRANCH  13  16
ENDBRANCH   6  10
ENDBRANCH   3   5
ENDBRANCH   2   3
ENDBRANCH   1   2
BRANCH   1  23
ATOM     23  C   UNL A   1      39.767  19.516  26.183  1.00  0.00     0.275 C 
BRANCH  23  24
ATOM     24  O   UNL A   1      40.960  19.135  25.469  1.00  0.00    -0.458 OA
BRANCH  24  25
ATOM     25  C   UNL A   1      42.091  19.115  26.212  1.00  0.00     0.338 C 
ATOM     26  O   UNL A   1      42.724  18.141  26.578  1.00  0.00    -0.246 OA
BRANCH  25  27
ATOM     27  C   UNL A   1      42.540  20.498  26.445  1.00  0.00     0.060 A 
ATOM     28  C   UNL A   1      42.519  20.986  27.753  1.00  0.00     0.016 A 
ATOM     29  C   UNL A   1      42.908  21.329  25.386  1.00  0.00     0.016 A 
ATOM     30  C   UNL A   1      42.879  22.305  28.014  1.00  0.00     0.010 A 
ATOM     31  C   UNL A   1      43.260  22.658  25.647  1.00  0.00     0.010 A 
ATOM     32  C   UNL A   1      43.242  23.153  26.963  1.00  0.00    -0.014 A 
BRANCH  32  33
ATOM     33  C   UNL A   1      43.552  24.574  27.247  1.00  0.00     0.031 A 
ATOM     34  C   UNL A   1      44.930  25.105  26.989  1.00  0.00     0.074 A 
ATOM     35  C   UNL A   1      42.584  25.394  27.693  1.00  0.00     0.049 A 
ATOM     36  N   UNL A   1      45.416  26.298  27.223  1.00  0.00    -0.248 NA
ATOM     37  C   UNL A   1      45.892  24.172  26.382  1.00  0.00     0.031 C 
ATOM     38  C   UNL A   1      41.194  25.005  27.924  1.00  0.00     0.029 A 
ATOM     39  N   UNL A   1      42.622  26.726  28.025  1.00  0.00    -0.354 N 
ATOM     40  C   UNL A   1      46.739  26.255  26.808  1.00  0.00     0.074 A 
ATOM     41  C   UNL A   1      46.988  24.916  26.319  1.00  0.00     0.031 C 
ATOM     42  C   UNL A   1      40.507  26.078  28.350  1.00  0.00     0.029 A 
ATOM     43  C   UNL A   1      41.417  27.216  28.462  1.00  0.00     0.049 A 
ATOM     44  H   UNL A   1      43.435  27.275  27.956  1.00  0.00     0.167 HD
ATOM     45  C   UNL A   1      47.658  27.250  26.828  1.00  0.00     0.037 A 
ATOM     46  C   UNL A   1      41.089  28.439  28.921  1.00  0.00     0.037 A 
ATOM     47  C   UNL A   1      47.400  28.587  27.297  1.00  0.00     0.049 A 
ATOM     48  C   UNL A   1      42.146  29.508  28.992  1.00  0.00     0.074 A 
ATOM     49  C   UNL A   1      48.270  29.662  27.354  1.00  0.00     0.029 A 
ATOM     50  N   UNL A   1      46.181  29.031  27.785  1.00  0.00    -0.354 N 
ATOM     51  N   UNL A   1      43.402  29.452  28.625  1.00  0.00    -0.248 NA
ATOM     52  C   UNL A   1      41.742  30.805  29.553  1.00  0.00     0.031 C 
ATOM     53  C   UNL A   1      47.586  30.748  27.909  1.00  0.00     0.029 A 
ATOM     54  C   UNL A   1      46.281  30.360  28.162  1.00  0.00     0.049 A 
ATOM     55  H   UNL A   1      45.365  28.483  27.854  1.00  0.00     0.167 HD
ATOM     56  C   UNL A   1      43.937  30.702  28.898  1.00  0.00     0.074 A 
ATOM     57  C   UNL A   1      42.864  31.505  29.448  1.00  0.00     0.031 C 
ATOM     58  C   UNL A   1      45.204  31.144  28.712  1.00  0.00     0.037 A 
BRANCH  45  59
ATOM     59  C   UNL A   1      49.040  26.929  26.346  1.00  0.00     0.064 A 
ATOM     60  C   UNL A   1      49.374  27.097  24.994  1.00  0.00     0.173 A 
ATOM     61  C   UNL A   1      50.011  26.397  27.204  1.00  0.00     0.173 A 
ATOM     62  F   UNL A   1      48.477  27.600  24.133  1.00  0.00    -0.203 F 
ATOM     63  C   UNL A   1      50.629  26.733  24.517  1.00  0.00     0.198 A 
ATOM     64  C   UNL A   1      51.274  26.053  26.727  1.00  0.00     0.198 A 
ATOM     65  F   UNL A   1      49.742  26.229  28.507  1.00  0.00    -0.203 F 
ATOM     66  F   UNL A   1      50.919  26.878  23.216  1.00  0.00    -0.200 F 
ATOM     67  C   UNL A   1      51.579  26.214  25.384  1.00  0.00     0.200 A 
ATOM     68  F   UNL A   1      52.197  25.569  27.570  1.00  0.00    -0.200 F 
ATOM     69  F   UNL A   1      52.790  25.870  24.924  1.00  0.00    -0.200 F 
ENDBRANCH  45  59
BRANCH  46  70
ATOM     70  C   UNL A   1      39.697  28.709  29.356  1.00  0.00     0.064 A 
ATOM     71  C   UNL A   1      38.753  29.254  28.474  1.00  0.00     0.173 A 
ATOM     72  C   UNL A   1      39.291  28.450  30.671  1.00  0.00     0.173 A 
ATOM     73  F   UNL A   1      39.093  29.515  27.203  1.00  0.00    -0.203 F 
ATOM     74  C   UNL A   1      37.460  29.551  28.899  1.00  0.00     0.198 A 
ATOM     75  C   UNL A   1      37.991  28.727  31.089  1.00  0.00     0.198 A 
ATOM     76  F   UNL A   1      40.151  27.905  31.544  1.00  0.00    -0.203 F 
ATOM     77  F   UNL A   1      36.585  30.100  28.044  1.00  0.00    -0.200 F 
ATOM     78  C   UNL A   1      37.079  29.286  30.205  1.00  0.00     0.200 A 
ATOM     79  F   UNL A   1      37.618  28.445  32.345  1.00  0.00    -0.200 F 
ATOM     80  F   UNL A   1      35.832  29.562  30.610  1.00  0.00    -0.200 F 
ENDBRANCH  46  70
BRANCH  58  81
ATOM     81  C   UNL A   1      45.506  32.560  29.097  1.00  0.00     0.064 A 
ATOM     82  C   UNL A   1      45.941  32.869  30.395  1.00  0.00     0.173 A 
ATOM     83  C   UNL A   1      45.298  33.619  28.201  1.00  0.00     0.173 A 
ATOM     84  F   UNL A   1      46.146  31.891  31.289  1.00  0.00    -0.203 F 
ATOM     85  C   UNL A   1      46.143  34.190  30.785  1.00  0.00     0.198 A 
ATOM     86  C   UNL A   1      45.523  34.937  28.590  1.00  0.00     0.198 A 
ATOM     87  F   UNL A   1      44.896  33.372  26.946  1.00  0.00    -0.203 F 
ATOM     88  F   UNL A   1      46.531  34.464  32.039  1.00  0.00    -0.200 F 
ATOM     89  C   UNL A   1      45.936  35.221  29.883  1.00  0.00     0.200 A 
ATOM     90  F   UNL A   1      45.342  35.933  27.711  1.00  0.00    -0.200 F 
ATOM     91  F   UNL A   1      46.139  36.492  30.259  1.00  0.00    -0.200 F 
ENDBRANCH  58  81
ENDBRANCH  32  33
ENDBRANCH  25  27
ENDBRANCH  24  25
ENDBRANCH  23  24
ENDBRANCH   1  23
TORSDOF 13
ENDMDL
MODEL 2
REMARK VINA RESULT:     -12.1      0.522      7.507
REMARK SMILES O=C(Nc1cccc(F)c1)N[C@@H]1C=C[C@@H](C(=O)OCCOC(=O)c2ccc(-c3c4nc(c(-c5c(F)c(F)c(F)c(F)c5F)c5ccc([nH]5)c(-c5c(F)c(F)c(F)c(F)c5F)c5nc(c(-c6c(F)c(F)c(F)c(F)c6F)c6ccc3[nH]6)C=C5)C=C4)cc2)C1
REMARK SMILES IDX 19 1 18 2 16 3 17 4 15 5 12 6 13 7 87 8 14 9 11 10 1 11 2 12
REMARK SMILES IDX 3 13 4 16 5 17 10 18 6 19 8 20 7 21 9 22 20 23 21 24 22 25
REMARK SMILES IDX 23 26 24 27 25 28 86 29 26 30 85 31 27 32 28 33 29 34 79 35
REMARK SMILES IDX 30 36 84 37 78 38 80 39 31 40 83 41 77 42 76 43 32 45 64 46
REMARK SMILES IDX 44 47 63 48 45 49 48 50 62 51 81 52 46 53 47 54 61 56 82 57
REMARK SMILES IDX 49 58 33 59 34 60 42 61 35 62 36 63 40 64 43 65 37 66 38 67
REMARK SMILES IDX 41 68 39 69 65 70 66 71 74 72 67 73 68 74 72 75 75 76 69 77
REMARK SMILES IDX 70 78 73 79 71 80 50 81 51 82 59 83 52 84 53 85 57 86 60 87
REMARK SMILES IDX 54 88 55 89 58 90 56 91
REMARK H PARENT 3 14 11 15 80 44 48 55
REMARK Flexibility Score: inf
ROOT
ATOM      1  C   UNL A   1      39.016  20.571  25.404  1.00  0.00     0.274 C 
ENDROOT
BRANCH   1   2
ATOM      2  O   UNL A   1      39.181  21.822  26.095  1.00  0.00    -0.462 OA
BRANCH   2   3
ATOM      3  C   UNL A   1      38.249  22.785  25.873  1.00  0.00     0.312 C 
ATOM      4  O   UNL A   1      38.405  23.974  26.124  1.00  0.00    -0.252 OA
BRANCH   3   5
ATOM      5  C   UNL A   1      36.985  22.238  25.219  1.00  0.00     0.124 C 
ATOM      6  C   UNL A   1      34.583  22.528  24.947  1.00  0.00     0.107 C 
ATOM      7  C   UNL A   1      35.337  23.059  23.768  1.00  0.00    -0.006 C 
ATOM      8  C   UNL A   1      35.677  22.388  26.007  1.00  0.00     0.048 C 
ATOM      9  C   UNL A   1      36.660  22.927  23.925  1.00  0.00    -0.014 C 
BRANCH   6  10
ATOM     10  N   UNL A   1      33.853  21.349  24.533  1.00  0.00    -0.332 N 
ATOM     11  O   UNL A   1      31.772  22.184  24.021  1.00  0.00    -0.248 OA
ATOM     12  C   UNL A   1      32.550  21.244  24.143  1.00  0.00     0.319 C 
ATOM     13  N   UNL A   1      32.161  19.993  23.736  1.00  0.00    -0.308 N 
ATOM     14  H   UNL A   1      31.430  19.978  23.077  1.00  0.00     0.171 HD
ATOM     15  H   UNL A   1      34.366  20.509  24.533  1.00  0.00     0.165 HD
BRANCH  13  16
ATOM     16  C   UNL A   1      32.648  18.732  24.118  1.00  0.00     0.045 A 
ATOM     17  C   UNL A   1      32.472  18.225  25.411  1.00  0.00     0.026 A 
ATOM     18  C   UNL A   1      33.271  17.943  23.151  1.00  0.00     0.065 A 
ATOM     19  C   UNL A   1      32.955  16.958  25.748  1.00  0.00     0.005 A 
ATOM     20  C   UNL A   1      33.771  16.693  23.505  1.00  0.00     0.125 A 
ATOM     21  C   UNL A   1      33.621  16.195  24.794  1.00  0.00     0.039 A 
ATOM     22  F   UNL A   1      34.414  15.958  22.587  1.00  0.00    -0.207 F 
ENDBRANCH  13  16
ENDBRANCH   6  10
ENDBRANCH   3   5
ENDBRANCH   2   3
ENDBRANCH   1   2
BRANCH   1  23
ATOM     23  C   UNL A   1      39.803  19.474  26.126  1.00  0.00     0.275 C 
BRANCH  23  24
ATOM     24  O   UNL A   1      40.998  19.130  25.397  1.00  0.00    -0.458 OA
BRANCH  24  25
ATOM     25  C   UNL A   1      42.144  19.188  26.117  1.00  0.00     0.338 C 
ATOM     26  O   UNL A   1      42.882  18.266  26.414  1.00  0.00    -0.246 OA
BRANCH  25  27
ATOM     27  C   UNL A   1      42.453  20.595  26.421  1.00  0.00     0.060 A 
ATOM     28  C   UNL A   1      42.687  21.463  25.354  1.00  0.00     0.016 A 
ATOM     29  C   UNL A   1      42.582  21.040  27.738  1.00  0.00     0.016 A 
ATOM     30  C   UNL A   1      43.040  22.788  25.593  1.00  0.00     0.010 A 
ATOM     31  C   UNL A   1      42.948  22.370  27.979  1.00  0.00     0.010 A 
ATOM     32  C   UNL A   1      43.183  23.249  26.907  1.00  0.00    -0.014 A 
BRANCH  32  33
ATOM     33  C   UNL A   1      43.630  24.641  27.147  1.00  0.00     0.031 A 
ATOM     34  C   UNL A   1      42.669  25.650  27.701  1.00  0.00     0.074 A 
ATOM     35  C   UNL A   1      44.908  24.984  26.908  1.00  0.00     0.049 A 
ATOM     36  N   UNL A   1      42.848  26.927  27.929  1.00  0.00    -0.248 NA
ATOM     37  C   UNL A   1      41.327  25.158  28.052  1.00  0.00     0.031 C 
ATOM     38  C   UNL A   1      45.946  24.075  26.425  1.00  0.00     0.029 A 
ATOM     39  N   UNL A   1      45.552  26.189  27.046  1.00  0.00    -0.354 N 
ATOM     40  C   UNL A   1      41.643  27.393  28.433  1.00  0.00     0.074 A 
ATOM     41  C   UNL A   1      40.732  26.268  28.468  1.00  0.00     0.031 C 
ATOM     42  C   UNL A   1      47.101  24.751  26.317  1.00  0.00     0.029 A 
ATOM     43  C   UNL A   1      46.874  26.148  26.683  1.00  0.00     0.049 A 
ATOM     44  H   UNL A   1      45.107  27.003  27.374  1.00  0.00     0.167 HD
ATOM     45  C   UNL A   1      41.331  28.647  28.837  1.00  0.00     0.037 A 
ATOM     46  C   UNL A   1      47.793  27.131  26.630  1.00  0.00     0.037 A 
ATOM     47  C   UNL A   1      42.245  29.759  28.819  1.00  0.00     0.049 A 
ATOM     48  C   UNL A   1      47.402  28.529  27.024  1.00  0.00     0.074 A 
ATOM     49  C   UNL A   1      42.018  31.067  29.211  1.00  0.00     0.029 A 
ATOM     50  N   UNL A   1      43.562  29.692  28.391  1.00  0.00    -0.354 N 
ATOM     51  N   UNL A   1      46.252  28.969  27.472  1.00  0.00    -0.248 NA
ATOM     52  C   UNL A   1      48.432  29.570  26.892  1.00  0.00     0.031 C 
ATOM     53  C   UNL A   1      43.188  31.800  28.987  1.00  0.00     0.029 A 
ATOM     54  C   UNL A   1      44.155  30.940  28.492  1.00  0.00     0.049 A 
ATOM     55  H   UNL A   1      44.010  28.878  28.064  1.00  0.00     0.167 HD
ATOM     56  C   UNL A   1      46.420  30.329  27.687  1.00  0.00     0.074 A 
ATOM     57  C   UNL A   1      47.789  30.643  27.335  1.00  0.00     0.031 C 
ATOM     58  C   UNL A   1      45.519  31.236  28.134  1.00  0.00     0.037 A 
BRANCH  45  59
ATOM     59  C   UNL A   1      39.933  28.896  29.317  1.00  0.00     0.064 A 
ATOM     60  C   UNL A   1      39.592  28.655  30.656  1.00  0.00     0.173 A 
ATOM     61  C   UNL A   1      38.919  29.308  28.442  1.00  0.00     0.173 A 
ATOM     62  F   UNL A   1      40.527  28.255  31.531  1.00  0.00    -0.203 F 
ATOM     63  C   UNL A   1      38.282  28.808  31.100  1.00  0.00     0.198 A 
ATOM     64  C   UNL A   1      37.613  29.481  28.894  1.00  0.00     0.198 A 
ATOM     65  F   UNL A   1      39.200  29.561  27.155  1.00  0.00    -0.203 F 
ATOM     66  F   UNL A   1      37.972  28.548  32.377  1.00  0.00    -0.200 F 
ATOM     67  C   UNL A   1      37.294  29.223  30.219  1.00  0.00     0.200 A 
ATOM     68  F   UNL A   1      36.663  29.901  28.046  1.00  0.00    -0.200 F 
ATOM     69  F   UNL A   1      36.034  29.377  30.648  1.00  0.00    -0.200 F 
ENDBRANCH  45  59
BRANCH  46  70
ATOM     70  C   UNL A   1      49.171  26.821  26.175  1.00  0.00     0.064 A 
ATOM     71  C   UNL A   1      50.155  26.393  27.079  1.00  0.00     0.173 A 
ATOM     72  C   UNL A   1      49.537  26.973  24.832  1.00  0.00     0.173 A 
ATOM     73  F   UNL A   1      49.851  26.228  28.375  1.00  0.00    -0.203 F 
ATOM     74  C   UNL A   1      51.460  26.149  26.658  1.00  0.00     0.198 A 
ATOM     75  C   UNL A   1      50.838  26.707  24.408  1.00  0.00     0.198 A 
ATOM     76  F   UNL A   1      48.625  27.355  23.927  1.00  0.00    -0.203 F 
ATOM     77  F   UNL A   1      52.389  25.769  27.547  1.00  0.00    -0.200 F 
ATOM     78  C   UNL A   1      51.801  26.304  25.323  1.00  0.00     0.200 A 
ATOM     79  F   UNL A   1      51.157  26.832  23.113  1.00  0.00    -0.200 F 
ATOM     80  F   UNL A   1      53.054  26.058  24.917  1.00  0.00    -0.200 F 
ENDBRANCH  46  70
BRANCH  58  81
ATOM     81  C   UNL A   1      45.978  32.656  28.276  1.00  0.00     0.064 A 
ATOM     82  C   UNL A   1      46.501  33.117  29.494  1.00  0.00     0.173 A 
ATOM     83  C   UNL A   1      45.833  33.577  27.229  1.00  0.00     0.173 A 
ATOM     84  F   UNL A   1      46.652  32.275  30.527  1.00  0.00    -0.203 F 
ATOM     85  C   UNL A   1      46.851  34.453  29.661  1.00  0.00     0.198 A 
ATOM     86  C   UNL A   1      46.206  34.908  27.393  1.00  0.00     0.198 A 
ATOM     87  F   UNL A   1      45.349  33.180  26.043  1.00  0.00    -0.203 F 
ATOM     88  F   UNL A   1      47.323  34.878  30.841  1.00  0.00    -0.200 F 
ATOM     89  C   UNL A   1      46.705  35.346  28.611  1.00  0.00     0.200 A 
ATOM     90  F   UNL A   1      46.083  35.767  26.372  1.00  0.00    -0.200 F 
ATOM     91  F   UNL A   1      47.050  36.632  28.771  1.00  0.00    -0.200 F 
ENDBRANCH  58  81
ENDBRANCH  32  33
ENDBRANCH  25  27
ENDBRANCH  24  25
ENDBRANCH  23  24
ENDBRANCH   1  23
TORSDOF 13
ENDMDL
MODEL 3
REMARK VINA RESULT:     -12.1      6.840     10.998
REMARK SMILES O=C(Nc1cccc(F)c1)N[C@@H]1C=C[C@@H](C(=O)OCCOC(=O)c2ccc(-c3c4nc(c(-c5c(F)c(F)c(F)c(F)c5F)c5ccc([nH]5)c(-c5c(F)c(F)c(F)c(F)c5F)c5nc(c(-c6c(F)c(F)c(F)c(F)c6F)c6ccc3[nH]6)C=C5)C=C4)cc2)C1
REMARK SMILES IDX 19 1 18 2 16 3 17 4 15 5 12 6 13 7 87 8 14 9 11 10 1 11 2 12
REMARK SMILES IDX 3 13 4 16 5 17 10 18 6 19 8 20 7 21 9 22 20 23 21 24 22 25
REMARK SMILES IDX 23 26 24 27 25 28 86 29 26 30 85 31 27 32 28 33 29 34 79 35
REMARK SMILES IDX 30 36 84 37 78 38 80 39 31 40 83 41 77 42 76 43 32 45 64 46
REMARK SMILES IDX 44 47 63 48 45 49 48 50 62 51 81 52 46 53 47 54 61 56 82 57
REMARK SMILES IDX 49 58 33 59 34 60 42 61 35 62 36 63 40 64 43 65 37 66 38 67
REMARK SMILES IDX 41 68 39 69 65 70 66 71 74 72 67 73 68 74 72 75 75 76 69 77
REMARK SMILES IDX 70 78 73 79 71 80 50 81 51 82 59 83 52 84 53 85 57 86 60 87
REMARK SMILES IDX 54 88 55 89 58 90 56 91
REMARK H PARENT 3 14 11 15 80 44 48 55
REMARK Flexibility Score: inf
ROOT
ATOM      1  C   UNL A   1      32.609  32.331  27.397  1.00  0.00     0.274 C 
ENDROOT
BRANCH   1   2
ATOM      2  O   UNL A   1      33.701  31.523  27.869  1.00  0.00    -0.462 OA
BRANCH   2   3
ATOM      3  C   UNL A   1      33.881  30.312  27.279  1.00  0.00     0.312 C 
ATOM      4  O   UNL A   1      34.883  29.618  27.408  1.00  0.00    -0.252 OA
BRANCH   3   5
ATOM      5  C   UNL A   1      32.668  29.869  26.468  1.00  0.00     0.124 C 
ATOM      6  C   UNL A   1      31.844  28.322  24.779  1.00  0.00     0.107 C 
ATOM      7  C   UNL A   1      31.474  27.876  26.159  1.00  0.00    -0.006 C 
ATOM      8  C   UNL A   1      32.936  29.361  25.046  1.00  0.00     0.048 C 
ATOM      9  C   UNL A   1      31.948  28.709  27.093  1.00  0.00    -0.014 C 
BRANCH   6  10
ATOM     10  N   UNL A   1      30.640  28.733  24.089  1.00  0.00    -0.332 N 
ATOM     11  O   UNL A   1      29.894  26.772  23.145  1.00  0.00    -0.248 OA
ATOM     12  C   UNL A   1      29.794  27.980  23.327  1.00  0.00     0.319 C 
ATOM     13  N   UNL A   1      28.686  28.641  22.859  1.00  0.00    -0.308 N 
ATOM     14  H   UNL A   1      27.897  28.074  22.706  1.00  0.00     0.171 HD
ATOM     15  H   UNL A   1      30.398  29.682  24.182  1.00  0.00     0.165 HD
BRANCH  13  16
ATOM     16  C   UNL A   1      28.509  30.003  22.566  1.00  0.00     0.045 A 
ATOM     17  C   UNL A   1      28.677  31.002  23.534  1.00  0.00     0.026 A 
ATOM     18  C   UNL A   1      28.218  30.365  21.251  1.00  0.00     0.065 A 
ATOM     19  C   UNL A   1      28.510  32.349  23.200  1.00  0.00     0.005 A 
ATOM     20  C   UNL A   1      28.028  31.708  20.936  1.00  0.00     0.125 A 
ATOM     21  C   UNL A   1      28.170  32.702  21.898  1.00  0.00     0.039 A 
ATOM     22  F   UNL A   1      27.698  32.049  19.683  1.00  0.00    -0.207 F 
ENDBRANCH  13  16
ENDBRANCH   6  10
ENDBRANCH   3   5
ENDBRANCH   2   3
ENDBRANCH   1   2
BRANCH   1  23
ATOM     23  C   UNL A   1      33.030  33.803  27.370  1.00  0.00     0.275 C 
BRANCH  23  24
ATOM     24  O   UNL A   1      32.316  34.564  28.365  1.00  0.00    -0.458 OA
BRANCH  24  25
ATOM     25  C   UNL A   1      33.087  35.375  29.128  1.00  0.00     0.338 C 
ATOM     26  O   UNL A   1      32.866  36.530  29.442  1.00  0.00    -0.246 OA
BRANCH  25  27
ATOM     27  C   UNL A   1      34.233  34.608  29.642  1.00  0.00     0.060 A 
ATOM     28  C   UNL A   1      34.027  33.773  30.742  1.00  0.00     0.016 A 
ATOM     29  C   UNL A   1      35.510  34.759  29.099  1.00  0.00     0.016 A 
ATOM     30  C   UNL A   1      35.093  33.072  31.299  1.00  0.00     0.010 A 
ATOM     31  C   UNL A   1      36.584  34.064  29.666  1.00  0.00     0.010 A 
ATOM     32  C   UNL A   1      36.381  33.220  30.772  1.00  0.00    -0.014 A 
BRANCH  32  33
ATOM     33  C   UNL A   1      37.518  32.526  31.420  1.00  0.00     0.031 A 
ATOM     34  C   UNL A   1      38.222  31.413  30.703  1.00  0.00     0.074 A 
ATOM     35  C   UNL A   1      37.944  32.925  32.632  1.00  0.00     0.049 A 
ATOM     36  N   UNL A   1      39.198  30.646  31.119  1.00  0.00    -0.248 NA
ATOM     37  C   UNL A   1      37.773  31.126  29.332  1.00  0.00     0.031 C 
ATOM     38  C   UNL A   1      37.376  34.033  33.399  1.00  0.00     0.029 A 
ATOM     39  N   UNL A   1      38.957  32.450  33.426  1.00  0.00    -0.354 N 
ATOM     40  C   UNL A   1      39.469  29.779  30.071  1.00  0.00     0.074 A 
ATOM     41  C   UNL A   1      38.548  30.101  29.002  1.00  0.00     0.031 C 
ATOM     42  C   UNL A   1      38.057  34.160  34.550  1.00  0.00     0.029 A 
ATOM     43  C   UNL A   1      39.078  33.117  34.618  1.00  0.00     0.049 A 
ATOM     44  H   UNL A   1      39.540  31.701  33.164  1.00  0.00     0.167 HD
ATOM     45  C   UNL A   1      40.409  28.806  30.008  1.00  0.00     0.037 A 
ATOM     46  C   UNL A   1      39.905  32.898  35.659  1.00  0.00     0.037 A 
ATOM     47  C   UNL A   1      41.337  28.500  31.066  1.00  0.00     0.049 A 
ATOM     48  C   UNL A   1      40.897  31.769  35.588  1.00  0.00     0.074 A 
ATOM     49  C   UNL A   1      42.326  27.533  31.092  1.00  0.00     0.029 A 
ATOM     50  N   UNL A   1      41.392  29.162  32.283  1.00  0.00    -0.354 N 
ATOM     51  N   UNL A   1      41.128  30.934  34.606  1.00  0.00    -0.248 NA
ATOM     52  C   UNL A   1      41.734  31.545  36.776  1.00  0.00     0.031 C 
ATOM     53  C   UNL A   1      42.957  27.586  32.338  1.00  0.00     0.029 A 
ATOM     54  C   UNL A   1      42.387  28.612  33.074  1.00  0.00     0.049 A 
ATOM     55  H   UNL A   1      40.811  29.913  32.546  1.00  0.00     0.167 HD
ATOM     56  C   UNL A   1      42.140  30.095  35.047  1.00  0.00     0.074 A 
ATOM     57  C   UNL A   1      42.493  30.530  36.383  1.00  0.00     0.031 C 
ATOM     58  C   UNL A   1      42.723  29.055  34.404  1.00  0.00     0.037 A 
BRANCH  45  59
ATOM     59  C   UNL A   1      40.474  27.981  28.759  1.00  0.00     0.064 A 
ATOM     60  C   UNL A   1      39.822  26.740  28.696  1.00  0.00     0.173 A 
ATOM     61  C   UNL A   1      41.231  28.384  27.651  1.00  0.00     0.173 A 
ATOM     62  F   UNL A   1      39.088  26.309  29.732  1.00  0.00    -0.203 F 
ATOM     63  C   UNL A   1      39.935  25.929  27.572  1.00  0.00     0.198 A 
ATOM     64  C   UNL A   1      41.325  27.579  26.519  1.00  0.00     0.198 A 
ATOM     65  F   UNL A   1      41.864  29.567  27.660  1.00  0.00    -0.203 F 
ATOM     66  F   UNL A   1      39.325  24.736  27.543  1.00  0.00    -0.200 F 
ATOM     67  C   UNL A   1      40.684  26.349  26.484  1.00  0.00     0.200 A 
ATOM     68  F   UNL A   1      42.034  27.995  25.460  1.00  0.00    -0.200 F 
ATOM     69  F   UNL A   1      40.787  25.569  25.398  1.00  0.00    -0.200 F 
ENDBRANCH  45  59
BRANCH  46  70
ATOM     70  C   UNL A   1      39.818  33.766  36.859  1.00  0.00     0.064 A 
ATOM     71  C   UNL A   1      40.598  34.926  36.975  1.00  0.00     0.173 A 
ATOM     72  C   UNL A   1      38.969  33.439  37.924  1.00  0.00     0.173 A 
ATOM     73  F   UNL A   1      41.422  35.283  35.979  1.00  0.00    -0.203 F 
ATOM     74  C   UNL A   1      40.550  35.713  38.123  1.00  0.00     0.198 A 
ATOM     75  C   UNL A   1      38.905  34.239  39.063  1.00  0.00     0.198 A 
ATOM     76  F   UNL A   1      38.185  32.354  37.848  1.00  0.00    -0.203 F 
ATOM     77  F   UNL A   1      41.328  36.799  38.222  1.00  0.00    -0.200 F 
ATOM     78  C   UNL A   1      39.702  35.371  39.166  1.00  0.00     0.200 A 
ATOM     79  F   UNL A   1      38.065  33.920  40.057  1.00  0.00    -0.200 F 
ATOM     80  F   UNL A   1      39.648  36.134  40.265  1.00  0.00    -0.200 F 
ENDBRANCH  46  70
BRANCH  58  81
ATOM     81  C   UNL A   1      43.808  28.314  35.125  1.00  0.00     0.064 A 
ATOM     82  C   UNL A   1      45.148  28.708  34.995  1.00  0.00     0.173 A 
ATOM     83  C   UNL A   1      43.526  27.172  35.888  1.00  0.00     0.173 A 
ATOM     84  F   UNL A   1      45.467  29.790  34.269  1.00  0.00    -0.203 F 
ATOM     85  C   UNL A   1      46.169  27.976  35.593  1.00  0.00     0.198 A 
ATOM     86  C   UNL A   1      44.549  26.455  36.504  1.00  0.00     0.198 A 
ATOM     87  F   UNL A   1      42.259  26.764  36.052  1.00  0.00    -0.203 F 
ATOM     88  F   UNL A   1      47.445  28.354  35.433  1.00  0.00    -0.200 F 
ATOM     89  C   UNL A   1      45.869  26.852  36.348  1.00  0.00     0.200 A 
ATOM     90  F   UNL A   1      44.257  25.381  37.249  1.00  0.00    -0.200 F 
ATOM     91  F   UNL A   1      46.853  26.153  36.930  1.00  0.00    -0.200 F 
ENDBRANCH  58  81
ENDBRANCH  32  33
ENDBRANCH  25  27
ENDBRANCH  24  25
ENDBRANCH  23  24
ENDBRANCH   1  23
TORSDOF 13
ENDMDL
