MODEL 1
REMARK VINA RESULT:     -12.7      0.000      0.000
REMARK SMILES O=C(OCCOC(=O)c1ccc(-c2c3nc(c(-c4c(F)c(F)c(F)c(F)c4F)c4ccc([nH]4)c(-c4c(F)c(F)c(F)c(F)c4F)c4nc(c(-c5c(F)c(F)c(F)c(F)c5F)c5ccc2[nH]5)C=C4)C=C3)cc1)c1ccc(/[NH+]=C2/N=C[NH+]=C3N=NC=C32)cc1
REMARK SMILES IDX 5 1 4 2 3 3 2 4 1 5 72 6 73 7 87 8 74 9 86 10 75 11 76 12
REMARK SMILES IDX 77 13 78 15 85 16 79 17 81 18 84 19 80 20 82 21 83 22 6 24
REMARK SMILES IDX 7 25 8 26 9 27 10 28 71 29 11 30 70 31 12 32 13 33 14 34
REMARK SMILES IDX 64 35 15 36 69 37 63 38 65 39 16 40 68 41 62 42 61 43 17 45
REMARK SMILES IDX 49 46 29 47 48 48 30 49 33 50 47 51 66 52 31 53 32 54 46 56
REMARK SMILES IDX 67 57 34 58 18 59 19 60 27 61 20 62 21 63 25 64 28 65 22 66
REMARK SMILES IDX 23 67 26 68 24 69 50 70 51 71 59 72 52 73 53 74 57 75 60 76
REMARK SMILES IDX 54 77 55 78 58 79 56 80 35 81 36 82 44 83 37 84 38 85 42 86
REMARK SMILES IDX 45 87 39 88 40 89 43 90 41 91
REMARK H PARENT 76 14 80 23 65 44 33 55
REMARK Flexibility Score: inf
ROOT
ATOM      1  C   UNL A   1      31.892  33.378  26.913  1.00  0.00     0.275 C 
ENDROOT
BRANCH   1   2
ATOM      2  C   UNL A   1      31.380  32.003  26.486  1.00  0.00     0.275 C 
BRANCH   2   3
ATOM      3  O   UNL A   1      31.952  30.897  27.206  1.00  0.00    -0.458 OA
BRANCH   3   4
ATOM      4  C   UNL A   1      32.979  30.080  26.883  1.00  0.00     0.338 C 
ATOM      5  O   UNL A   1      34.118  30.545  26.829  1.00  0.00    -0.246 OA
BRANCH   4   6
ATOM      6  C   UNL A   1      32.816  28.653  26.477  1.00  0.00     0.060 A 
ATOM      7  C   UNL A   1      31.615  27.987  26.233  1.00  0.00     0.020 A 
ATOM      8  C   UNL A   1      34.005  27.918  26.366  1.00  0.00     0.020 A 
ATOM      9  C   UNL A   1      31.610  26.629  25.869  1.00  0.00     0.052 A 
ATOM     10  C   UNL A   1      33.989  26.578  25.971  1.00  0.00     0.052 A 
ATOM     11  C   UNL A   1      32.793  25.897  25.773  1.00  0.00     0.124 A 
BRANCH  11  12
ATOM     12  N   UNL A   1      32.722  24.551  25.403  1.00  0.00    -0.244 N 
ATOM     13  C   UNL A   1      32.870  24.120  24.196  1.00  0.00     0.305 C 
ATOM     14  H   UNL A   1      32.547  23.889  26.110  1.00  0.00     0.311 HD
ATOM     15  N   UNL A   1      32.705  22.767  24.033  1.00  0.00    -0.069 NA
ATOM     16  C   UNL A   1      33.147  24.815  22.947  1.00  0.00     0.159 C 
ATOM     17  C   UNL A   1      32.587  22.213  22.867  1.00  0.00     0.372 C 
ATOM     18  C   UNL A   1      32.927  24.093  21.721  1.00  0.00     0.302 C 
ATOM     19  C   UNL A   1      33.575  25.968  22.451  1.00  0.00     0.177 C 
ATOM     20  N   UNL A   1      32.636  22.847  21.653  1.00  0.00    -0.245 N 
ATOM     21  N   UNL A   1      33.105  24.926  20.643  1.00  0.00     0.010 NA
ATOM     22  N   UNL A   1      33.523  26.031  21.086  1.00  0.00    -0.081 NA
ATOM     23  H   UNL A   1      32.460  22.384  20.802  1.00  0.00     0.266 HD
ENDBRANCH  11  12
ENDBRANCH   4   6
ENDBRANCH   3   4
ENDBRANCH   2   3
ENDBRANCH   1   2
BRANCH   1  24
ATOM     24  O   UNL A   1      32.400  33.391  28.256  1.00  0.00    -0.458 OA
BRANCH  24  25
ATOM     25  C   UNL A   1      33.455  34.228  28.455  1.00  0.00     0.338 C 
ATOM     26  O   UNL A   1      33.419  35.440  28.462  1.00  0.00    -0.246 OA
BRANCH  25  27
ATOM     27  C   UNL A   1      34.689  33.462  28.773  1.00  0.00     0.060 A 
ATOM     28  C   UNL A   1      34.543  32.289  29.527  1.00  0.00     0.016 A 
ATOM     29  C   UNL A   1      35.963  33.858  28.353  1.00  0.00     0.016 A 
ATOM     30  C   UNL A   1      35.664  31.538  29.897  1.00  0.00     0.010 A 
ATOM     31  C   UNL A   1      37.086  33.096  28.714  1.00  0.00     0.010 A 
ATOM     32  C   UNL A   1      36.950  31.951  29.524  1.00  0.00    -0.014 A 
BRANCH  32  33
ATOM     33  C   UNL A   1      38.137  31.294  30.141  1.00  0.00     0.031 A 
ATOM     34  C   UNL A   1      38.475  31.617  31.573  1.00  0.00     0.074 A 
ATOM     35  C   UNL A   1      38.880  30.378  29.489  1.00  0.00     0.049 A 
ATOM     36  N   UNL A   1      39.370  31.072  32.360  1.00  0.00    -0.248 NA
ATOM     37  C   UNL A   1      37.690  32.687  32.208  1.00  0.00     0.031 C 
ATOM     38  C   UNL A   1      38.667  29.923  28.119  1.00  0.00     0.029 A 
ATOM     39  N   UNL A   1      39.974  29.656  29.908  1.00  0.00    -0.354 N 
ATOM     40  C   UNL A   1      39.236  31.713  33.583  1.00  0.00     0.074 A 
ATOM     41  C   UNL A   1      38.226  32.736  33.417  1.00  0.00     0.031 C 
ATOM     42  C   UNL A   1      39.615  29.026  27.796  1.00  0.00     0.029 A 
ATOM     43  C   UNL A   1      40.489  28.818  28.950  1.00  0.00     0.049 A 
ATOM     44  H   UNL A   1      40.353  29.733  30.814  1.00  0.00     0.167 HD
ATOM     45  C   UNL A   1      39.863  31.455  34.756  1.00  0.00     0.037 A 
ATOM     46  C   UNL A   1      41.527  27.960  28.998  1.00  0.00     0.037 A 
ATOM     47  C   UNL A   1      40.876  30.450  34.941  1.00  0.00     0.049 A 
ATOM     48  C   UNL A   1      42.270  27.746  30.294  1.00  0.00     0.074 A 
ATOM     49  C   UNL A   1      41.537  30.098  36.105  1.00  0.00     0.029 A 
ATOM     50  N   UNL A   1      41.390  29.651  33.932  1.00  0.00    -0.354 N 
ATOM     51  N   UNL A   1      42.060  28.283  31.470  1.00  0.00    -0.248 NA
ATOM     52  C   UNL A   1      43.373  26.772  30.271  1.00  0.00     0.031 C 
ATOM     53  C   UNL A   1      42.494  29.128  35.789  1.00  0.00     0.029 A 
ATOM     54  C   UNL A   1      42.384  28.829  34.441  1.00  0.00     0.049 A 
ATOM     55  H   UNL A   1      41.094  29.665  32.993  1.00  0.00     0.167 HD
ATOM     56  C   UNL A   1      42.959  27.669  32.337  1.00  0.00     0.074 A 
ATOM     57  C   UNL A   1      43.718  26.721  31.550  1.00  0.00     0.031 C 
ATOM     58  C   UNL A   1      43.125  27.866  33.668  1.00  0.00     0.037 A 
BRANCH  45  59
ATOM     59  C   UNL A   1      39.468  32.287  35.939  1.00  0.00     0.064 A 
ATOM     60  C   UNL A   1      38.446  31.882  36.813  1.00  0.00     0.173 A 
ATOM     61  C   UNL A   1      40.130  33.492  36.214  1.00  0.00     0.173 A 
ATOM     62  F   UNL A   1      37.774  30.744  36.585  1.00  0.00    -0.203 F 
ATOM     63  C   UNL A   1      38.080  32.670  37.899  1.00  0.00     0.198 A 
ATOM     64  C   UNL A   1      39.782  34.262  37.321  1.00  0.00     0.198 A 
ATOM     65  F   UNL A   1      41.115  33.922  35.412  1.00  0.00    -0.203 F 
ATOM     66  F   UNL A   1      37.064  32.292  38.687  1.00  0.00    -0.200 F 
ATOM     67  C   UNL A   1      38.752  33.856  38.156  1.00  0.00     0.200 A 
ATOM     68  F   UNL A   1      40.440  35.401  37.575  1.00  0.00    -0.200 F 
ATOM     69  F   UNL A   1      38.400  34.613  39.205  1.00  0.00    -0.200 F 
ENDBRANCH  45  59
BRANCH  46  70
ATOM     70  C   UNL A   1      41.910  27.183  27.789  1.00  0.00     0.064 A 
ATOM     71  C   UNL A   1      41.378  25.908  27.548  1.00  0.00     0.173 A 
ATOM     72  C   UNL A   1      42.861  27.675  26.884  1.00  0.00     0.173 A 
ATOM     73  F   UNL A   1      40.488  25.381  28.402  1.00  0.00    -0.203 F 
ATOM     74  C   UNL A   1      41.808  25.141  26.467  1.00  0.00     0.198 A 
ATOM     75  C   UNL A   1      43.269  26.919  25.787  1.00  0.00     0.198 A 
ATOM     76  F   UNL A   1      43.405  28.885  27.077  1.00  0.00    -0.203 F 
ATOM     77  F   UNL A   1      41.332  23.900  26.297  1.00  0.00    -0.200 F 
ATOM     78  C   UNL A   1      42.751  25.648  25.586  1.00  0.00     0.200 A 
ATOM     79  F   UNL A   1      44.184  27.410  24.939  1.00  0.00    -0.200 F 
ATOM     80  F   UNL A   1      43.176  24.904  24.555  1.00  0.00    -0.200 F 
ENDBRANCH  46  70
BRANCH  58  81
ATOM     81  C   UNL A   1      44.116  26.993  34.389  1.00  0.00     0.064 A 
ATOM     82  C   UNL A   1      45.450  27.381  34.586  1.00  0.00     0.173 A 
ATOM     83  C   UNL A   1      43.710  25.759  34.923  1.00  0.00     0.173 A 
ATOM     84  F   UNL A   1      45.896  28.545  34.091  1.00  0.00    -0.203 F 
ATOM     85  C   UNL A   1      46.347  26.551  35.257  1.00  0.00     0.198 A 
ATOM     86  C   UNL A   1      44.600  24.948  35.623  1.00  0.00     0.198 A 
ATOM     87  F   UNL A   1      42.444  25.340  34.774  1.00  0.00    -0.203 F 
ATOM     88  F   UNL A   1      47.630  26.917  35.381  1.00  0.00    -0.200 F 
ATOM     89  C   UNL A   1      45.920  25.339  35.780  1.00  0.00     0.200 A 
ATOM     90  F   UNL A   1      44.179  23.787  36.143  1.00  0.00    -0.200 F 
ATOM     91  F   UNL A   1      46.783  24.545  36.429  1.00  0.00    -0.200 F 
ENDBRANCH  58  81
ENDBRANCH  32  33
ENDBRANCH  25  27
ENDBRANCH  24  25
ENDBRANCH   1  24
TORSDOF 12
ENDMDL
MODEL 2
REMARK VINA RESULT:     -12.5      1.551      2.698
REMARK SMILES O=C(OCCOC(=O)c1ccc(-c2c3nc(c(-c4c(F)c(F)c(F)c(F)c4F)c4ccc([nH]4)c(-c4c(F)c(F)c(F)c(F)c4F)c4nc(c(-c5c(F)c(F)c(F)c(F)c5F)c5ccc2[nH]5)C=C4)C=C3)cc1)c1ccc(/[NH+]=C2/N=C[NH+]=C3N=NC=C32)cc1
REMARK SMILES IDX 5 1 4 2 3 3 2 4 1 5 72 6 73 7 87 8 74 9 86 10 75 11 76 12
REMARK SMILES IDX 77 13 78 15 85 16 79 17 81 18 84 19 80 20 82 21 83 22 6 24
REMARK SMILES IDX 7 25 8 26 9 27 10 28 71 29 11 30 70 31 12 32 13 33 14 34
REMARK SMILES IDX 64 35 15 36 69 37 63 38 65 39 16 40 68 41 62 42 61 43 17 45
REMARK SMILES IDX 49 46 29 47 48 48 30 49 33 50 47 51 66 52 31 53 32 54 46 56
REMARK SMILES IDX 67 57 34 58 18 59 19 60 27 61 20 62 21 63 25 64 28 65 22 66
REMARK SMILES IDX 23 67 26 68 24 69 50 70 51 71 59 72 52 73 53 74 57 75 60 76
REMARK SMILES IDX 54 77 55 78 58 79 56 80 35 81 36 82 44 83 37 84 38 85 42 86
REMARK SMILES IDX 45 87 39 88 40 89 43 90 41 91
REMARK H PARENT 76 14 80 23 65 44 33 55
REMARK Flexibility Score: inf
ROOT
ATOM      1  C   UNL A   1      31.500  31.461  26.501  1.00  0.00     0.275 C 
ENDROOT
BRANCH   1   2
ATOM      2  C   UNL A   1      31.151  30.550  25.325  1.00  0.00     0.275 C 
BRANCH   2   3
ATOM      3  O   UNL A   1      31.560  29.179  25.483  1.00  0.00    -0.458 OA
BRANCH   3   4
ATOM      4  C   UNL A   1      31.460  28.134  24.633  1.00  0.00     0.338 C 
ATOM      5  O   UNL A   1      30.434  28.001  23.966  1.00  0.00    -0.246 OA
BRANCH   4   6
ATOM      6  C   UNL A   1      32.479  27.048  24.522  1.00  0.00     0.060 A 
ATOM      7  C   UNL A   1      32.916  26.431  23.349  1.00  0.00     0.020 A 
ATOM      8  C   UNL A   1      33.014  26.596  25.737  1.00  0.00     0.020 A 
ATOM      9  C   UNL A   1      33.877  25.406  23.395  1.00  0.00     0.052 A 
ATOM     10  C   UNL A   1      33.993  25.599  25.766  1.00  0.00     0.052 A 
ATOM     11  C   UNL A   1      34.397  24.949  24.606  1.00  0.00     0.124 A 
BRANCH  11  12
ATOM     12  N   UNL A   1      35.353  23.929  24.584  1.00  0.00    -0.244 N 
ATOM     13  C   UNL A   1      35.077  22.672  24.667  1.00  0.00     0.305 C 
ATOM     14  H   UNL A   1      36.299  24.188  24.501  1.00  0.00     0.311 HD
ATOM     15  N   UNL A   1      36.164  21.833  24.687  1.00  0.00    -0.069 NA
ATOM     16  C   UNL A   1      33.809  21.964  24.783  1.00  0.00     0.159 C 
ATOM     17  C   UNL A   1      36.073  20.579  25.001  1.00  0.00     0.372 C 
ATOM     18  C   UNL A   1      33.854  20.583  25.187  1.00  0.00     0.302 C 
ATOM     19  C   UNL A   1      32.500  22.111  24.638  1.00  0.00     0.177 C 
ATOM     20  N   UNL A   1      34.928  19.898  25.321  1.00  0.00    -0.245 N 
ATOM     21  N   UNL A   1      32.579  20.105  25.377  1.00  0.00     0.010 NA
ATOM     22  N   UNL A   1      31.779  21.011  25.015  1.00  0.00    -0.081 NA
ATOM     23  H   UNL A   1      34.932  18.963  25.628  1.00  0.00     0.266 HD
ENDBRANCH  11  12
ENDBRANCH   4   6
ENDBRANCH   3   4
ENDBRANCH   2   3
ENDBRANCH   1   2
BRANCH   1  24
ATOM     24  O   UNL A   1      32.717  31.078  27.162  1.00  0.00    -0.458 OA
BRANCH  24  25
ATOM     25  C   UNL A   1      33.480  32.120  27.591  1.00  0.00     0.338 C 
ATOM     26  O   UNL A   1      33.122  33.273  27.705  1.00  0.00    -0.246 OA
BRANCH  25  27
ATOM     27  C   UNL A   1      34.827  31.654  28.016  1.00  0.00     0.060 A 
ATOM     28  C   UNL A   1      34.980  30.288  28.286  1.00  0.00     0.016 A 
ATOM     29  C   UNL A   1      35.924  32.512  28.150  1.00  0.00     0.016 A 
ATOM     30  C   UNL A   1      36.208  29.783  28.727  1.00  0.00     0.010 A 
ATOM     31  C   UNL A   1      37.160  32.002  28.580  1.00  0.00     0.010 A 
ATOM     32  C   UNL A   1      37.302  30.640  28.912  1.00  0.00    -0.014 A 
BRANCH  32  33
ATOM     33  C   UNL A   1      38.511  30.140  29.625  1.00  0.00     0.031 A 
ATOM     34  C   UNL A   1      38.772  30.625  31.027  1.00  0.00     0.074 A 
ATOM     35  C   UNL A   1      39.343  29.225  29.089  1.00  0.00     0.049 A 
ATOM     36  N   UNL A   1      39.676  30.231  31.890  1.00  0.00    -0.248 NA
ATOM     37  C   UNL A   1      37.888  31.688  31.530  1.00  0.00     0.031 C 
ATOM     38  C   UNL A   1      39.214  28.624  27.766  1.00  0.00     0.029 A 
ATOM     39  N   UNL A   1      40.471  28.634  29.610  1.00  0.00    -0.354 N 
ATOM     40  C   UNL A   1      39.450  30.975  33.039  1.00  0.00     0.074 A 
ATOM     41  C   UNL A   1      38.374  31.896  32.742  1.00  0.00     0.031 C 
ATOM     42  C   UNL A   1      40.237  27.776  27.562  1.00  0.00     0.029 A 
ATOM     43  C   UNL A   1      41.082  27.749  28.755  1.00  0.00     0.049 A 
ATOM     44  H   UNL A   1      40.811  28.827  30.514  1.00  0.00     0.167 HD
ATOM     45  C   UNL A   1      40.051  30.881  34.249  1.00  0.00     0.037 A 
ATOM     46  C   UNL A   1      42.178  26.982  28.919  1.00  0.00     0.037 A 
ATOM     47  C   UNL A   1      41.129  29.980  34.562  1.00  0.00     0.049 A 
ATOM     48  C   UNL A   1      42.887  26.953  30.250  1.00  0.00     0.074 A 
ATOM     49  C   UNL A   1      41.771  29.794  35.774  1.00  0.00     0.029 A 
ATOM     50  N   UNL A   1      41.737  29.129  33.654  1.00  0.00    -0.354 N 
ATOM     51  N   UNL A   1      42.596  27.584  31.360  1.00  0.00    -0.248 NA
ATOM     52  C   UNL A   1      44.059  26.070  30.356  1.00  0.00     0.031 C 
ATOM     53  C   UNL A   1      42.809  28.875  35.585  1.00  0.00     0.029 A 
ATOM     54  C   UNL A   1      42.769  28.439  34.271  1.00  0.00     0.049 A 
ATOM     55  H   UNL A   1      41.474  29.029  32.710  1.00  0.00     0.167 HD
ATOM     56  C   UNL A   1      43.505  27.128  32.310  1.00  0.00     0.074 A 
ATOM     57  C   UNL A   1      44.361  26.170  31.643  1.00  0.00     0.031 C 
ATOM     58  C   UNL A   1      43.607  27.466  33.619  1.00  0.00     0.037 A 
BRANCH  45  59
ATOM     59  C   UNL A   1      39.553  31.791  35.332  1.00  0.00     0.064 A 
ATOM     60  C   UNL A   1      39.997  33.119  35.437  1.00  0.00     0.173 A 
ATOM     61  C   UNL A   1      38.608  31.337  36.263  1.00  0.00     0.173 A 
ATOM     62  F   UNL A   1      40.911  33.595  34.579  1.00  0.00    -0.203 F 
ATOM     63  C   UNL A   1      39.537  33.948  36.455  1.00  0.00     0.198 A 
ATOM     64  C   UNL A   1      38.126  32.180  37.261  1.00  0.00     0.198 A 
ATOM     65  F   UNL A   1      38.150  30.078  36.204  1.00  0.00    -0.203 F 
ATOM     66  F   UNL A   1      40.017  35.194  36.570  1.00  0.00    -0.200 F 
ATOM     67  C   UNL A   1      38.597  33.480  37.362  1.00  0.00     0.200 A 
ATOM     68  F   UNL A   1      37.210  31.731  38.128  1.00  0.00    -0.200 F 
ATOM     69  F   UNL A   1      38.153  34.281  38.340  1.00  0.00    -0.200 F 
ENDBRANCH  45  59
BRANCH  46  70
ATOM     70  C   UNL A   1      42.661  26.123  27.804  1.00  0.00     0.064 A 
ATOM     71  C   UNL A   1      43.652  26.572  26.919  1.00  0.00     0.173 A 
ATOM     72  C   UNL A   1      42.095  24.862  27.567  1.00  0.00     0.173 A 
ATOM     73  F   UNL A   1      44.200  27.784  27.087  1.00  0.00    -0.203 F 
ATOM     74  C   UNL A   1      44.035  25.806  25.820  1.00  0.00     0.198 A 
ATOM     75  C   UNL A   1      42.500  24.085  26.483  1.00  0.00     0.198 A 
ATOM     76  F   UNL A   1      41.138  24.394  28.380  1.00  0.00    -0.203 F 
ATOM     77  F   UNL A   1      44.937  26.287  24.953  1.00  0.00    -0.200 F 
ATOM     78  C   UNL A   1      43.461  24.563  25.604  1.00  0.00     0.200 A 
ATOM     79  F   UNL A   1      41.941  22.885  26.274  1.00  0.00    -0.200 F 
ATOM     80  F   UNL A   1      43.819  23.834  24.538  1.00  0.00    -0.200 F 
ENDBRANCH  46  70
BRANCH  58  81
ATOM     81  C   UNL A   1      44.634  26.746  34.451  1.00  0.00     0.064 A 
ATOM     82  C   UNL A   1      45.933  27.244  34.633  1.00  0.00     0.173 A 
ATOM     83  C   UNL A   1      44.295  25.551  35.109  1.00  0.00     0.173 A 
ATOM     84  F   UNL A   1      46.314  28.377  34.023  1.00  0.00    -0.203 F 
ATOM     85  C   UNL A   1      46.864  26.555  35.409  1.00  0.00     0.198 A 
ATOM     86  C   UNL A   1      45.217  24.884  35.911  1.00  0.00     0.198 A 
ATOM     87  F   UNL A   1      43.065  25.033  34.980  1.00  0.00    -0.203 F 
ATOM     88  F   UNL A   1      48.115  27.021  35.519  1.00  0.00    -0.200 F 
ATOM     89  C   UNL A   1      46.504  25.380  36.052  1.00  0.00     0.200 A 
ATOM     90  F   UNL A   1      44.860  23.759  36.546  1.00  0.00    -0.200 F 
ATOM     91  F   UNL A   1      47.398  24.723  36.802  1.00  0.00    -0.200 F 
ENDBRANCH  58  81
ENDBRANCH  32  33
ENDBRANCH  25  27
ENDBRANCH  24  25
ENDBRANCH   1  24
TORSDOF 12
ENDMDL
MODEL 3
REMARK VINA RESULT:     -12.5      0.296      1.716
REMARK SMILES O=C(OCCOC(=O)c1ccc(-c2c3nc(c(-c4c(F)c(F)c(F)c(F)c4F)c4ccc([nH]4)c(-c4c(F)c(F)c(F)c(F)c4F)c4nc(c(-c5c(F)c(F)c(F)c(F)c5F)c5ccc2[nH]5)C=C4)C=C3)cc1)c1ccc(/[NH+]=C2/N=C[NH+]=C3N=NC=C32)cc1
REMARK SMILES IDX 5 1 4 2 3 3 2 4 1 5 72 6 73 7 87 8 74 9 86 10 75 11 76 12
REMARK SMILES IDX 77 13 78 15 85 16 79 17 81 18 84 19 80 20 82 21 83 22 6 24
REMARK SMILES IDX 7 25 8 26 9 27 10 28 71 29 11 30 70 31 12 32 13 33 14 34
REMARK SMILES IDX 64 35 15 36 69 37 63 38 65 39 16 40 68 41 62 42 61 43 17 45
REMARK SMILES IDX 49 46 29 47 48 48 30 49 33 50 47 51 66 52 31 53 32 54 46 56
REMARK SMILES IDX 67 57 34 58 18 59 19 60 27 61 20 62 21 63 25 64 28 65 22 66
REMARK SMILES IDX 23 67 26 68 24 69 50 70 51 71 59 72 52 73 53 74 57 75 60 76
REMARK SMILES IDX 54 77 55 78 58 79 56 80 35 81 36 82 44 83 37 84 38 85 42 86
REMARK SMILES IDX 45 87 39 88 40 89 43 90 41 91
REMARK H PARENT 76 14 80 23 65 44 33 55
REMARK Flexibility Score: inf
ROOT
ATOM      1  C   UNL A   1      32.351  33.292  26.955  1.00  0.00     0.275 C 
ENDROOT
BRANCH   1   2
ATOM      2  C   UNL A   1      31.402  32.141  26.625  1.00  0.00     0.275 C 
BRANCH   2   3
ATOM      3  O   UNL A   1      31.799  30.863  27.154  1.00  0.00    -0.458 OA
BRANCH   3   4
ATOM      4  C   UNL A   1      32.915  30.134  26.935  1.00  0.00     0.338 C 
ATOM      5  O   UNL A   1      34.006  30.704  26.908  1.00  0.00    -0.246 OA
BRANCH   4   6
ATOM      6  C   UNL A   1      32.910  28.676  26.612  1.00  0.00     0.060 A 
ATOM      7  C   UNL A   1      34.024  27.870  26.380  1.00  0.00     0.020 A 
ATOM      8  C   UNL A   1      31.642  28.086  26.503  1.00  0.00     0.020 A 
ATOM      9  C   UNL A   1      33.870  26.507  26.069  1.00  0.00     0.052 A 
ATOM     10  C   UNL A   1      31.503  26.724  26.227  1.00  0.00     0.052 A 
ATOM     11  C   UNL A   1      32.607  25.927  25.949  1.00  0.00     0.124 A 
BRANCH  11  12
ATOM     12  N   UNL A   1      32.520  24.566  25.642  1.00  0.00    -0.244 N 
ATOM     13  C   UNL A   1      32.720  24.071  24.468  1.00  0.00     0.305 C 
ATOM     14  H   UNL A   1      32.290  23.945  26.371  1.00  0.00     0.311 HD
ATOM     15  N   UNL A   1      32.527  22.715  24.363  1.00  0.00    -0.069 NA
ATOM     16  C   UNL A   1      33.081  24.695  23.203  1.00  0.00     0.159 C 
ATOM     17  C   UNL A   1      32.456  22.106  23.221  1.00  0.00     0.372 C 
ATOM     18  C   UNL A   1      32.906  23.916  22.004  1.00  0.00     0.302 C 
ATOM     19  C   UNL A   1      33.565  25.810  22.674  1.00  0.00     0.177 C 
ATOM     20  N   UNL A   1      32.585  22.676  21.982  1.00  0.00    -0.245 N 
ATOM     21  N   UNL A   1      33.163  24.690  20.897  1.00  0.00     0.010 NA
ATOM     22  N   UNL A   1      33.587  25.805  21.306  1.00  0.00    -0.081 NA
ATOM     23  H   UNL A   1      32.443  22.175  21.146  1.00  0.00     0.266 HD
ENDBRANCH  11  12
ENDBRANCH   4   6
ENDBRANCH   3   4
ENDBRANCH   2   3
ENDBRANCH   1   2
BRANCH   1  24
ATOM     24  O   UNL A   1      32.307  33.672  28.340  1.00  0.00    -0.458 OA
BRANCH  24  25
ATOM     25  C   UNL A   1      33.314  34.500  28.733  1.00  0.00     0.338 C 
ATOM     26  O   UNL A   1      33.230  35.697  28.912  1.00  0.00    -0.246 OA
BRANCH  25  27
ATOM     27  C   UNL A   1      34.553  33.731  29.025  1.00  0.00     0.060 A 
ATOM     28  C   UNL A   1      34.403  32.474  29.626  1.00  0.00     0.016 A 
ATOM     29  C   UNL A   1      35.833  34.205  28.725  1.00  0.00     0.016 A 
ATOM     30  C   UNL A   1      35.526  31.710  29.966  1.00  0.00     0.010 A 
ATOM     31  C   UNL A   1      36.959  33.432  29.054  1.00  0.00     0.010 A 
ATOM     32  C   UNL A   1      36.816  32.196  29.715  1.00  0.00    -0.014 A 
BRANCH  32  33
ATOM     33  C   UNL A   1      37.989  31.499  30.314  1.00  0.00     0.031 A 
ATOM     34  C   UNL A   1      38.353  31.801  31.744  1.00  0.00     0.074 A 
ATOM     35  C   UNL A   1      38.696  30.565  29.648  1.00  0.00     0.049 A 
ATOM     36  N   UNL A   1      39.240  31.224  32.517  1.00  0.00    -0.248 NA
ATOM     37  C   UNL A   1      37.609  32.891  32.395  1.00  0.00     0.031 C 
ATOM     38  C   UNL A   1      38.453  30.125  28.278  1.00  0.00     0.029 A 
ATOM     39  N   UNL A   1      39.772  29.807  30.050  1.00  0.00    -0.354 N 
ATOM     40  C   UNL A   1      39.139  31.861  33.746  1.00  0.00     0.074 A 
ATOM     41  C   UNL A   1      38.160  32.915  33.598  1.00  0.00     0.031 C 
ATOM     42  C   UNL A   1      39.370  29.202  27.938  1.00  0.00     0.029 A 
ATOM     43  C   UNL A   1      40.251  28.960  29.080  1.00  0.00     0.049 A 
ATOM     44  H   UNL A   1      40.164  29.866  30.952  1.00  0.00     0.167 HD
ATOM     45  C   UNL A   1      39.771  31.576  34.910  1.00  0.00     0.037 A 
ATOM     46  C   UNL A   1      41.262  28.070  29.111  1.00  0.00     0.037 A 
ATOM     47  C   UNL A   1      40.755  30.539  35.077  1.00  0.00     0.049 A 
ATOM     48  C   UNL A   1      42.013  27.824  30.397  1.00  0.00     0.074 A 
ATOM     49  C   UNL A   1      41.418  30.159  36.231  1.00  0.00     0.029 A 
ATOM     50  N   UNL A   1      41.233  29.731  34.057  1.00  0.00    -0.354 N 
ATOM     51  N   UNL A   1      41.833  28.359  31.579  1.00  0.00    -0.248 NA
ATOM     52  C   UNL A   1      43.084  26.817  30.355  1.00  0.00     0.031 C 
ATOM     53  C   UNL A   1      42.341  29.162  35.898  1.00  0.00     0.029 A 
ATOM     54  C   UNL A   1      42.206  28.875  34.549  1.00  0.00     0.049 A 
ATOM     55  H   UNL A   1      40.926  29.761  33.122  1.00  0.00     0.167 HD
ATOM     56  C   UNL A   1      42.722  27.712  32.431  1.00  0.00     0.074 A 
ATOM     57  C   UNL A   1      43.442  26.747  31.630  1.00  0.00     0.031 C 
ATOM     58  C   UNL A   1      42.909  27.896  33.762  1.00  0.00     0.037 A 
BRANCH  45  59
ATOM     59  C   UNL A   1      39.415  32.411  36.103  1.00  0.00     0.064 A 
ATOM     60  C   UNL A   1      40.049  33.639  36.355  1.00  0.00     0.173 A 
ATOM     61  C   UNL A   1      38.418  31.991  36.993  1.00  0.00     0.173 A 
ATOM     62  F   UNL A   1      41.021  34.077  35.541  1.00  0.00    -0.203 F 
ATOM     63  C   UNL A   1      39.719  34.397  37.473  1.00  0.00     0.198 A 
ATOM     64  C   UNL A   1      38.068  32.768  38.094  1.00  0.00     0.198 A 
ATOM     65  F   UNL A   1      37.780  30.828  36.795  1.00  0.00    -0.203 F 
ATOM     66  F   UNL A   1      40.377  35.537  37.725  1.00  0.00    -0.200 F 
ATOM     67  C   UNL A   1      38.724  33.965  38.339  1.00  0.00     0.200 A 
ATOM     68  F   UNL A   1      37.099  32.357  38.921  1.00  0.00    -0.200 F 
ATOM     69  F   UNL A   1      38.406  34.698  39.414  1.00  0.00    -0.200 F 
ENDBRANCH  45  59
BRANCH  46  70
ATOM     70  C   UNL A   1      41.607  27.289  27.893  1.00  0.00     0.064 A 
ATOM     71  C   UNL A   1      41.046  26.025  27.658  1.00  0.00     0.173 A 
ATOM     72  C   UNL A   1      42.550  27.766  26.972  1.00  0.00     0.173 A 
ATOM     73  F   UNL A   1      40.162  25.513  28.528  1.00  0.00    -0.203 F 
ATOM     74  C   UNL A   1      41.441  25.254  26.567  1.00  0.00     0.198 A 
ATOM     75  C   UNL A   1      42.923  27.006  25.865  1.00  0.00     0.198 A 
ATOM     76  F   UNL A   1      43.120  28.965  27.158  1.00  0.00    -0.203 F 
ATOM     77  F   UNL A   1      40.938  24.023  26.403  1.00  0.00    -0.200 F 
ATOM     78  C   UNL A   1      42.377  25.746  25.670  1.00  0.00     0.200 A 
ATOM     79  F   UNL A   1      43.831  27.481  25.001  1.00  0.00    -0.200 F 
ATOM     80  F   UNL A   1      42.768  24.997  24.629  1.00  0.00    -0.200 F 
ENDBRANCH  46  70
BRANCH  58  81
ATOM     81  C   UNL A   1      43.880  26.988  34.466  1.00  0.00     0.064 A 
ATOM     82  C   UNL A   1      43.498  25.742  34.987  1.00  0.00     0.173 A 
ATOM     83  C   UNL A   1      45.230  27.359  34.588  1.00  0.00     0.173 A 
ATOM     84  F   UNL A   1      42.221  25.340  34.907  1.00  0.00    -0.203 F 
ATOM     85  C   UNL A   1      44.420  24.922  35.636  1.00  0.00     0.198 A 
ATOM     86  C   UNL A   1      46.155  26.521  35.205  1.00  0.00     0.198 A 
ATOM     87  F   UNL A   1      45.656  28.533  34.100  1.00  0.00    -0.203 F 
ATOM     88  F   UNL A   1      44.017  23.764  36.177  1.00  0.00    -0.200 F 
ATOM     89  C   UNL A   1      45.747  25.309  35.739  1.00  0.00     0.200 A 
ATOM     90  F   UNL A   1      47.441  26.890  35.286  1.00  0.00    -0.200 F 
ATOM     91  F   UNL A   1      46.633  24.516  36.357  1.00  0.00    -0.200 F 
ENDBRANCH  58  81
ENDBRANCH  32  33
ENDBRANCH  25  27
ENDBRANCH  24  25
ENDBRANCH   1  24
TORSDOF 12
ENDMDL
