MODEL 1
REMARK VINA RESULT:     -11.0      0.000      0.000
REMARK SMILES O=C(OCCOC(=O)c1cc(-n2ccnc2)ccn1)c1ccc(-c2c3nc(c(-c4c(F)c(F)c(F)c(F)c4F)c4ccc([nH]4)c(-c4c(F)c(F)c(F)c(F)c4F)c4nc(c(-c5c(F)c(F)c(F)c(F)c5F)c5ccc2[nH]5)C=C4)C=C3)cc1
REMARK SMILES IDX 4 1 3 2 2 3 1 4 20 5 21 6 82 7 22 8 81 9 23 10 24 11 25 12
REMARK SMILES IDX 75 13 26 14 80 15 74 16 76 17 27 18 79 19 73 20 72 21 28 23
REMARK SMILES IDX 60 24 40 25 59 26 41 27 44 28 58 29 77 30 42 31 43 32 57 34
REMARK SMILES IDX 78 35 45 36 29 37 30 38 38 39 31 40 32 41 36 42 39 43 33 44
REMARK SMILES IDX 34 45 37 46 35 47 61 48 62 49 70 50 63 51 64 52 68 53 71 54
REMARK SMILES IDX 65 55 66 56 69 57 67 58 46 59 47 60 55 61 48 62 49 63 53 64
REMARK SMILES IDX 56 65 50 66 51 67 54 68 52 69 5 70 6 71 7 72 8 73 9 74 10 75
REMARK SMILES IDX 19 76 11 77 18 78 17 79 12 80 13 81 16 82 14 83 15 84
REMARK H PARENT 76 22 44 33
REMARK Flexibility Score: inf
ROOT
ATOM      1  C   UNL A   1      41.812  19.316  26.158  1.00  0.00     0.275 C 
ENDROOT
BRANCH   1   2
ATOM      2  O   UNL A   1      41.762  20.661  26.677  1.00  0.00    -0.458 OA
BRANCH   2   3
ATOM      3  C   UNL A   1      40.640  21.407  26.551  1.00  0.00     0.338 C 
ATOM      4  O   UNL A   1      39.549  20.932  26.278  1.00  0.00    -0.246 OA
BRANCH   3   5
ATOM      5  C   UNL A   1      40.791  22.772  27.116  1.00  0.00     0.060 A 
ATOM      6  C   UNL A   1      40.040  23.871  26.685  1.00  0.00     0.016 A 
ATOM      7  C   UNL A   1      41.767  22.944  28.107  1.00  0.00     0.016 A 
ATOM      8  C   UNL A   1      40.343  25.142  27.146  1.00  0.00     0.010 A 
ATOM      9  C   UNL A   1      42.067  24.211  28.578  1.00  0.00     0.010 A 
ATOM     10  C   UNL A   1      41.390  25.312  28.055  1.00  0.00    -0.014 A 
BRANCH  10  11
ATOM     11  C   UNL A   1      41.633  26.647  28.589  1.00  0.00     0.031 A 
ATOM     12  C   UNL A   1      42.879  27.267  28.061  1.00  0.00     0.074 A 
ATOM     13  C   UNL A   1      40.732  27.299  29.355  1.00  0.00     0.049 A 
ATOM     14  N   UNL A   1      43.921  27.644  28.724  1.00  0.00    -0.248 NA
ATOM     15  C   UNL A   1      43.054  27.335  26.599  1.00  0.00     0.031 C 
ATOM     16  C   UNL A   1      39.383  26.852  29.708  1.00  0.00     0.029 A 
ATOM     17  N   UNL A   1      40.785  28.549  29.902  1.00  0.00    -0.354 N 
ATOM     18  C   UNL A   1      44.786  28.206  27.786  1.00  0.00     0.074 A 
ATOM     19  C   UNL A   1      44.295  27.812  26.495  1.00  0.00     0.031 C 
ATOM     20  C   UNL A   1      38.673  27.896  30.192  1.00  0.00     0.029 A 
ATOM     21  C   UNL A   1      39.547  29.049  30.306  1.00  0.00     0.049 A 
ATOM     22  H   UNL A   1      41.624  29.053  30.002  1.00  0.00     0.167 HD
ATOM     23  C   UNL A   1      45.637  29.204  28.158  1.00  0.00     0.037 A 
ATOM     24  C   UNL A   1      39.256  30.332  30.650  1.00  0.00     0.037 A 
ATOM     25  C   UNL A   1      45.866  29.167  29.584  1.00  0.00     0.049 A 
ATOM     26  C   UNL A   1      40.536  31.007  30.972  1.00  0.00     0.074 A 
ATOM     27  C   UNL A   1      46.351  28.228  30.474  1.00  0.00     0.029 A 
ATOM     28  N   UNL A   1      45.220  30.102  30.351  1.00  0.00    -0.354 N 
ATOM     29  N   UNL A   1      41.260  30.722  32.018  1.00  0.00    -0.248 NA
ATOM     30  C   UNL A   1      41.239  31.666  29.883  1.00  0.00     0.031 C 
ATOM     31  C   UNL A   1      45.565  28.394  31.654  1.00  0.00     0.029 A 
ATOM     32  C   UNL A   1      44.707  29.474  31.452  1.00  0.00     0.049 A 
ATOM     33  H   UNL A   1      45.140  31.062  30.146  1.00  0.00     0.167 HD
ATOM     34  C   UNL A   1      42.562  30.724  31.544  1.00  0.00     0.074 A 
ATOM     35  C   UNL A   1      42.494  31.398  30.248  1.00  0.00     0.031 C 
ATOM     36  C   UNL A   1      43.503  29.914  32.112  1.00  0.00     0.037 A 
BRANCH  23  37
ATOM     37  C   UNL A   1      45.835  30.478  27.347  1.00  0.00     0.064 A 
ATOM     38  C   UNL A   1      47.147  30.980  27.205  1.00  0.00     0.173 A 
ATOM     39  C   UNL A   1      44.807  31.392  27.024  1.00  0.00     0.173 A 
ATOM     40  F   UNL A   1      48.209  30.205  27.472  1.00  0.00    -0.203 F 
ATOM     41  C   UNL A   1      47.399  32.323  26.911  1.00  0.00     0.198 A 
ATOM     42  C   UNL A   1      45.066  32.719  26.686  1.00  0.00     0.198 A 
ATOM     43  F   UNL A   1      43.510  31.088  27.116  1.00  0.00    -0.203 F 
ATOM     44  F   UNL A   1      48.656  32.787  26.951  1.00  0.00    -0.200 F 
ATOM     45  C   UNL A   1      46.357  33.196  26.670  1.00  0.00     0.200 A 
ATOM     46  F   UNL A   1      44.037  33.551  26.464  1.00  0.00    -0.200 F 
ATOM     47  F   UNL A   1      46.589  34.500  26.470  1.00  0.00    -0.200 F 
ENDBRANCH  23  37
BRANCH  24  48
ATOM     48  C   UNL A   1      38.009  31.108  30.417  1.00  0.00     0.064 A 
ATOM     49  C   UNL A   1      37.465  31.241  29.125  1.00  0.00     0.173 A 
ATOM     50  C   UNL A   1      37.168  31.482  31.482  1.00  0.00     0.173 A 
ATOM     51  F   UNL A   1      38.174  30.862  28.051  1.00  0.00    -0.203 F 
ATOM     52  C   UNL A   1      36.155  31.691  28.917  1.00  0.00     0.198 A 
ATOM     53  C   UNL A   1      35.864  31.937  31.275  1.00  0.00     0.198 A 
ATOM     54  F   UNL A   1      37.556  31.316  32.754  1.00  0.00    -0.203 F 
ATOM     55  F   UNL A   1      35.651  31.737  27.676  1.00  0.00    -0.200 F 
ATOM     56  C   UNL A   1      35.352  32.028  29.994  1.00  0.00     0.200 A 
ATOM     57  F   UNL A   1      35.084  32.221  32.327  1.00  0.00    -0.200 F 
ATOM     58  F   UNL A   1      34.077  32.395  29.802  1.00  0.00    -0.200 F 
ENDBRANCH  24  48
BRANCH  36  59
ATOM     59  C   UNL A   1      43.176  29.280  33.432  1.00  0.00     0.064 A 
ATOM     60  C   UNL A   1      43.357  29.897  34.683  1.00  0.00     0.173 A 
ATOM     61  C   UNL A   1      42.546  28.028  33.417  1.00  0.00     0.173 A 
ATOM     62  F   UNL A   1      43.857  31.137  34.776  1.00  0.00    -0.203 F 
ATOM     63  C   UNL A   1      42.977  29.260  35.863  1.00  0.00     0.198 A 
ATOM     64  C   UNL A   1      42.130  27.414  34.593  1.00  0.00     0.198 A 
ATOM     65  F   UNL A   1      42.297  27.417  32.249  1.00  0.00    -0.203 F 
ATOM     66  F   UNL A   1      43.181  29.859  37.046  1.00  0.00    -0.200 F 
ATOM     67  C   UNL A   1      42.358  28.023  35.817  1.00  0.00     0.200 A 
ATOM     68  F   UNL A   1      41.485  26.240  34.537  1.00  0.00    -0.200 F 
ATOM     69  F   UNL A   1      41.958  27.425  36.948  1.00  0.00    -0.200 F 
ENDBRANCH  36  59
ENDBRANCH  10  11
ENDBRANCH   3   5
ENDBRANCH   2   3
ENDBRANCH   1   2
BRANCH   1  70
ATOM     70  C   UNL A   1      43.183  18.777  25.756  1.00  0.00     0.275 C 
BRANCH  70  71
ATOM     71  O   UNL A   1      43.717  19.543  24.668  1.00  0.00    -0.457 OA
BRANCH  71  72
ATOM     72  C   UNL A   1      44.934  20.116  24.900  1.00  0.00     0.357 C 
ATOM     73  O   UNL A   1      45.995  19.564  25.077  1.00  0.00    -0.244 OA
BRANCH  72  74
ATOM     74  C   UNL A   1      44.699  21.568  25.051  1.00  0.00     0.150 A 
ATOM     75  C   UNL A   1      45.482  22.244  25.964  1.00  0.00     0.062 A 
ATOM     76  N   UNL A   1      43.696  22.136  24.335  1.00  0.00    -0.249 NA
ATOM     77  C   UNL A   1      45.179  23.583  26.193  1.00  0.00     0.050 A 
ATOM     78  C   UNL A   1      43.458  23.444  24.557  1.00  0.00     0.114 A 
ATOM     79  C   UNL A   1      44.138  24.201  25.499  1.00  0.00     0.047 A 
BRANCH  77  80
ATOM     80  N   UNL A   1      45.957  24.304  27.116  1.00  0.00    -0.306 N 
ATOM     81  C   UNL A   1      47.072  25.053  26.824  1.00  0.00     0.113 A 
ATOM     82  C   UNL A   1      45.770  24.397  28.473  1.00  0.00     0.204 A 
ATOM     83  C   UNL A   1      47.482  25.585  28.021  1.00  0.00     0.131 A 
ATOM     84  N   UNL A   1      46.678  25.158  29.044  1.00  0.00    -0.245 NA
ENDBRANCH  77  80
ENDBRANCH  72  74
ENDBRANCH  71  72
ENDBRANCH  70  71
ENDBRANCH   1  70
TORSDOF 12
ENDMDL
MODEL 2
REMARK VINA RESULT:     -10.8      4.547     11.199
REMARK SMILES O=C(OCCOC(=O)c1cc(-n2ccnc2)ccn1)c1ccc(-c2c3nc(c(-c4c(F)c(F)c(F)c(F)c4F)c4ccc([nH]4)c(-c4c(F)c(F)c(F)c(F)c4F)c4nc(c(-c5c(F)c(F)c(F)c(F)c5F)c5ccc2[nH]5)C=C4)C=C3)cc1
REMARK SMILES IDX 4 1 3 2 2 3 1 4 20 5 21 6 82 7 22 8 81 9 23 10 24 11 25 12
REMARK SMILES IDX 75 13 26 14 80 15 74 16 76 17 27 18 79 19 73 20 72 21 28 23
REMARK SMILES IDX 60 24 40 25 59 26 41 27 44 28 58 29 77 30 42 31 43 32 57 34
REMARK SMILES IDX 78 35 45 36 29 37 30 38 38 39 31 40 32 41 36 42 39 43 33 44
REMARK SMILES IDX 34 45 37 46 35 47 61 48 62 49 70 50 63 51 64 52 68 53 71 54
REMARK SMILES IDX 65 55 66 56 69 57 67 58 46 59 47 60 55 61 48 62 49 63 53 64
REMARK SMILES IDX 56 65 50 66 51 67 54 68 52 69 5 70 6 71 7 72 8 73 9 74 10 75
REMARK SMILES IDX 19 76 11 77 18 78 17 79 12 80 13 81 16 82 14 83 15 84
REMARK H PARENT 76 22 44 33
REMARK Flexibility Score: inf
ROOT
ATOM      1  C   UNL A   1      34.502  33.597  27.991  1.00  0.00     0.275 C 
ENDROOT
BRANCH   1   2
ATOM      2  O   UNL A   1      34.744  32.432  28.805  1.00  0.00    -0.458 OA
BRANCH   2   3
ATOM      3  C   UNL A   1      35.000  31.232  28.234  1.00  0.00     0.338 C 
ATOM      4  O   UNL A   1      34.309  30.752  27.349  1.00  0.00    -0.246 OA
BRANCH   3   5
ATOM      5  C   UNL A   1      36.370  30.738  28.524  1.00  0.00     0.060 A 
ATOM      6  C   UNL A   1      37.373  31.535  29.086  1.00  0.00     0.016 A 
ATOM      7  C   UNL A   1      36.652  29.409  28.177  1.00  0.00     0.016 A 
ATOM      8  C   UNL A   1      38.669  31.053  29.183  1.00  0.00     0.010 A 
ATOM      9  C   UNL A   1      37.944  28.921  28.281  1.00  0.00     0.010 A 
ATOM     10  C   UNL A   1      38.958  29.763  28.734  1.00  0.00    -0.014 A 
BRANCH  10  11
ATOM     11  C   UNL A   1      40.309  29.250  28.926  1.00  0.00     0.031 A 
ATOM     12  C   UNL A   1      40.676  29.100  30.361  1.00  0.00     0.074 A 
ATOM     13  C   UNL A   1      41.073  28.811  27.903  1.00  0.00     0.049 A 
ATOM     14  N   UNL A   1      41.630  29.689  31.002  1.00  0.00    -0.248 NA
ATOM     15  C   UNL A   1      39.776  28.320  31.230  1.00  0.00     0.031 C 
ATOM     16  C   UNL A   1      40.685  28.695  26.495  1.00  0.00     0.029 A 
ATOM     17  N   UNL A   1      42.329  28.276  27.911  1.00  0.00    -0.354 N 
ATOM     18  C   UNL A   1      41.591  29.177  32.298  1.00  0.00     0.074 A 
ATOM     19  C   UNL A   1      40.329  28.505  32.429  1.00  0.00     0.031 C 
ATOM     20  C   UNL A   1      41.577  27.916  25.843  1.00  0.00     0.029 A 
ATOM     21  C   UNL A   1      42.664  27.585  26.746  1.00  0.00     0.049 A 
ATOM     22  H   UNL A   1      42.945  28.369  28.673  1.00  0.00     0.167 HD
ATOM     23  C   UNL A   1      42.739  29.086  33.029  1.00  0.00     0.037 A 
ATOM     24  C   UNL A   1      43.727  26.756  26.564  1.00  0.00     0.037 A 
ATOM     25  C   UNL A   1      43.729  30.011  32.529  1.00  0.00     0.049 A 
ATOM     26  C   UNL A   1      44.714  27.058  27.628  1.00  0.00     0.074 A 
ATOM     27  C   UNL A   1      43.786  31.379  32.345  1.00  0.00     0.029 A 
ATOM     28  N   UNL A   1      44.752  29.495  31.775  1.00  0.00    -0.354 N 
ATOM     29  N   UNL A   1      45.389  28.170  27.691  1.00  0.00    -0.248 NA
ATOM     30  C   UNL A   1      44.603  26.319  28.875  1.00  0.00     0.031 C 
ATOM     31  C   UNL A   1      44.517  31.560  31.132  1.00  0.00     0.029 A 
ATOM     32  C   UNL A   1      44.936  30.306  30.691  1.00  0.00     0.049 A 
ATOM     33  H   UNL A   1      45.265  28.680  31.981  1.00  0.00     0.167 HD
ATOM     34  C   UNL A   1      45.374  28.505  29.035  1.00  0.00     0.074 A 
ATOM     35  C   UNL A   1      44.954  27.286  29.726  1.00  0.00     0.031 C 
ATOM     36  C   UNL A   1      45.410  29.814  29.420  1.00  0.00     0.037 A 
BRANCH  23  37
ATOM     37  C   UNL A   1      43.128  27.845  33.821  1.00  0.00     0.064 A 
ATOM     38  C   UNL A   1      43.442  28.000  35.189  1.00  0.00     0.173 A 
ATOM     39  C   UNL A   1      43.544  26.623  33.247  1.00  0.00     0.173 A 
ATOM     40  F   UNL A   1      43.090  29.113  35.851  1.00  0.00    -0.203 F 
ATOM     41  C   UNL A   1      44.235  27.077  35.877  1.00  0.00     0.198 A 
ATOM     42  C   UNL A   1      44.296  25.684  33.950  1.00  0.00     0.198 A 
ATOM     43  F   UNL A   1      43.342  26.319  31.962  1.00  0.00    -0.203 F 
ATOM     44  F   UNL A   1      44.643  27.350  37.123  1.00  0.00    -0.200 F 
ATOM     45  C   UNL A   1      44.677  25.927  35.250  1.00  0.00     0.200 A 
ATOM     46  F   UNL A   1      44.721  24.579  33.319  1.00  0.00    -0.200 F 
ATOM     47  F   UNL A   1      45.504  25.082  35.878  1.00  0.00    -0.200 F 
ENDBRANCH  23  37
BRANCH  24  48
ATOM     48  C   UNL A   1      43.821  25.515  25.749  1.00  0.00     0.064 A 
ATOM     49  C   UNL A   1      45.018  25.162  25.097  1.00  0.00     0.173 A 
ATOM     50  C   UNL A   1      42.843  24.507  25.833  1.00  0.00     0.173 A 
ATOM     51  F   UNL A   1      46.027  26.042  25.014  1.00  0.00    -0.203 F 
ATOM     52  C   UNL A   1      45.231  23.874  24.591  1.00  0.00     0.198 A 
ATOM     53  C   UNL A   1      43.052  23.224  25.321  1.00  0.00     0.198 A 
ATOM     54  F   UNL A   1      41.701  24.712  26.504  1.00  0.00    -0.203 F 
ATOM     55  F   UNL A   1      46.411  23.556  24.040  1.00  0.00    -0.200 F 
ATOM     56  C   UNL A   1      44.252  22.903  24.713  1.00  0.00     0.200 A 
ATOM     57  F   UNL A   1      42.112  22.283  25.482  1.00  0.00    -0.200 F 
ATOM     58  F   UNL A   1      44.478  21.652  24.289  1.00  0.00    -0.200 F 
ENDBRANCH  24  48
BRANCH  36  59
ATOM     59  C   UNL A   1      45.783  30.837  28.387  1.00  0.00     0.064 A 
ATOM     60  C   UNL A   1      44.881  31.427  27.483  1.00  0.00     0.173 A 
ATOM     61  C   UNL A   1      47.098  31.320  28.391  1.00  0.00     0.173 A 
ATOM     62  F   UNL A   1      43.582  31.095  27.486  1.00  0.00    -0.203 F 
ATOM     63  C   UNL A   1      45.297  32.412  26.588  1.00  0.00     0.198 A 
ATOM     64  C   UNL A   1      47.500  32.332  27.526  1.00  0.00     0.198 A 
ATOM     65  F   UNL A   1      47.988  30.834  29.270  1.00  0.00    -0.203 F 
ATOM     66  F   UNL A   1      44.424  32.943  25.719  1.00  0.00    -0.200 F 
ATOM     67  C   UNL A   1      46.604  32.867  26.615  1.00  0.00     0.200 A 
ATOM     68  F   UNL A   1      48.752  32.805  27.594  1.00  0.00    -0.200 F 
ATOM     69  F   UNL A   1      46.997  33.840  25.781  1.00  0.00    -0.200 F 
ENDBRANCH  36  59
ENDBRANCH  10  11
ENDBRANCH   3   5
ENDBRANCH   2   3
ENDBRANCH   1   2
BRANCH   1  70
ATOM     70  C   UNL A   1      33.075  34.140  27.962  1.00  0.00     0.275 C 
BRANCH  70  71
ATOM     71  O   UNL A   1      32.698  34.611  29.263  1.00  0.00    -0.457 OA
BRANCH  71  72
ATOM     72  C   UNL A   1      32.771  35.963  29.439  1.00  0.00     0.357 C 
ATOM     73  O   UNL A   1      32.554  36.832  28.626  1.00  0.00    -0.244 OA
BRANCH  72  74
ATOM     74  C   UNL A   1      33.322  36.187  30.792  1.00  0.00     0.150 A 
ATOM     75  C   UNL A   1      34.042  35.156  31.361  1.00  0.00     0.062 A 
ATOM     76  N   UNL A   1      33.040  37.358  31.416  1.00  0.00    -0.249 NA
ATOM     77  C   UNL A   1      34.456  35.322  32.679  1.00  0.00     0.050 A 
ATOM     78  C   UNL A   1      33.491  37.496  32.679  1.00  0.00     0.114 A 
ATOM     79  C   UNL A   1      34.165  36.500  33.369  1.00  0.00     0.047 A 
BRANCH  77  80
ATOM     80  N   UNL A   1      35.193  34.293  33.291  1.00  0.00    -0.306 N 
ATOM     81  C   UNL A   1      35.700  33.179  32.665  1.00  0.00     0.113 A 
ATOM     82  C   UNL A   1      35.540  34.187  34.615  1.00  0.00     0.204 A 
ATOM     83  C   UNL A   1      36.356  32.474  33.644  1.00  0.00     0.131 A 
ATOM     84  N   UNL A   1      36.235  33.098  34.857  1.00  0.00    -0.245 NA
ENDBRANCH  77  80
ENDBRANCH  72  74
ENDBRANCH  71  72
ENDBRANCH  70  71
ENDBRANCH   1  70
TORSDOF 12
ENDMDL
MODEL 3
REMARK VINA RESULT:     -10.7      0.487      1.749
REMARK SMILES O=C(OCCOC(=O)c1cc(-n2ccnc2)ccn1)c1ccc(-c2c3nc(c(-c4c(F)c(F)c(F)c(F)c4F)c4ccc([nH]4)c(-c4c(F)c(F)c(F)c(F)c4F)c4nc(c(-c5c(F)c(F)c(F)c(F)c5F)c5ccc2[nH]5)C=C4)C=C3)cc1
REMARK SMILES IDX 4 1 3 2 2 3 1 4 20 5 21 6 82 7 22 8 81 9 23 10 24 11 25 12
REMARK SMILES IDX 75 13 26 14 80 15 74 16 76 17 27 18 79 19 73 20 72 21 28 23
REMARK SMILES IDX 60 24 40 25 59 26 41 27 44 28 58 29 77 30 42 31 43 32 57 34
REMARK SMILES IDX 78 35 45 36 29 37 30 38 38 39 31 40 32 41 36 42 39 43 33 44
REMARK SMILES IDX 34 45 37 46 35 47 61 48 62 49 70 50 63 51 64 52 68 53 71 54
REMARK SMILES IDX 65 55 66 56 69 57 67 58 46 59 47 60 55 61 48 62 49 63 53 64
REMARK SMILES IDX 56 65 50 66 51 67 54 68 52 69 5 70 6 71 7 72 8 73 9 74 10 75
REMARK SMILES IDX 19 76 11 77 18 78 17 79 12 80 13 81 16 82 14 83 15 84
REMARK H PARENT 76 22 44 33
REMARK Flexibility Score: inf
ROOT
ATOM      1  C   UNL A   1      41.660  19.403  26.127  1.00  0.00     0.275 C 
ENDROOT
BRANCH   1   2
ATOM      2  O   UNL A   1      41.653  20.796  26.499  1.00  0.00    -0.458 OA
BRANCH   2   3
ATOM      3  C   UNL A   1      40.520  21.530  26.400  1.00  0.00     0.338 C 
ATOM      4  O   UNL A   1      39.429  21.044  26.143  1.00  0.00    -0.246 OA
BRANCH   3   5
ATOM      5  C   UNL A   1      40.664  22.891  26.975  1.00  0.00     0.060 A 
ATOM      6  C   UNL A   1      39.928  23.995  26.534  1.00  0.00     0.016 A 
ATOM      7  C   UNL A   1      41.618  23.053  27.989  1.00  0.00     0.016 A 
ATOM      8  C   UNL A   1      40.227  25.263  27.008  1.00  0.00     0.010 A 
ATOM      9  C   UNL A   1      41.914  24.317  28.473  1.00  0.00     0.010 A 
ATOM     10  C   UNL A   1      41.254  25.423  27.941  1.00  0.00    -0.014 A 
BRANCH  10  11
ATOM     11  C   UNL A   1      41.491  26.755  28.487  1.00  0.00     0.031 A 
ATOM     12  C   UNL A   1      42.723  27.393  27.950  1.00  0.00     0.074 A 
ATOM     13  C   UNL A   1      40.594  27.389  29.273  1.00  0.00     0.049 A 
ATOM     14  N   UNL A   1      43.771  27.773  28.603  1.00  0.00    -0.248 NA
ATOM     15  C   UNL A   1      42.878  27.479  26.486  1.00  0.00     0.031 C 
ATOM     16  C   UNL A   1      39.254  26.924  29.639  1.00  0.00     0.029 A 
ATOM     17  N   UNL A   1      40.642  28.632  29.834  1.00  0.00    -0.354 N 
ATOM     18  C   UNL A   1      44.617  28.354  27.661  1.00  0.00     0.074 A 
ATOM     19  C   UNL A   1      44.113  27.970  26.372  1.00  0.00     0.031 C 
ATOM     20  C   UNL A   1      38.540  27.956  30.144  1.00  0.00     0.029 A 
ATOM     21  C   UNL A   1      39.405  29.116  30.260  1.00  0.00     0.049 A 
ATOM     22  H   UNL A   1      41.477  29.144  29.929  1.00  0.00     0.167 HD
ATOM     23  C   UNL A   1      45.463  29.356  28.033  1.00  0.00     0.037 A 
ATOM     24  C   UNL A   1      39.106  30.392  30.623  1.00  0.00     0.037 A 
ATOM     25  C   UNL A   1      45.712  29.305  29.455  1.00  0.00     0.049 A 
ATOM     26  C   UNL A   1      40.384  31.076  30.935  1.00  0.00     0.074 A 
ATOM     27  C   UNL A   1      46.218  28.360  30.327  1.00  0.00     0.029 A 
ATOM     28  N   UNL A   1      45.067  30.224  30.242  1.00  0.00    -0.354 N 
ATOM     29  N   UNL A   1      41.124  30.786  31.968  1.00  0.00    -0.248 NA
ATOM     30  C   UNL A   1      41.065  31.754  29.845  1.00  0.00     0.031 C 
ATOM     31  C   UNL A   1      45.447  28.505  31.520  1.00  0.00     0.029 A 
ATOM     32  C   UNL A   1      44.576  29.578  31.341  1.00  0.00     0.049 A 
ATOM     33  H   UNL A   1      44.976  31.186  30.049  1.00  0.00     0.167 HD
ATOM     34  C   UNL A   1      42.420  30.806  31.477  1.00  0.00     0.074 A 
ATOM     35  C   UNL A   1      42.328  31.494  30.191  1.00  0.00     0.031 C 
ATOM     36  C   UNL A   1      43.376  29.999  32.022  1.00  0.00     0.037 A 
BRANCH  23  37
ATOM     37  C   UNL A   1      45.638  30.641  27.235  1.00  0.00     0.064 A 
ATOM     38  C   UNL A   1      46.939  31.177  27.111  1.00  0.00     0.173 A 
ATOM     39  C   UNL A   1      44.591  31.532  26.906  1.00  0.00     0.173 A 
ATOM     40  F   UNL A   1      48.017  30.427  27.384  1.00  0.00    -0.203 F 
ATOM     41  C   UNL A   1      47.160  32.529  26.831  1.00  0.00     0.198 A 
ATOM     42  C   UNL A   1      44.820  32.868  26.582  1.00  0.00     0.198 A 
ATOM     43  F   UNL A   1      43.301  31.194  26.981  1.00  0.00    -0.203 F 
ATOM     44  F   UNL A   1      48.403  33.024  26.889  1.00  0.00    -0.200 F 
ATOM     45  C   UNL A   1      46.098  33.377  26.585  1.00  0.00     0.200 A 
ATOM     46  F   UNL A   1      43.773  33.674  26.354  1.00  0.00    -0.200 F 
ATOM     47  F   UNL A   1      46.300  34.687  26.397  1.00  0.00    -0.200 F 
ENDBRANCH  23  37
BRANCH  24  48
ATOM     48  C   UNL A   1      37.848  31.158  30.416  1.00  0.00     0.064 A 
ATOM     49  C   UNL A   1      37.279  31.918  31.455  1.00  0.00     0.173 A 
ATOM     50  C   UNL A   1      37.342  31.400  29.125  1.00  0.00     0.173 A 
ATOM     51  F   UNL A   1      37.733  31.793  32.711  1.00  0.00    -0.203 F 
ATOM     52  C   UNL A   1      36.290  32.879  31.211  1.00  0.00     0.198 A 
ATOM     53  C   UNL A   1      36.350  32.353  28.882  1.00  0.00     0.198 A 
ATOM     54  F   UNL A   1      37.870  30.790  28.054  1.00  0.00    -0.203 F 
ATOM     55  F   UNL A   1      35.823  33.632  32.217  1.00  0.00    -0.200 F 
ATOM     56  C   UNL A   1      35.834  33.103  29.923  1.00  0.00     0.200 A 
ATOM     57  F   UNL A   1      35.947  32.587  27.626  1.00  0.00    -0.200 F 
ATOM     58  F   UNL A   1      34.936  34.067  29.677  1.00  0.00    -0.200 F 
ENDBRANCH  24  48
BRANCH  36  59
ATOM     59  C   UNL A   1      43.073  29.347  33.340  1.00  0.00     0.064 A 
ATOM     60  C   UNL A   1      42.384  28.129  33.490  1.00  0.00     0.173 A 
ATOM     61  C   UNL A   1      43.604  29.932  34.496  1.00  0.00     0.173 A 
ATOM     62  F   UNL A   1      41.935  27.453  32.424  1.00  0.00    -0.203 F 
ATOM     63  C   UNL A   1      42.190  27.561  34.749  1.00  0.00     0.198 A 
ATOM     64  C   UNL A   1      43.446  29.342  35.745  1.00  0.00     0.198 A 
ATOM     65  F   UNL A   1      44.318  31.065  34.407  1.00  0.00    -0.203 F 
ATOM     66  F   UNL A   1      41.509  26.412  34.870  1.00  0.00    -0.200 F 
ATOM     67  C   UNL A   1      42.726  28.165  35.873  1.00  0.00     0.200 A 
ATOM     68  F   UNL A   1      44.012  29.904  36.822  1.00  0.00    -0.200 F 
ATOM     69  F   UNL A   1      42.572  27.601  37.079  1.00  0.00    -0.200 F 
ENDBRANCH  36  59
ENDBRANCH  10  11
ENDBRANCH   3   5
ENDBRANCH   2   3
ENDBRANCH   1   2
BRANCH   1  70
ATOM     70  C   UNL A   1      43.004  18.795  25.736  1.00  0.00     0.275 C 
BRANCH  70  71
ATOM     71  O   UNL A   1      43.624  19.582  24.710  1.00  0.00    -0.457 OA
BRANCH  71  72
ATOM     72  C   UNL A   1      44.830  20.130  25.042  1.00  0.00     0.357 C 
ATOM     73  O   UNL A   1      45.860  19.555  25.310  1.00  0.00    -0.244 OA
BRANCH  72  74
ATOM     74  C   UNL A   1      44.616  21.587  25.168  1.00  0.00     0.150 A 
ATOM     75  C   UNL A   1      45.392  22.263  26.088  1.00  0.00     0.062 A 
ATOM     76  N   UNL A   1      43.637  22.161  24.425  1.00  0.00    -0.249 NA
ATOM     77  C   UNL A   1      45.107  23.610  26.291  1.00  0.00     0.050 A 
ATOM     78  C   UNL A   1      43.416  23.476  24.625  1.00  0.00     0.114 A 
ATOM     79  C   UNL A   1      44.090  24.235  25.568  1.00  0.00     0.047 A 
BRANCH  77  80
ATOM     80  N   UNL A   1      45.878  24.331  27.220  1.00  0.00    -0.306 N 
ATOM     81  C   UNL A   1      45.649  24.408  28.574  1.00  0.00     0.113 A 
ATOM     82  C   UNL A   1      46.987  25.099  26.968  1.00  0.00     0.204 A 
ATOM     83  C   UNL A   1      46.657  25.197  29.072  1.00  0.00     0.131 A 
ATOM     84  N   UNL A   1      47.473  25.638  28.065  1.00  0.00    -0.245 NA
ENDBRANCH  77  80
ENDBRANCH  72  74
ENDBRANCH  71  72
ENDBRANCH  70  71
ENDBRANCH   1  70
TORSDOF 12
ENDMDL
