MODEL 1
REMARK VINA RESULT:     -13.1      0.000      0.000
REMARK SMILES O=C(OCCOC(=O)c1cc(N2Cc3ccccc3CC2=O)ccn1)c1ccc(-c2c3nc(c(-c4c(F)c(F)c(F)c(F)c4F)c4ccc([nH]4)c(-c4c(F)c(F)c(F)c(F)c4F)c4nc(c(-c5c(F)c(F)c(F)c(F)c5F)c5ccc2[nH]5)C=C4)C=C3)cc1
REMARK SMILES IDX 4 1 3 2 2 3 1 4 26 5 27 6 88 7 28 8 87 9 29 10 30 11 31 12
REMARK SMILES IDX 81 13 32 14 86 15 80 16 82 17 33 18 85 19 79 20 78 21 34 23
REMARK SMILES IDX 66 24 46 25 65 26 47 27 50 28 64 29 83 30 48 31 49 32 63 34
REMARK SMILES IDX 84 35 51 36 35 37 36 38 44 39 37 40 38 41 42 42 45 43 39 44
REMARK SMILES IDX 40 45 43 46 41 47 67 48 68 49 76 50 69 51 70 52 74 53 77 54
REMARK SMILES IDX 71 55 72 56 75 57 73 58 52 59 53 60 61 61 54 62 55 63 59 64
REMARK SMILES IDX 62 65 56 66 57 67 60 68 58 69 5 70 6 71 7 72 8 73 9 74 10 75
REMARK SMILES IDX 25 76 11 77 24 78 23 79 12 80 13 81 21 82 14 83 20 84 22 85
REMARK SMILES IDX 15 86 19 87 16 88 18 89 17 90
REMARK H PARENT 82 22 50 33
REMARK Flexibility Score: inf
ROOT
ATOM      1  C   UNL A   1      44.610  22.951  23.867  1.00  0.00     0.275 C 
ENDROOT
BRANCH   1   2
ATOM      2  O   UNL A   1      44.298  23.749  25.022  1.00  0.00    -0.458 OA
BRANCH   2   3
ATOM      3  C   UNL A   1      44.631  25.048  25.223  1.00  0.00     0.338 C 
ATOM      4  O   UNL A   1      45.590  25.541  24.635  1.00  0.00    -0.246 OA
BRANCH   3   5
ATOM      5  C   UNL A   1      43.985  25.854  26.299  1.00  0.00     0.060 A 
ATOM      6  C   UNL A   1      44.278  27.187  26.595  1.00  0.00     0.016 A 
ATOM      7  C   UNL A   1      43.052  25.183  27.107  1.00  0.00     0.016 A 
ATOM      8  C   UNL A   1      43.605  27.860  27.620  1.00  0.00     0.010 A 
ATOM      9  C   UNL A   1      42.375  25.849  28.133  1.00  0.00     0.010 A 
ATOM     10  C   UNL A   1      42.654  27.197  28.399  1.00  0.00    -0.014 A 
BRANCH  10  11
ATOM     11  C   UNL A   1      42.120  27.848  29.616  1.00  0.00     0.031 A 
ATOM     12  C   UNL A   1      40.896  28.712  29.469  1.00  0.00     0.074 A 
ATOM     13  C   UNL A   1      42.658  27.623  30.830  1.00  0.00     0.049 A 
ATOM     14  N   UNL A   1      40.272  29.432  30.363  1.00  0.00    -0.248 NA
ATOM     15  C   UNL A   1      40.278  28.748  28.131  1.00  0.00     0.031 C 
ATOM     16  C   UNL A   1      43.774  26.718  31.122  1.00  0.00     0.029 A 
ATOM     17  N   UNL A   1      42.346  28.163  32.053  1.00  0.00    -0.354 N 
ATOM     18  C   UNL A   1      39.157  29.948  29.714  1.00  0.00     0.074 A 
ATOM     19  C   UNL A   1      39.246  29.553  28.327  1.00  0.00     0.031 C 
ATOM     20  C   UNL A   1      44.076  26.797  32.433  1.00  0.00     0.029 A 
ATOM     21  C   UNL A   1      43.192  27.769  33.064  1.00  0.00     0.049 A 
ATOM     22  H   UNL A   1      41.589  28.774  32.192  1.00  0.00     0.167 HD
ATOM     23  C   UNL A   1      38.119  30.638  30.242  1.00  0.00     0.037 A 
ATOM     24  C   UNL A   1      43.261  28.199  34.338  1.00  0.00     0.037 A 
ATOM     25  C   UNL A   1      38.050  31.047  31.616  1.00  0.00     0.049 A 
ATOM     26  C   UNL A   1      42.304  29.262  34.799  1.00  0.00     0.074 A 
ATOM     27  C   UNL A   1      37.041  31.723  32.275  1.00  0.00     0.029 A 
ATOM     28  N   UNL A   1      39.060  30.826  32.542  1.00  0.00    -0.354 N 
ATOM     29  N   UNL A   1      41.288  29.792  34.164  1.00  0.00    -0.248 NA
ATOM     30  C   UNL A   1      42.516  29.796  36.153  1.00  0.00     0.031 C 
ATOM     31  C   UNL A   1      37.462  31.956  33.591  1.00  0.00     0.029 A 
ATOM     32  C   UNL A   1      38.711  31.382  33.760  1.00  0.00     0.049 A 
ATOM     33  H   UNL A   1      39.898  30.345  32.360  1.00  0.00     0.167 HD
ATOM     34  C   UNL A   1      40.694  30.662  35.065  1.00  0.00     0.074 A 
ATOM     35  C   UNL A   1      41.509  30.651  36.262  1.00  0.00     0.031 C 
ATOM     36  C   UNL A   1      39.538  31.356  34.936  1.00  0.00     0.037 A 
BRANCH  23  37
ATOM     37  C   UNL A   1      36.975  30.960  29.328  1.00  0.00     0.064 A 
ATOM     38  C   UNL A   1      36.779  32.264  28.843  1.00  0.00     0.173 A 
ATOM     39  C   UNL A   1      36.071  29.969  28.925  1.00  0.00     0.173 A 
ATOM     40  F   UNL A   1      37.609  33.253  29.213  1.00  0.00    -0.203 F 
ATOM     41  C   UNL A   1      35.702  32.570  28.016  1.00  0.00     0.198 A 
ATOM     42  C   UNL A   1      35.009  30.272  28.075  1.00  0.00     0.198 A 
ATOM     43  F   UNL A   1      36.212  28.708  29.358  1.00  0.00    -0.203 F 
ATOM     44  F   UNL A   1      35.508  33.831  27.609  1.00  0.00    -0.200 F 
ATOM     45  C   UNL A   1      34.821  31.572  27.628  1.00  0.00     0.200 A 
ATOM     46  F   UNL A   1      34.162  29.307  27.694  1.00  0.00    -0.200 F 
ATOM     47  F   UNL A   1      33.784  31.866  26.833  1.00  0.00    -0.200 F 
ENDBRANCH  23  37
BRANCH  24  48
ATOM     48  C   UNL A   1      44.333  27.740  35.255  1.00  0.00     0.064 A 
ATOM     49  C   UNL A   1      45.614  28.295  35.265  1.00  0.00     0.173 A 
ATOM     50  C   UNL A   1      44.098  26.627  36.070  1.00  0.00     0.173 A 
ATOM     51  F   UNL A   1      45.908  29.318  34.450  1.00  0.00    -0.203 F 
ATOM     52  C   UNL A   1      46.617  27.760  36.077  1.00  0.00     0.198 A 
ATOM     53  C   UNL A   1      45.088  26.104  36.896  1.00  0.00     0.198 A 
ATOM     54  F   UNL A   1      42.920  26.002  35.982  1.00  0.00    -0.203 F 
ATOM     55  F   UNL A   1      47.853  28.277  36.040  1.00  0.00    -0.200 F 
ATOM     56  C   UNL A   1      46.350  26.673  36.898  1.00  0.00     0.200 A 
ATOM     57  F   UNL A   1      44.834  25.031  37.657  1.00  0.00    -0.200 F 
ATOM     58  F   UNL A   1      47.317  26.151  37.665  1.00  0.00    -0.200 F 
ENDBRANCH  24  48
BRANCH  36  59
ATOM     59  C   UNL A   1      39.030  32.043  36.162  1.00  0.00     0.064 A 
ATOM     60  C   UNL A   1      39.396  33.352  36.497  1.00  0.00     0.173 A 
ATOM     61  C   UNL A   1      38.151  31.359  37.017  1.00  0.00     0.173 A 
ATOM     62  F   UNL A   1      40.260  34.030  35.727  1.00  0.00    -0.203 F 
ATOM     63  C   UNL A   1      38.909  33.949  37.658  1.00  0.00     0.198 A 
ATOM     64  C   UNL A   1      37.647  31.966  38.160  1.00  0.00     0.198 A 
ATOM     65  F   UNL A   1      37.782  30.099  36.738  1.00  0.00    -0.203 F 
ATOM     66  F   UNL A   1      39.307  35.184  37.990  1.00  0.00    -0.200 F 
ATOM     67  C   UNL A   1      38.031  33.259  38.483  1.00  0.00     0.200 A 
ATOM     68  F   UNL A   1      36.797  31.298  38.951  1.00  0.00    -0.200 F 
ATOM     69  F   UNL A   1      37.563  33.836  39.598  1.00  0.00    -0.200 F 
ENDBRANCH  36  59
ENDBRANCH  10  11
ENDBRANCH   3   5
ENDBRANCH   2   3
ENDBRANCH   1   2
BRANCH   1  70
ATOM     70  C   UNL A   1      45.375  21.658  24.173  1.00  0.00     0.275 C 
BRANCH  70  71
ATOM     71  O   UNL A   1      44.794  20.502  23.549  1.00  0.00    -0.457 OA
BRANCH  71  72
ATOM     72  C   UNL A   1      45.019  19.333  24.213  1.00  0.00     0.357 C 
ATOM     73  O   UNL A   1      45.948  18.564  24.021  1.00  0.00    -0.244 OA
BRANCH  72  74
ATOM     74  C   UNL A   1      44.023  19.187  25.309  1.00  0.00     0.150 A 
ATOM     75  C   UNL A   1      43.038  20.143  25.523  1.00  0.00     0.062 A 
ATOM     76  N   UNL A   1      44.156  18.067  26.063  1.00  0.00    -0.249 NA
ATOM     77  C   UNL A   1      42.122  19.949  26.565  1.00  0.00     0.048 A 
ATOM     78  C   UNL A   1      43.285  17.910  27.074  1.00  0.00     0.114 A 
ATOM     79  C   UNL A   1      42.279  18.814  27.369  1.00  0.00     0.046 A 
BRANCH  77  80
ATOM     80  N   UNL A   1      40.989  20.813  26.766  1.00  0.00    -0.308 N 
ATOM     81  C   UNL A   1      39.694  20.424  26.183  1.00  0.00     0.161 C 
ATOM     82  C   UNL A   1      41.078  21.917  27.616  1.00  0.00     0.231 C 
ATOM     83  C   UNL A   1      38.793  21.571  25.831  1.00  0.00    -0.024 A 
ATOM     84  C   UNL A   1      39.981  22.958  27.540  1.00  0.00     0.136 C 
ATOM     85  O   UNL A   1      42.016  22.134  28.391  1.00  0.00    -0.274 OA
ATOM     86  C   UNL A   1      37.692  21.379  24.983  1.00  0.00     0.006 A 
ATOM     87  C   UNL A   1      38.988  22.816  26.428  1.00  0.00    -0.034 A 
ATOM     88  C   UNL A   1      36.839  22.440  24.679  1.00  0.00     0.000 A 
ATOM     89  C   UNL A   1      38.158  23.892  26.083  1.00  0.00     0.004 A 
ATOM     90  C   UNL A   1      37.089  23.704  25.207  1.00  0.00     0.000 A 
ENDBRANCH  77  80
ENDBRANCH  72  74
ENDBRANCH  71  72
ENDBRANCH  70  71
ENDBRANCH   1  70
TORSDOF 12
ENDMDL
MODEL 2
REMARK VINA RESULT:     -12.7      2.162      7.957
REMARK SMILES O=C(OCCOC(=O)c1cc(N2Cc3ccccc3CC2=O)ccn1)c1ccc(-c2c3nc(c(-c4c(F)c(F)c(F)c(F)c4F)c4ccc([nH]4)c(-c4c(F)c(F)c(F)c(F)c4F)c4nc(c(-c5c(F)c(F)c(F)c(F)c5F)c5ccc2[nH]5)C=C4)C=C3)cc1
REMARK SMILES IDX 4 1 3 2 2 3 1 4 26 5 27 6 88 7 28 8 87 9 29 10 30 11 31 12
REMARK SMILES IDX 81 13 32 14 86 15 80 16 82 17 33 18 85 19 79 20 78 21 34 23
REMARK SMILES IDX 66 24 46 25 65 26 47 27 50 28 64 29 83 30 48 31 49 32 63 34
REMARK SMILES IDX 84 35 51 36 35 37 36 38 44 39 37 40 38 41 42 42 45 43 39 44
REMARK SMILES IDX 40 45 43 46 41 47 67 48 68 49 76 50 69 51 70 52 74 53 77 54
REMARK SMILES IDX 71 55 72 56 75 57 73 58 52 59 53 60 61 61 54 62 55 63 59 64
REMARK SMILES IDX 62 65 56 66 57 67 60 68 58 69 5 70 6 71 7 72 8 73 9 74 10 75
REMARK SMILES IDX 25 76 11 77 24 78 23 79 12 80 13 81 21 82 14 83 20 84 22 85
REMARK SMILES IDX 15 86 19 87 16 88 18 89 17 90
REMARK H PARENT 82 22 50 33
REMARK Flexibility Score: inf
ROOT
ATOM      1  C   UNL A   1      43.298  21.045  25.630  1.00  0.00     0.275 C 
ENDROOT
BRANCH   1   2
ATOM      2  O   UNL A   1      42.815  22.246  25.001  1.00  0.00    -0.458 OA
BRANCH   2   3
ATOM      3  C   UNL A   1      43.402  23.468  25.032  1.00  0.00     0.338 C 
ATOM      4  O   UNL A   1      44.457  23.666  24.436  1.00  0.00    -0.246 OA
BRANCH   3   5
ATOM      5  C   UNL A   1      42.906  24.541  25.942  1.00  0.00     0.060 A 
ATOM      6  C   UNL A   1      43.312  25.876  25.912  1.00  0.00     0.016 A 
ATOM      7  C   UNL A   1      42.003  24.143  26.942  1.00  0.00     0.016 A 
ATOM      8  C   UNL A   1      42.776  26.811  26.803  1.00  0.00     0.010 A 
ATOM      9  C   UNL A   1      41.462  25.071  27.837  1.00  0.00     0.010 A 
ATOM     10  C   UNL A   1      41.852  26.416  27.774  1.00  0.00    -0.014 A 
BRANCH  10  11
ATOM     11  C   UNL A   1      41.469  27.359  28.849  1.00  0.00     0.031 A 
ATOM     12  C   UNL A   1      42.263  27.325  30.128  1.00  0.00     0.074 A 
ATOM     13  C   UNL A   1      40.494  28.271  28.672  1.00  0.00     0.049 A 
ATOM     14  N   UNL A   1      42.093  28.002  31.233  1.00  0.00    -0.248 NA
ATOM     15  C   UNL A   1      43.423  26.414  30.153  1.00  0.00     0.031 C 
ATOM     16  C   UNL A   1      39.728  28.484  27.441  1.00  0.00     0.029 A 
ATOM     17  N   UNL A   1      39.964  29.185  29.549  1.00  0.00    -0.354 N 
ATOM     18  C   UNL A   1      43.160  27.650  32.052  1.00  0.00     0.074 A 
ATOM     19  C   UNL A   1      43.907  26.621  31.367  1.00  0.00     0.031 C 
ATOM     20  C   UNL A   1      38.800  29.438  27.655  1.00  0.00     0.029 A 
ATOM     21  C   UNL A   1      38.895  29.886  29.040  1.00  0.00     0.049 A 
ATOM     22  H   UNL A   1      40.316  29.324  30.457  1.00  0.00     0.167 HD
ATOM     23  C   UNL A   1      43.518  28.184  33.243  1.00  0.00     0.037 A 
ATOM     24  C   UNL A   1      38.066  30.749  29.656  1.00  0.00     0.037 A 
ATOM     25  C   UNL A   1      42.755  29.189  33.928  1.00  0.00     0.049 A 
ATOM     26  C   UNL A   1      38.276  31.043  31.114  1.00  0.00     0.074 A 
ATOM     27  C   UNL A   1      43.029  29.828  35.123  1.00  0.00     0.029 A 
ATOM     28  N   UNL A   1      41.544  29.688  33.471  1.00  0.00    -0.354 N 
ATOM     29  N   UNL A   1      39.252  30.662  31.903  1.00  0.00    -0.248 NA
ATOM     30  C   UNL A   1      37.260  31.878  31.771  1.00  0.00     0.031 C 
ATOM     31  C   UNL A   1      41.956  30.679  35.415  1.00  0.00     0.029 A 
ATOM     32  C   UNL A   1      41.041  30.604  34.378  1.00  0.00     0.049 A 
ATOM     33  H   UNL A   1      41.108  29.430  32.628  1.00  0.00     0.167 HD
ATOM     34  C   UNL A   1      39.008  31.273  33.123  1.00  0.00     0.074 A 
ATOM     35  C   UNL A   1      37.752  31.982  32.996  1.00  0.00     0.031 C 
ATOM     36  C   UNL A   1      39.790  31.298  34.228  1.00  0.00     0.037 A 
BRANCH  23  37
ATOM     37  C   UNL A   1      44.801  27.702  33.851  1.00  0.00     0.064 A 
ATOM     38  C   UNL A   1      46.023  28.331  33.558  1.00  0.00     0.173 A 
ATOM     39  C   UNL A   1      44.818  26.617  34.736  1.00  0.00     0.173 A 
ATOM     40  F   UNL A   1      46.061  29.366  32.705  1.00  0.00    -0.203 F 
ATOM     41  C   UNL A   1      47.218  27.869  34.103  1.00  0.00     0.198 A 
ATOM     42  C   UNL A   1      46.012  26.173  35.301  1.00  0.00     0.198 A 
ATOM     43  F   UNL A   1      43.680  25.982  35.050  1.00  0.00    -0.203 F 
ATOM     44  F   UNL A   1      48.376  28.452  33.767  1.00  0.00    -0.200 F 
ATOM     45  C   UNL A   1      47.210  26.793  34.977  1.00  0.00     0.200 A 
ATOM     46  F   UNL A   1      46.004  25.138  36.151  1.00  0.00    -0.200 F 
ATOM     47  F   UNL A   1      48.360  26.346  35.500  1.00  0.00    -0.200 F 
ENDBRANCH  23  37
BRANCH  24  48
ATOM     48  C   UNL A   1      36.882  31.315  28.964  1.00  0.00     0.064 A 
ATOM     49  C   UNL A   1      36.776  32.664  28.618  1.00  0.00     0.173 A 
ATOM     50  C   UNL A   1      35.768  30.496  28.746  1.00  0.00     0.173 A 
ATOM     51  F   UNL A   1      37.790  33.502  28.871  1.00  0.00    -0.203 F 
ATOM     52  C   UNL A   1      35.600  33.166  28.059  1.00  0.00     0.198 A 
ATOM     53  C   UNL A   1      34.601  30.988  28.170  1.00  0.00     0.198 A 
ATOM     54  F   UNL A   1      35.800  29.235  29.186  1.00  0.00    -0.203 F 
ATOM     55  F   UNL A   1      35.499  34.472  27.774  1.00  0.00    -0.200 F 
ATOM     56  C   UNL A   1      34.518  32.326  27.826  1.00  0.00     0.200 A 
ATOM     57  F   UNL A   1      33.549  30.180  27.984  1.00  0.00    -0.200 F 
ATOM     58  F   UNL A   1      33.384  32.813  27.304  1.00  0.00    -0.200 F 
ENDBRANCH  24  48
BRANCH  36  59
ATOM     59  C   UNL A   1      39.370  32.225  35.324  1.00  0.00     0.064 A 
ATOM     60  C   UNL A   1      39.757  33.569  35.361  1.00  0.00     0.173 A 
ATOM     61  C   UNL A   1      38.556  31.738  36.360  1.00  0.00     0.173 A 
ATOM     62  F   UNL A   1      40.563  34.066  34.410  1.00  0.00    -0.203 F 
ATOM     63  C   UNL A   1      39.355  34.394  36.408  1.00  0.00     0.198 A 
ATOM     64  C   UNL A   1      38.135  32.571  37.389  1.00  0.00     0.198 A 
ATOM     65  F   UNL A   1      38.170  30.453  36.368  1.00  0.00    -0.203 F 
ATOM     66  F   UNL A   1      39.774  35.665  36.454  1.00  0.00    -0.200 F 
ATOM     67  C   UNL A   1      38.539  33.897  37.416  1.00  0.00     0.200 A 
ATOM     68  F   UNL A   1      37.345  32.088  38.357  1.00  0.00    -0.200 F 
ATOM     69  F   UNL A   1      38.153  34.693  38.421  1.00  0.00    -0.200 F 
ENDBRANCH  36  59
ENDBRANCH  10  11
ENDBRANCH   3   5
ENDBRANCH   2   3
ENDBRANCH   1   2
BRANCH   1  70
ATOM     70  C   UNL A   1      42.198  20.077  26.080  1.00  0.00     0.275 C 
BRANCH  70  71
ATOM     71  O   UNL A   1      40.990  20.745  26.477  1.00  0.00    -0.457 OA
BRANCH  71  72
ATOM     72  C   UNL A   1      39.878  20.341  25.801  1.00  0.00     0.357 C 
ATOM     73  O   UNL A   1      39.663  19.217  25.377  1.00  0.00    -0.244 OA
BRANCH  72  74
ATOM     74  C   UNL A   1      38.890  21.453  25.763  1.00  0.00     0.150 A 
ATOM     75  C   UNL A   1      37.718  21.353  25.023  1.00  0.00     0.062 A 
ATOM     76  N   UNL A   1      39.222  22.546  26.495  1.00  0.00    -0.249 NA
ATOM     77  C   UNL A   1      36.820  22.429  25.030  1.00  0.00     0.048 A 
ATOM     78  C   UNL A   1      38.362  23.577  26.469  1.00  0.00     0.114 A 
ATOM     79  C   UNL A   1      37.177  23.572  25.754  1.00  0.00     0.046 A 
BRANCH  77  80
ATOM     80  N   UNL A   1      35.524  22.355  24.409  1.00  0.00    -0.308 N 
ATOM     81  C   UNL A   1      35.155  23.383  23.422  1.00  0.00     0.161 C 
ATOM     82  C   UNL A   1      34.693  21.253  24.627  1.00  0.00     0.231 C 
ATOM     83  C   UNL A   1      33.685  23.668  23.330  1.00  0.00    -0.024 A 
ATOM     84  C   UNL A   1      33.239  21.374  24.221  1.00  0.00     0.136 C 
ATOM     85  O   UNL A   1      35.046  20.204  25.174  1.00  0.00    -0.274 OA
ATOM     86  C   UNL A   1      33.222  24.827  22.691  1.00  0.00     0.006 A 
ATOM     87  C   UNL A   1      32.765  22.729  23.795  1.00  0.00    -0.034 A 
ATOM     88  C   UNL A   1      31.854  25.077  22.582  1.00  0.00     0.000 A 
ATOM     89  C   UNL A   1      31.392  23.006  23.727  1.00  0.00     0.004 A 
ATOM     90  C   UNL A   1      30.939  24.180  23.125  1.00  0.00     0.000 A 
ENDBRANCH  77  80
ENDBRANCH  72  74
ENDBRANCH  71  72
ENDBRANCH  70  71
ENDBRANCH   1  70
TORSDOF 12
ENDMDL
MODEL 3
REMARK VINA RESULT:     -12.7      5.337     12.318
REMARK SMILES O=C(OCCOC(=O)c1cc(N2Cc3ccccc3CC2=O)ccn1)c1ccc(-c2c3nc(c(-c4c(F)c(F)c(F)c(F)c4F)c4ccc([nH]4)c(-c4c(F)c(F)c(F)c(F)c4F)c4nc(c(-c5c(F)c(F)c(F)c(F)c5F)c5ccc2[nH]5)C=C4)C=C3)cc1
REMARK SMILES IDX 4 1 3 2 2 3 1 4 26 5 27 6 88 7 28 8 87 9 29 10 30 11 31 12
REMARK SMILES IDX 81 13 32 14 86 15 80 16 82 17 33 18 85 19 79 20 78 21 34 23
REMARK SMILES IDX 66 24 46 25 65 26 47 27 50 28 64 29 83 30 48 31 49 32 63 34
REMARK SMILES IDX 84 35 51 36 35 37 36 38 44 39 37 40 38 41 42 42 45 43 39 44
REMARK SMILES IDX 40 45 43 46 41 47 67 48 68 49 76 50 69 51 70 52 74 53 77 54
REMARK SMILES IDX 71 55 72 56 75 57 73 58 52 59 53 60 61 61 54 62 55 63 59 64
REMARK SMILES IDX 62 65 56 66 57 67 60 68 58 69 5 70 6 71 7 72 8 73 9 74 10 75
REMARK SMILES IDX 25 76 11 77 24 78 23 79 12 80 13 81 21 82 14 83 20 84 22 85
REMARK SMILES IDX 15 86 19 87 16 88 18 89 17 90
REMARK H PARENT 82 22 50 33
REMARK Flexibility Score: inf
ROOT
ATOM      1  C   UNL A   1      33.142  33.014  27.891  1.00  0.00     0.275 C 
ENDROOT
BRANCH   1   2
ATOM      2  O   UNL A   1      34.261  32.229  28.338  1.00  0.00    -0.458 OA
BRANCH   2   3
ATOM      3  C   UNL A   1      34.514  30.933  28.032  1.00  0.00     0.338 C 
ATOM      4  O   UNL A   1      33.622  30.212  27.594  1.00  0.00    -0.246 OA
BRANCH   3   5
ATOM      5  C   UNL A   1      35.809  30.290  28.402  1.00  0.00     0.060 A 
ATOM      6  C   UNL A   1      36.121  29.770  29.660  1.00  0.00     0.016 A 
ATOM      7  C   UNL A   1      36.802  30.269  27.409  1.00  0.00     0.016 A 
ATOM      8  C   UNL A   1      37.363  29.175  29.903  1.00  0.00     0.010 A 
ATOM      9  C   UNL A   1      38.046  29.675  27.645  1.00  0.00     0.010 A 
ATOM     10  C   UNL A   1      38.335  29.127  28.901  1.00  0.00    -0.014 A 
BRANCH  10  11
ATOM     11  C   UNL A   1      39.714  28.704  29.236  1.00  0.00     0.031 A 
ATOM     12  C   UNL A   1      40.552  29.641  30.064  1.00  0.00     0.074 A 
ATOM     13  C   UNL A   1      40.186  27.494  28.881  1.00  0.00     0.049 A 
ATOM     14  N   UNL A   1      41.799  29.531  30.441  1.00  0.00    -0.248 NA
ATOM     15  C   UNL A   1      39.882  30.859  30.554  1.00  0.00     0.031 C 
ATOM     16  C   UNL A   1      39.435  26.450  28.177  1.00  0.00     0.029 A 
ATOM     17  N   UNL A   1      41.432  26.944  29.048  1.00  0.00    -0.354 N 
ATOM     18  C   UNL A   1      42.037  30.627  31.262  1.00  0.00     0.074 A 
ATOM     19  C   UNL A   1      40.848  31.446  31.242  1.00  0.00     0.031 C 
ATOM     20  C   UNL A   1      40.249  25.403  27.939  1.00  0.00     0.029 A 
ATOM     21  C   UNL A   1      41.578  25.711  28.454  1.00  0.00     0.049 A 
ATOM     22  H   UNL A   1      42.153  27.390  29.546  1.00  0.00     0.167 HD
ATOM     23  C   UNL A   1      43.130  30.892  32.016  1.00  0.00     0.037 A 
ATOM     24  C   UNL A   1      42.684  24.957  28.308  1.00  0.00     0.037 A 
ATOM     25  C   UNL A   1      44.317  30.085  32.011  1.00  0.00     0.049 A 
ATOM     26  C   UNL A   1      43.989  25.469  28.849  1.00  0.00     0.074 A 
ATOM     27  C   UNL A   1      45.476  30.234  32.750  1.00  0.00     0.029 A 
ATOM     28  N   UNL A   1      44.496  28.975  31.198  1.00  0.00    -0.354 N 
ATOM     29  N   UNL A   1      44.223  26.534  29.575  1.00  0.00    -0.248 NA
ATOM     30  C   UNL A   1      45.187  24.675  28.538  1.00  0.00     0.031 C 
ATOM     31  C   UNL A   1      46.377  29.240  32.347  1.00  0.00     0.029 A 
ATOM     32  C   UNL A   1      45.760  28.447  31.394  1.00  0.00     0.049 A 
ATOM     33  H   UNL A   1      43.824  28.615  30.576  1.00  0.00     0.167 HD
ATOM     34  C   UNL A   1      45.576  26.498  29.871  1.00  0.00     0.074 A 
ATOM     35  C   UNL A   1      46.128  25.351  29.180  1.00  0.00     0.031 C 
ATOM     36  C   UNL A   1      46.285  27.305  30.696  1.00  0.00     0.037 A 
BRANCH  23  37
ATOM     37  C   UNL A   1      43.065  32.087  32.919  1.00  0.00     0.064 A 
ATOM     38  C   UNL A   1      42.730  31.952  34.277  1.00  0.00     0.173 A 
ATOM     39  C   UNL A   1      43.344  33.372  32.438  1.00  0.00     0.173 A 
ATOM     40  F   UNL A   1      42.440  30.743  34.783  1.00  0.00    -0.203 F 
ATOM     41  C   UNL A   1      42.645  33.063  35.111  1.00  0.00     0.198 A 
ATOM     42  C   UNL A   1      43.284  34.480  33.280  1.00  0.00     0.198 A 
ATOM     43  F   UNL A   1      43.669  33.557  31.150  1.00  0.00    -0.203 F 
ATOM     44  F   UNL A   1      42.274  32.914  36.388  1.00  0.00    -0.200 F 
ATOM     45  C   UNL A   1      42.927  34.326  34.612  1.00  0.00     0.200 A 
ATOM     46  F   UNL A   1      43.562  35.700  32.801  1.00  0.00    -0.200 F 
ATOM     47  F   UNL A   1      42.844  35.397  35.414  1.00  0.00    -0.200 F 
ENDBRANCH  23  37
BRANCH  24  48
ATOM     48  C   UNL A   1      42.667  23.700  27.521  1.00  0.00     0.064 A 
ATOM     49  C   UNL A   1      42.403  22.451  28.087  1.00  0.00     0.173 A 
ATOM     50  C   UNL A   1      43.042  23.739  26.173  1.00  0.00     0.173 A 
ATOM     51  F   UNL A   1      42.108  22.355  29.390  1.00  0.00    -0.203 F 
ATOM     52  C   UNL A   1      42.498  21.287  27.322  1.00  0.00     0.198 A 
ATOM     53  C   UNL A   1      43.118  22.584  25.402  1.00  0.00     0.198 A 
ATOM     54  F   UNL A   1      43.422  24.906  25.644  1.00  0.00    -0.203 F 
ATOM     55  F   UNL A   1      42.286  20.093  27.892  1.00  0.00    -0.200 F 
ATOM     56  C   UNL A   1      42.845  21.355  25.979  1.00  0.00     0.200 A 
ATOM     57  F   UNL A   1      43.490  22.654  24.117  1.00  0.00    -0.200 F 
ATOM     58  F   UNL A   1      42.951  20.236  25.249  1.00  0.00    -0.200 F 
ENDBRANCH  24  48
BRANCH  36  59
ATOM     59  C   UNL A   1      47.689  26.889  30.995  1.00  0.00     0.064 A 
ATOM     60  C   UNL A   1      48.001  25.947  31.982  1.00  0.00     0.173 A 
ATOM     61  C   UNL A   1      48.744  27.458  30.262  1.00  0.00     0.173 A 
ATOM     62  F   UNL A   1      47.027  25.404  32.729  1.00  0.00    -0.203 F 
ATOM     63  C   UNL A   1      49.325  25.598  32.236  1.00  0.00     0.198 A 
ATOM     64  C   UNL A   1      50.061  27.088  30.501  1.00  0.00     0.198 A 
ATOM     65  F   UNL A   1      48.490  28.372  29.313  1.00  0.00    -0.203 F 
ATOM     66  F   UNL A   1      49.609  24.732  33.218  1.00  0.00    -0.200 F 
ATOM     67  C   UNL A   1      50.352  26.164  31.493  1.00  0.00     0.200 A 
ATOM     68  F   UNL A   1      51.049  27.633  29.778  1.00  0.00    -0.200 F 
ATOM     69  F   UNL A   1      51.624  25.826  31.739  1.00  0.00    -0.200 F 
ENDBRANCH  36  59
ENDBRANCH  10  11
ENDBRANCH   3   5
ENDBRANCH   2   3
ENDBRANCH   1   2
BRANCH   1  70
ATOM     70  C   UNL A   1      33.381  34.528  27.903  1.00  0.00     0.275 C 
BRANCH  70  71
ATOM     71  O   UNL A   1      32.560  35.217  28.859  1.00  0.00    -0.457 OA
BRANCH  71  72
ATOM     72  C   UNL A   1      33.076  36.404  29.289  1.00  0.00     0.357 C 
ATOM     73  O   UNL A   1      33.117  37.443  28.651  1.00  0.00    -0.244 OA
BRANCH  72  74
ATOM     74  C   UNL A   1      33.474  36.282  30.718  1.00  0.00     0.150 A 
ATOM     75  C   UNL A   1      34.034  35.112  31.214  1.00  0.00     0.062 A 
ATOM     76  N   UNL A   1      33.250  37.385  31.475  1.00  0.00    -0.249 NA
ATOM     77  C   UNL A   1      34.397  35.057  32.566  1.00  0.00     0.048 A 
ATOM     78  C   UNL A   1      33.581  37.306  32.774  1.00  0.00     0.114 A 
ATOM     79  C   UNL A   1      34.134  36.179  33.359  1.00  0.00     0.046 A 
BRANCH  77  80
ATOM     80  N   UNL A   1      35.111  33.940  33.128  1.00  0.00    -0.308 N 
ATOM     81  C   UNL A   1      35.749  34.101  34.445  1.00  0.00     0.161 C 
ATOM     82  C   UNL A   1      35.074  32.689  32.509  1.00  0.00     0.231 C 
ATOM     83  C   UNL A   1      36.964  33.249  34.664  1.00  0.00    -0.024 A 
ATOM     84  C   UNL A   1      36.086  31.651  32.951  1.00  0.00     0.136 C 
ATOM     85  O   UNL A   1      34.310  32.382  31.588  1.00  0.00    -0.274 OA
ATOM     86  C   UNL A   1      37.851  33.528  35.714  1.00  0.00     0.006 A 
ATOM     87  C   UNL A   1      37.164  32.112  33.882  1.00  0.00    -0.034 A 
ATOM     88  C   UNL A   1      38.965  32.717  35.934  1.00  0.00     0.000 A 
ATOM     89  C   UNL A   1      38.311  31.328  34.074  1.00  0.00     0.004 A 
ATOM     90  C   UNL A   1      39.210  31.633  35.096  1.00  0.00     0.000 A 
ENDBRANCH  77  80
ENDBRANCH  72  74
ENDBRANCH  71  72
ENDBRANCH  70  71
ENDBRANCH   1  70
TORSDOF 12
ENDMDL
