MODEL 1
REMARK VINA RESULT:     -12.2      0.000      0.000
REMARK SMILES CCC(=O)Nc1ccc(-c2ccc(C(=O)OCCOC(=O)c3ccc(-c4c5nc(c(-c6c(F)c(F)c(F)c(F)c6F)c6ccc([nH]6)c(-c6c(F)c(F)c(F)c(F)c6F)c6nc(c(-c7c(F)c(F)c(F)c(F)c7F)c7ccc4[nH]7)C=C6)C=C5)cc3)cc2)nc1
REMARK SMILES IDX 17 1 16 2 14 3 15 4 13 5 10 6 11 7 86 8 12 9 85 10 9 11 6 12
REMARK SMILES IDX 7 13 88 14 8 15 87 16 5 17 3 18 4 19 2 21 1 22 18 23 19 24
REMARK SMILES IDX 20 25 21 26 22 27 23 28 84 29 24 30 83 31 25 32 26 33 27 34
REMARK SMILES IDX 77 35 28 36 82 37 76 38 78 39 29 40 81 41 75 42 74 43 30 45
REMARK SMILES IDX 62 46 42 47 61 48 43 49 46 50 60 51 79 52 44 53 45 54 59 56
REMARK SMILES IDX 80 57 47 58 31 59 32 60 40 61 33 62 34 63 38 64 41 65 35 66
REMARK SMILES IDX 36 67 39 68 37 69 63 70 64 71 72 72 65 73 66 74 70 75 73 76
REMARK SMILES IDX 67 77 68 78 71 79 69 80 48 81 49 82 57 83 50 84 51 85 55 86
REMARK SMILES IDX 58 87 52 88 53 89 56 90 54 91
REMARK H PARENT 5 20 78 44 46 55
REMARK Flexibility Score: inf
ROOT
ATOM      1  C   UNL A   1      42.564  20.724  26.218  1.00  0.00     0.275 C 
ENDROOT
BRANCH   1   2
ATOM      2  O   UNL A   1      41.235  20.996  25.729  1.00  0.00    -0.458 OA
BRANCH   2   3
ATOM      3  C   UNL A   1      40.332  21.344  26.677  1.00  0.00     0.338 C 
ATOM      4  O   UNL A   1      40.486  21.290  27.888  1.00  0.00    -0.246 OA
BRANCH   3   5
ATOM      5  C   UNL A   1      39.112  21.910  26.060  1.00  0.00     0.060 A 
ATOM      6  C   UNL A   1      36.735  23.053  25.068  1.00  0.00     0.000 A 
ATOM      7  C   UNL A   1      37.628  23.809  25.841  1.00  0.00     0.011 A 
ATOM      8  C   UNL A   1      37.074  21.722  24.768  1.00  0.00     0.011 A 
ATOM      9  C   UNL A   1      38.785  23.236  26.358  1.00  0.00     0.016 A 
ATOM     10  C   UNL A   1      38.264  21.155  25.246  1.00  0.00     0.016 A 
BRANCH   6  11
ATOM     11  C   UNL A   1      35.439  23.642  24.717  1.00  0.00     0.070 A 
ATOM     12  C   UNL A   1      33.294  25.073  23.751  1.00  0.00     0.059 A 
ATOM     13  C   UNL A   1      33.777  25.340  25.027  1.00  0.00     0.030 A 
ATOM     14  C   UNL A   1      33.861  24.011  23.060  1.00  0.00     0.137 A 
ATOM     15  C   UNL A   1      34.860  24.619  25.520  1.00  0.00     0.031 A 
ATOM     16  N   UNL A   1      34.938  23.314  23.499  1.00  0.00    -0.254 NA
BRANCH  12  17
ATOM     17  N   UNL A   1      32.235  25.799  23.195  1.00  0.00    -0.325 N 
ATOM     18  C   UNL A   1      32.251  27.066  22.673  1.00  0.00     0.224 C 
ATOM     19  O   UNL A   1      31.188  27.668  22.518  1.00  0.00    -0.275 OA
ATOM     20  H   UNL A   1      31.364  25.340  23.177  1.00  0.00     0.169 HD
BRANCH  18  21
ATOM     21  C   UNL A   1      33.557  27.640  22.142  1.00  0.00     0.097 C 
ATOM     22  C   UNL A   1      34.169  28.726  23.004  1.00  0.00     0.014 C 
ENDBRANCH  18  21
ENDBRANCH  12  17
ENDBRANCH   6  11
ENDBRANCH   3   5
ENDBRANCH   2   3
ENDBRANCH   1   2
BRANCH   1  23
ATOM     23  C   UNL A   1      43.597  21.545  25.448  1.00  0.00     0.275 C 
BRANCH  23  24
ATOM     24  O   UNL A   1      42.962  22.703  24.876  1.00  0.00    -0.458 OA
BRANCH  24  25
ATOM     25  C   UNL A   1      43.680  23.847  24.917  1.00  0.00     0.338 C 
ATOM     26  O   UNL A   1      44.710  24.093  24.305  1.00  0.00    -0.246 OA
BRANCH  25  27
ATOM     27  C   UNL A   1      43.045  24.814  25.838  1.00  0.00     0.060 A 
ATOM     28  C   UNL A   1      43.316  26.177  25.735  1.00  0.00     0.016 A 
ATOM     29  C   UNL A   1      42.260  24.345  26.890  1.00  0.00     0.016 A 
ATOM     30  C   UNL A   1      42.891  27.060  26.730  1.00  0.00     0.010 A 
ATOM     31  C   UNL A   1      41.754  25.243  27.836  1.00  0.00     0.010 A 
ATOM     32  C   UNL A   1      42.105  26.606  27.799  1.00  0.00    -0.014 A 
BRANCH  32  33
ATOM     33  C   UNL A   1      41.721  27.518  28.919  1.00  0.00     0.031 A 
ATOM     34  C   UNL A   1      42.575  27.585  30.161  1.00  0.00     0.074 A 
ATOM     35  C   UNL A   1      40.626  28.300  28.843  1.00  0.00     0.049 A 
ATOM     36  N   UNL A   1      42.321  28.148  31.317  1.00  0.00    -0.248 NA
ATOM     37  C   UNL A   1      43.880  26.908  30.103  1.00  0.00     0.031 C 
ATOM     38  C   UNL A   1      39.713  28.379  27.703  1.00  0.00     0.029 A 
ATOM     39  N   UNL A   1      40.097  29.188  29.751  1.00  0.00    -0.354 N 
ATOM     40  C   UNL A   1      43.388  27.818  32.143  1.00  0.00     0.074 A 
ATOM     41  C   UNL A   1      44.302  27.021  31.354  1.00  0.00     0.031 C 
ATOM     42  C   UNL A   1      38.767  29.296  27.960  1.00  0.00     0.029 A 
ATOM     43  C   UNL A   1      38.957  29.814  29.311  1.00  0.00     0.049 A 
ATOM     44  H   UNL A   1      40.499  29.359  30.634  1.00  0.00     0.167 HD
ATOM     45  C   UNL A   1      43.586  28.143  33.443  1.00  0.00     0.037 A 
ATOM     46  C   UNL A   1      38.134  30.682  29.932  1.00  0.00     0.037 A 
ATOM     47  C   UNL A   1      42.737  29.020  34.206  1.00  0.00     0.049 A 
ATOM     48  C   UNL A   1      38.406  31.079  31.357  1.00  0.00     0.074 A 
ATOM     49  C   UNL A   1      42.881  29.438  35.517  1.00  0.00     0.029 A 
ATOM     50  N   UNL A   1      41.599  29.640  33.713  1.00  0.00    -0.354 N 
ATOM     51  N   UNL A   1      39.377  30.700  32.149  1.00  0.00    -0.248 NA
ATOM     52  C   UNL A   1      37.450  32.009  31.979  1.00  0.00     0.031 C 
ATOM     53  C   UNL A   1      41.822  30.299  35.825  1.00  0.00     0.029 A 
ATOM     54  C   UNL A   1      41.034  30.438  34.694  1.00  0.00     0.049 A 
ATOM     55  H   UNL A   1      41.245  29.528  32.801  1.00  0.00     0.167 HD
ATOM     56  C   UNL A   1      39.149  31.336  33.361  1.00  0.00     0.074 A 
ATOM     57  C   UNL A   1      37.964  32.150  33.194  1.00  0.00     0.031 C 
ATOM     58  C   UNL A   1      39.853  31.240  34.515  1.00  0.00     0.037 A 
BRANCH  45  59
ATOM     59  C   UNL A   1      44.757  27.519  34.144  1.00  0.00     0.064 A 
ATOM     60  C   UNL A   1      46.001  28.156  34.230  1.00  0.00     0.173 A 
ATOM     61  C   UNL A   1      44.612  26.270  34.768  1.00  0.00     0.173 A 
ATOM     62  F   UNL A   1      46.194  29.344  33.638  1.00  0.00    -0.203 F 
ATOM     63  C   UNL A   1      47.067  27.555  34.897  1.00  0.00     0.198 A 
ATOM     64  C   UNL A   1      45.670  25.683  35.455  1.00  0.00     0.198 A 
ATOM     65  F   UNL A   1      43.438  25.622  34.719  1.00  0.00    -0.203 F 
ATOM     66  F   UNL A   1      48.260  28.163  34.933  1.00  0.00    -0.200 F 
ATOM     67  C   UNL A   1      46.899  26.323  35.513  1.00  0.00     0.200 A 
ATOM     68  F   UNL A   1      45.503  24.498  36.058  1.00  0.00    -0.200 F 
ATOM     69  F   UNL A   1      47.923  25.750  36.159  1.00  0.00    -0.200 F 
ENDBRANCH  45  59
BRANCH  46  70
ATOM     70  C   UNL A   1      36.952  31.215  29.209  1.00  0.00     0.064 A 
ATOM     71  C   UNL A   1      36.933  32.535  28.738  1.00  0.00     0.173 A 
ATOM     72  C   UNL A   1      35.832  30.412  28.955  1.00  0.00     0.173 A 
ATOM     73  F   UNL A   1      37.971  33.348  28.982  1.00  0.00    -0.203 F 
ATOM     74  C   UNL A   1      35.835  33.032  28.040  1.00  0.00     0.198 A 
ATOM     75  C   UNL A   1      34.745  30.902  28.234  1.00  0.00     0.198 A 
ATOM     76  F   UNL A   1      35.803  29.144  29.388  1.00  0.00    -0.203 F 
ATOM     77  F   UNL A   1      35.828  34.306  27.625  1.00  0.00    -0.200 F 
ATOM     78  C   UNL A   1      34.747  32.213  27.779  1.00  0.00     0.200 A 
ATOM     79  F   UNL A   1      33.700  30.104  27.975  1.00  0.00    -0.200 F 
ATOM     80  F   UNL A   1      33.696  32.687  27.095  1.00  0.00    -0.200 F 
ENDBRANCH  46  70
BRANCH  58  81
ATOM     81  C   UNL A   1      39.362  32.040  35.684  1.00  0.00     0.064 A 
ATOM     82  C   UNL A   1      39.783  33.362  35.889  1.00  0.00     0.173 A 
ATOM     83  C   UNL A   1      38.441  31.493  36.588  1.00  0.00     0.173 A 
ATOM     84  F   UNL A   1      40.675  33.922  35.058  1.00  0.00    -0.203 F 
ATOM     85  C   UNL A   1      39.313  34.101  36.971  1.00  0.00     0.198 A 
ATOM     86  C   UNL A   1      37.959  32.241  37.657  1.00  0.00     0.198 A 
ATOM     87  F   UNL A   1      38.007  30.232  36.431  1.00  0.00    -0.203 F 
ATOM     88  F   UNL A   1      39.756  35.350  37.170  1.00  0.00    -0.200 F 
ATOM     89  C   UNL A   1      38.399  33.542  37.851  1.00  0.00     0.200 A 
ATOM     90  F   UNL A   1      37.071  31.702  38.505  1.00  0.00    -0.200 F 
ATOM     91  F   UNL A   1      37.946  34.256  38.892  1.00  0.00    -0.200 F 
ENDBRANCH  58  81
ENDBRANCH  32  33
ENDBRANCH  25  27
ENDBRANCH  24  25
ENDBRANCH  23  24
ENDBRANCH   1  23
TORSDOF 14
ENDMDL
MODEL 2
REMARK VINA RESULT:     -12.2      4.520      8.780
REMARK SMILES CCC(=O)Nc1ccc(-c2ccc(C(=O)OCCOC(=O)c3ccc(-c4c5nc(c(-c6c(F)c(F)c(F)c(F)c6F)c6ccc([nH]6)c(-c6c(F)c(F)c(F)c(F)c6F)c6nc(c(-c7c(F)c(F)c(F)c(F)c7F)c7ccc4[nH]7)C=C6)C=C5)cc3)cc2)nc1
REMARK SMILES IDX 17 1 16 2 14 3 15 4 13 5 10 6 11 7 86 8 12 9 85 10 9 11 6 12
REMARK SMILES IDX 7 13 88 14 8 15 87 16 5 17 3 18 4 19 2 21 1 22 18 23 19 24
REMARK SMILES IDX 20 25 21 26 22 27 23 28 84 29 24 30 83 31 25 32 26 33 27 34
REMARK SMILES IDX 77 35 28 36 82 37 76 38 78 39 29 40 81 41 75 42 74 43 30 45
REMARK SMILES IDX 62 46 42 47 61 48 43 49 46 50 60 51 79 52 44 53 45 54 59 56
REMARK SMILES IDX 80 57 47 58 31 59 32 60 40 61 33 62 34 63 38 64 41 65 35 66
REMARK SMILES IDX 36 67 39 68 37 69 63 70 64 71 72 72 65 73 66 74 70 75 73 76
REMARK SMILES IDX 67 77 68 78 71 79 69 80 48 81 49 82 57 83 50 84 51 85 55 86
REMARK SMILES IDX 58 87 52 88 53 89 56 90 54 91
REMARK H PARENT 5 20 78 44 46 55
REMARK Flexibility Score: inf
ROOT
ATOM      1  C   UNL A   1      35.262  21.050  25.346  1.00  0.00     0.275 C 
ENDROOT
BRANCH   1   2
ATOM      2  O   UNL A   1      35.373  22.192  26.220  1.00  0.00    -0.458 OA
BRANCH   2   3
ATOM      3  C   UNL A   1      34.241  22.516  26.890  1.00  0.00     0.338 C 
ATOM      4  O   UNL A   1      33.782  21.945  27.868  1.00  0.00    -0.246 OA
BRANCH   3   5
ATOM      5  C   UNL A   1      33.639  23.751  26.340  1.00  0.00     0.060 A 
ATOM      6  C   UNL A   1      32.352  25.986  25.203  1.00  0.00     0.000 A 
ATOM      7  C   UNL A   1      31.631  25.044  25.951  1.00  0.00     0.011 A 
ATOM      8  C   UNL A   1      33.741  25.807  25.067  1.00  0.00     0.011 A 
ATOM      9  C   UNL A   1      32.259  23.924  26.485  1.00  0.00     0.016 A 
ATOM     10  C   UNL A   1      34.387  24.705  25.645  1.00  0.00     0.016 A 
BRANCH   6  11
ATOM     11  C   UNL A   1      31.613  27.036  24.497  1.00  0.00     0.070 A 
ATOM     12  C   UNL A   1      30.673  29.067  22.893  1.00  0.00     0.059 A 
ATOM     13  C   UNL A   1      31.080  29.352  24.191  1.00  0.00     0.030 A 
ATOM     14  C   UNL A   1      30.665  27.735  22.502  1.00  0.00     0.137 A 
ATOM     15  C   UNL A   1      31.554  28.330  25.006  1.00  0.00     0.031 A 
ATOM     16  N   UNL A   1      31.153  26.723  23.260  1.00  0.00    -0.254 NA
BRANCH  12  17
ATOM     17  N   UNL A   1      30.229  30.067  22.021  1.00  0.00    -0.325 N 
ATOM     18  C   UNL A   1      28.941  30.436  21.730  1.00  0.00     0.224 C 
ATOM     19  O   UNL A   1      28.719  31.105  20.721  1.00  0.00    -0.275 OA
ATOM     20  H   UNL A   1      30.934  30.571  21.553  1.00  0.00     0.169 HD
BRANCH  18  21
ATOM     21  C   UNL A   1      27.838  30.155  22.740  1.00  0.00     0.097 C 
ATOM     22  C   UNL A   1      27.615  31.254  23.759  1.00  0.00     0.014 C 
ENDBRANCH  18  21
ENDBRANCH  12  17
ENDBRANCH   6  11
ENDBRANCH   3   5
ENDBRANCH   2   3
ENDBRANCH   1   2
BRANCH   1  23
ATOM     23  C   UNL A   1      36.647  20.512  24.988  1.00  0.00     0.275 C 
BRANCH  23  24
ATOM     24  O   UNL A   1      37.618  21.568  25.107  1.00  0.00    -0.458 OA
BRANCH  24  25
ATOM     25  C   UNL A   1      38.725  21.271  25.821  1.00  0.00     0.338 C 
ATOM     26  O   UNL A   1      39.236  20.169  25.966  1.00  0.00    -0.246 OA
BRANCH  25  27
ATOM     27  C   UNL A   1      39.274  22.495  26.443  1.00  0.00     0.060 A 
ATOM     28  C   UNL A   1      38.746  23.747  26.136  1.00  0.00     0.016 A 
ATOM     29  C   UNL A   1      40.404  22.404  27.256  1.00  0.00     0.016 A 
ATOM     30  C   UNL A   1      39.396  24.911  26.552  1.00  0.00     0.010 A 
ATOM     31  C   UNL A   1      41.001  23.569  27.751  1.00  0.00     0.010 A 
ATOM     32  C   UNL A   1      40.537  24.840  27.364  1.00  0.00    -0.014 A 
BRANCH  32  33
ATOM     33  C   UNL A   1      41.296  26.071  27.739  1.00  0.00     0.031 A 
ATOM     34  C   UNL A   1      40.631  27.144  28.565  1.00  0.00     0.074 A 
ATOM     35  C   UNL A   1      42.580  26.246  27.364  1.00  0.00     0.049 A 
ATOM     36  N   UNL A   1      41.033  28.364  28.828  1.00  0.00    -0.248 NA
ATOM     37  C   UNL A   1      39.325  26.808  29.155  1.00  0.00     0.031 C 
ATOM     38  C   UNL A   1      43.379  25.294  26.594  1.00  0.00     0.029 A 
ATOM     39  N   UNL A   1      43.443  27.293  27.592  1.00  0.00    -0.354 N 
ATOM     40  C   UNL A   1      39.996  28.962  29.533  1.00  0.00     0.074 A 
ATOM     41  C   UNL A   1      38.953  27.969  29.673  1.00  0.00     0.031 C 
ATOM     42  C   UNL A   1      44.622  25.778  26.451  1.00  0.00     0.029 A 
ATOM     43  C   UNL A   1      44.690  27.107  27.050  1.00  0.00     0.049 A 
ATOM     44  H   UNL A   1      43.189  28.100  28.095  1.00  0.00     0.167 HD
ATOM     45  C   UNL A   1      39.917  30.226  30.014  1.00  0.00     0.037 A 
ATOM     46  C   UNL A   1      45.762  27.923  27.008  1.00  0.00     0.037 A 
ATOM     47  C   UNL A   1      40.989  31.186  29.971  1.00  0.00     0.049 A 
ATOM     48  C   UNL A   1      45.675  29.301  27.603  1.00  0.00     0.074 A 
ATOM     49  C   UNL A   1      41.013  32.478  30.469  1.00  0.00     0.029 A 
ATOM     50  N   UNL A   1      42.239  30.947  29.423  1.00  0.00    -0.354 N 
ATOM     51  N   UNL A   1      44.663  29.880  28.200  1.00  0.00    -0.248 NA
ATOM     52  C   UNL A   1      46.874  30.147  27.497  1.00  0.00     0.031 C 
ATOM     53  C   UNL A   1      42.273  33.027  30.208  1.00  0.00     0.029 A 
ATOM     54  C   UNL A   1      43.042  32.067  29.573  1.00  0.00     0.049 A 
ATOM     55  H   UNL A   1      42.515  30.107  28.990  1.00  0.00     0.167 HD
ATOM     56  C   UNL A   1      45.098  31.155  28.534  1.00  0.00     0.074 A 
ATOM     57  C   UNL A   1      46.475  31.257  28.101  1.00  0.00     0.031 C 
ATOM     58  C   UNL A   1      44.409  32.157  29.134  1.00  0.00     0.037 A 
BRANCH  45  59
ATOM     59  C   UNL A   1      38.610  30.662  30.606  1.00  0.00     0.064 A 
ATOM     60  C   UNL A   1      38.388  30.688  31.989  1.00  0.00     0.173 A 
ATOM     61  C   UNL A   1      37.573  31.094  29.764  1.00  0.00     0.173 A 
ATOM     62  F   UNL A   1      39.343  30.273  32.834  1.00  0.00    -0.203 F 
ATOM     63  C   UNL A   1      37.165  31.109  32.508  1.00  0.00     0.198 A 
ATOM     64  C   UNL A   1      36.361  31.537  30.286  1.00  0.00     0.198 A 
ATOM     65  F   UNL A   1      37.738  31.094  28.432  1.00  0.00    -0.203 F 
ATOM     66  F   UNL A   1      36.958  31.087  33.831  1.00  0.00    -0.200 F 
ATOM     67  C   UNL A   1      36.156  31.538  31.657  1.00  0.00     0.200 A 
ATOM     68  F   UNL A   1      35.392  31.962  29.463  1.00  0.00    -0.200 F 
ATOM     69  F   UNL A   1      34.983  31.948  32.159  1.00  0.00    -0.200 F 
ENDBRANCH  45  59
BRANCH  46  70
ATOM     70  C   UNL A   1      47.010  27.459  26.350  1.00  0.00     0.064 A 
ATOM     71  C   UNL A   1      48.043  26.879  27.097  1.00  0.00     0.173 A 
ATOM     72  C   UNL A   1      47.183  27.567  24.963  1.00  0.00     0.173 A 
ATOM     73  F   UNL A   1      47.934  26.782  28.429  1.00  0.00    -0.203 F 
ATOM     74  C   UNL A   1      49.206  26.423  26.479  1.00  0.00     0.198 A 
ATOM     75  C   UNL A   1      48.335  27.087  24.343  1.00  0.00     0.198 A 
ATOM     76  F   UNL A   1      46.222  28.118  24.207  1.00  0.00    -0.203 F 
ATOM     77  F   UNL A   1      50.193  25.898  27.218  1.00  0.00    -0.200 F 
ATOM     78  C   UNL A   1      49.347  26.518  25.102  1.00  0.00     0.200 A 
ATOM     79  F   UNL A   1      48.462  27.170  23.012  1.00  0.00    -0.200 F 
ATOM     80  F   UNL A   1      50.459  26.067  24.507  1.00  0.00    -0.200 F 
ENDBRANCH  46  70
BRANCH  58  81
ATOM     81  C   UNL A   1      45.138  33.447  29.361  1.00  0.00     0.064 A 
ATOM     82  C   UNL A   1      45.926  33.646  30.503  1.00  0.00     0.173 A 
ATOM     83  C   UNL A   1      45.072  34.480  28.416  1.00  0.00     0.173 A 
ATOM     84  F   UNL A   1      46.007  32.691  31.442  1.00  0.00    -0.203 F 
ATOM     85  C   UNL A   1      46.609  34.843  30.700  1.00  0.00     0.198 A 
ATOM     86  C   UNL A   1      45.770  35.668  28.606  1.00  0.00     0.198 A 
ATOM     87  F   UNL A   1      44.332  34.335  27.306  1.00  0.00    -0.203 F 
ATOM     88  F   UNL A   1      47.327  35.027  31.815  1.00  0.00    -0.200 F 
ATOM     89  C   UNL A   1      46.534  35.851  29.750  1.00  0.00     0.200 A 
ATOM     90  F   UNL A   1      45.702  36.640  27.686  1.00  0.00    -0.200 F 
ATOM     91  F   UNL A   1      47.192  37.003  29.941  1.00  0.00    -0.200 F 
ENDBRANCH  58  81
ENDBRANCH  32  33
ENDBRANCH  25  27
ENDBRANCH  24  25
ENDBRANCH  23  24
ENDBRANCH   1  23
TORSDOF 14
ENDMDL
MODEL 3
REMARK VINA RESULT:     -12.0      0.594      2.185
REMARK SMILES CCC(=O)Nc1ccc(-c2ccc(C(=O)OCCOC(=O)c3ccc(-c4c5nc(c(-c6c(F)c(F)c(F)c(F)c6F)c6ccc([nH]6)c(-c6c(F)c(F)c(F)c(F)c6F)c6nc(c(-c7c(F)c(F)c(F)c(F)c7F)c7ccc4[nH]7)C=C6)C=C5)cc3)cc2)nc1
REMARK SMILES IDX 17 1 16 2 14 3 15 4 13 5 10 6 11 7 86 8 12 9 85 10 9 11 6 12
REMARK SMILES IDX 7 13 88 14 8 15 87 16 5 17 3 18 4 19 2 21 1 22 18 23 19 24
REMARK SMILES IDX 20 25 21 26 22 27 23 28 84 29 24 30 83 31 25 32 26 33 27 34
REMARK SMILES IDX 77 35 28 36 82 37 76 38 78 39 29 40 81 41 75 42 74 43 30 45
REMARK SMILES IDX 62 46 42 47 61 48 43 49 46 50 60 51 79 52 44 53 45 54 59 56
REMARK SMILES IDX 80 57 47 58 31 59 32 60 40 61 33 62 34 63 38 64 41 65 35 66
REMARK SMILES IDX 36 67 39 68 37 69 63 70 64 71 72 72 65 73 66 74 70 75 73 76
REMARK SMILES IDX 67 77 68 78 71 79 69 80 48 81 49 82 57 83 50 84 51 85 55 86
REMARK SMILES IDX 58 87 52 88 53 89 56 90 54 91
REMARK H PARENT 5 20 78 44 46 55
REMARK Flexibility Score: inf
ROOT
ATOM      1  C   UNL A   1      42.750  20.490  25.870  1.00  0.00     0.275 C 
ENDROOT
BRANCH   1   2
ATOM      2  O   UNL A   1      41.403  20.880  25.533  1.00  0.00    -0.458 OA
BRANCH   2   3
ATOM      3  C   UNL A   1      40.548  20.962  26.580  1.00  0.00     0.338 C 
ATOM      4  O   UNL A   1      40.753  20.580  27.723  1.00  0.00    -0.246 OA
BRANCH   3   5
ATOM      5  C   UNL A   1      39.313  21.682  26.197  1.00  0.00     0.060 A 
ATOM      6  C   UNL A   1      36.992  22.989  25.277  1.00  0.00     0.000 A 
ATOM      7  C   UNL A   1      37.202  21.627  25.015  1.00  0.00     0.011 A 
ATOM      8  C   UNL A   1      37.950  23.676  26.043  1.00  0.00     0.011 A 
ATOM      9  C   UNL A   1      38.363  20.989  25.441  1.00  0.00     0.016 A 
ATOM     10  C   UNL A   1      39.099  23.025  26.516  1.00  0.00     0.016 A 
BRANCH   6  11
ATOM     11  C   UNL A   1      35.855  23.658  24.640  1.00  0.00     0.070 A 
ATOM     12  C   UNL A   1      33.425  24.611  23.762  1.00  0.00     0.059 A 
ATOM     13  C   UNL A   1      34.112  23.679  22.994  1.00  0.00     0.030 A 
ATOM     14  C   UNL A   1      34.058  25.099  24.897  1.00  0.00     0.137 A 
ATOM     15  C   UNL A   1      35.341  23.195  23.433  1.00  0.00     0.031 A 
ATOM     16  N   UNL A   1      35.237  24.623  25.367  1.00  0.00    -0.254 NA
BRANCH  12  17
ATOM     17  N   UNL A   1      32.168  25.096  23.385  1.00  0.00    -0.325 N 
ATOM     18  C   UNL A   1      31.866  26.048  22.447  1.00  0.00     0.224 C 
ATOM     19  O   UNL A   1      30.755  26.580  22.462  1.00  0.00    -0.275 OA
ATOM     20  H   UNL A   1      31.398  24.702  23.858  1.00  0.00     0.169 HD
BRANCH  18  21
ATOM     21  C   UNL A   1      32.842  26.312  21.309  1.00  0.00     0.097 C 
ATOM     22  C   UNL A   1      32.528  25.577  20.022  1.00  0.00     0.014 C 
ENDBRANCH  18  21
ENDBRANCH  12  17
ENDBRANCH   6  11
ENDBRANCH   3   5
ENDBRANCH   2   3
ENDBRANCH   1   2
BRANCH   1  23
ATOM     23  C   UNL A   1      43.732  21.612  25.538  1.00  0.00     0.275 C 
BRANCH  23  24
ATOM     24  O   UNL A   1      43.013  22.734  24.993  1.00  0.00    -0.458 OA
BRANCH  24  25
ATOM     25  C   UNL A   1      43.674  23.912  24.994  1.00  0.00     0.338 C 
ATOM     26  O   UNL A   1      44.669  24.201  24.343  1.00  0.00    -0.246 OA
BRANCH  25  27
ATOM     27  C   UNL A   1      43.024  24.860  25.924  1.00  0.00     0.060 A 
ATOM     28  C   UNL A   1      43.293  26.225  25.852  1.00  0.00     0.016 A 
ATOM     29  C   UNL A   1      42.224  24.368  26.955  1.00  0.00     0.016 A 
ATOM     30  C   UNL A   1      42.851  27.088  26.858  1.00  0.00     0.010 A 
ATOM     31  C   UNL A   1      41.703  25.247  27.912  1.00  0.00     0.010 A 
ATOM     32  C   UNL A   1      42.052  26.611  27.906  1.00  0.00    -0.014 A 
BRANCH  32  33
ATOM     33  C   UNL A   1      41.650  27.500  29.038  1.00  0.00     0.031 A 
ATOM     34  C   UNL A   1      42.457  27.508  30.313  1.00  0.00     0.074 A 
ATOM     35  C   UNL A   1      40.578  28.314  28.946  1.00  0.00     0.049 A 
ATOM     36  N   UNL A   1      42.174  28.044  31.475  1.00  0.00    -0.248 NA
ATOM     37  C   UNL A   1      43.745  26.798  30.283  1.00  0.00     0.031 C 
ATOM     38  C   UNL A   1      39.712  28.451  27.776  1.00  0.00     0.029 A 
ATOM     39  N   UNL A   1      40.039  29.189  29.860  1.00  0.00    -0.354 N 
ATOM     40  C   UNL A   1      43.200  27.661  32.330  1.00  0.00     0.074 A 
ATOM     41  C   UNL A   1      44.122  26.863  31.551  1.00  0.00     0.031 C 
ATOM     42  C   UNL A   1      38.781  29.385  28.024  1.00  0.00     0.029 A 
ATOM     43  C   UNL A   1      38.933  29.858  29.396  1.00  0.00     0.049 A 
ATOM     44  H   UNL A   1      40.411  29.323  30.761  1.00  0.00     0.167 HD
ATOM     45  C   UNL A   1      43.357  27.942  33.645  1.00  0.00     0.037 A 
ATOM     46  C   UNL A   1      38.110  30.730  30.012  1.00  0.00     0.037 A 
ATOM     47  C   UNL A   1      42.502  28.820  34.402  1.00  0.00     0.049 A 
ATOM     48  C   UNL A   1      38.337  31.078  31.457  1.00  0.00     0.074 A 
ATOM     49  C   UNL A   1      42.608  29.196  35.730  1.00  0.00     0.029 A 
ATOM     50  N   UNL A   1      41.401  29.484  33.886  1.00  0.00    -0.354 N 
ATOM     51  N   UNL A   1      39.267  30.649  32.273  1.00  0.00    -0.248 NA
ATOM     52  C   UNL A   1      37.384  32.014  32.072  1.00  0.00     0.031 C 
ATOM     53  C   UNL A   1      41.560  30.075  36.023  1.00  0.00     0.029 A 
ATOM     54  C   UNL A   1      40.819  30.269  34.870  1.00  0.00     0.049 A 
ATOM     55  H   UNL A   1      41.079  29.409  32.959  1.00  0.00     0.167 HD
ATOM     56  C   UNL A   1      39.011  31.255  33.495  1.00  0.00     0.074 A 
ATOM     57  C   UNL A   1      37.855  32.107  33.308  1.00  0.00     0.031 C 
ATOM     58  C   UNL A   1      39.667  31.107  34.671  1.00  0.00     0.037 A 
BRANCH  45  59
ATOM     59  C   UNL A   1      44.484  27.267  34.370  1.00  0.00     0.064 A 
ATOM     60  C   UNL A   1      44.355  25.985  34.921  1.00  0.00     0.173 A 
ATOM     61  C   UNL A   1      45.726  27.911  34.482  1.00  0.00     0.173 A 
ATOM     62  F   UNL A   1      43.184  25.335  34.852  1.00  0.00    -0.203 F 
ATOM     63  C   UNL A   1      45.424  25.381  35.579  1.00  0.00     0.198 A 
ATOM     64  C   UNL A   1      46.800  27.294  35.117  1.00  0.00     0.198 A 
ATOM     65  F   UNL A   1      45.902  29.136  33.964  1.00  0.00    -0.203 F 
ATOM     66  F   UNL A   1      45.269  24.171  36.134  1.00  0.00    -0.200 F 
ATOM     67  C   UNL A   1      46.646  26.032  35.671  1.00  0.00     0.200 A 
ATOM     68  F   UNL A   1      47.981  27.921  35.196  1.00  0.00    -0.200 F 
ATOM     69  F   UNL A   1      47.674  25.446  36.299  1.00  0.00    -0.200 F 
ENDBRANCH  45  59
BRANCH  46  70
ATOM     70  C   UNL A   1      36.971  31.316  29.262  1.00  0.00     0.064 A 
ATOM     71  C   UNL A   1      35.851  30.540  28.934  1.00  0.00     0.173 A 
ATOM     72  C   UNL A   1      36.970  32.664  28.878  1.00  0.00     0.173 A 
ATOM     73  F   UNL A   1      35.820  29.239  29.257  1.00  0.00    -0.203 F 
ATOM     74  C   UNL A   1      34.771  31.092  28.249  1.00  0.00     0.198 A 
ATOM     75  C   UNL A   1      35.878  33.222  28.215  1.00  0.00     0.198 A 
ATOM     76  F   UNL A   1      38.021  33.446  29.166  1.00  0.00    -0.203 F 
ATOM     77  F   UNL A   1      33.724  30.323  27.922  1.00  0.00    -0.200 F 
ATOM     78  C   UNL A   1      34.781  32.434  27.899  1.00  0.00     0.200 A 
ATOM     79  F   UNL A   1      35.887  34.521  27.889  1.00  0.00    -0.200 F 
ATOM     80  F   UNL A   1      33.736  32.969  27.253  1.00  0.00    -0.200 F 
ENDBRANCH  46  70
BRANCH  58  81
ATOM     81  C   UNL A   1      39.154  31.886  35.844  1.00  0.00     0.064 A 
ATOM     82  C   UNL A   1      38.243  31.322  36.749  1.00  0.00     0.173 A 
ATOM     83  C   UNL A   1      39.598  33.194  36.083  1.00  0.00     0.173 A 
ATOM     84  F   UNL A   1      37.779  30.079  36.553  1.00  0.00    -0.203 F 
ATOM     85  C   UNL A   1      37.781  32.049  37.843  1.00  0.00     0.198 A 
ATOM     86  C   UNL A   1      39.149  33.911  37.187  1.00  0.00     0.198 A 
ATOM     87  F   UNL A   1      40.472  33.775  35.245  1.00  0.00    -0.203 F 
ATOM     88  F   UNL A   1      36.883  31.505  38.675  1.00  0.00    -0.200 F 
ATOM     89  C   UNL A   1      38.237  33.341  38.063  1.00  0.00     0.200 A 
ATOM     90  F   UNL A   1      39.593  35.157  37.403  1.00  0.00    -0.200 F 
ATOM     91  F   UNL A   1      37.791  34.039  39.117  1.00  0.00    -0.200 F 
ENDBRANCH  58  81
ENDBRANCH  32  33
ENDBRANCH  25  27
ENDBRANCH  24  25
ENDBRANCH  23  24
ENDBRANCH   1  23
TORSDOF 14
ENDMDL
