MODEL 1
REMARK VINA RESULT:     -11.5      0.000      0.000
REMARK SMILES O=C(OCCOC(=O)c1cc(-c2ccoc2)nc2c(F)cccc12)c1ccc(-c2c3nc(c(-c4c(F)c(F)c(F)c(F)c4F)c4ccc([nH]4)c(-c4c(F)c(F)c(F)c(F)c4F)c4nc(c(-c5c(F)c(F)c(F)c(F)c5F)c5ccc2[nH]5)C=C4)C=C3)cc1
REMARK SMILES IDX 4 1 3 2 2 3 1 4 25 5 26 6 87 7 27 8 86 9 28 10 29 11 30 12
REMARK SMILES IDX 80 13 31 14 85 15 79 16 81 17 32 18 84 19 78 20 77 21 33 23
REMARK SMILES IDX 65 24 45 25 64 26 46 27 49 28 63 29 82 30 47 31 48 32 62 34
REMARK SMILES IDX 83 35 50 36 34 37 35 38 43 39 36 40 37 41 41 42 44 43 38 44
REMARK SMILES IDX 39 45 42 46 40 47 66 48 67 49 75 50 68 51 69 52 73 53 76 54
REMARK SMILES IDX 70 55 71 56 74 57 72 58 51 59 52 60 60 61 53 62 54 63 58 64
REMARK SMILES IDX 61 65 55 66 56 67 59 68 57 69 5 70 6 71 7 72 8 73 9 74 10 75
REMARK SMILES IDX 24 76 11 77 18 78 23 79 17 80 19 81 22 82 20 83 21 84 12 85
REMARK SMILES IDX 13 86 16 87 14 88 15 89
REMARK H PARENT 81 22 49 33
REMARK Flexibility Score: inf
ROOT
ATOM      1  C   UNL A   1      33.278  37.258  30.257  1.00  0.00     0.275 C 
ENDROOT
BRANCH   1   2
ATOM      2  O   UNL A   1      32.685  36.960  31.529  1.00  0.00    -0.458 OA
BRANCH   2   3
ATOM      3  C   UNL A   1      32.513  35.783  32.166  1.00  0.00     0.338 C 
ATOM      4  O   UNL A   1      31.388  35.516  32.588  1.00  0.00    -0.246 OA
BRANCH   3   5
ATOM      5  C   UNL A   1      33.611  34.806  32.489  1.00  0.00     0.060 A 
ATOM      6  C   UNL A   1      33.491  33.549  33.086  1.00  0.00     0.016 A 
ATOM      7  C   UNL A   1      34.903  35.210  32.107  1.00  0.00     0.016 A 
ATOM      8  C   UNL A   1      34.597  32.703  33.250  1.00  0.00     0.010 A 
ATOM      9  C   UNL A   1      36.009  34.368  32.240  1.00  0.00     0.010 A 
ATOM     10  C   UNL A   1      35.862  33.110  32.833  1.00  0.00    -0.014 A 
BRANCH  10  11
ATOM     11  C   UNL A   1      37.069  32.348  33.216  1.00  0.00     0.031 A 
ATOM     12  C   UNL A   1      37.816  32.799  34.428  1.00  0.00     0.074 A 
ATOM     13  C   UNL A   1      37.494  31.277  32.525  1.00  0.00     0.049 A 
ATOM     14  N   UNL A   1      38.935  32.346  34.925  1.00  0.00    -0.248 NA
ATOM     15  C   UNL A   1      37.200  33.887  35.204  1.00  0.00     0.031 C 
ATOM     16  C   UNL A   1      36.773  30.651  31.428  1.00  0.00     0.029 A 
ATOM     17  N   UNL A   1      38.651  30.545  32.628  1.00  0.00    -0.354 N 
ATOM     18  C   UNL A   1      39.137  33.070  36.088  1.00  0.00     0.074 A 
ATOM     19  C   UNL A   1      38.075  34.047  36.180  1.00  0.00     0.031 C 
ATOM     20  C   UNL A   1      37.542  29.688  30.893  1.00  0.00     0.029 A 
ATOM     21  C   UNL A   1      38.813  29.651  31.598  1.00  0.00     0.049 A 
ATOM     22  H   UNL A   1      39.295  30.649  33.364  1.00  0.00     0.167 HD
ATOM     23  C   UNL A   1      40.103  32.901  37.018  1.00  0.00     0.037 A 
ATOM     24  C   UNL A   1      39.878  28.910  31.240  1.00  0.00     0.037 A 
ATOM     25  C   UNL A   1      41.174  31.952  36.885  1.00  0.00     0.049 A 
ATOM     26  C   UNL A   1      41.057  28.879  32.164  1.00  0.00     0.074 A 
ATOM     27  C   UNL A   1      42.221  31.704  37.750  1.00  0.00     0.029 A 
ATOM     28  N   UNL A   1      41.346  31.112  35.790  1.00  0.00    -0.354 N 
ATOM     29  N   UNL A   1      41.234  29.539  33.281  1.00  0.00    -0.248 NA
ATOM     30  C   UNL A   1      42.149  27.961  31.822  1.00  0.00     0.031 C 
ATOM     31  C   UNL A   1      43.063  30.761  37.149  1.00  0.00     0.029 A 
ATOM     32  C   UNL A   1      42.505  30.370  35.941  1.00  0.00     0.049 A 
ATOM     33  H   UNL A   1      40.734  31.055  35.020  1.00  0.00     0.167 HD
ATOM     34  C   UNL A   1      42.419  29.067  33.820  1.00  0.00     0.074 A 
ATOM     35  C   UNL A   1      42.936  28.086  32.884  1.00  0.00     0.031 C 
ATOM     36  C   UNL A   1      42.998  29.391  35.001  1.00  0.00     0.037 A 
BRANCH  23  37
ATOM     37  C   UNL A   1      40.038  33.807  38.208  1.00  0.00     0.064 A 
ATOM     38  C   UNL A   1      39.207  33.522  39.305  1.00  0.00     0.173 A 
ATOM     39  C   UNL A   1      40.734  35.022  38.209  1.00  0.00     0.173 A 
ATOM     40  F   UNL A   1      38.494  32.386  39.338  1.00  0.00    -0.203 F 
ATOM     41  C   UNL A   1      39.033  34.449  40.329  1.00  0.00     0.198 A 
ATOM     42  C   UNL A   1      40.582  35.932  39.251  1.00  0.00     0.198 A 
ATOM     43  F   UNL A   1      41.534  35.345  37.181  1.00  0.00    -0.203 F 
ATOM     44  F   UNL A   1      38.162  34.196  41.318  1.00  0.00    -0.200 F 
ATOM     45  C   UNL A   1      39.719  35.653  40.301  1.00  0.00     0.200 A 
ATOM     46  F   UNL A   1      41.249  37.094  39.225  1.00  0.00    -0.200 F 
ATOM     47  F   UNL A   1      39.531  36.555  41.274  1.00  0.00    -0.200 F 
ENDBRANCH  23  37
BRANCH  24  48
ATOM     48  C   UNL A   1      39.848  28.135  29.972  1.00  0.00     0.064 A 
ATOM     49  C   UNL A   1      40.421  28.632  28.796  1.00  0.00     0.173 A 
ATOM     50  C   UNL A   1      39.269  26.855  29.926  1.00  0.00     0.173 A 
ATOM     51  F   UNL A   1      40.972  29.854  28.786  1.00  0.00    -0.203 F 
ATOM     52  C   UNL A   1      40.416  27.883  27.620  1.00  0.00     0.198 A 
ATOM     53  C   UNL A   1      39.280  26.099  28.754  1.00  0.00     0.198 A 
ATOM     54  F   UNL A   1      38.699  26.338  31.023  1.00  0.00    -0.203 F 
ATOM     55  F   UNL A   1      40.956  28.390  26.503  1.00  0.00    -0.200 F 
ATOM     56  C   UNL A   1      39.852  26.616  27.602  1.00  0.00     0.200 A 
ATOM     57  F   UNL A   1      38.739  24.874  28.739  1.00  0.00    -0.200 F 
ATOM     58  F   UNL A   1      39.860  25.893  26.472  1.00  0.00    -0.200 F 
ENDBRANCH  24  48
BRANCH  36  59
ATOM     59  C   UNL A   1      44.225  28.626  35.393  1.00  0.00     0.064 A 
ATOM     60  C   UNL A   1      45.513  29.075  35.077  1.00  0.00     0.173 A 
ATOM     61  C   UNL A   1      44.099  27.459  36.163  1.00  0.00     0.173 A 
ATOM     62  F   UNL A   1      45.681  30.174  34.327  1.00  0.00    -0.203 F 
ATOM     63  C   UNL A   1      46.636  28.375  35.510  1.00  0.00     0.198 A 
ATOM     64  C   UNL A   1      45.223  26.781  36.620  1.00  0.00     0.198 A 
ATOM     65  F   UNL A   1      42.885  26.992  36.490  1.00  0.00    -0.203 F 
ATOM     66  F   UNL A   1      47.860  28.798  35.166  1.00  0.00    -0.200 F 
ATOM     67  C   UNL A   1      46.490  27.237  36.291  1.00  0.00     0.200 A 
ATOM     68  F   UNL A   1      45.080  25.692  37.388  1.00  0.00    -0.200 F 
ATOM     69  F   UNL A   1      47.573  26.577  36.724  1.00  0.00    -0.200 F 
ENDBRANCH  36  59
ENDBRANCH  10  11
ENDBRANCH   3   5
ENDBRANCH   2   3
ENDBRANCH   1   2
BRANCH   1  70
ATOM     70  C   UNL A   1      32.867  36.289  29.146  1.00  0.00     0.275 C 
BRANCH  70  71
ATOM     71  O   UNL A   1      33.949  35.457  28.689  1.00  0.00    -0.458 OA
BRANCH  71  72
ATOM     72  C   UNL A   1      33.609  34.196  28.315  1.00  0.00     0.339 C 
ATOM     73  O   UNL A   1      32.531  33.837  27.878  1.00  0.00    -0.246 OA
BRANCH  72  74
ATOM     74  C   UNL A   1      34.771  33.281  28.410  1.00  0.00     0.071 A 
ATOM     75  C   UNL A   1      35.975  33.861  28.828  1.00  0.00     0.045 A 
ATOM     76  C   UNL A   1      34.711  31.922  28.017  1.00  0.00     0.018 A 
ATOM     77  C   UNL A   1      37.100  33.064  28.864  1.00  0.00     0.075 A 
ATOM     78  C   UNL A   1      35.938  31.228  28.007  1.00  0.00     0.107 A 
ATOM     79  C   UNL A   1      33.530  31.231  27.626  1.00  0.00     0.011 A 
ATOM     80  N   UNL A   1      37.089  31.786  28.430  1.00  0.00    -0.245 NA
ATOM     81  C   UNL A   1      35.942  29.913  27.539  1.00  0.00     0.149 A 
ATOM     82  C   UNL A   1      33.564  29.901  27.209  1.00  0.00     0.004 A 
ATOM     83  F   UNL A   1      37.090  29.216  27.505  1.00  0.00    -0.205 F 
ATOM     84  C   UNL A   1      34.783  29.250  27.136  1.00  0.00     0.041 A 
BRANCH  77  85
ATOM     85  C   UNL A   1      38.384  33.528  29.352  1.00  0.00     0.038 A 
ATOM     86  C   UNL A   1      39.473  32.775  29.876  1.00  0.00     0.052 A 
ATOM     87  C   UNL A   1      38.755  34.849  29.501  1.00  0.00     0.205 A 
ATOM     88  C   UNL A   1      40.425  33.682  30.276  1.00  0.00     0.195 A 
ATOM     89  O   UNL A   1      39.992  34.948  30.054  1.00  0.00    -0.472 OA
ENDBRANCH  77  85
ENDBRANCH  72  74
ENDBRANCH  71  72
ENDBRANCH  70  71
ENDBRANCH   1  70
TORSDOF 12
ENDMDL
MODEL 2
REMARK VINA RESULT:     -11.5      7.805     13.558
REMARK SMILES O=C(OCCOC(=O)c1cc(-c2ccoc2)nc2c(F)cccc12)c1ccc(-c2c3nc(c(-c4c(F)c(F)c(F)c(F)c4F)c4ccc([nH]4)c(-c4c(F)c(F)c(F)c(F)c4F)c4nc(c(-c5c(F)c(F)c(F)c(F)c5F)c5ccc2[nH]5)C=C4)C=C3)cc1
REMARK SMILES IDX 4 1 3 2 2 3 1 4 25 5 26 6 87 7 27 8 86 9 28 10 29 11 30 12
REMARK SMILES IDX 80 13 31 14 85 15 79 16 81 17 32 18 84 19 78 20 77 21 33 23
REMARK SMILES IDX 65 24 45 25 64 26 46 27 49 28 63 29 82 30 47 31 48 32 62 34
REMARK SMILES IDX 83 35 50 36 34 37 35 38 43 39 36 40 37 41 41 42 44 43 38 44
REMARK SMILES IDX 39 45 42 46 40 47 66 48 67 49 75 50 68 51 69 52 73 53 76 54
REMARK SMILES IDX 70 55 71 56 74 57 72 58 51 59 52 60 60 61 53 62 54 63 58 64
REMARK SMILES IDX 61 65 55 66 56 67 59 68 57 69 5 70 6 71 7 72 8 73 9 74 10 75
REMARK SMILES IDX 24 76 11 77 18 78 23 79 17 80 19 81 22 82 20 83 21 84 12 85
REMARK SMILES IDX 13 86 16 87 14 88 15 89
REMARK H PARENT 81 22 49 33
REMARK Flexibility Score: inf
ROOT
ATOM      1  C   UNL A   1      44.171  18.100  26.139  1.00  0.00     0.275 C 
ENDROOT
BRANCH   1   2
ATOM      2  O   UNL A   1      44.293  18.414  24.744  1.00  0.00    -0.458 OA
BRANCH   2   3
ATOM      3  C   UNL A   1      45.048  19.337  24.112  1.00  0.00     0.338 C 
ATOM      4  O   UNL A   1      45.882  18.939  23.298  1.00  0.00    -0.246 OA
BRANCH   3   5
ATOM      5  C   UNL A   1      45.021  20.815  24.392  1.00  0.00     0.060 A 
ATOM      6  C   UNL A   1      44.717  21.850  23.504  1.00  0.00     0.016 A 
ATOM      7  C   UNL A   1      45.307  21.178  25.721  1.00  0.00     0.016 A 
ATOM      8  C   UNL A   1      44.645  23.184  23.926  1.00  0.00     0.010 A 
ATOM      9  C   UNL A   1      45.214  22.500  26.160  1.00  0.00     0.010 A 
ATOM     10  C   UNL A   1      44.899  23.517  25.254  1.00  0.00    -0.014 A 
BRANCH  10  11
ATOM     11  C   UNL A   1      45.072  24.926  25.664  1.00  0.00     0.031 A 
ATOM     12  C   UNL A   1      46.461  25.474  25.690  1.00  0.00     0.074 A 
ATOM     13  C   UNL A   1      44.034  25.713  25.994  1.00  0.00     0.049 A 
ATOM     14  N   UNL A   1      46.880  26.648  26.078  1.00  0.00    -0.248 NA
ATOM     15  C   UNL A   1      47.519  24.589  25.175  1.00  0.00     0.031 C 
ATOM     16  C   UNL A   1      42.633  25.347  25.861  1.00  0.00     0.029 A 
ATOM     17  N   UNL A   1      44.001  26.974  26.537  1.00  0.00    -0.354 N 
ATOM     18  C   UNL A   1      48.241  26.653  25.822  1.00  0.00     0.074 A 
ATOM     19  C   UNL A   1      48.593  25.341  25.326  1.00  0.00     0.031 C 
ATOM     20  C   UNL A   1      41.875  26.318  26.397  1.00  0.00     0.029 A 
ATOM     21  C   UNL A   1      42.742  27.358  26.927  1.00  0.00     0.049 A 
ATOM     22  H   UNL A   1      44.798  27.544  26.634  1.00  0.00     0.167 HD
ATOM     23  C   UNL A   1      49.109  27.680  25.953  1.00  0.00     0.037 A 
ATOM     24  C   UNL A   1      42.333  28.410  27.659  1.00  0.00     0.037 A 
ATOM     25  C   UNL A   1      48.746  28.962  26.488  1.00  0.00     0.049 A 
ATOM     26  C   UNL A   1      43.341  29.465  28.000  1.00  0.00     0.074 A 
ATOM     27  C   UNL A   1      49.542  30.073  26.686  1.00  0.00     0.029 A 
ATOM     28  N   UNL A   1      47.473  29.291  26.941  1.00  0.00    -0.354 N 
ATOM     29  N   UNL A   1      44.623  29.485  27.729  1.00  0.00    -0.248 NA
ATOM     30  C   UNL A   1      42.847  30.666  28.681  1.00  0.00     0.031 C 
ATOM     31  C   UNL A   1      48.767  31.051  27.321  1.00  0.00     0.029 A 
ATOM     32  C   UNL A   1      47.471  30.576  27.455  1.00  0.00     0.049 A 
ATOM     33  H   UNL A   1      46.689  28.696  26.905  1.00  0.00     0.167 HD
ATOM     34  C   UNL A   1      45.080  30.727  28.136  1.00  0.00     0.074 A 
ATOM     35  C   UNL A   1      43.939  31.420  28.706  1.00  0.00     0.031 C 
ATOM     36  C   UNL A   1      46.322  31.253  28.010  1.00  0.00     0.037 A 
BRANCH  23  37
ATOM     37  C   UNL A   1      50.524  27.402  25.547  1.00  0.00     0.064 A 
ATOM     38  C   UNL A   1      50.947  27.532  24.213  1.00  0.00     0.173 A 
ATOM     39  C   UNL A   1      51.440  26.902  26.481  1.00  0.00     0.173 A 
ATOM     40  F   UNL A   1      50.097  27.976  23.274  1.00  0.00    -0.203 F 
ATOM     41  C   UNL A   1      52.216  27.117  23.822  1.00  0.00     0.198 A 
ATOM     42  C   UNL A   1      52.720  26.519  26.092  1.00  0.00     0.198 A 
ATOM     43  F   UNL A   1      51.083  26.751  27.766  1.00  0.00    -0.203 F 
ATOM     44  F   UNL A   1      52.565  27.162  22.528  1.00  0.00    -0.200 F 
ATOM     45  C   UNL A   1      53.101  26.610  24.761  1.00  0.00     0.200 A 
ATOM     46  F   UNL A   1      53.576  26.032  27.001  1.00  0.00    -0.200 F 
ATOM     47  F   UNL A   1      54.314  26.186  24.380  1.00  0.00    -0.200 F 
ENDBRANCH  23  37
BRANCH  24  48
ATOM     48  C   UNL A   1      40.913  28.509  28.084  1.00  0.00     0.064 A 
ATOM     49  C   UNL A   1      40.501  28.114  29.362  1.00  0.00     0.173 A 
ATOM     50  C   UNL A   1      39.940  29.041  27.220  1.00  0.00     0.173 A 
ATOM     51  F   UNL A   1      41.389  27.588  30.217  1.00  0.00    -0.203 F 
ATOM     52  C   UNL A   1      39.171  28.243  29.762  1.00  0.00     0.198 A 
ATOM     53  C   UNL A   1      38.613  29.184  27.626  1.00  0.00     0.198 A 
ATOM     54  F   UNL A   1      40.282  29.425  25.983  1.00  0.00    -0.203 F 
ATOM     55  F   UNL A   1      38.800  27.840  30.985  1.00  0.00    -0.200 F 
ATOM     56  C   UNL A   1      38.231  28.783  28.897  1.00  0.00     0.200 A 
ATOM     57  F   UNL A   1      37.708  29.711  26.792  1.00  0.00    -0.200 F 
ATOM     58  F   UNL A   1      36.956  28.916  29.289  1.00  0.00    -0.200 F 
ENDBRANCH  24  48
BRANCH  36  59
ATOM     59  C   UNL A   1      46.506  32.679  28.428  1.00  0.00     0.064 A 
ATOM     60  C   UNL A   1      46.950  33.026  29.710  1.00  0.00     0.173 A 
ATOM     61  C   UNL A   1      46.299  33.709  27.496  1.00  0.00     0.173 A 
ATOM     62  F   UNL A   1      47.141  32.079  30.639  1.00  0.00    -0.203 F 
ATOM     63  C   UNL A   1      47.171  34.358  30.049  1.00  0.00     0.198 A 
ATOM     64  C   UNL A   1      46.552  35.034  27.828  1.00  0.00     0.198 A 
ATOM     65  F   UNL A   1      45.874  33.423  26.256  1.00  0.00    -0.203 F 
ATOM     66  F   UNL A   1      47.560  34.675  31.292  1.00  0.00    -0.200 F 
ATOM     67  C   UNL A   1      46.985  35.358  29.104  1.00  0.00     0.200 A 
ATOM     68  F   UNL A   1      46.387  35.996  26.910  1.00  0.00    -0.200 F 
ATOM     69  F   UNL A   1      47.219  36.638  29.428  1.00  0.00    -0.200 F 
ENDBRANCH  36  59
ENDBRANCH  10  11
ENDBRANCH   3   5
ENDBRANCH   2   3
ENDBRANCH   1   2
BRANCH   1  70
ATOM     70  C   UNL A   1      42.722  17.949  26.609  1.00  0.00     0.275 C 
BRANCH  70  71
ATOM     71  O   UNL A   1      42.202  19.136  27.235  1.00  0.00    -0.458 OA
BRANCH  71  72
ATOM     72  C   UNL A   1      41.189  19.757  26.576  1.00  0.00     0.339 C 
ATOM     73  O   UNL A   1      40.406  19.239  25.802  1.00  0.00    -0.246 OA
BRANCH  72  74
ATOM     74  C   UNL A   1      41.075  21.175  26.991  1.00  0.00     0.071 A 
ATOM     75  C   UNL A   1      42.080  21.647  27.844  1.00  0.00     0.045 A 
ATOM     76  C   UNL A   1      39.974  21.992  26.635  1.00  0.00     0.018 A 
ATOM     77  C   UNL A   1      41.978  22.940  28.312  1.00  0.00     0.075 A 
ATOM     78  C   UNL A   1      39.926  23.262  27.244  1.00  0.00     0.107 A 
ATOM     79  C   UNL A   1      38.931  21.621  25.740  1.00  0.00     0.011 A 
ATOM     80  N   UNL A   1      40.908  23.717  28.047  1.00  0.00    -0.245 NA
ATOM     81  C   UNL A   1      38.812  24.065  26.994  1.00  0.00     0.149 A 
ATOM     82  C   UNL A   1      37.857  22.469  25.476  1.00  0.00     0.004 A 
ATOM     83  F   UNL A   1      38.721  25.281  27.560  1.00  0.00    -0.205 F 
ATOM     84  C   UNL A   1      37.783  23.685  26.133  1.00  0.00     0.041 A 
BRANCH  77  85
ATOM     85  C   UNL A   1      42.994  23.567  29.136  1.00  0.00     0.038 A 
ATOM     86  C   UNL A   1      43.135  24.934  29.505  1.00  0.00     0.052 A 
ATOM     87  C   UNL A   1      44.113  22.939  29.644  1.00  0.00     0.205 A 
ATOM     88  C   UNL A   1      44.303  25.032  30.223  1.00  0.00     0.195 A 
ATOM     89  O   UNL A   1      44.907  23.820  30.308  1.00  0.00    -0.472 OA
ENDBRANCH  77  85
ENDBRANCH  72  74
ENDBRANCH  71  72
ENDBRANCH  70  71
ENDBRANCH   1  70
TORSDOF 12
ENDMDL
MODEL 3
REMARK VINA RESULT:     -11.1      3.063      8.727
REMARK SMILES O=C(OCCOC(=O)c1cc(-c2ccoc2)nc2c(F)cccc12)c1ccc(-c2c3nc(c(-c4c(F)c(F)c(F)c(F)c4F)c4ccc([nH]4)c(-c4c(F)c(F)c(F)c(F)c4F)c4nc(c(-c5c(F)c(F)c(F)c(F)c5F)c5ccc2[nH]5)C=C4)C=C3)cc1
REMARK SMILES IDX 4 1 3 2 2 3 1 4 25 5 26 6 87 7 27 8 86 9 28 10 29 11 30 12
REMARK SMILES IDX 80 13 31 14 85 15 79 16 81 17 32 18 84 19 78 20 77 21 33 23
REMARK SMILES IDX 65 24 45 25 64 26 46 27 49 28 63 29 82 30 47 31 48 32 62 34
REMARK SMILES IDX 83 35 50 36 34 37 35 38 43 39 36 40 37 41 41 42 44 43 38 44
REMARK SMILES IDX 39 45 42 46 40 47 66 48 67 49 75 50 68 51 69 52 73 53 76 54
REMARK SMILES IDX 70 55 71 56 74 57 72 58 51 59 52 60 60 61 53 62 54 63 58 64
REMARK SMILES IDX 61 65 55 66 56 67 59 68 57 69 5 70 6 71 7 72 8 73 9 74 10 75
REMARK SMILES IDX 24 76 11 77 18 78 23 79 17 80 19 81 22 82 20 83 21 84 12 85
REMARK SMILES IDX 13 86 16 87 14 88 15 89
REMARK H PARENT 81 22 49 33
REMARK Flexibility Score: inf
ROOT
ATOM      1  C   UNL A   1      31.958  32.251  27.231  1.00  0.00     0.275 C 
ENDROOT
BRANCH   1   2
ATOM      2  O   UNL A   1      32.409  33.609  27.343  1.00  0.00    -0.458 OA
BRANCH   2   3
ATOM      3  C   UNL A   1      33.021  34.252  28.359  1.00  0.00     0.338 C 
ATOM      4  O   UNL A   1      32.527  35.310  28.751  1.00  0.00    -0.246 OA
BRANCH   3   5
ATOM      5  C   UNL A   1      34.319  33.831  28.992  1.00  0.00     0.060 A 
ATOM      6  C   UNL A   1      35.617  34.134  28.571  1.00  0.00     0.016 A 
ATOM      7  C   UNL A   1      34.193  33.067  30.166  1.00  0.00     0.016 A 
ATOM      8  C   UNL A   1      36.741  33.745  29.310  1.00  0.00     0.010 A 
ATOM      9  C   UNL A   1      35.303  32.695  30.927  1.00  0.00     0.010 A 
ATOM     10  C   UNL A   1      36.590  33.018  30.489  1.00  0.00    -0.014 A 
BRANCH  10  11
ATOM     11  C   UNL A   1      37.755  32.390  31.147  1.00  0.00     0.031 A 
ATOM     12  C   UNL A   1      38.390  31.223  30.464  1.00  0.00     0.074 A 
ATOM     13  C   UNL A   1      38.254  32.838  32.311  1.00  0.00     0.049 A 
ATOM     14  N   UNL A   1      39.369  30.460  30.868  1.00  0.00    -0.248 NA
ATOM     15  C   UNL A   1      37.870  30.891  29.127  1.00  0.00     0.031 C 
ATOM     16  C   UNL A   1      37.826  34.051  32.991  1.00  0.00     0.029 A 
ATOM     17  N   UNL A   1      39.212  32.309  33.140  1.00  0.00    -0.354 N 
ATOM     18  C   UNL A   1      39.605  29.584  29.822  1.00  0.00     0.074 A 
ATOM     19  C   UNL A   1      38.615  29.850  28.802  1.00  0.00     0.031 C 
ATOM     20  C   UNL A   1      38.447  34.127  34.180  1.00  0.00     0.029 A 
ATOM     21  C   UNL A   1      39.295  32.957  34.347  1.00  0.00     0.049 A 
ATOM     22  H   UNL A   1      39.781  31.544  32.893  1.00  0.00     0.167 HD
ATOM     23  C   UNL A   1      40.590  28.666  29.710  1.00  0.00     0.037 A 
ATOM     24  C   UNL A   1      39.952  32.631  35.475  1.00  0.00     0.037 A 
ATOM     25  C   UNL A   1      41.537  28.389  30.754  1.00  0.00     0.049 A 
ATOM     26  C   UNL A   1      40.899  31.471  35.428  1.00  0.00     0.074 A 
ATOM     27  C   UNL A   1      42.568  27.469  30.764  1.00  0.00     0.029 A 
ATOM     28  N   UNL A   1      41.544  29.017  31.994  1.00  0.00    -0.354 N 
ATOM     29  N   UNL A   1      41.146  30.661  34.428  1.00  0.00    -0.248 NA
ATOM     30  C   UNL A   1      41.704  31.215  36.627  1.00  0.00     0.031 C 
ATOM     31  C   UNL A   1      43.156  27.495  32.034  1.00  0.00     0.029 A 
ATOM     32  C   UNL A   1      42.539  28.479  32.792  1.00  0.00     0.049 A 
ATOM     33  H   UNL A   1      40.931  29.739  32.265  1.00  0.00     0.167 HD
ATOM     34  C   UNL A   1      42.185  29.846  34.844  1.00  0.00     0.074 A 
ATOM     35  C   UNL A   1      42.498  30.239  36.205  1.00  0.00     0.031 C 
ATOM     36  C   UNL A   1      42.842  28.890  34.143  1.00  0.00     0.037 A 
BRANCH  23  37
ATOM     37  C   UNL A   1      40.626  27.891  28.429  1.00  0.00     0.064 A 
ATOM     38  C   UNL A   1      39.990  26.644  28.306  1.00  0.00     0.173 A 
ATOM     39  C   UNL A   1      41.386  28.351  27.347  1.00  0.00     0.173 A 
ATOM     40  F   UNL A   1      39.276  26.144  29.326  1.00  0.00    -0.203 F 
ATOM     41  C   UNL A   1      40.165  25.862  27.167  1.00  0.00     0.198 A 
ATOM     42  C   UNL A   1      41.531  27.581  26.197  1.00  0.00     0.198 A 
ATOM     43  F   UNL A   1      42.019  29.532  27.418  1.00  0.00    -0.203 F 
ATOM     44  F   UNL A   1      39.627  24.634  27.111  1.00  0.00    -0.200 F 
ATOM     45  C   UNL A   1      40.936  26.330  26.115  1.00  0.00     0.200 A 
ATOM     46  F   UNL A   1      42.274  28.036  25.179  1.00  0.00    -0.200 F 
ATOM     47  F   UNL A   1      41.125  25.566  25.030  1.00  0.00    -0.200 F 
ENDBRANCH  23  37
BRANCH  24  48
ATOM     48  C   UNL A   1      39.744  33.429  36.711  1.00  0.00     0.064 A 
ATOM     49  C   UNL A   1      40.483  34.590  36.967  1.00  0.00     0.173 A 
ATOM     50  C   UNL A   1      38.766  33.058  37.649  1.00  0.00     0.173 A 
ATOM     51  F   UNL A   1      41.437  34.977  36.108  1.00  0.00    -0.203 F 
ATOM     52  C   UNL A   1      40.256  35.350  38.113  1.00  0.00     0.198 A 
ATOM     53  C   UNL A   1      38.528  33.828  38.788  1.00  0.00     0.198 A 
ATOM     54  F   UNL A   1      38.038  31.950  37.455  1.00  0.00    -0.203 F 
ATOM     55  F   UNL A   1      40.990  36.448  38.343  1.00  0.00    -0.200 F 
ATOM     56  C   UNL A   1      39.276  34.973  39.019  1.00  0.00     0.200 A 
ATOM     57  F   UNL A   1      37.578  33.465  39.659  1.00  0.00    -0.200 F 
ATOM     58  F   UNL A   1      39.053  35.713  40.114  1.00  0.00    -0.200 F 
ENDBRANCH  24  48
BRANCH  36  59
ATOM     59  C   UNL A   1      44.020  28.245  34.806  1.00  0.00     0.064 A 
ATOM     60  C   UNL A   1      45.304  28.800  34.743  1.00  0.00     0.173 A 
ATOM     61  C   UNL A   1      43.834  27.086  35.576  1.00  0.00     0.173 A 
ATOM     62  F   UNL A   1      45.532  29.894  34.002  1.00  0.00    -0.203 F 
ATOM     63  C   UNL A   1      46.366  28.211  35.422  1.00  0.00     0.198 A 
ATOM     64  C   UNL A   1      44.891  26.520  36.280  1.00  0.00     0.198 A 
ATOM     65  F   UNL A   1      42.621  26.520  35.666  1.00  0.00    -0.203 F 
ATOM     66  F   UNL A   1      47.596  28.734  35.321  1.00  0.00    -0.200 F 
ATOM     67  C   UNL A   1      46.156  27.080  36.200  1.00  0.00     0.200 A 
ATOM     68  F   UNL A   1      44.682  25.438  37.042  1.00  0.00    -0.200 F 
ATOM     69  F   UNL A   1      47.177  26.527  36.869  1.00  0.00    -0.200 F 
ENDBRANCH  36  59
ENDBRANCH  10  11
ENDBRANCH   3   5
ENDBRANCH   2   3
ENDBRANCH   1   2
BRANCH   1  70
ATOM     70  C   UNL A   1      33.077  31.218  27.393  1.00  0.00     0.275 C 
BRANCH  70  71
ATOM     71  O   UNL A   1      33.168  30.303  26.286  1.00  0.00    -0.458 OA
BRANCH  71  72
ATOM     72  C   UNL A   1      32.274  29.280  26.289  1.00  0.00     0.339 C 
ATOM     73  O   UNL A   1      31.854  28.690  27.266  1.00  0.00    -0.246 OA
BRANCH  72  74
ATOM     74  C   UNL A   1      31.770  29.011  24.921  1.00  0.00     0.071 A 
ATOM     75  C   UNL A   1      30.739  29.845  24.473  1.00  0.00     0.045 A 
ATOM     76  C   UNL A   1      32.224  27.922  24.137  1.00  0.00     0.018 A 
ATOM     77  C   UNL A   1      30.190  29.589  23.234  1.00  0.00     0.075 A 
ATOM     78  C   UNL A   1      31.530  27.699  22.931  1.00  0.00     0.107 A 
ATOM     79  C   UNL A   1      33.295  27.050  24.483  1.00  0.00     0.011 A 
ATOM     80  N   UNL A   1      30.553  28.519  22.495  1.00  0.00    -0.245 NA
ATOM     81  C   UNL A   1      31.882  26.583  22.170  1.00  0.00     0.149 A 
ATOM     82  C   UNL A   1      33.651  25.972  23.675  1.00  0.00     0.004 A 
ATOM     83  F   UNL A   1      31.243  26.328  21.017  1.00  0.00    -0.205 F 
ATOM     84  C   UNL A   1      32.918  25.720  22.528  1.00  0.00     0.041 A 
BRANCH  77  85
ATOM     85  C   UNL A   1      29.174  30.427  22.628  1.00  0.00     0.038 A 
ATOM     86  C   UNL A   1      28.747  30.485  21.272  1.00  0.00     0.052 A 
ATOM     87  C   UNL A   1      28.484  31.437  23.267  1.00  0.00     0.205 A 
ATOM     88  C   UNL A   1      27.821  31.498  21.192  1.00  0.00     0.195 A 
ATOM     89  O   UNL A   1      27.658  32.085  22.403  1.00  0.00    -0.472 OA
ENDBRANCH  77  85
ENDBRANCH  72  74
ENDBRANCH  71  72
ENDBRANCH  70  71
ENDBRANCH   1  70
TORSDOF 12
ENDMDL
