MODEL 1
REMARK VINA RESULT:     -11.3      0.000      0.000
REMARK SMILES C/C=C/C[C@]1(C(=O)OCCOC(=O)c2ccc(-c3c4nc(c(-c5c(F)c(F)c(F)c(F)c5F)c5ccc([nH]5)c(-c5c(F)c(F)c(F)c(F)c5F)c5nc(c(-c6c(F)c(F)c(F)c(F)c6F)c6ccc3[nH]6)C=C5)C=C4)cc2)CCN(C(=O)OC(C)(C)C)C1
REMARK SMILES IDX 9 1 8 2 6 3 7 4 5 5 77 6 87 7 78 8 79 9 4 10 3 11 1 12 2 13
REMARK SMILES IDX 80 14 81 15 82 16 83 17 84 18 85 19 86 20 10 21 11 22 12 23
REMARK SMILES IDX 13 24 14 25 15 26 76 27 16 28 75 29 17 30 18 31 19 32 69 33
REMARK SMILES IDX 20 34 74 35 68 36 70 37 21 38 73 39 67 40 66 41 22 43 54 44
REMARK SMILES IDX 34 45 53 46 35 47 38 48 52 49 71 50 36 51 37 52 51 54 72 55
REMARK SMILES IDX 39 56 23 57 24 58 32 59 25 60 26 61 30 62 33 63 27 64 28 65
REMARK SMILES IDX 31 66 29 67 55 68 56 69 64 70 57 71 58 72 62 73 65 74 59 75
REMARK SMILES IDX 60 76 63 77 61 78 40 79 41 80 49 81 42 82 43 83 47 84 50 85
REMARK SMILES IDX 44 86 45 87 48 88 46 89
REMARK H PARENT 70 42 38 53
REMARK Flexibility Score: inf
ROOT
ATOM      1  C   UNL A   1      31.821  28.276  27.217  1.00  0.00     0.274 C 
ENDROOT
BRANCH   1   2
ATOM      2  O   UNL A   1      32.419  27.355  26.281  1.00  0.00    -0.462 OA
BRANCH   2   3
ATOM      3  C   UNL A   1      31.623  26.354  25.827  1.00  0.00     0.314 C 
ATOM      4  O   UNL A   1      31.021  25.569  26.553  1.00  0.00    -0.252 OA
BRANCH   3   5
ATOM      5  C   UNL A   1      31.613  26.229  24.313  1.00  0.00     0.091 C 
ATOM      6  C   UNL A   1      32.765  26.925  23.555  1.00  0.00     0.042 C 
ATOM      7  C   UNL A   1      31.934  24.743  24.088  1.00  0.00     0.142 C 
ATOM      8  C   UNL A   1      32.960  26.030  22.343  1.00  0.00     0.124 C 
ATOM      9  N   UNL A   1      32.749  24.709  22.897  1.00  0.00    -0.307 N 
BRANCH   5  10
ATOM     10  C   UNL A   1      30.225  26.564  23.707  1.00  0.00     0.047 C 
BRANCH  10  11
ATOM     11  C   UNL A   1      29.901  28.035  23.695  1.00  0.00    -0.030 C 
ATOM     12  C   UNL A   1      29.353  30.229  22.656  1.00  0.00     0.035 C 
ATOM     13  C   UNL A   1      29.701  28.775  22.595  1.00  0.00    -0.035 C 
ENDBRANCH  10  11
ENDBRANCH   5  10
BRANCH   9  14
ATOM     14  C   UNL A   1      33.402  23.563  22.541  1.00  0.00     0.410 C 
ATOM     15  O   UNL A   1      32.823  22.567  22.136  1.00  0.00    -0.224 OA
BRANCH  14  16
ATOM     16  O   UNL A   1      34.736  23.678  22.731  1.00  0.00    -0.444 OA
BRANCH  16  17
ATOM     17  C   UNL A   1      35.341  23.133  23.924  1.00  0.00     0.106 C 
ATOM     18  C   UNL A   1      35.495  24.234  24.978  1.00  0.00     0.056 C 
ATOM     19  C   UNL A   1      34.576  21.916  24.457  1.00  0.00     0.056 C 
ATOM     20  C   UNL A   1      36.732  22.676  23.468  1.00  0.00     0.056 C 
ENDBRANCH  16  17
ENDBRANCH  14  16
ENDBRANCH   9  14
ENDBRANCH   3   5
ENDBRANCH   2   3
ENDBRANCH   1   2
BRANCH   1  21
ATOM     21  C   UNL A   1      31.734  29.672  26.611  1.00  0.00     0.275 C 
BRANCH  21  22
ATOM     22  O   UNL A   1      33.058  30.164  26.332  1.00  0.00    -0.458 OA
BRANCH  22  23
ATOM     23  C   UNL A   1      33.453  31.213  27.087  1.00  0.00     0.338 C 
ATOM     24  O   UNL A   1      32.809  32.209  27.374  1.00  0.00    -0.246 OA
BRANCH  23  25
ATOM     25  C   UNL A   1      34.795  30.968  27.638  1.00  0.00     0.060 A 
ATOM     26  C   UNL A   1      35.103  29.700  28.114  1.00  0.00     0.016 A 
ATOM     27  C   UNL A   1      35.659  32.031  27.885  1.00  0.00     0.016 A 
ATOM     28  C   UNL A   1      36.193  29.518  28.954  1.00  0.00     0.010 A 
ATOM     29  C   UNL A   1      36.853  31.802  28.578  1.00  0.00     0.010 A 
ATOM     30  C   UNL A   1      37.128  30.543  29.141  1.00  0.00    -0.014 A 
BRANCH  30  31
ATOM     31  C   UNL A   1      38.409  30.262  29.851  1.00  0.00     0.031 A 
ATOM     32  C   UNL A   1      39.449  29.347  29.259  1.00  0.00     0.074 A 
ATOM     33  C   UNL A   1      38.623  30.816  31.064  1.00  0.00     0.049 A 
ATOM     34  N   UNL A   1      40.506  28.819  29.825  1.00  0.00    -0.248 NA
ATOM     35  C   UNL A   1      39.277  28.969  27.849  1.00  0.00     0.031 C 
ATOM     36  C   UNL A   1      37.729  31.762  31.739  1.00  0.00     0.029 A 
ATOM     37  N   UNL A   1      39.656  30.657  31.957  1.00  0.00    -0.354 N 
ATOM     38  C   UNL A   1      41.102  28.021  28.856  1.00  0.00     0.074 A 
ATOM     39  C   UNL A   1      40.289  28.130  27.663  1.00  0.00     0.031 C 
ATOM     40  C   UNL A   1      38.261  32.123  32.912  1.00  0.00     0.029 A 
ATOM     41  C   UNL A   1      39.457  31.329  33.139  1.00  0.00     0.049 A 
ATOM     42  H   UNL A   1      40.457  30.116  31.770  1.00  0.00     0.167 HD
ATOM     43  C   UNL A   1      42.218  27.259  28.963  1.00  0.00     0.037 A 
ATOM     44  C   UNL A   1      40.102  31.258  34.317  1.00  0.00     0.037 A 
ATOM     45  C   UNL A   1      43.018  27.163  30.159  1.00  0.00     0.049 A 
ATOM     46  C   UNL A   1      41.257  30.314  34.449  1.00  0.00     0.074 A 
ATOM     47  C   UNL A   1      44.173  26.429  30.371  1.00  0.00     0.029 A 
ATOM     48  N   UNL A   1      42.738  27.816  31.352  1.00  0.00    -0.354 N 
ATOM     49  N   UNL A   1      41.799  29.543  33.539  1.00  0.00    -0.248 NA
ATOM     50  C   UNL A   1      41.875  30.211  35.775  1.00  0.00     0.031 C 
ATOM     51  C   UNL A   1      44.548  26.579  31.709  1.00  0.00     0.029 A 
ATOM     52  C   UNL A   1      43.670  27.461  32.316  1.00  0.00     0.049 A 
ATOM     53  H   UNL A   1      41.989  28.438  31.493  1.00  0.00     0.167 HD
ATOM     54  C   UNL A   1      42.827  28.868  34.178  1.00  0.00     0.074 A 
ATOM     55  C   UNL A   1      42.849  29.343  35.547  1.00  0.00     0.031 C 
ATOM     56  C   UNL A   1      43.672  27.935  33.677  1.00  0.00     0.037 A 
BRANCH  43  57
ATOM     57  C   UNL A   1      42.617  26.421  27.780  1.00  0.00     0.064 A 
ATOM     58  C   UNL A   1      43.550  26.863  26.831  1.00  0.00     0.173 A 
ATOM     59  C   UNL A   1      42.095  25.126  27.627  1.00  0.00     0.173 A 
ATOM     60  F   UNL A   1      44.075  28.094  26.922  1.00  0.00    -0.203 F 
ATOM     61  C   UNL A   1      43.927  26.049  25.763  1.00  0.00     0.198 A 
ATOM     62  C   UNL A   1      42.496  24.305  26.577  1.00  0.00     0.198 A 
ATOM     63  F   UNL A   1      41.204  24.648  28.509  1.00  0.00    -0.203 F 
ATOM     64  F   UNL A   1      44.790  26.509  24.845  1.00  0.00    -0.200 F 
ATOM     65  C   UNL A   1      43.407  24.771  25.641  1.00  0.00     0.200 A 
ATOM     66  F   UNL A   1      42.002  23.064  26.471  1.00  0.00    -0.200 F 
ATOM     67  F   UNL A   1      43.778  23.987  24.619  1.00  0.00    -0.200 F 
ENDBRANCH  43  57
BRANCH  44  68
ATOM     68  C   UNL A   1      39.603  32.044  35.477  1.00  0.00     0.064 A 
ATOM     69  C   UNL A   1      38.630  31.521  36.338  1.00  0.00     0.173 A 
ATOM     70  C   UNL A   1      40.108  33.324  35.763  1.00  0.00     0.173 A 
ATOM     71  F   UNL A   1      38.100  30.314  36.094  1.00  0.00    -0.203 F 
ATOM     72  C   UNL A   1      38.178  32.249  37.437  1.00  0.00     0.198 A 
ATOM     73  C   UNL A   1      39.683  34.033  36.883  1.00  0.00     0.198 A 
ATOM     74  F   UNL A   1      41.041  33.872  34.972  1.00  0.00    -0.203 F 
ATOM     75  F   UNL A   1      37.217  31.743  38.221  1.00  0.00    -0.200 F 
ATOM     76  C   UNL A   1      38.713  33.498  37.715  1.00  0.00     0.200 A 
ATOM     77  F   UNL A   1      40.220  35.229  37.160  1.00  0.00    -0.200 F 
ATOM     78  F   UNL A   1      38.287  34.190  38.781  1.00  0.00    -0.200 F 
ENDBRANCH  44  68
BRANCH  56  79
ATOM     79  C   UNL A   1      44.702  27.380  34.615  1.00  0.00     0.064 A 
ATOM     80  C   UNL A   1      44.468  26.210  35.353  1.00  0.00     0.173 A 
ATOM     81  C   UNL A   1      45.946  28.012  34.759  1.00  0.00     0.173 A 
ATOM     82  F   UNL A   1      43.285  25.582  35.266  1.00  0.00    -0.203 F 
ATOM     83  C   UNL A   1      45.433  25.707  36.219  1.00  0.00     0.198 A 
ATOM     84  C   UNL A   1      46.921  27.487  35.601  1.00  0.00     0.198 A 
ATOM     85  F   UNL A   1      46.219  29.133  34.075  1.00  0.00    -0.203 F 
ATOM     86  F   UNL A   1      45.168  24.617  36.954  1.00  0.00    -0.200 F 
ATOM     87  C   UNL A   1      46.662  26.340  36.336  1.00  0.00     0.200 A 
ATOM     88  F   UNL A   1      48.112  28.092  35.702  1.00  0.00    -0.200 F 
ATOM     89  F   UNL A   1      47.594  25.849  37.164  1.00  0.00    -0.200 F 
ENDBRANCH  56  79
ENDBRANCH  30  31
ENDBRANCH  23  25
ENDBRANCH  22  23
ENDBRANCH  21  22
ENDBRANCH   1  21
TORSDOF 16
ENDMDL
MODEL 2
REMARK VINA RESULT:     -11.3      4.208      9.759
REMARK SMILES C/C=C/C[C@]1(C(=O)OCCOC(=O)c2ccc(-c3c4nc(c(-c5c(F)c(F)c(F)c(F)c5F)c5ccc([nH]5)c(-c5c(F)c(F)c(F)c(F)c5F)c5nc(c(-c6c(F)c(F)c(F)c(F)c6F)c6ccc3[nH]6)C=C5)C=C4)cc2)CCN(C(=O)OC(C)(C)C)C1
REMARK SMILES IDX 9 1 8 2 6 3 7 4 5 5 77 6 87 7 78 8 79 9 4 10 3 11 1 12 2 13
REMARK SMILES IDX 80 14 81 15 82 16 83 17 84 18 85 19 86 20 10 21 11 22 12 23
REMARK SMILES IDX 13 24 14 25 15 26 76 27 16 28 75 29 17 30 18 31 19 32 69 33
REMARK SMILES IDX 20 34 74 35 68 36 70 37 21 38 73 39 67 40 66 41 22 43 54 44
REMARK SMILES IDX 34 45 53 46 35 47 38 48 52 49 71 50 36 51 37 52 51 54 72 55
REMARK SMILES IDX 39 56 23 57 24 58 32 59 25 60 26 61 30 62 33 63 27 64 28 65
REMARK SMILES IDX 31 66 29 67 55 68 56 69 64 70 57 71 58 72 62 73 65 74 59 75
REMARK SMILES IDX 60 76 63 77 61 78 40 79 41 80 49 81 42 82 43 83 47 84 50 85
REMARK SMILES IDX 44 86 45 87 48 88 46 89
REMARK H PARENT 70 42 38 53
REMARK Flexibility Score: inf
ROOT
ATOM      1  C   UNL A   1      36.558  22.669  23.620  1.00  0.00     0.274 C 
ENDROOT
BRANCH   1   2
ATOM      2  O   UNL A   1      35.457  23.411  24.188  1.00  0.00    -0.462 OA
BRANCH   2   3
ATOM      3  C   UNL A   1      34.274  23.332  23.529  1.00  0.00     0.314 C 
ATOM      4  O   UNL A   1      34.120  23.630  22.348  1.00  0.00    -0.252 OA
BRANCH   3   5
ATOM      5  C   UNL A   1      33.112  22.924  24.420  1.00  0.00     0.091 C 
ATOM      6  C   UNL A   1      33.362  22.967  25.944  1.00  0.00     0.042 C 
ATOM      7  C   UNL A   1      32.109  24.073  24.227  1.00  0.00     0.142 C 
ATOM      8  C   UNL A   1      31.991  23.315  26.499  1.00  0.00     0.124 C 
ATOM      9  N   UNL A   1      31.486  24.250  25.517  1.00  0.00    -0.307 N 
BRANCH   5  10
ATOM     10  C   UNL A   1      32.470  21.586  23.969  1.00  0.00     0.047 C 
BRANCH  10  11
ATOM     11  C   UNL A   1      33.318  20.374  24.255  1.00  0.00    -0.030 C 
ATOM     12  C   UNL A   1      33.808  17.940  24.438  1.00  0.00     0.035 C 
ATOM     13  C   UNL A   1      32.904  19.101  24.167  1.00  0.00    -0.035 C 
ENDBRANCH  10  11
ENDBRANCH   5  10
BRANCH   9  14
ATOM     14  C   UNL A   1      30.707  25.345  25.761  1.00  0.00     0.410 C 
ATOM     15  O   UNL A   1      29.679  25.579  25.144  1.00  0.00    -0.224 OA
BRANCH  14  16
ATOM     16  O   UNL A   1      31.241  26.124  26.728  1.00  0.00    -0.444 OA
BRANCH  16  17
ATOM     17  C   UNL A   1      31.995  27.302  26.366  1.00  0.00     0.106 C 
ATOM     18  C   UNL A   1      33.461  26.928  26.126  1.00  0.00     0.056 C 
ATOM     19  C   UNL A   1      31.377  28.042  25.174  1.00  0.00     0.056 C 
ATOM     20  C   UNL A   1      31.904  28.204  27.602  1.00  0.00     0.056 C 
ENDBRANCH  16  17
ENDBRANCH  14  16
ENDBRANCH   9  14
ENDBRANCH   3   5
ENDBRANCH   2   3
ENDBRANCH   1   2
BRANCH   1  21
ATOM     21  C   UNL A   1      36.881  21.453  24.479  1.00  0.00     0.275 C 
BRANCH  21  22
ATOM     22  O   UNL A   1      37.342  21.882  25.774  1.00  0.00    -0.458 OA
BRANCH  22  23
ATOM     23  C   UNL A   1      38.645  21.630  26.033  1.00  0.00     0.338 C 
ATOM     24  O   UNL A   1      39.281  20.627  25.753  1.00  0.00    -0.246 OA
BRANCH  23  25
ATOM     25  C   UNL A   1      39.278  22.807  26.649  1.00  0.00     0.060 A 
ATOM     26  C   UNL A   1      38.891  24.074  26.228  1.00  0.00     0.016 A 
ATOM     27  C   UNL A   1      40.395  22.658  27.466  1.00  0.00     0.016 A 
ATOM     28  C   UNL A   1      39.694  25.173  26.501  1.00  0.00     0.010 A 
ATOM     29  C   UNL A   1      41.095  23.794  27.890  1.00  0.00     0.010 A 
ATOM     30  C   UNL A   1      40.765  25.069  27.397  1.00  0.00    -0.014 A 
BRANCH  30  31
ATOM     31  C   UNL A   1      41.469  26.298  27.862  1.00  0.00     0.031 A 
ATOM     32  C   UNL A   1      40.750  27.365  28.644  1.00  0.00     0.074 A 
ATOM     33  C   UNL A   1      42.770  26.470  27.544  1.00  0.00     0.049 A 
ATOM     34  N   UNL A   1      41.137  28.583  28.933  1.00  0.00    -0.248 NA
ATOM     35  C   UNL A   1      39.419  27.024  29.166  1.00  0.00     0.031 C 
ATOM     36  C   UNL A   1      43.610  25.498  26.834  1.00  0.00     0.029 A 
ATOM     37  N   UNL A   1      43.620  27.528  27.763  1.00  0.00    -0.354 N 
ATOM     38  C   UNL A   1      40.087  29.163  29.635  1.00  0.00     0.074 A 
ATOM     39  C   UNL A   1      39.043  28.166  29.729  1.00  0.00     0.031 C 
ATOM     40  C   UNL A   1      44.849  25.985  26.708  1.00  0.00     0.029 A 
ATOM     41  C   UNL A   1      44.859  27.354  27.195  1.00  0.00     0.049 A 
ATOM     42  H   UNL A   1      43.366  28.330  28.275  1.00  0.00     0.167 HD
ATOM     43  C   UNL A   1      40.004  30.418  30.140  1.00  0.00     0.037 A 
ATOM     44  C   UNL A   1      45.870  28.218  26.997  1.00  0.00     0.037 A 
ATOM     45  C   UNL A   1      41.055  31.400  30.039  1.00  0.00     0.049 A 
ATOM     46  C   UNL A   1      45.706  29.636  27.453  1.00  0.00     0.074 A 
ATOM     47  C   UNL A   1      41.078  32.697  30.524  1.00  0.00     0.029 A 
ATOM     48  N   UNL A   1      42.269  31.195  29.397  1.00  0.00    -0.354 N 
ATOM     49  N   UNL A   1      44.702  30.184  28.091  1.00  0.00    -0.248 NA
ATOM     50  C   UNL A   1      46.803  30.559  27.140  1.00  0.00     0.031 C 
ATOM     51  C   UNL A   1      42.272  33.297  30.114  1.00  0.00     0.029 A 
ATOM     52  C   UNL A   1      43.026  32.357  29.432  1.00  0.00     0.049 A 
ATOM     53  H   UNL A   1      42.552  30.350  28.979  1.00  0.00     0.167 HD
ATOM     54  C   UNL A   1      45.047  31.515  28.265  1.00  0.00     0.074 A 
ATOM     55  C   UNL A   1      46.366  31.683  27.689  1.00  0.00     0.031 C 
ATOM     56  C   UNL A   1      44.333  32.510  28.844  1.00  0.00     0.037 A 
BRANCH  43  57
ATOM     57  C   UNL A   1      38.717  30.831  30.799  1.00  0.00     0.064 A 
ATOM     58  C   UNL A   1      38.554  30.824  32.192  1.00  0.00     0.173 A 
ATOM     59  C   UNL A   1      37.645  31.295  30.020  1.00  0.00     0.173 A 
ATOM     60  F   UNL A   1      39.542  30.383  32.985  1.00  0.00    -0.203 F 
ATOM     61  C   UNL A   1      37.361  31.246  32.777  1.00  0.00     0.198 A 
ATOM     62  C   UNL A   1      36.465  31.743  30.608  1.00  0.00     0.198 A 
ATOM     63  F   UNL A   1      37.747  31.330  28.682  1.00  0.00    -0.203 F 
ATOM     64  F   UNL A   1      37.214  31.192  34.109  1.00  0.00    -0.200 F 
ATOM     65  C   UNL A   1      36.321  31.711  31.987  1.00  0.00     0.200 A 
ATOM     66  F   UNL A   1      35.469  32.207  29.842  1.00  0.00    -0.200 F 
ATOM     67  F   UNL A   1      35.179  32.125  32.552  1.00  0.00    -0.200 F 
ENDBRANCH  43  57
BRANCH  44  68
ATOM     68  C   UNL A   1      47.082  27.774  26.257  1.00  0.00     0.064 A 
ATOM     69  C   UNL A   1      48.216  27.316  26.939  1.00  0.00     0.173 A 
ATOM     70  C   UNL A   1      47.121  27.775  24.853  1.00  0.00     0.173 A 
ATOM     71  F   UNL A   1      48.237  27.318  28.280  1.00  0.00    -0.203 F 
ATOM     72  C   UNL A   1      49.344  26.880  26.245  1.00  0.00     0.198 A 
ATOM     73  C   UNL A   1      48.233  27.304  24.161  1.00  0.00     0.198 A 
ATOM     74  F   UNL A   1      46.063  28.203  24.150  1.00  0.00    -0.203 F 
ATOM     75  F   UNL A   1      50.430  26.485  26.923  1.00  0.00    -0.200 F 
ATOM     76  C   UNL A   1      49.347  26.863  24.859  1.00  0.00     0.200 A 
ATOM     77  F   UNL A   1      48.223  27.267  22.822  1.00  0.00    -0.200 F 
ATOM     78  F   UNL A   1      50.427  26.429  24.194  1.00  0.00    -0.200 F 
ENDBRANCH  44  68
BRANCH  56  79
ATOM     79  C   UNL A   1      44.975  33.864  28.896  1.00  0.00     0.064 A 
ATOM     80  C   UNL A   1      45.866  34.216  29.920  1.00  0.00     0.173 A 
ATOM     81  C   UNL A   1      44.714  34.813  27.895  1.00  0.00     0.173 A 
ATOM     82  F   UNL A   1      46.130  33.351  30.912  1.00  0.00    -0.203 F 
ATOM     83  C   UNL A   1      46.455  35.476  29.954  1.00  0.00     0.198 A 
ATOM     84  C   UNL A   1      45.330  36.060  27.914  1.00  0.00     0.198 A 
ATOM     85  F   UNL A   1      43.870  34.525  26.893  1.00  0.00    -0.203 F 
ATOM     86  F   UNL A   1      47.262  35.809  30.971  1.00  0.00    -0.200 F 
ATOM     87  C   UNL A   1      46.194  36.394  28.947  1.00  0.00     0.200 A 
ATOM     88  F   UNL A   1      45.087  36.940  26.934  1.00  0.00    -0.200 F 
ATOM     89  F   UNL A   1      46.768  37.603  28.976  1.00  0.00    -0.200 F 
ENDBRANCH  56  79
ENDBRANCH  30  31
ENDBRANCH  23  25
ENDBRANCH  22  23
ENDBRANCH  21  22
ENDBRANCH   1  21
TORSDOF 16
ENDMDL
MODEL 3
REMARK VINA RESULT:     -11.1      1.066      1.827
REMARK SMILES C/C=C/C[C@]1(C(=O)OCCOC(=O)c2ccc(-c3c4nc(c(-c5c(F)c(F)c(F)c(F)c5F)c5ccc([nH]5)c(-c5c(F)c(F)c(F)c(F)c5F)c5nc(c(-c6c(F)c(F)c(F)c(F)c6F)c6ccc3[nH]6)C=C5)C=C4)cc2)CCN(C(=O)OC(C)(C)C)C1
REMARK SMILES IDX 9 1 8 2 6 3 7 4 5 5 77 6 87 7 78 8 79 9 4 10 3 11 1 12 2 13
REMARK SMILES IDX 80 14 81 15 82 16 83 17 84 18 85 19 86 20 10 21 11 22 12 23
REMARK SMILES IDX 13 24 14 25 15 26 76 27 16 28 75 29 17 30 18 31 19 32 69 33
REMARK SMILES IDX 20 34 74 35 68 36 70 37 21 38 73 39 67 40 66 41 22 43 54 44
REMARK SMILES IDX 34 45 53 46 35 47 38 48 52 49 71 50 36 51 37 52 51 54 72 55
REMARK SMILES IDX 39 56 23 57 24 58 32 59 25 60 26 61 30 62 33 63 27 64 28 65
REMARK SMILES IDX 31 66 29 67 55 68 56 69 64 70 57 71 58 72 62 73 65 74 59 75
REMARK SMILES IDX 60 76 63 77 61 78 40 79 41 80 49 81 42 82 43 83 47 84 50 85
REMARK SMILES IDX 44 86 45 87 48 88 46 89
REMARK H PARENT 70 42 38 53
REMARK Flexibility Score: inf
ROOT
ATOM      1  C   UNL A   1      31.390  29.829  25.037  1.00  0.00     0.274 C 
ENDROOT
BRANCH   1   2
ATOM      2  O   UNL A   1      31.808  28.447  24.991  1.00  0.00    -0.462 OA
BRANCH   2   3
ATOM      3  C   UNL A   1      31.721  27.831  23.786  1.00  0.00     0.314 C 
ATOM      4  O   UNL A   1      32.252  28.244  22.759  1.00  0.00    -0.252 OA
BRANCH   3   5
ATOM      5  C   UNL A   1      30.815  26.611  23.795  1.00  0.00     0.091 C 
ATOM      6  C   UNL A   1      31.247  25.423  22.908  1.00  0.00     0.042 C 
ATOM      7  C   UNL A   1      31.016  26.043  25.210  1.00  0.00     0.142 C 
ATOM      8  C   UNL A   1      30.727  24.221  23.678  1.00  0.00     0.124 C 
ATOM      9  N   UNL A   1      30.958  24.609  25.053  1.00  0.00    -0.307 N 
BRANCH   5  10
ATOM     10  C   UNL A   1      29.325  26.986  23.588  1.00  0.00     0.047 C 
BRANCH  10  11
ATOM     11  C   UNL A   1      29.116  28.222  22.752  1.00  0.00    -0.030 C 
ATOM     12  C   UNL A   1      28.021  30.360  22.098  1.00  0.00     0.035 C 
ATOM     13  C   UNL A   1      28.155  29.137  22.949  1.00  0.00    -0.035 C 
ENDBRANCH  10  11
ENDBRANCH   5  10
BRANCH   9  14
ATOM     14  C   UNL A   1      31.329  23.788  26.079  1.00  0.00     0.410 C 
ATOM     15  O   UNL A   1      31.122  24.056  27.253  1.00  0.00    -0.224 OA
BRANCH  14  16
ATOM     16  O   UNL A   1      31.970  22.689  25.623  1.00  0.00    -0.444 OA
BRANCH  16  17
ATOM     17  C   UNL A   1      33.400  22.569  25.792  1.00  0.00     0.106 C 
ATOM     18  C   UNL A   1      34.037  23.962  25.835  1.00  0.00     0.056 C 
ATOM     19  C   UNL A   1      33.769  21.720  27.014  1.00  0.00     0.056 C 
ATOM     20  C   UNL A   1      33.871  21.840  24.529  1.00  0.00     0.056 C 
ENDBRANCH  16  17
ENDBRANCH  14  16
ENDBRANCH   9  14
ENDBRANCH   3   5
ENDBRANCH   2   3
ENDBRANCH   1   2
BRANCH   1  21
ATOM     21  C   UNL A   1      31.777  30.459  26.369  1.00  0.00     0.275 C 
BRANCH  21  22
ATOM     22  O   UNL A   1      33.210  30.568  26.456  1.00  0.00    -0.458 OA
BRANCH  22  23
ATOM     23  C   UNL A   1      33.664  31.571  27.241  1.00  0.00     0.338 C 
ATOM     24  O   UNL A   1      33.083  32.598  27.549  1.00  0.00    -0.246 OA
BRANCH  23  25
ATOM     25  C   UNL A   1      34.983  31.227  27.795  1.00  0.00     0.060 A 
ATOM     26  C   UNL A   1      35.186  29.948  28.300  1.00  0.00     0.016 A 
ATOM     27  C   UNL A   1      35.934  32.218  28.016  1.00  0.00     0.016 A 
ATOM     28  C   UNL A   1      36.259  29.694  29.142  1.00  0.00     0.010 A 
ATOM     29  C   UNL A   1      37.107  31.905  28.713  1.00  0.00     0.010 A 
ATOM     30  C   UNL A   1      37.278  30.641  29.304  1.00  0.00    -0.014 A 
BRANCH  30  31
ATOM     31  C   UNL A   1      38.534  30.270  30.018  1.00  0.00     0.031 A 
ATOM     32  C   UNL A   1      39.533  29.323  29.406  1.00  0.00     0.074 A 
ATOM     33  C   UNL A   1      38.759  30.769  31.252  1.00  0.00     0.049 A 
ATOM     34  N   UNL A   1      40.554  28.722  29.965  1.00  0.00    -0.248 NA
ATOM     35  C   UNL A   1      39.361  29.004  27.981  1.00  0.00     0.031 C 
ATOM     36  C   UNL A   1      37.906  31.736  31.950  1.00  0.00     0.029 A 
ATOM     37  N   UNL A   1      39.770  30.526  32.151  1.00  0.00    -0.354 N 
ATOM     38  C   UNL A   1      41.121  27.929  28.975  1.00  0.00     0.074 A 
ATOM     39  C   UNL A   1      40.331  28.122  27.778  1.00  0.00     0.031 C 
ATOM     40  C   UNL A   1      38.439  32.027  33.141  1.00  0.00     0.029 A 
ATOM     41  C   UNL A   1      39.590  31.166  33.354  1.00  0.00     0.049 A 
ATOM     42  H   UNL A   1      40.545  29.951  31.954  1.00  0.00     0.167 HD
ATOM     43  C   UNL A   1      42.195  27.107  29.067  1.00  0.00     0.037 A 
ATOM     44  C   UNL A   1      40.215  31.020  34.536  1.00  0.00     0.037 A 
ATOM     45  C   UNL A   1      42.973  26.928  30.268  1.00  0.00     0.049 A 
ATOM     46  C   UNL A   1      41.319  30.013  34.647  1.00  0.00     0.074 A 
ATOM     47  C   UNL A   1      44.085  26.128  30.467  1.00  0.00     0.029 A 
ATOM     48  N   UNL A   1      42.711  27.552  31.480  1.00  0.00    -0.354 N 
ATOM     49  N   UNL A   1      41.833  29.248  33.716  1.00  0.00    -0.248 NA
ATOM     50  C   UNL A   1      41.913  29.832  35.976  1.00  0.00     0.031 C 
ATOM     51  C   UNL A   1      44.451  26.212  31.814  1.00  0.00     0.029 A 
ATOM     52  C   UNL A   1      43.610  27.116  32.442  1.00  0.00     0.049 A 
ATOM     53  H   UNL A   1      41.993  28.207  31.635  1.00  0.00     0.167 HD
ATOM     54  C   UNL A   1      42.816  28.499  34.343  1.00  0.00     0.074 A 
ATOM     55  C   UNL A   1      42.845  28.924  35.728  1.00  0.00     0.031 C 
ATOM     56  C   UNL A   1      43.618  27.541  33.819  1.00  0.00     0.037 A 
BRANCH  43  57
ATOM     57  C   UNL A   1      42.566  26.291  27.860  1.00  0.00     0.064 A 
ATOM     58  C   UNL A   1      43.569  26.693  26.965  1.00  0.00     0.173 A 
ATOM     59  C   UNL A   1      41.942  25.055  27.627  1.00  0.00     0.173 A 
ATOM     60  F   UNL A   1      44.192  27.869  27.133  1.00  0.00    -0.203 F 
ATOM     61  C   UNL A   1      43.916  25.898  25.873  1.00  0.00     0.198 A 
ATOM     62  C   UNL A   1      42.312  24.250  26.553  1.00  0.00     0.198 A 
ATOM     63  F   UNL A   1      40.981  24.616  28.455  1.00  0.00    -0.203 F 
ATOM     64  F   UNL A   1      44.849  26.322  25.008  1.00  0.00    -0.200 F 
ATOM     65  C   UNL A   1      43.294  24.676  25.672  1.00  0.00     0.200 A 
ATOM     66  F   UNL A   1      41.719  23.063  26.371  1.00  0.00    -0.200 F 
ATOM     67  F   UNL A   1      43.636  23.910  24.627  1.00  0.00    -0.200 F 
ENDBRANCH  43  57
BRANCH  44  68
ATOM     68  C   UNL A   1      39.742  31.790  35.718  1.00  0.00     0.064 A 
ATOM     69  C   UNL A   1      40.362  32.987  36.093  1.00  0.00     0.173 A 
ATOM     70  C   UNL A   1      38.644  31.355  36.479  1.00  0.00     0.173 A 
ATOM     71  F   UNL A   1      41.428  33.431  35.413  1.00  0.00    -0.203 F 
ATOM     72  C   UNL A   1      39.905  33.719  37.188  1.00  0.00     0.198 A 
ATOM     73  C   UNL A   1      38.165  32.107  37.548  1.00  0.00     0.198 A 
ATOM     74  F   UNL A   1      38.013  30.216  36.163  1.00  0.00    -0.203 F 
ATOM     75  F   UNL A   1      40.542  34.841  37.551  1.00  0.00    -0.200 F 
ATOM     76  C   UNL A   1      38.801  33.285  37.907  1.00  0.00     0.200 A 
ATOM     77  F   UNL A   1      37.084  31.696  38.225  1.00  0.00    -0.200 F 
ATOM     78  F   UNL A   1      38.354  33.999  38.950  1.00  0.00    -0.200 F 
ENDBRANCH  44  68
BRANCH  56  79
ATOM     79  C   UNL A   1      44.606  26.902  34.748  1.00  0.00     0.064 A 
ATOM     80  C   UNL A   1      44.308  25.713  35.432  1.00  0.00     0.173 A 
ATOM     81  C   UNL A   1      45.874  27.470  34.939  1.00  0.00     0.173 A 
ATOM     82  F   UNL A   1      43.100  25.143  35.299  1.00  0.00    -0.203 F 
ATOM     83  C   UNL A   1      45.234  25.131  36.290  1.00  0.00     0.198 A 
ATOM     84  C   UNL A   1      46.810  26.866  35.773  1.00  0.00     0.198 A 
ATOM     85  F   UNL A   1      46.209  28.606  34.308  1.00  0.00    -0.203 F 
ATOM     86  F   UNL A   1      44.908  24.024  36.974  1.00  0.00    -0.200 F 
ATOM     87  C   UNL A   1      46.487  25.702  36.454  1.00  0.00     0.200 A 
ATOM     88  F   UNL A   1      48.025  27.413  35.918  1.00  0.00    -0.200 F 
ATOM     89  F   UNL A   1      47.382  25.135  37.274  1.00  0.00    -0.200 F 
ENDBRANCH  56  79
ENDBRANCH  30  31
ENDBRANCH  23  25
ENDBRANCH  22  23
ENDBRANCH  21  22
ENDBRANCH   1  21
TORSDOF 16
ENDMDL
