MODEL 1
REMARK VINA RESULT:     -13.0      0.000      0.000
REMARK SMILES [NH3+][C@H]1CN(C(=O)OCC2c3ccccc3-c3ccccc32)C[C@@H]1C(=O)OCCOC(=O)c1ccc(-c2c3nc(c(-c4c(F)c(F)c(F)c(F)c4F)c4ccc([nH]4)c(-c4c(F)c(F)c(F)c(F)c4F)c4nc(c(-c5c(F)c(F)c(F)c(F)c5F)c5ccc2[nH]5)C=C4)C=C3)cc1
REMARK SMILES IDX 27 1 26 2 24 3 25 4 23 5 2 6 3 7 4 8 22 9 1 10 5 14 6 15
REMARK SMILES IDX 7 16 8 17 9 18 10 19 21 20 11 21 15 22 16 23 20 24 12 25
REMARK SMILES IDX 14 26 17 27 19 28 13 29 18 30 28 31 29 32 30 33 31 34 32 35
REMARK SMILES IDX 33 36 94 37 34 38 93 39 35 40 36 41 37 42 87 43 38 44 92 45
REMARK SMILES IDX 86 46 88 47 39 48 91 49 85 50 84 51 40 53 72 54 52 55 71 56
REMARK SMILES IDX 53 57 56 58 70 59 89 60 54 61 55 62 69 64 90 65 57 66 41 67
REMARK SMILES IDX 42 68 50 69 43 70 44 71 48 72 51 73 45 74 46 75 49 76 47 77
REMARK SMILES IDX 73 78 74 79 82 80 75 81 76 82 80 83 83 84 77 85 78 86 81 87
REMARK SMILES IDX 79 88 58 89 59 90 67 91 60 92 61 93 65 94 68 95 62 96 63 97
REMARK SMILES IDX 66 98 64 99
REMARK H PARENT 1 11 1 12 1 13 88 52 56 63
REMARK Flexibility Score: inf
ROOT
ATOM      1  C   UNL A   1      31.769  28.677  26.992  1.00  0.00     0.274 C 
ENDROOT
BRANCH   1   2
ATOM      2  O   UNL A   1      31.483  28.045  25.725  1.00  0.00    -0.462 OA
BRANCH   2   3
ATOM      3  C   UNL A   1      32.574  27.710  24.979  1.00  0.00     0.317 C 
ATOM      4  O   UNL A   1      33.497  27.022  25.395  1.00  0.00    -0.252 OA
BRANCH   3   5
ATOM      5  C   UNL A   1      32.565  28.416  23.638  1.00  0.00     0.178 C 
ATOM      6  C   UNL A   1      31.202  28.442  22.923  1.00  0.00     0.216 C 
ATOM      7  C   UNL A   1      31.218  27.198  21.994  1.00  0.00     0.188 C 
ATOM      8  N   UNL A   1      32.597  26.765  21.953  1.00  0.00    -0.301 N 
ATOM      9  C   UNL A   1      33.469  27.684  22.656  1.00  0.00     0.145 C 
BRANCH   6  10
ATOM     10  N   UNL A   1      31.077  29.675  22.123  1.00  0.00    -0.353 N 
ATOM     11  H   UNL A   1      31.180  29.451  21.133  1.00  0.00     0.344 HD
ATOM     12  H   UNL A   1      31.803  30.335  22.400  1.00  0.00     0.344 HD
ATOM     13  H   UNL A   1      30.160  30.093  22.284  1.00  0.00     0.344 HD
ENDBRANCH   6  10
BRANCH   8  14
ATOM     14  C   UNL A   1      33.006  25.508  21.592  1.00  0.00     0.410 C 
ATOM     15  O   UNL A   1      33.227  25.196  20.431  1.00  0.00    -0.224 OA
BRANCH  14  16
ATOM     16  O   UNL A   1      33.128  24.665  22.653  1.00  0.00    -0.448 OA
BRANCH  16  17
ATOM     17  C   UNL A   1      32.990  23.250  22.372  1.00  0.00     0.248 C 
BRANCH  17  18
ATOM     18  C   UNL A   1      33.406  22.338  23.540  1.00  0.00     0.088 C 
ATOM     19  C   UNL A   1      34.785  22.669  24.121  1.00  0.00    -0.029 A 
ATOM     20  C   UNL A   1      32.510  22.578  24.762  1.00  0.00    -0.029 A 
ATOM     21  C   UNL A   1      36.032  22.598  23.524  1.00  0.00     0.005 A 
ATOM     22  C   UNL A   1      34.664  23.128  25.446  1.00  0.00    -0.014 A 
ATOM     23  C   UNL A   1      33.293  22.972  25.865  1.00  0.00    -0.014 A 
ATOM     24  C   UNL A   1      31.134  22.437  24.883  1.00  0.00     0.005 A 
ATOM     25  C   UNL A   1      37.129  23.150  24.188  1.00  0.00     0.000 A 
ATOM     26  C   UNL A   1      35.752  23.665  26.119  1.00  0.00     0.009 A 
ATOM     27  C   UNL A   1      32.727  23.111  27.118  1.00  0.00     0.009 A 
ATOM     28  C   UNL A   1      30.553  22.650  26.136  1.00  0.00     0.000 A 
ATOM     29  C   UNL A   1      36.987  23.704  25.467  1.00  0.00     0.001 A 
ATOM     30  C   UNL A   1      31.346  22.959  27.250  1.00  0.00     0.001 A 
ENDBRANCH  17  18
ENDBRANCH  16  17
ENDBRANCH  14  16
ENDBRANCH   8  14
ENDBRANCH   3   5
ENDBRANCH   2   3
ENDBRANCH   1   2
BRANCH   1  31
ATOM     31  C   UNL A   1      31.779  30.199  26.875  1.00  0.00     0.275 C 
BRANCH  31  32
ATOM     32  O   UNL A   1      33.078  30.666  26.473  1.00  0.00    -0.458 OA
BRANCH  32  33
ATOM     33  C   UNL A   1      33.625  31.624  27.251  1.00  0.00     0.338 C 
ATOM     34  O   UNL A   1      33.117  32.670  27.620  1.00  0.00    -0.246 OA
BRANCH  33  35
ATOM     35  C   UNL A   1      34.953  31.191  27.711  1.00  0.00     0.060 A 
ATOM     36  C   UNL A   1      35.123  29.849  28.017  1.00  0.00     0.016 A 
ATOM     37  C   UNL A   1      35.965  32.107  28.005  1.00  0.00     0.016 A 
ATOM     38  C   UNL A   1      36.261  29.443  28.702  1.00  0.00     0.010 A 
ATOM     39  C   UNL A   1      37.141  31.671  28.645  1.00  0.00     0.010 A 
ATOM     40  C   UNL A   1      37.280  30.334  29.052  1.00  0.00    -0.014 A 
BRANCH  40  41
ATOM     41  C   UNL A   1      38.400  29.851  29.923  1.00  0.00     0.031 A 
ATOM     42  C   UNL A   1      39.491  28.991  29.335  1.00  0.00     0.074 A 
ATOM     43  C   UNL A   1      38.550  30.305  31.188  1.00  0.00     0.049 A 
ATOM     44  N   UNL A   1      40.529  28.444  29.922  1.00  0.00    -0.248 NA
ATOM     45  C   UNL A   1      39.431  28.739  27.886  1.00  0.00     0.031 C 
ATOM     46  C   UNL A   1      37.694  31.306  31.820  1.00  0.00     0.029 A 
ATOM     47  N   UNL A   1      39.510  30.047  32.143  1.00  0.00    -0.354 N 
ATOM     48  C   UNL A   1      41.198  27.734  28.934  1.00  0.00     0.074 A 
ATOM     49  C   UNL A   1      40.476  27.944  27.700  1.00  0.00     0.031 C 
ATOM     50  C   UNL A   1      38.221  31.650  33.003  1.00  0.00     0.029 A 
ATOM     51  C   UNL A   1      39.359  30.785  33.299  1.00  0.00     0.049 A 
ATOM     52  H   UNL A   1      40.236  29.396  32.013  1.00  0.00     0.167 HD
ATOM     53  C   UNL A   1      42.304  26.960  29.053  1.00  0.00     0.037 A 
ATOM     54  C   UNL A   1      40.030  30.745  34.473  1.00  0.00     0.037 A 
ATOM     55  C   UNL A   1      43.060  26.797  30.267  1.00  0.00     0.049 A 
ATOM     56  C   UNL A   1      41.164  29.758  34.608  1.00  0.00     0.074 A 
ATOM     57  C   UNL A   1      44.177  26.008  30.485  1.00  0.00     0.029 A 
ATOM     58  N   UNL A   1      42.786  27.442  31.464  1.00  0.00    -0.354 N 
ATOM     59  N   UNL A   1      41.743  29.021  33.688  1.00  0.00    -0.248 NA
ATOM     60  C   UNL A   1      41.734  29.580  35.951  1.00  0.00     0.031 C 
ATOM     61  C   UNL A   1      44.544  26.131  31.828  1.00  0.00     0.029 A 
ATOM     62  C   UNL A   1      43.694  27.042  32.433  1.00  0.00     0.049 A 
ATOM     63  H   UNL A   1      42.054  28.086  31.605  1.00  0.00     0.167 HD
ATOM     64  C   UNL A   1      42.792  28.367  34.322  1.00  0.00     0.074 A 
ATOM     65  C   UNL A   1      42.766  28.785  35.708  1.00  0.00     0.031 C 
ATOM     66  C   UNL A   1      43.698  27.504  33.799  1.00  0.00     0.037 A 
BRANCH  53  67
ATOM     67  C   UNL A   1      42.716  26.149  27.859  1.00  0.00     0.064 A 
ATOM     68  C   UNL A   1      42.137  24.912  27.550  1.00  0.00     0.173 A 
ATOM     69  C   UNL A   1      43.688  26.659  26.982  1.00  0.00     0.173 A 
ATOM     70  F   UNL A   1      41.216  24.374  28.364  1.00  0.00    -0.203 F 
ATOM     71  C   UNL A   1      42.528  24.206  26.413  1.00  0.00     0.198 A 
ATOM     72  C   UNL A   1      44.057  25.963  25.835  1.00  0.00     0.198 A 
ATOM     73  F   UNL A   1      44.267  27.842  27.232  1.00  0.00    -0.203 F 
ATOM     74  F   UNL A   1      41.988  23.007  26.152  1.00  0.00    -0.200 F 
ATOM     75  C   UNL A   1      43.481  24.735  25.553  1.00  0.00     0.200 A 
ATOM     76  F   UNL A   1      44.970  26.483  25.003  1.00  0.00    -0.200 F 
ATOM     77  F   UNL A   1      43.849  24.058  24.457  1.00  0.00    -0.200 F 
ENDBRANCH  53  67
BRANCH  54  78
ATOM     78  C   UNL A   1      39.659  31.671  35.600  1.00  0.00     0.064 A 
ATOM     79  C   UNL A   1      40.324  32.891  35.804  1.00  0.00     0.173 A 
ATOM     80  C   UNL A   1      38.618  31.380  36.498  1.00  0.00     0.173 A 
ATOM     81  F   UNL A   1      41.431  33.183  35.113  1.00  0.00    -0.203 F 
ATOM     82  C   UNL A   1      39.916  33.806  36.774  1.00  0.00     0.198 A 
ATOM     83  C   UNL A   1      38.192  32.304  37.454  1.00  0.00     0.198 A 
ATOM     84  F   UNL A   1      37.992  30.195  36.444  1.00  0.00    -0.203 F 
ATOM     85  F   UNL A   1      40.589  34.955  36.928  1.00  0.00    -0.200 F 
ATOM     86  C   UNL A   1      38.833  33.523  37.583  1.00  0.00     0.200 A 
ATOM     87  F   UNL A   1      37.153  32.009  38.248  1.00  0.00    -0.200 F 
ATOM     88  F   UNL A   1      38.427  34.409  38.502  1.00  0.00    -0.200 F 
ENDBRANCH  54  78
BRANCH  66  89
ATOM     89  C   UNL A   1      44.796  27.008  34.700  1.00  0.00     0.064 A 
ATOM     90  C   UNL A   1      46.008  27.698  34.845  1.00  0.00     0.173 A 
ATOM     91  C   UNL A   1      44.608  25.849  35.470  1.00  0.00     0.173 A 
ATOM     92  F   UNL A   1      46.243  28.808  34.128  1.00  0.00    -0.203 F 
ATOM     93  C   UNL A   1      47.003  27.229  35.699  1.00  0.00     0.198 A 
ATOM     94  C   UNL A   1      45.590  25.404  36.352  1.00  0.00     0.198 A 
ATOM     95  F   UNL A   1      43.463  25.155  35.381  1.00  0.00    -0.203 F 
ATOM     96  F   UNL A   1      48.174  27.876  35.779  1.00  0.00    -0.200 F 
ATOM     97  C   UNL A   1      46.790  26.088  36.458  1.00  0.00     0.200 A 
ATOM     98  F   UNL A   1      45.373  24.312  37.099  1.00  0.00    -0.200 F 
ATOM     99  F   UNL A   1      47.745  25.646  37.288  1.00  0.00    -0.200 F 
ENDBRANCH  66  89
ENDBRANCH  40  41
ENDBRANCH  33  35
ENDBRANCH  32  33
ENDBRANCH  31  32
ENDBRANCH   1  31
TORSDOF 16
ENDMDL
MODEL 2
REMARK VINA RESULT:     -13.0      1.655      2.677
REMARK SMILES [NH3+][C@H]1CN(C(=O)OCC2c3ccccc3-c3ccccc32)C[C@@H]1C(=O)OCCOC(=O)c1ccc(-c2c3nc(c(-c4c(F)c(F)c(F)c(F)c4F)c4ccc([nH]4)c(-c4c(F)c(F)c(F)c(F)c4F)c4nc(c(-c5c(F)c(F)c(F)c(F)c5F)c5ccc2[nH]5)C=C4)C=C3)cc1
REMARK SMILES IDX 27 1 26 2 24 3 25 4 23 5 2 6 3 7 4 8 22 9 1 10 5 14 6 15
REMARK SMILES IDX 7 16 8 17 9 18 10 19 21 20 11 21 15 22 16 23 20 24 12 25
REMARK SMILES IDX 14 26 17 27 19 28 13 29 18 30 28 31 29 32 30 33 31 34 32 35
REMARK SMILES IDX 33 36 94 37 34 38 93 39 35 40 36 41 37 42 87 43 38 44 92 45
REMARK SMILES IDX 86 46 88 47 39 48 91 49 85 50 84 51 40 53 72 54 52 55 71 56
REMARK SMILES IDX 53 57 56 58 70 59 89 60 54 61 55 62 69 64 90 65 57 66 41 67
REMARK SMILES IDX 42 68 50 69 43 70 44 71 48 72 51 73 45 74 46 75 49 76 47 77
REMARK SMILES IDX 73 78 74 79 82 80 75 81 76 82 80 83 83 84 77 85 78 86 81 87
REMARK SMILES IDX 79 88 58 89 59 90 67 91 60 92 61 93 65 94 68 95 62 96 63 97
REMARK SMILES IDX 66 98 64 99
REMARK H PARENT 1 11 1 12 1 13 88 52 56 63
REMARK Flexibility Score: inf
ROOT
ATOM      1  C   UNL A   1      31.850  29.617  24.900  1.00  0.00     0.274 C 
ENDROOT
BRANCH   1   2
ATOM      2  O   UNL A   1      31.028  28.438  25.044  1.00  0.00    -0.462 OA
BRANCH   2   3
ATOM      3  C   UNL A   1      31.489  27.507  25.926  1.00  0.00     0.317 C 
ATOM      4  O   UNL A   1      31.137  27.445  27.097  1.00  0.00    -0.252 OA
BRANCH   3   5
ATOM      5  C   UNL A   1      32.593  26.665  25.315  1.00  0.00     0.178 C 
ATOM      6  C   UNL A   1      32.310  26.152  23.892  1.00  0.00     0.216 C 
ATOM      7  C   UNL A   1      31.684  24.746  24.096  1.00  0.00     0.188 C 
ATOM      8  N   UNL A   1      31.947  24.402  25.476  1.00  0.00    -0.301 N 
ATOM      9  C   UNL A   1      32.786  25.390  26.123  1.00  0.00     0.145 C 
BRANCH   6  10
ATOM     10  N   UNL A   1      33.572  26.044  23.135  1.00  0.00    -0.353 N 
ATOM     11  H   UNL A   1      34.038  26.951  23.121  1.00  0.00     0.344 HD
ATOM     12  H   UNL A   1      33.370  25.750  22.180  1.00  0.00     0.344 HD
ATOM     13  H   UNL A   1      34.178  25.356  23.582  1.00  0.00     0.344 HD
ENDBRANCH   6  10
BRANCH   8  14
ATOM     14  C   UNL A   1      31.253  23.459  26.187  1.00  0.00     0.410 C 
ATOM     15  O   UNL A   1      30.705  23.708  27.251  1.00  0.00    -0.224 OA
BRANCH  14  16
ATOM     16  O   UNL A   1      31.251  22.238  25.585  1.00  0.00    -0.448 OA
BRANCH  16  17
ATOM     17  C   UNL A   1      32.371  21.370  25.886  1.00  0.00     0.248 C 
BRANCH  17  18
ATOM     18  C   UNL A   1      33.204  20.975  24.652  1.00  0.00     0.088 C 
ATOM     19  C   UNL A   1      34.644  21.501  24.686  1.00  0.00    -0.029 A 
ATOM     20  C   UNL A   1      33.448  19.461  24.623  1.00  0.00    -0.029 A 
ATOM     21  C   UNL A   1      35.104  22.806  24.672  1.00  0.00     0.005 A 
ATOM     22  C   UNL A   1      35.557  20.433  24.769  1.00  0.00    -0.014 A 
ATOM     23  C   UNL A   1      34.832  19.195  24.625  1.00  0.00    -0.014 A 
ATOM     24  C   UNL A   1      32.526  18.424  24.577  1.00  0.00     0.005 A 
ATOM     25  C   UNL A   1      36.458  23.045  24.919  1.00  0.00     0.000 A 
ATOM     26  C   UNL A   1      36.906  20.661  25.000  1.00  0.00     0.009 A 
ATOM     27  C   UNL A   1      35.302  17.905  24.461  1.00  0.00     0.009 A 
ATOM     28  C   UNL A   1      33.004  17.115  24.486  1.00  0.00     0.000 A 
ATOM     29  C   UNL A   1      37.349  21.981  25.107  1.00  0.00     0.001 A 
ATOM     30  C   UNL A   1      34.380  16.859  24.403  1.00  0.00     0.001 A 
ENDBRANCH  17  18
ENDBRANCH  16  17
ENDBRANCH  14  16
ENDBRANCH   8  14
ENDBRANCH   3   5
ENDBRANCH   2   3
ENDBRANCH   1   2
BRANCH   1  31
ATOM     31  C   UNL A   1      31.469  30.698  25.909  1.00  0.00     0.275 C 
BRANCH  31  32
ATOM     32  O   UNL A   1      32.343  30.653  27.051  1.00  0.00    -0.458 OA
BRANCH  32  33
ATOM     33  C   UNL A   1      33.076  31.765  27.274  1.00  0.00     0.338 C 
ATOM     34  O   UNL A   1      32.713  32.927  27.211  1.00  0.00    -0.246 OA
BRANCH  33  35
ATOM     35  C   UNL A   1      34.424  31.386  27.725  1.00  0.00     0.060 A 
ATOM     36  C   UNL A   1      34.667  30.045  27.977  1.00  0.00     0.016 A 
ATOM     37  C   UNL A   1      35.382  32.344  28.064  1.00  0.00     0.016 A 
ATOM     38  C   UNL A   1      35.822  29.674  28.652  1.00  0.00     0.010 A 
ATOM     39  C   UNL A   1      36.577  31.948  28.693  1.00  0.00     0.010 A 
ATOM     40  C   UNL A   1      36.788  30.604  29.046  1.00  0.00    -0.014 A 
BRANCH  40  41
ATOM     41  C   UNL A   1      37.929  30.149  29.904  1.00  0.00     0.031 A 
ATOM     42  C   UNL A   1      39.030  29.309  29.305  1.00  0.00     0.074 A 
ATOM     43  C   UNL A   1      38.087  30.611  31.164  1.00  0.00     0.049 A 
ATOM     44  N   UNL A   1      40.086  28.786  29.881  1.00  0.00    -0.248 NA
ATOM     45  C   UNL A   1      38.957  29.049  27.857  1.00  0.00     0.031 C 
ATOM     46  C   UNL A   1      37.219  31.597  31.804  1.00  0.00     0.029 A 
ATOM     47  N   UNL A   1      39.064  30.376  32.108  1.00  0.00    -0.354 N 
ATOM     48  C   UNL A   1      40.757  28.084  28.887  1.00  0.00     0.074 A 
ATOM     49  C   UNL A   1      40.015  28.275  27.661  1.00  0.00     0.031 C 
ATOM     50  C   UNL A   1      37.754  31.957  32.979  1.00  0.00     0.029 A 
ATOM     51  C   UNL A   1      38.913  31.117  33.263  1.00  0.00     0.049 A 
ATOM     52  H   UNL A   1      39.802  29.740  31.971  1.00  0.00     0.167 HD
ATOM     53  C   UNL A   1      41.880  27.335  28.994  1.00  0.00     0.037 A 
ATOM     54  C   UNL A   1      39.600  31.096  34.428  1.00  0.00     0.037 A 
ATOM     55  C   UNL A   1      42.656  27.192  30.199  1.00  0.00     0.049 A 
ATOM     56  C   UNL A   1      40.756  30.132  34.552  1.00  0.00     0.074 A 
ATOM     57  C   UNL A   1      43.791  26.427  30.405  1.00  0.00     0.029 A 
ATOM     58  N   UNL A   1      42.384  27.836  31.397  1.00  0.00    -0.354 N 
ATOM     59  N   UNL A   1      41.338  29.403  33.628  1.00  0.00    -0.248 NA
ATOM     60  C   UNL A   1      41.348  29.971  35.888  1.00  0.00     0.031 C 
ATOM     61  C   UNL A   1      44.173  26.563  31.742  1.00  0.00     0.029 A 
ATOM     62  C   UNL A   1      43.313  27.459  32.355  1.00  0.00     0.049 A 
ATOM     63  H   UNL A   1      41.641  28.466  31.545  1.00  0.00     0.167 HD
ATOM     64  C   UNL A   1      42.408  28.774  34.251  1.00  0.00     0.074 A 
ATOM     65  C   UNL A   1      42.393  29.197  35.635  1.00  0.00     0.031 C 
ATOM     66  C   UNL A   1      43.325  27.927  33.719  1.00  0.00     0.037 A 
BRANCH  53  67
ATOM     67  C   UNL A   1      42.293  26.526  27.798  1.00  0.00     0.064 A 
ATOM     68  C   UNL A   1      43.295  26.942  26.913  1.00  0.00     0.173 A 
ATOM     69  C   UNL A   1      41.689  25.278  27.570  1.00  0.00     0.173 A 
ATOM     70  F   UNL A   1      43.891  28.132  27.079  1.00  0.00    -0.203 F 
ATOM     71  C   UNL A   1      43.668  26.144  25.833  1.00  0.00     0.198 A 
ATOM     72  C   UNL A   1      42.081  24.474  26.505  1.00  0.00     0.198 A 
ATOM     73  F   UNL A   1      40.727  24.834  28.393  1.00  0.00    -0.203 F 
ATOM     74  F   UNL A   1      44.605  26.574  24.976  1.00  0.00    -0.200 F 
ATOM     75  C   UNL A   1      43.067  24.909  25.633  1.00  0.00     0.200 A 
ATOM     76  F   UNL A   1      41.505  23.277  26.323  1.00  0.00    -0.200 F 
ATOM     77  F   UNL A   1      43.433  24.141  24.599  1.00  0.00    -0.200 F 
ENDBRANCH  53  67
BRANCH  54  78
ATOM     78  C   UNL A   1      39.226  32.018  35.556  1.00  0.00     0.064 A 
ATOM     79  C   UNL A   1      38.404  31.598  36.614  1.00  0.00     0.173 A 
ATOM     80  C   UNL A   1      39.690  33.343  35.627  1.00  0.00     0.173 A 
ATOM     81  F   UNL A   1      37.777  30.418  36.557  1.00  0.00    -0.203 F 
ATOM     82  C   UNL A   1      38.142  32.408  37.719  1.00  0.00     0.198 A 
ATOM     83  C   UNL A   1      39.450  34.148  36.742  1.00  0.00     0.198 A 
ATOM     84  F   UNL A   1      40.398  33.865  34.614  1.00  0.00    -0.203 F 
ATOM     85  F   UNL A   1      37.348  31.957  38.700  1.00  0.00    -0.200 F 
ATOM     86  C   UNL A   1      38.687  33.675  37.795  1.00  0.00     0.200 A 
ATOM     87  F   UNL A   1      39.966  35.384  36.795  1.00  0.00    -0.200 F 
ATOM     88  F   UNL A   1      38.453  34.447  38.864  1.00  0.00    -0.200 F 
ENDBRANCH  54  78
BRANCH  66  89
ATOM     89  C   UNL A   1      44.445  27.458  34.607  1.00  0.00     0.064 A 
ATOM     90  C   UNL A   1      45.641  28.178  34.740  1.00  0.00     0.173 A 
ATOM     91  C   UNL A   1      44.295  26.293  35.377  1.00  0.00     0.173 A 
ATOM     92  F   UNL A   1      45.840  29.293  34.022  1.00  0.00    -0.203 F 
ATOM     93  C   UNL A   1      46.657  27.732  35.583  1.00  0.00     0.198 A 
ATOM     94  C   UNL A   1      45.296  25.872  36.248  1.00  0.00     0.198 A 
ATOM     95  F   UNL A   1      43.166  25.571  35.299  1.00  0.00    -0.203 F 
ATOM     96  F   UNL A   1      47.812  28.409  35.651  1.00  0.00    -0.200 F 
ATOM     97  C   UNL A   1      46.480  26.586  36.342  1.00  0.00     0.200 A 
ATOM     98  F   UNL A   1      45.115  24.774  36.996  1.00  0.00    -0.200 F 
ATOM     99  F   UNL A   1      47.455  26.166  37.162  1.00  0.00    -0.200 F 
ENDBRANCH  66  89
ENDBRANCH  40  41
ENDBRANCH  33  35
ENDBRANCH  32  33
ENDBRANCH  31  32
ENDBRANCH   1  31
TORSDOF 16
ENDMDL
MODEL 3
REMARK VINA RESULT:     -13.0      0.874      2.090
REMARK SMILES [NH3+][C@H]1CN(C(=O)OCC2c3ccccc3-c3ccccc32)C[C@@H]1C(=O)OCCOC(=O)c1ccc(-c2c3nc(c(-c4c(F)c(F)c(F)c(F)c4F)c4ccc([nH]4)c(-c4c(F)c(F)c(F)c(F)c4F)c4nc(c(-c5c(F)c(F)c(F)c(F)c5F)c5ccc2[nH]5)C=C4)C=C3)cc1
REMARK SMILES IDX 27 1 26 2 24 3 25 4 23 5 2 6 3 7 4 8 22 9 1 10 5 14 6 15
REMARK SMILES IDX 7 16 8 17 9 18 10 19 21 20 11 21 15 22 16 23 20 24 12 25
REMARK SMILES IDX 14 26 17 27 19 28 13 29 18 30 28 31 29 32 30 33 31 34 32 35
REMARK SMILES IDX 33 36 94 37 34 38 93 39 35 40 36 41 37 42 87 43 38 44 92 45
REMARK SMILES IDX 86 46 88 47 39 48 91 49 85 50 84 51 40 53 72 54 52 55 71 56
REMARK SMILES IDX 53 57 56 58 70 59 89 60 54 61 55 62 69 64 90 65 57 66 41 67
REMARK SMILES IDX 42 68 50 69 43 70 44 71 48 72 51 73 45 74 46 75 49 76 47 77
REMARK SMILES IDX 73 78 74 79 82 80 75 81 76 82 80 83 83 84 77 85 78 86 81 87
REMARK SMILES IDX 79 88 58 89 59 90 67 91 60 92 61 93 65 94 68 95 62 96 63 97
REMARK SMILES IDX 66 98 64 99
REMARK H PARENT 1 11 1 12 1 13 88 52 56 63
REMARK Flexibility Score: inf
ROOT
ATOM      1  C   UNL A   1      31.863  28.540  26.975  1.00  0.00     0.274 C 
ENDROOT
BRANCH   1   2
ATOM      2  O   UNL A   1      31.559  27.864  25.736  1.00  0.00    -0.462 OA
BRANCH   2   3
ATOM      3  C   UNL A   1      32.639  27.447  25.016  1.00  0.00     0.317 C 
ATOM      4  O   UNL A   1      33.504  26.702  25.457  1.00  0.00    -0.252 OA
BRANCH   3   5
ATOM      5  C   UNL A   1      32.705  28.138  23.668  1.00  0.00     0.178 C 
ATOM      6  C   UNL A   1      31.354  28.297  22.949  1.00  0.00     0.216 C 
ATOM      7  C   UNL A   1      31.245  27.050  22.031  1.00  0.00     0.188 C 
ATOM      8  N   UNL A   1      32.572  26.477  21.998  1.00  0.00    -0.301 N 
ATOM      9  C   UNL A   1      33.532  27.309  22.696  1.00  0.00     0.145 C 
BRANCH   6  10
ATOM     10  N   UNL A   1      31.356  29.529  22.138  1.00  0.00    -0.353 N 
ATOM     11  H   UNL A   1      31.503  29.291  21.157  1.00  0.00     0.344 HD
ATOM     12  H   UNL A   1      32.107  30.142  22.454  1.00  0.00     0.344 HD
ATOM     13  H   UNL A   1      30.461  30.007  22.242  1.00  0.00     0.344 HD
ENDBRANCH   6  10
BRANCH   8  14
ATOM     14  C   UNL A   1      32.851  25.182  21.649  1.00  0.00     0.410 C 
ATOM     15  O   UNL A   1      33.201  24.865  20.522  1.00  0.00    -0.224 OA
BRANCH  14  16
ATOM     16  O   UNL A   1      32.690  24.309  22.681  1.00  0.00    -0.448 OA
BRANCH  16  17
ATOM     17  C   UNL A   1      33.690  23.266  22.805  1.00  0.00     0.248 C 
BRANCH  17  18
ATOM     18  C   UNL A   1      33.828  22.700  24.230  1.00  0.00     0.088 C 
ATOM     19  C   UNL A   1      33.561  21.194  24.324  1.00  0.00    -0.029 A 
ATOM     20  C   UNL A   1      35.286  22.767  24.701  1.00  0.00    -0.029 A 
ATOM     21  C   UNL A   1      32.395  20.490  24.077  1.00  0.00     0.005 A 
ATOM     22  C   UNL A   1      34.733  20.508  24.695  1.00  0.00    -0.014 A 
ATOM     23  C   UNL A   1      35.749  21.476  25.024  1.00  0.00    -0.014 A 
ATOM     24  C   UNL A   1      36.111  23.874  24.849  1.00  0.00     0.005 A 
ATOM     25  C   UNL A   1      32.448  19.095  24.029  1.00  0.00     0.000 A 
ATOM     26  C   UNL A   1      34.790  19.122  24.664  1.00  0.00     0.009 A 
ATOM     27  C   UNL A   1      36.990  21.297  25.605  1.00  0.00     0.009 A 
ATOM     28  C   UNL A   1      37.393  23.682  25.369  1.00  0.00     0.000 A 
ATOM     29  C   UNL A   1      33.643  18.415  24.295  1.00  0.00     0.001 A 
ATOM     30  C   UNL A   1      37.820  22.407  25.768  1.00  0.00     0.001 A 
ENDBRANCH  17  18
ENDBRANCH  16  17
ENDBRANCH  14  16
ENDBRANCH   8  14
ENDBRANCH   3   5
ENDBRANCH   2   3
ENDBRANCH   1   2
BRANCH   1  31
ATOM     31  C   UNL A   1      31.767  30.057  26.828  1.00  0.00     0.275 C 
BRANCH  31  32
ATOM     32  O   UNL A   1      33.037  30.607  26.434  1.00  0.00    -0.458 OA
BRANCH  32  33
ATOM     33  C   UNL A   1      33.540  31.564  27.244  1.00  0.00     0.338 C 
ATOM     34  O   UNL A   1      32.985  32.574  27.644  1.00  0.00    -0.246 OA
BRANCH  33  35
ATOM     35  C   UNL A   1      34.885  31.175  27.694  1.00  0.00     0.060 A 
ATOM     36  C   UNL A   1      35.106  29.838  27.984  1.00  0.00     0.016 A 
ATOM     37  C   UNL A   1      35.862  32.125  27.996  1.00  0.00     0.016 A 
ATOM     38  C   UNL A   1      36.260  29.466  28.660  1.00  0.00     0.010 A 
ATOM     39  C   UNL A   1      37.055  31.726  28.627  1.00  0.00     0.010 A 
ATOM     40  C   UNL A   1      37.246  30.390  29.017  1.00  0.00    -0.014 A 
BRANCH  40  41
ATOM     41  C   UNL A   1      38.387  29.940  29.879  1.00  0.00     0.031 A 
ATOM     42  C   UNL A   1      39.489  29.097  29.286  1.00  0.00     0.074 A 
ATOM     43  C   UNL A   1      38.543  30.408  31.137  1.00  0.00     0.049 A 
ATOM     44  N   UNL A   1      40.544  28.577  29.865  1.00  0.00    -0.248 NA
ATOM     45  C   UNL A   1      39.416  28.830  27.840  1.00  0.00     0.031 C 
ATOM     46  C   UNL A   1      37.674  31.398  31.771  1.00  0.00     0.029 A 
ATOM     47  N   UNL A   1      39.520  30.180  32.083  1.00  0.00    -0.354 N 
ATOM     48  C   UNL A   1      41.217  27.871  28.876  1.00  0.00     0.074 A 
ATOM     49  C   UNL A   1      40.475  28.055  27.648  1.00  0.00     0.031 C 
ATOM     50  C   UNL A   1      38.208  31.764  32.944  1.00  0.00     0.029 A 
ATOM     51  C   UNL A   1      39.367  30.926  33.234  1.00  0.00     0.049 A 
ATOM     52  H   UNL A   1      40.257  29.543  31.950  1.00  0.00     0.167 HD
ATOM     53  C   UNL A   1      42.340  27.123  28.988  1.00  0.00     0.037 A 
ATOM     54  C   UNL A   1      40.053  30.912  34.400  1.00  0.00     0.037 A 
ATOM     55  C   UNL A   1      43.114  26.987  30.194  1.00  0.00     0.049 A 
ATOM     56  C   UNL A   1      41.209  29.950  34.530  1.00  0.00     0.074 A 
ATOM     57  C   UNL A   1      44.250  26.224  30.406  1.00  0.00     0.029 A 
ATOM     58  N   UNL A   1      42.841  27.637  31.388  1.00  0.00    -0.354 N 
ATOM     59  N   UNL A   1      41.792  29.216  33.610  1.00  0.00    -0.248 NA
ATOM     60  C   UNL A   1      41.800  29.796  35.867  1.00  0.00     0.031 C 
ATOM     61  C   UNL A   1      44.631  26.367  31.743  1.00  0.00     0.029 A 
ATOM     62  C   UNL A   1      43.769  27.266  32.350  1.00  0.00     0.049 A 
ATOM     63  H   UNL A   1      42.098  28.267  31.532  1.00  0.00     0.167 HD
ATOM     64  C   UNL A   1      42.862  28.591  34.237  1.00  0.00     0.074 A 
ATOM     65  C   UNL A   1      42.845  29.021  35.619  1.00  0.00     0.031 C 
ATOM     66  C   UNL A   1      43.780  27.741  33.711  1.00  0.00     0.037 A 
BRANCH  53  67
ATOM     67  C   UNL A   1      42.754  26.308  27.797  1.00  0.00     0.064 A 
ATOM     68  C   UNL A   1      42.188  25.062  27.499  1.00  0.00     0.173 A 
ATOM     69  C   UNL A   1      43.715  26.824  26.911  1.00  0.00     0.173 A 
ATOM     70  F   UNL A   1      41.277  24.520  28.322  1.00  0.00    -0.203 F 
ATOM     71  C   UNL A   1      42.580  24.354  26.364  1.00  0.00     0.198 A 
ATOM     72  C   UNL A   1      44.086  26.125  25.766  1.00  0.00     0.198 A 
ATOM     73  F   UNL A   1      44.282  28.015  27.150  1.00  0.00    -0.203 F 
ATOM     74  F   UNL A   1      42.052  23.148  26.113  1.00  0.00    -0.200 F 
ATOM     75  C   UNL A   1      43.522  24.888  25.496  1.00  0.00     0.200 A 
ATOM     76  F   UNL A   1      44.988  26.649  24.925  1.00  0.00    -0.200 F 
ATOM     77  F   UNL A   1      43.891  24.209  24.402  1.00  0.00    -0.200 F 
ENDBRANCH  53  67
BRANCH  54  78
ATOM     78  C   UNL A   1      39.677  31.840  35.522  1.00  0.00     0.064 A 
ATOM     79  C   UNL A   1      38.638  31.537  36.417  1.00  0.00     0.173 A 
ATOM     80  C   UNL A   1      40.353  33.051  35.753  1.00  0.00     0.173 A 
ATOM     81  F   UNL A   1      37.828  30.499  36.187  1.00  0.00    -0.203 F 
ATOM     82  C   UNL A   1      38.355  32.335  37.525  1.00  0.00     0.198 A 
ATOM     83  C   UNL A   1      40.089  33.839  36.874  1.00  0.00     0.198 A 
ATOM     84  F   UNL A   1      41.292  33.473  34.893  1.00  0.00    -0.203 F 
ATOM     85  F   UNL A   1      37.350  32.000  38.346  1.00  0.00    -0.200 F 
ATOM     86  C   UNL A   1      39.099  33.473  37.768  1.00  0.00     0.200 A 
ATOM     87  F   UNL A   1      40.803  34.954  37.088  1.00  0.00    -0.200 F 
ATOM     88  F   UNL A   1      38.842  34.230  38.843  1.00  0.00    -0.200 F 
ENDBRANCH  54  78
BRANCH  66  89
ATOM     89  C   UNL A   1      44.899  27.277  34.603  1.00  0.00     0.064 A 
ATOM     90  C   UNL A   1      46.097  27.996  34.729  1.00  0.00     0.173 A 
ATOM     91  C   UNL A   1      44.747  26.120  35.383  1.00  0.00     0.173 A 
ATOM     92  F   UNL A   1      46.298  29.105  34.002  1.00  0.00    -0.203 F 
ATOM     93  C   UNL A   1      47.112  27.555  35.576  1.00  0.00     0.198 A 
ATOM     94  C   UNL A   1      45.748  25.703  36.257  1.00  0.00     0.198 A 
ATOM     95  F   UNL A   1      43.617  25.399  35.311  1.00  0.00    -0.203 F 
ATOM     96  F   UNL A   1      48.268  28.230  35.637  1.00  0.00    -0.200 F 
ATOM     97  C   UNL A   1      46.933  26.416  36.344  1.00  0.00     0.200 A 
ATOM     98  F   UNL A   1      45.565  24.612  37.014  1.00  0.00    -0.200 F 
ATOM     99  F   UNL A   1      47.907  26.001  37.167  1.00  0.00    -0.200 F 
ENDBRANCH  66  89
ENDBRANCH  40  41
ENDBRANCH  33  35
ENDBRANCH  32  33
ENDBRANCH  31  32
ENDBRANCH   1  31
TORSDOF 16
ENDMDL
