MODEL 1
REMARK VINA RESULT:     -15.3      0.000      0.000
REMARK SMILES Cc1cccc(OC2(C(=O)OCCOC(=O)c3ccc(-c4c5nc(c(-c6c(F)c(F)c(F)c(F)c6F)c6ccc([nH]6)c(-c6c(F)c(F)c(F)c(F)c6F)c6nc(c(-c7c(F)c(F)c(F)c(F)c7F)c7ccc4[nH]7)C=C6)C=C5)cc3)CCN(C(=O)c3cnc[nH]c3=O)CC2)c1
REMARK SMILES IDX 12 1 11 2 9 3 10 4 8 5 80 6 93 7 81 8 92 9 82 10 83 11 84 12
REMARK SMILES IDX 7 13 6 14 1 15 2 16 3 17 94 18 4 19 5 20 85 21 86 22 90 23
REMARK SMILES IDX 87 24 89 25 91 26 88 27 13 29 14 30 15 31 16 32 17 33 18 34
REMARK SMILES IDX 79 35 19 36 78 37 20 38 21 39 22 40 72 41 23 42 77 43 71 44
REMARK SMILES IDX 73 45 24 46 76 47 70 48 69 49 25 51 57 52 37 53 56 54 38 55
REMARK SMILES IDX 41 56 55 57 74 58 39 59 40 60 54 62 75 63 42 64 26 65 27 66
REMARK SMILES IDX 35 67 28 68 29 69 33 70 36 71 30 72 31 73 34 74 32 75 58 76
REMARK SMILES IDX 59 77 67 78 60 79 61 80 65 81 68 82 62 83 63 84 66 85 64 86
REMARK SMILES IDX 43 87 44 88 52 89 45 90 46 91 50 92 53 93 47 94 48 95 51 96
REMARK SMILES IDX 49 97
REMARK H PARENT 89 28 73 50 41 61
REMARK Flexibility Score: inf
ROOT
ATOM      1  C   UNL A   1      37.958  21.373  25.375  1.00  0.00     0.274 C 
ENDROOT
BRANCH   1   2
ATOM      2  O   UNL A   1      36.743  22.019  25.759  1.00  0.00    -0.459 OA
BRANCH   2   3
ATOM      3  C   UNL A   1      36.199  22.903  24.920  1.00  0.00     0.350 C 
ATOM      4  O   UNL A   1      36.944  23.752  24.435  1.00  0.00    -0.247 OA
BRANCH   3   5
ATOM      5  C   UNL A   1      34.501  22.863  24.660  1.00  0.00     0.209 C 
ATOM      6  C   UNL A   1      34.345  24.172  25.987  1.00  0.00     0.082 C 
ATOM      7  C   UNL A   1      34.180  24.242  23.485  1.00  0.00     0.082 C 
ATOM      8  C   UNL A   1      33.189  25.177  26.112  1.00  0.00     0.124 C 
ATOM      9  C   UNL A   1      32.905  25.150  23.654  1.00  0.00     0.124 C 
ATOM     10  N   UNL A   1      32.990  25.915  24.879  1.00  0.00    -0.338 N 
ATOM     11  C   UNL A   1      33.138  27.292  24.879  1.00  0.00     0.261 C 
ATOM     12  O   UNL A   1      33.918  27.889  25.613  1.00  0.00    -0.269 OA
BRANCH   5  13
ATOM     13  O   UNL A   1      33.303  21.166  24.605  1.00  0.00    -0.475 OA
BRANCH  13  14
ATOM     14  C   UNL A   1      33.335  19.593  24.039  1.00  0.00     0.121 A 
ATOM     15  C   UNL A   1      35.074  16.287  25.003  1.00  0.00     0.044 C 
ATOM     16  C   UNL A   1      34.155  17.197  24.233  1.00  0.00    -0.047 A 
ATOM     17  C   UNL A   1      33.381  16.845  23.153  1.00  0.00     0.003 A 
ATOM     18  C   UNL A   1      34.107  18.528  24.633  1.00  0.00     0.050 A 
ATOM     19  C   UNL A   1      32.528  17.813  22.588  1.00  0.00     0.004 A 
ATOM     20  C   UNL A   1      32.472  19.167  23.045  1.00  0.00     0.046 A 
ENDBRANCH  13  14
ENDBRANCH   5  13
BRANCH  11  21
ATOM     21  C   UNL A   1      32.226  28.029  23.985  1.00  0.00     0.123 A 
ATOM     22  C   UNL A   1      30.915  28.110  24.249  1.00  0.00     0.132 A 
ATOM     23  C   UNL A   1      32.712  28.674  22.752  1.00  0.00     0.263 A 
ATOM     24  N   UNL A   1      29.997  28.785  23.479  1.00  0.00    -0.246 NA
ATOM     25  N   UNL A   1      31.749  29.303  22.011  1.00  0.00    -0.312 N 
ATOM     26  O   UNL A   1      33.887  28.665  22.402  1.00  0.00    -0.269 OA
ATOM     27  C   UNL A   1      30.444  29.339  22.403  1.00  0.00     0.199 A 
ATOM     28  H   UNL A   1      32.007  29.744  21.170  1.00  0.00     0.171 HD
ENDBRANCH  11  21
ENDBRANCH   3   5
ENDBRANCH   2   3
ENDBRANCH   1   2
BRANCH   1  29
ATOM     29  C   UNL A   1      39.292  21.726  26.137  1.00  0.00     0.275 C 
BRANCH  29  30
ATOM     30  O   UNL A   1      40.191  20.741  26.807  1.00  0.00    -0.458 OA
BRANCH  30  31
ATOM     31  C   UNL A   1      41.514  20.426  26.514  1.00  0.00     0.338 C 
ATOM     32  O   UNL A   1      41.961  19.295  26.566  1.00  0.00    -0.246 OA
BRANCH  31  33
ATOM     33  C   UNL A   1      42.352  21.657  26.288  1.00  0.00     0.060 A 
ATOM     34  C   UNL A   1      43.034  22.715  24.848  1.00  0.00     0.016 A 
ATOM     35  C   UNL A   1      42.646  22.180  27.916  1.00  0.00     0.016 A 
ATOM     36  C   UNL A   1      43.803  24.355  25.345  1.00  0.00     0.010 A 
ATOM     37  C   UNL A   1      43.196  23.706  28.239  1.00  0.00     0.010 A 
ATOM     38  C   UNL A   1      43.678  24.869  27.073  1.00  0.00    -0.014 A 
BRANCH  38  39
ATOM     39  C   UNL A   1      43.416  26.232  27.842  1.00  0.00     0.031 A 
ATOM     40  C   UNL A   1      42.079  26.913  28.126  1.00  0.00     0.074 A 
ATOM     41  C   UNL A   1      44.368  26.668  28.743  1.00  0.00     0.049 A 
ATOM     42  N   UNL A   1      41.857  28.200  28.103  1.00  0.00    -0.248 NA
ATOM     43  C   UNL A   1      40.903  26.207  28.630  1.00  0.00     0.031 C 
ATOM     44  C   UNL A   1      44.197  27.517  29.935  1.00  0.00     0.029 A 
ATOM     45  N   UNL A   1      45.741  26.371  28.814  1.00  0.00    -0.354 N 
ATOM     46  C   UNL A   1      40.623  28.433  28.731  1.00  0.00     0.074 A 
ATOM     47  C   UNL A   1      39.984  27.154  28.825  1.00  0.00     0.031 C 
ATOM     48  C   UNL A   1      45.401  27.857  30.441  1.00  0.00     0.029 A 
ATOM     49  C   UNL A   1      46.419  27.351  29.546  1.00  0.00     0.049 A 
ATOM     50  H   UNL A   1      46.166  25.583  28.407  1.00  0.00     0.167 HD
ATOM     51  C   UNL A   1      40.337  29.552  29.472  1.00  0.00     0.037 A 
ATOM     52  C   UNL A   1      47.464  28.001  28.959  1.00  0.00     0.037 A 
ATOM     53  C   UNL A   1      41.568  30.236  29.808  1.00  0.00     0.049 A 
ATOM     54  C   UNL A   1      47.080  29.419  28.691  1.00  0.00     0.074 A 
ATOM     55  C   UNL A   1      42.296  30.275  30.986  1.00  0.00     0.029 A 
ATOM     56  N   UNL A   1      42.366  30.771  28.817  1.00  0.00    -0.354 N 
ATOM     57  N   UNL A   1      45.864  29.846  28.849  1.00  0.00    -0.248 NA
ATOM     58  C   UNL A   1      47.982  30.451  28.207  1.00  0.00     0.031 C 
ATOM     59  C   UNL A   1      43.553  30.844  30.694  1.00  0.00     0.029 A 
ATOM     60  C   UNL A   1      43.580  31.155  29.344  1.00  0.00     0.049 A 
ATOM     61  H   UNL A   1      42.106  30.865  27.873  1.00  0.00     0.167 HD
ATOM     62  C   UNL A   1      45.783  31.147  28.480  1.00  0.00     0.074 A 
ATOM     63  C   UNL A   1      47.139  31.495  28.106  1.00  0.00     0.031 C 
ATOM     64  C   UNL A   1      44.583  31.788  28.509  1.00  0.00     0.037 A 
BRANCH  51  65
ATOM     65  C   UNL A   1      39.029  29.895  30.200  1.00  0.00     0.064 A 
ATOM     66  C   UNL A   1      38.662  29.238  31.406  1.00  0.00     0.173 A 
ATOM     67  C   UNL A   1      38.152  30.934  29.827  1.00  0.00     0.173 A 
ATOM     68  F   UNL A   1      39.435  28.298  31.964  1.00  0.00    -0.203 F 
ATOM     69  C   UNL A   1      37.495  29.536  32.122  1.00  0.00     0.198 A 
ATOM     70  C   UNL A   1      36.973  31.223  30.539  1.00  0.00     0.198 A 
ATOM     71  F   UNL A   1      38.434  31.736  28.792  1.00  0.00    -0.203 F 
ATOM     72  F   UNL A   1      37.218  28.869  33.252  1.00  0.00    -0.200 F 
ATOM     73  C   UNL A   1      36.642  30.522  31.682  1.00  0.00     0.200 A 
ATOM     74  F   UNL A   1      36.165  32.207  30.118  1.00  0.00    -0.200 F 
ATOM     75  F   UNL A   1      35.529  30.813  32.370  1.00  0.00    -0.200 F 
ENDBRANCH  51  65
BRANCH  52  76
ATOM     76  C   UNL A   1      48.169  27.098  27.989  1.00  0.00     0.064 A 
ATOM     77  C   UNL A   1      47.915  27.344  26.621  1.00  0.00     0.173 A 
ATOM     78  C   UNL A   1      49.447  26.649  28.347  1.00  0.00     0.173 A 
ATOM     79  F   UNL A   1      46.702  27.768  26.232  1.00  0.00    -0.203 F 
ATOM     80  C   UNL A   1      48.956  27.392  25.702  1.00  0.00     0.198 A 
ATOM     81  C   UNL A   1      50.488  26.736  27.432  1.00  0.00     0.198 A 
ATOM     82  F   UNL A   1      49.751  26.404  29.630  1.00  0.00    -0.203 F 
ATOM     83  F   UNL A   1      48.733  27.826  24.452  1.00  0.00    -0.200 F 
ATOM     84  C   UNL A   1      50.249  27.147  26.122  1.00  0.00     0.200 A 
ATOM     85  F   UNL A   1      51.728  26.556  27.901  1.00  0.00    -0.200 F 
ATOM     86  F   UNL A   1      51.242  27.382  25.259  1.00  0.00    -0.200 F 
ENDBRANCH  52  76
BRANCH  64  87
ATOM     87  C   UNL A   1      44.289  33.105  27.864  1.00  0.00     0.064 A 
ATOM     88  C   UNL A   1      43.949  33.239  26.512  1.00  0.00     0.173 A 
ATOM     89  C   UNL A   1      44.228  34.291  28.635  1.00  0.00     0.173 A 
ATOM     90  F   UNL A   1      43.787  32.170  25.720  1.00  0.00    -0.203 F 
ATOM     91  C   UNL A   1      43.703  34.482  25.937  1.00  0.00     0.198 A 
ATOM     92  C   UNL A   1      43.900  35.520  28.074  1.00  0.00     0.198 A 
ATOM     93  F   UNL A   1      44.457  34.293  29.956  1.00  0.00    -0.203 F 
ATOM     94  F   UNL A   1      43.474  34.564  24.620  1.00  0.00    -0.200 F 
ATOM     95  C   UNL A   1      43.675  35.622  26.718  1.00  0.00     0.200 A 
ATOM     96  F   UNL A   1      43.791  36.599  28.861  1.00  0.00    -0.200 F 
ATOM     97  F   UNL A   1      43.408  36.811  26.167  1.00  0.00    -0.200 F 
ENDBRANCH  64  87
ENDBRANCH  38  39
ENDBRANCH  31  33
ENDBRANCH  30  31
ENDBRANCH  29  30
ENDBRANCH   1  29
TORSDOF 14
ENDMDL
MODEL 2
REMARK VINA RESULT:     -15.0      4.102     10.343
REMARK SMILES Cc1cccc(OC2(C(=O)OCCOC(=O)c3ccc(-c4c5nc(c(-c6c(F)c(F)c(F)c(F)c6F)c6ccc([nH]6)c(-c6c(F)c(F)c(F)c(F)c6F)c6nc(c(-c7c(F)c(F)c(F)c(F)c7F)c7ccc4[nH]7)C=C6)C=C5)cc3)CCN(C(=O)c3cnc[nH]c3=O)CC2)c1
REMARK SMILES IDX 12 1 11 2 9 3 10 4 8 5 80 6 93 7 81 8 92 9 82 10 83 11 84 12
REMARK SMILES IDX 7 13 6 14 1 15 2 16 3 17 94 18 4 19 5 20 85 21 86 22 90 23
REMARK SMILES IDX 87 24 89 25 91 26 88 27 13 29 14 30 15 31 16 32 17 33 18 34
REMARK SMILES IDX 79 35 19 36 78 37 20 38 21 39 22 40 72 41 23 42 77 43 71 44
REMARK SMILES IDX 73 45 24 46 76 47 70 48 69 49 25 51 57 52 37 53 56 54 38 55
REMARK SMILES IDX 41 56 55 57 74 58 39 59 40 60 54 62 75 63 42 64 26 65 27 66
REMARK SMILES IDX 35 67 28 68 29 69 33 70 36 71 30 72 31 73 34 74 32 75 58 76
REMARK SMILES IDX 59 77 67 78 60 79 61 80 65 81 68 82 62 83 63 84 66 85 64 86
REMARK SMILES IDX 43 87 44 88 52 89 45 90 46 91 50 92 53 93 47 94 48 95 51 96
REMARK SMILES IDX 49 97
REMARK H PARENT 89 28 73 50 41 61
REMARK Flexibility Score: inf
ROOT
ATOM      1  C   UNL A   1      32.658  30.356  26.796  1.00  0.00     0.274 C 
ENDROOT
BRANCH   1   2
ATOM      2  O   UNL A   1      33.168  29.518  25.757  1.00  0.00    -0.459 OA
BRANCH   2   3
ATOM      3  C   UNL A   1      33.207  28.200  25.964  1.00  0.00     0.350 C 
ATOM      4  O   UNL A   1      33.922  27.794  26.879  1.00  0.00    -0.247 OA
BRANCH   3   5
ATOM      5  C   UNL A   1      32.355  27.166  24.888  1.00  0.00     0.209 C 
ATOM      6  C   UNL A   1      34.011  26.456  24.383  1.00  0.00     0.082 C 
ATOM      7  C   UNL A   1      32.147  25.595  25.824  1.00  0.00     0.082 C 
ATOM      8  C   UNL A   1      34.234  25.053  23.797  1.00  0.00     0.124 C 
ATOM      9  C   UNL A   1      32.304  24.209  25.094  1.00  0.00     0.124 C 
ATOM     10  N   UNL A   1      33.668  24.024  24.650  1.00  0.00    -0.338 N 
ATOM     11  C   UNL A   1      34.499  23.064  25.200  1.00  0.00     0.261 C 
ATOM     12  O   UNL A   1      35.669  23.272  25.504  1.00  0.00    -0.269 OA
BRANCH   5  13
ATOM     13  O   UNL A   1      30.910  27.742  23.512  1.00  0.00    -0.475 OA
BRANCH  13  14
ATOM     14  C   UNL A   1      29.556  28.719  23.409  1.00  0.00     0.121 A 
ATOM     15  C   UNL A   1      28.819  32.497  23.150  1.00  0.00     0.044 C 
ATOM     16  C   UNL A   1      28.512  31.024  23.196  1.00  0.00    -0.047 A 
ATOM     17  C   UNL A   1      27.262  30.454  23.161  1.00  0.00     0.003 A 
ATOM     18  C   UNL A   1      29.594  30.158  23.314  1.00  0.00     0.050 A 
ATOM     19  C   UNL A   1      27.158  29.049  23.150  1.00  0.00     0.004 A 
ATOM     20  C   UNL A   1      28.293  28.182  23.236  1.00  0.00     0.046 A 
ENDBRANCH  13  14
ENDBRANCH   5  13
BRANCH  11  21
ATOM     21  C   UNL A   1      33.914  21.716  25.330  1.00  0.00     0.123 A 
ATOM     22  C   UNL A   1      33.522  21.026  24.252  1.00  0.00     0.132 A 
ATOM     23  C   UNL A   1      33.705  21.092  26.649  1.00  0.00     0.263 A 
ATOM     24  N   UNL A   1      32.979  19.762  24.280  1.00  0.00    -0.246 NA
ATOM     25  N   UNL A   1      33.133  19.850  26.616  1.00  0.00    -0.312 N 
ATOM     26  O   UNL A   1      34.018  21.627  27.707  1.00  0.00    -0.269 OA
ATOM     27  C   UNL A   1      32.803  19.237  25.445  1.00  0.00     0.199 A 
ATOM     28  H   UNL A   1      32.956  19.384  27.466  1.00  0.00     0.171 HD
ENDBRANCH  11  21
ENDBRANCH   3   5
ENDBRANCH   2   3
ENDBRANCH   1   2
BRANCH   1  29
ATOM     29  C   UNL A   1      33.657  31.252  27.622  1.00  0.00     0.275 C 
BRANCH  29  30
ATOM     30  O   UNL A   1      33.821  32.728  27.471  1.00  0.00    -0.458 OA
BRANCH  30  31
ATOM     31  C   UNL A   1      33.790  33.715  28.451  1.00  0.00     0.338 C 
ATOM     32  O   UNL A   1      33.237  34.789  28.303  1.00  0.00    -0.246 OA
BRANCH  31  33
ATOM     33  C   UNL A   1      34.650  33.363  29.637  1.00  0.00     0.060 A 
ATOM     34  C   UNL A   1      34.482  32.638  31.399  1.00  0.00     0.016 A 
ATOM     35  C   UNL A   1      36.236  33.722  29.033  1.00  0.00     0.016 A 
ATOM     36  C   UNL A   1      36.098  32.192  32.246  1.00  0.00     0.010 A 
ATOM     37  C   UNL A   1      37.591  33.154  29.794  1.00  0.00     0.010 A 
ATOM     38  C   UNL A   1      37.626  32.313  31.289  1.00  0.00    -0.014 A 
BRANCH  38  39
ATOM     39  C   UNL A   1      38.957  31.460  31.154  1.00  0.00     0.031 A 
ATOM     40  C   UNL A   1      39.216  30.250  30.257  1.00  0.00     0.074 A 
ATOM     41  C   UNL A   1      40.155  32.058  31.496  1.00  0.00     0.049 A 
ATOM     42  N   UNL A   1      39.924  29.200  30.577  1.00  0.00    -0.248 NA
ATOM     43  C   UNL A   1      38.836  30.193  28.848  1.00  0.00     0.031 C 
ATOM     44  C   UNL A   1      41.511  31.770  30.997  1.00  0.00     0.029 A 
ATOM     45  N   UNL A   1      40.404  33.144  32.355  1.00  0.00    -0.354 N 
ATOM     46  C   UNL A   1      40.193  28.490  29.396  1.00  0.00     0.074 A 
ATOM     47  C   UNL A   1      39.306  29.025  28.407  1.00  0.00     0.031 C 
ATOM     48  C   UNL A   1      42.426  32.455  31.716  1.00  0.00     0.029 A 
ATOM     49  C   UNL A   1      41.733  33.130  32.791  1.00  0.00     0.049 A 
ATOM     50  H   UNL A   1      39.737  33.819  32.613  1.00  0.00     0.167 HD
ATOM     51  C   UNL A   1      41.348  27.784  29.170  1.00  0.00     0.037 A 
ATOM     52  C   UNL A   1      41.982  33.118  34.132  1.00  0.00     0.037 A 
ATOM     53  C   UNL A   1      42.355  28.184  30.131  1.00  0.00     0.049 A 
ATOM     54  C   UNL A   1      42.543  31.789  34.520  1.00  0.00     0.074 A 
ATOM     55  C   UNL A   1      43.453  29.019  30.006  1.00  0.00     0.029 A 
ATOM     56  N   UNL A   1      42.166  27.958  31.479  1.00  0.00    -0.354 N 
ATOM     57  N   UNL A   1      42.587  30.789  33.693  1.00  0.00    -0.248 NA
ATOM     58  C   UNL A   1      43.063  31.455  35.836  1.00  0.00     0.031 C 
ATOM     59  C   UNL A   1      43.930  29.297  31.303  1.00  0.00     0.029 A 
ATOM     60  C   UNL A   1      43.125  28.625  32.209  1.00  0.00     0.049 A 
ATOM     61  H   UNL A   1      41.450  27.403  31.863  1.00  0.00     0.167 HD
ATOM     62  C   UNL A   1      43.086  29.697  34.319  1.00  0.00     0.074 A 
ATOM     63  C   UNL A   1      43.394  30.163  35.655  1.00  0.00     0.031 C 
ATOM     64  C   UNL A   1      43.168  28.512  33.655  1.00  0.00     0.037 A 
BRANCH  51  65
ATOM     65  C   UNL A   1      41.738  26.985  27.917  1.00  0.00     0.064 A 
ATOM     66  C   UNL A   1      42.127  27.639  26.716  1.00  0.00     0.173 A 
ATOM     67  C   UNL A   1      41.858  25.581  27.867  1.00  0.00     0.173 A 
ATOM     68  F   UNL A   1      42.176  28.974  26.621  1.00  0.00    -0.203 F 
ATOM     69  C   UNL A   1      42.520  26.955  25.559  1.00  0.00     0.198 A 
ATOM     70  C   UNL A   1      42.238  24.894  26.699  1.00  0.00     0.198 A 
ATOM     71  F   UNL A   1      41.662  24.833  28.960  1.00  0.00    -0.203 F 
ATOM     72  F   UNL A   1      42.872  27.646  24.464  1.00  0.00    -0.200 F 
ATOM     73  C   UNL A   1      42.564  25.580  25.545  1.00  0.00     0.200 A 
ATOM     74  F   UNL A   1      42.308  23.555  26.706  1.00  0.00    -0.200 F 
ATOM     75  F   UNL A   1      42.946  24.925  24.439  1.00  0.00    -0.200 F 
ENDBRANCH  51  65
BRANCH  52  76
ATOM     76  C   UNL A   1      40.904  33.852  34.875  1.00  0.00     0.064 A 
ATOM     77  C   UNL A   1      39.989  33.046  35.589  1.00  0.00     0.173 A 
ATOM     78  C   UNL A   1      41.239  35.099  35.418  1.00  0.00     0.173 A 
ATOM     79  F   UNL A   1      39.634  31.846  35.103  1.00  0.00    -0.203 F 
ATOM     80  C   UNL A   1      39.635  33.358  36.896  1.00  0.00     0.198 A 
ATOM     81  C   UNL A   1      40.913  35.386  36.737  1.00  0.00     0.198 A 
ATOM     82  F   UNL A   1      42.106  35.906  34.790  1.00  0.00    -0.203 F 
ATOM     83  F   UNL A   1      38.932  32.484  37.632  1.00  0.00    -0.200 F 
ATOM     84  C   UNL A   1      40.146  34.497  37.488  1.00  0.00     0.200 A 
ATOM     85  F   UNL A   1      41.485  36.463  37.285  1.00  0.00    -0.200 F 
ATOM     86  F   UNL A   1      39.938  34.669  38.797  1.00  0.00    -0.200 F 
ENDBRANCH  52  76
BRANCH  64  87
ATOM     87  C   UNL A   1      43.413  27.179  34.288  1.00  0.00     0.064 A 
ATOM     88  C   UNL A   1      44.690  26.717  34.633  1.00  0.00     0.173 A 
ATOM     89  C   UNL A   1      42.332  26.354  34.681  1.00  0.00     0.173 A 
ATOM     90  F   UNL A   1      45.778  27.485  34.487  1.00  0.00    -0.203 F 
ATOM     91  C   UNL A   1      44.886  25.461  35.200  1.00  0.00     0.198 A 
ATOM     92  C   UNL A   1      42.528  25.138  35.324  1.00  0.00     0.198 A 
ATOM     93  F   UNL A   1      41.056  26.712  34.479  1.00  0.00    -0.203 F 
ATOM     94  F   UNL A   1      46.134  25.029  35.425  1.00  0.00    -0.200 F 
ATOM     95  C   UNL A   1      43.806  24.673  35.549  1.00  0.00     0.200 A 
ATOM     96  F   UNL A   1      41.468  24.427  35.734  1.00  0.00    -0.200 F 
ATOM     97  F   UNL A   1      43.998  23.480  36.123  1.00  0.00    -0.200 F 
ENDBRANCH  64  87
ENDBRANCH  38  39
ENDBRANCH  31  33
ENDBRANCH  30  31
ENDBRANCH  29  30
ENDBRANCH   1  29
TORSDOF 14
ENDMDL
MODEL 3
REMARK VINA RESULT:     -14.6      6.094     11.206
REMARK SMILES Cc1cccc(OC2(C(=O)OCCOC(=O)c3ccc(-c4c5nc(c(-c6c(F)c(F)c(F)c(F)c6F)c6ccc([nH]6)c(-c6c(F)c(F)c(F)c(F)c6F)c6nc(c(-c7c(F)c(F)c(F)c(F)c7F)c7ccc4[nH]7)C=C6)C=C5)cc3)CCN(C(=O)c3cnc[nH]c3=O)CC2)c1
REMARK SMILES IDX 12 1 11 2 9 3 10 4 8 5 80 6 93 7 81 8 92 9 82 10 83 11 84 12
REMARK SMILES IDX 7 13 6 14 1 15 2 16 3 17 94 18 4 19 5 20 85 21 86 22 90 23
REMARK SMILES IDX 87 24 89 25 91 26 88 27 13 29 14 30 15 31 16 32 17 33 18 34
REMARK SMILES IDX 79 35 19 36 78 37 20 38 21 39 22 40 72 41 23 42 77 43 71 44
REMARK SMILES IDX 73 45 24 46 76 47 70 48 69 49 25 51 57 52 37 53 56 54 38 55
REMARK SMILES IDX 41 56 55 57 74 58 39 59 40 60 54 62 75 63 42 64 26 65 27 66
REMARK SMILES IDX 35 67 28 68 29 69 33 70 36 71 30 72 31 73 34 74 32 75 58 76
REMARK SMILES IDX 59 77 67 78 60 79 61 80 65 81 68 82 62 83 63 84 66 85 64 86
REMARK SMILES IDX 43 87 44 88 52 89 45 90 46 91 50 92 53 93 47 94 48 95 51 96
REMARK SMILES IDX 49 97
REMARK H PARENT 89 28 73 50 41 61
REMARK Flexibility Score: inf
ROOT
ATOM      1  C   UNL A   1      39.295  31.844  35.781  1.00  0.00     0.274 C 
ENDROOT
BRANCH   1   2
ATOM      2  O   UNL A   1      38.213  31.469  34.926  1.00  0.00    -0.459 OA
BRANCH   2   3
ATOM      3  C   UNL A   1      38.484  30.752  33.833  1.00  0.00     0.350 C 
ATOM      4  O   UNL A   1      38.893  29.604  33.999  1.00  0.00    -0.247 OA
BRANCH   3   5
ATOM      5  C   UNL A   1      38.350  31.504  32.294  1.00  0.00     0.209 C 
ATOM      6  C   UNL A   1      36.547  31.007  32.295  1.00  0.00     0.082 C 
ATOM      7  C   UNL A   1      37.719  33.194  32.658  1.00  0.00     0.082 C 
ATOM      8  C   UNL A   1      35.431  31.712  31.509  1.00  0.00     0.124 C 
ATOM      9  C   UNL A   1      36.642  33.859  31.723  1.00  0.00     0.124 C 
ATOM     10  N   UNL A   1      35.392  33.133  31.798  1.00  0.00    -0.338 N 
ATOM     11  C   UNL A   1      34.254  33.681  32.364  1.00  0.00     0.261 C 
ATOM     12  O   UNL A   1      33.516  33.071  33.130  1.00  0.00    -0.269 OA
BRANCH   5  13
ATOM     13  O   UNL A   1      39.601  31.203  30.663  1.00  0.00    -0.475 OA
BRANCH  13  14
ATOM     14  C   UNL A   1      40.045  29.995  29.595  1.00  0.00     0.121 A 
ATOM     15  C   UNL A   1      42.736  27.236  29.423  1.00  0.00     0.044 C 
ATOM     16  C   UNL A   1      41.537  28.033  28.984  1.00  0.00    -0.047 A 
ATOM     17  C   UNL A   1      40.819  27.848  27.827  1.00  0.00     0.003 A 
ATOM     18  C   UNL A   1      41.135  29.075  29.812  1.00  0.00     0.050 A 
ATOM     19  C   UNL A   1      39.680  28.648  27.601  1.00  0.00     0.004 A 
ATOM     20  C   UNL A   1      39.270  29.689  28.491  1.00  0.00     0.046 A 
ENDBRANCH  13  14
ENDBRANCH   5  13
BRANCH  11  21
ATOM     21  C   UNL A   1      33.920  35.048  31.923  1.00  0.00     0.123 A 
ATOM     22  C   UNL A   1      33.338  35.269  30.737  1.00  0.00     0.132 A 
ATOM     23  C   UNL A   1      34.244  36.225  32.750  1.00  0.00     0.263 A 
ATOM     24  N   UNL A   1      32.982  36.507  30.252  1.00  0.00    -0.246 NA
ATOM     25  N   UNL A   1      33.895  37.429  32.204  1.00  0.00    -0.312 N 
ATOM     26  O   UNL A   1      34.780  36.151  33.850  1.00  0.00    -0.269 OA
ATOM     27  C   UNL A   1      33.278  37.522  30.992  1.00  0.00     0.199 A 
ATOM     28  H   UNL A   1      34.095  38.255  32.702  1.00  0.00     0.171 HD
ENDBRANCH  11  21
ENDBRANCH   3   5
ENDBRANCH   2   3
ENDBRANCH   1   2
BRANCH   1  29
ATOM     29  C   UNL A   1      40.290  32.972  35.313  1.00  0.00     0.275 C 
BRANCH  29  30
ATOM     30  O   UNL A   1      41.773  32.834  35.225  1.00  0.00    -0.458 OA
BRANCH  30  31
ATOM     31  C   UNL A   1      42.550  31.681  35.300  1.00  0.00     0.338 C 
ATOM     32  O   UNL A   1      42.411  30.835  36.163  1.00  0.00    -0.246 OA
BRANCH  31  33
ATOM     33  C   UNL A   1      43.672  31.689  34.294  1.00  0.00     0.060 A 
ATOM     34  C   UNL A   1      45.521  32.160  34.175  1.00  0.00     0.016 A 
ATOM     35  C   UNL A   1      42.906  30.966  32.916  1.00  0.00     0.016 A 
ATOM     36  C   UNL A   1      46.396  31.602  32.609  1.00  0.00     0.010 A 
ATOM     37  C   UNL A   1      43.797  30.382  31.650  1.00  0.00     0.010 A 
ATOM     38  C   UNL A   1      45.495  30.542  31.458  1.00  0.00    -0.014 A 
BRANCH  38  39
ATOM     39  C   UNL A   1      45.842  29.282  30.556  1.00  0.00     0.031 A 
ATOM     40  C   UNL A   1      46.155  29.249  29.061  1.00  0.00     0.074 A 
ATOM     41  C   UNL A   1      46.362  28.160  31.172  1.00  0.00     0.049 A 
ATOM     42  N   UNL A   1      45.779  28.321  28.222  1.00  0.00    -0.248 NA
ATOM     43  C   UNL A   1      47.070  30.181  28.406  1.00  0.00     0.031 C 
ATOM     44  C   UNL A   1      47.245  27.121  30.613  1.00  0.00     0.029 A 
ATOM     45  N   UNL A   1      46.256  27.738  32.510  1.00  0.00    -0.354 N 
ATOM     46  C   UNL A   1      46.531  28.476  27.047  1.00  0.00     0.074 A 
ATOM     47  C   UNL A   1      47.136  29.772  27.138  1.00  0.00     0.031 C 
ATOM     48  C   UNL A   1      47.379  26.104  31.490  1.00  0.00     0.029 A 
ATOM     49  C   UNL A   1      46.504  26.366  32.613  1.00  0.00     0.049 A 
ATOM     50  H   UNL A   1      46.037  28.326  33.267  1.00  0.00     0.167 HD
ATOM     51  C   UNL A   1      46.931  27.436  26.248  1.00  0.00     0.037 A 
ATOM     52  C   UNL A   1      45.555  25.570  33.182  1.00  0.00     0.037 A 
ATOM     53  C   UNL A   1      46.796  26.190  26.973  1.00  0.00     0.049 A 
ATOM     54  C   UNL A   1      44.942  24.700  32.134  1.00  0.00     0.074 A 
ATOM     55  C   UNL A   1      47.740  25.392  27.598  1.00  0.00     0.029 A 
ATOM     56  N   UNL A   1      45.554  25.747  27.381  1.00  0.00    -0.354 N 
ATOM     57  N   UNL A   1      45.192  24.861  30.870  1.00  0.00    -0.248 NA
ATOM     58  C   UNL A   1      43.998  23.624  32.390  1.00  0.00     0.031 C 
ATOM     59  C   UNL A   1      47.050  24.456  28.394  1.00  0.00     0.029 A 
ATOM     60  C   UNL A   1      45.692  24.683  28.244  1.00  0.00     0.049 A 
ATOM     61  H   UNL A   1      44.695  26.136  27.097  1.00  0.00     0.167 HD
ATOM     62  C   UNL A   1      44.463  23.981  30.142  1.00  0.00     0.074 A 
ATOM     63  C   UNL A   1      43.746  23.208  31.135  1.00  0.00     0.031 C 
ATOM     64  C   UNL A   1      44.524  24.010  28.783  1.00  0.00     0.037 A 
BRANCH  51  65
ATOM     65  C   UNL A   1      47.757  27.501  24.954  1.00  0.00     0.064 A 
ATOM     66  C   UNL A   1      47.153  27.826  23.709  1.00  0.00     0.173 A 
ATOM     67  C   UNL A   1      49.159  27.365  24.890  1.00  0.00     0.173 A 
ATOM     68  F   UNL A   1      45.845  28.094  23.605  1.00  0.00    -0.203 F 
ATOM     69  C   UNL A   1      47.869  27.927  22.508  1.00  0.00     0.198 A 
ATOM     70  C   UNL A   1      49.874  27.452  23.681  1.00  0.00     0.198 A 
ATOM     71  F   UNL A   1      49.887  27.195  26.001  1.00  0.00    -0.203 F 
ATOM     72  F   UNL A   1      47.224  28.238  21.373  1.00  0.00    -0.200 F 
ATOM     73  C   UNL A   1      49.229  27.727  22.491  1.00  0.00     0.200 A 
ATOM     74  F   UNL A   1      51.205  27.287  23.681  1.00  0.00    -0.200 F 
ATOM     75  F   UNL A   1      49.916  27.830  21.344  1.00  0.00    -0.200 F 
ENDBRANCH  51  65
BRANCH  52  76
ATOM     76  C   UNL A   1      44.794  26.325  34.233  1.00  0.00     0.064 A 
ATOM     77  C   UNL A   1      43.487  26.726  33.877  1.00  0.00     0.173 A 
ATOM     78  C   UNL A   1      45.031  25.975  35.569  1.00  0.00     0.173 A 
ATOM     79  F   UNL A   1      43.216  27.077  32.611  1.00  0.00    -0.203 F 
ATOM     80  C   UNL A   1      42.422  26.535  34.750  1.00  0.00     0.198 A 
ATOM     81  C   UNL A   1      43.958  25.751  36.422  1.00  0.00     0.198 A 
ATOM     82  F   UNL A   1      46.250  25.580  35.965  1.00  0.00    -0.203 F 
ATOM     83  F   UNL A   1      41.162  26.728  34.331  1.00  0.00    -0.200 F 
ATOM     84  C   UNL A   1      42.653  25.991  35.999  1.00  0.00     0.200 A 
ATOM     85  F   UNL A   1      44.225  25.161  37.592  1.00  0.00    -0.200 F 
ATOM     86  F   UNL A   1      41.593  25.649  36.738  1.00  0.00    -0.200 F 
ENDBRANCH  52  76
BRANCH  64  87
ATOM     87  C   UNL A   1      43.574  23.317  27.859  1.00  0.00     0.064 A 
ATOM     88  C   UNL A   1      43.987  22.413  26.871  1.00  0.00     0.173 A 
ATOM     89  C   UNL A   1      42.175  23.458  28.019  1.00  0.00     0.173 A 
ATOM     90  F   UNL A   1      45.270  22.049  26.745  1.00  0.00    -0.203 F 
ATOM     91  C   UNL A   1      43.079  21.802  26.011  1.00  0.00     0.198 A 
ATOM     92  C   UNL A   1      41.268  22.781  27.212  1.00  0.00     0.198 A 
ATOM     93  F   UNL A   1      41.644  24.234  28.975  1.00  0.00    -0.203 F 
ATOM     94  F   UNL A   1      43.533  21.018  25.025  1.00  0.00    -0.200 F 
ATOM     95  C   UNL A   1      41.720  21.983  26.184  1.00  0.00     0.200 A 
ATOM     96  F   UNL A   1      39.954  22.899  27.449  1.00  0.00    -0.200 F 
ATOM     97  F   UNL A   1      40.849  21.369  25.375  1.00  0.00    -0.200 F 
ENDBRANCH  64  87
ENDBRANCH  38  39
ENDBRANCH  31  33
ENDBRANCH  30  31
ENDBRANCH  29  30
ENDBRANCH   1  29
TORSDOF 14
ENDMDL
