MODEL 1
REMARK VINA RESULT:     -11.4      0.000      0.000
REMARK SMILES CCCCCCCCNC(=O)Oc1cccc(-c2ccc([C@@H](C)C(=O)OCCOC(=O)c3ccc(-c4c5nc(c(-c6c(F)c(F)c(F)c(F)c6F)c6ccc([nH]6)c(-c6c(F)c(F)c(F)c(F)c6F)c6nc(c(-c7c(F)c(F)c(F)c(F)c7F)c7ccc4[nH]7)C=C6)C=C5)cc3)cc2F)c1
REMARK SMILES IDX 18 1 19 2 20 3 21 4 95 5 96 6 97 7 17 8 13 9 14 10 98 11
REMARK SMILES IDX 15 12 16 13 12 14 10 15 9 16 11 18 8 19 7 20 6 21 5 22 4 23
REMARK SMILES IDX 3 24 2 25 1 26 22 27 23 28 24 29 25 30 26 31 27 32 28 33
REMARK SMILES IDX 29 34 30 35 31 36 32 37 33 38 94 39 34 40 93 41 35 42 36 43
REMARK SMILES IDX 37 44 87 45 38 46 92 47 86 48 88 49 39 50 91 51 85 52 84 53
REMARK SMILES IDX 40 55 72 56 52 57 71 58 53 59 56 60 70 61 89 62 54 63 55 64
REMARK SMILES IDX 69 66 90 67 57 68 41 69 42 70 50 71 43 72 44 73 48 74 51 75
REMARK SMILES IDX 45 76 46 77 49 78 47 79 73 80 74 81 82 82 75 83 76 84 80 85
REMARK SMILES IDX 83 86 77 87 78 88 81 89 79 90 58 91 59 92 67 93 60 94 61 95
REMARK SMILES IDX 65 96 68 97 62 98 63 99 66 100 64 101
REMARK H PARENT 9 17 88 54 56 65
REMARK Flexibility Score: inf
ROOT
ATOM      1  C   UNL A   1      37.316  23.088  25.498  1.00  0.00     0.018 A 
ATOM      2  C   UNL A   1      38.127  24.041  26.137  1.00  0.00     0.012 A 
ATOM      3  C   UNL A   1      39.405  23.713  26.606  1.00  0.00     0.005 A 
ATOM      4  C   UNL A   1      39.916  22.417  26.456  1.00  0.00    -0.031 A 
ATOM      5  C   UNL A   1      39.107  21.461  25.824  1.00  0.00     0.044 A 
ATOM      6  C   UNL A   1      37.830  21.794  25.367  1.00  0.00     0.131 A 
ATOM      7  F   UNL A   1      37.114  20.835  24.757  1.00  0.00    -0.206 F 
ENDROOT
BRANCH   1   8
ATOM      8  C   UNL A   1      36.000  23.462  24.956  1.00  0.00    -0.012 A 
ATOM      9  C   UNL A   1      33.777  24.396  25.206  1.00  0.00     0.133 A 
ATOM     10  C   UNL A   1      33.475  24.119  23.876  1.00  0.00     0.047 A 
ATOM     11  C   UNL A   1      35.017  24.063  25.756  1.00  0.00     0.056 A 
ATOM     12  C   UNL A   1      34.440  23.522  23.070  1.00  0.00     0.004 A 
ATOM     13  C   UNL A   1      35.689  23.197  23.607  1.00  0.00     0.009 A 
BRANCH   9  14
ATOM     14  O   UNL A   1      32.736  24.905  25.996  1.00  0.00    -0.410 OA
BRANCH  14  15
ATOM     15  C   UNL A   1      32.631  26.282  26.117  1.00  0.00     0.412 C 
ATOM     16  N   UNL A   1      31.376  26.747  25.828  1.00  0.00    -0.321 N 
ATOM     17  H   UNL A   1      31.234  27.717  25.917  1.00  0.00     0.167 HD
ATOM     18  O   UNL A   1      33.530  27.054  26.427  1.00  0.00    -0.224 OA
BRANCH  16  19
ATOM     19  C   UNL A   1      30.235  25.960  25.405  1.00  0.00     0.119 C 
BRANCH  19  20
ATOM     20  C   UNL A   1      29.952  26.114  23.910  1.00  0.00     0.021 C 
BRANCH  20  21
ATOM     21  C   UNL A   1      29.338  27.461  23.505  1.00  0.00     0.002 C 
BRANCH  21  22
ATOM     22  C   UNL A   1      30.121  28.249  22.449  1.00  0.00     0.000 C 
BRANCH  22  23
ATOM     23  C   UNL A   1      29.640  29.686  22.218  1.00  0.00    -0.000 C 
BRANCH  23  24
ATOM     24  C   UNL A   1      28.705  30.243  23.298  1.00  0.00    -0.000 C 
BRANCH  24  25
ATOM     25  C   UNL A   1      29.033  31.657  23.785  1.00  0.00    -0.003 C 
ATOM     26  C   UNL A   1      28.782  32.731  22.737  1.00  0.00     0.004 C 
ENDBRANCH  24  25
ENDBRANCH  23  24
ENDBRANCH  22  23
ENDBRANCH  21  22
ENDBRANCH  20  21
ENDBRANCH  19  20
ENDBRANCH  16  19
ENDBRANCH  14  15
ENDBRANCH   9  14
ENDBRANCH   1   8
BRANCH   4  27
ATOM     27  C   UNL A   1      41.306  22.037  26.943  1.00  0.00     0.126 C 
ATOM     28  C   UNL A   1      41.319  21.610  28.409  1.00  0.00     0.025 C 
BRANCH  27  29
ATOM     29  C   UNL A   1      42.052  21.012  26.094  1.00  0.00     0.313 C 
ATOM     30  O   UNL A   1      42.043  19.815  26.365  1.00  0.00    -0.252 OA
BRANCH  29  31
ATOM     31  O   UNL A   1      42.671  21.547  25.011  1.00  0.00    -0.462 OA
BRANCH  31  32
ATOM     32  C   UNL A   1      44.111  21.609  25.047  1.00  0.00     0.274 C 
BRANCH  32  33
ATOM     33  C   UNL A   1      44.643  22.820  24.278  1.00  0.00     0.275 C 
BRANCH  33  34
ATOM     34  O   UNL A   1      43.852  23.996  24.538  1.00  0.00    -0.458 OA
BRANCH  34  35
ATOM     35  C   UNL A   1      44.546  25.047  25.031  1.00  0.00     0.338 C 
ATOM     36  O   UNL A   1      45.607  25.490  24.628  1.00  0.00    -0.246 OA
BRANCH  35  37
ATOM     37  C   UNL A   1      43.760  25.721  26.075  1.00  0.00     0.060 A 
ATOM     38  C   UNL A   1      44.068  27.053  26.348  1.00  0.00     0.016 A 
ATOM     39  C   UNL A   1      42.821  25.039  26.849  1.00  0.00     0.016 A 
ATOM     40  C   UNL A   1      43.467  27.709  27.416  1.00  0.00     0.010 A 
ATOM     41  C   UNL A   1      42.201  25.704  27.916  1.00  0.00     0.010 A 
ATOM     42  C   UNL A   1      42.538  27.036  28.217  1.00  0.00    -0.014 A 
BRANCH  42  43
ATOM     43  C   UNL A   1      41.978  27.736  29.399  1.00  0.00     0.031 A 
ATOM     44  C   UNL A   1      42.696  27.681  30.716  1.00  0.00     0.074 A 
ATOM     45  C   UNL A   1      40.868  28.487  29.264  1.00  0.00     0.049 A 
ATOM     46  N   UNL A   1      42.378  28.238  31.857  1.00  0.00    -0.248 NA
ATOM     47  C   UNL A   1      43.941  26.900  30.754  1.00  0.00     0.031 C 
ATOM     48  C   UNL A   1      40.111  28.656  28.023  1.00  0.00     0.029 A 
ATOM     49  N   UNL A   1      40.198  29.264  30.174  1.00  0.00    -0.354 N 
ATOM     50  C   UNL A   1      43.375  27.869  32.751  1.00  0.00     0.074 A 
ATOM     51  C   UNL A   1      44.297  27.020  32.026  1.00  0.00     0.031 C 
ATOM     52  C   UNL A   1      39.091  29.501  28.245  1.00  0.00     0.029 A 
ATOM     53  C   UNL A   1      39.101  29.902  29.649  1.00  0.00     0.049 A 
ATOM     54  H   UNL A   1      40.476  29.356  31.114  1.00  0.00     0.167 HD
ATOM     55  C   UNL A   1      43.513  28.216  34.053  1.00  0.00     0.037 A 
ATOM     56  C   UNL A   1      38.200  30.709  30.239  1.00  0.00     0.037 A 
ATOM     57  C   UNL A   1      42.603  29.072  34.768  1.00  0.00     0.049 A 
ATOM     58  C   UNL A   1      38.352  31.037  31.700  1.00  0.00     0.074 A 
ATOM     59  C   UNL A   1      42.651  29.472  36.093  1.00  0.00     0.029 A 
ATOM     60  N   UNL A   1      41.477  29.666  34.214  1.00  0.00    -0.354 N 
ATOM     61  N   UNL A   1      39.292  30.673  32.538  1.00  0.00    -0.248 NA
ATOM     62  C   UNL A   1      37.314  31.889  32.297  1.00  0.00     0.031 C 
ATOM     63  C   UNL A   1      41.538  30.281  36.349  1.00  0.00     0.029 A 
ATOM     64  C   UNL A   1      40.818  30.418  35.173  1.00  0.00     0.049 A 
ATOM     65  H   UNL A   1      41.190  29.567  33.278  1.00  0.00     0.167 HD
ATOM     66  C   UNL A   1      38.972  31.266  33.751  1.00  0.00     0.074 A 
ATOM     67  C   UNL A   1      37.762  32.032  33.536  1.00  0.00     0.031 C 
ATOM     68  C   UNL A   1      39.619  31.179  34.939  1.00  0.00     0.037 A 
BRANCH  55  69
ATOM     69  C   UNL A   1      44.686  27.652  34.798  1.00  0.00     0.064 A 
ATOM     70  C   UNL A   1      45.910  28.332  34.867  1.00  0.00     0.173 A 
ATOM     71  C   UNL A   1      44.571  26.435  35.486  1.00  0.00     0.173 A 
ATOM     72  F   UNL A   1      46.075  29.494  34.215  1.00  0.00    -0.203 F 
ATOM     73  C   UNL A   1      46.982  27.805  35.582  1.00  0.00     0.198 A 
ATOM     74  C   UNL A   1      45.637  25.923  36.220  1.00  0.00     0.198 A 
ATOM     75  F   UNL A   1      43.419  25.746  35.455  1.00  0.00    -0.203 F 
ATOM     76  F   UNL A   1      48.155  28.454  35.604  1.00  0.00    -0.200 F 
ATOM     77  C   UNL A   1      46.843  26.606  36.263  1.00  0.00     0.200 A 
ATOM     78  F   UNL A   1      45.497  24.769  36.887  1.00  0.00    -0.200 F 
ATOM     79  F   UNL A   1      47.874  26.104  36.958  1.00  0.00    -0.200 F 
ENDBRANCH  55  69
BRANCH  56  80
ATOM     80  C   UNL A   1      37.068  31.262  29.452  1.00  0.00     0.064 A 
ATOM     81  C   UNL A   1      37.032  32.615  29.090  1.00  0.00     0.173 A 
ATOM     82  C   UNL A   1      35.988  30.454  29.067  1.00  0.00     0.173 A 
ATOM     83  F   UNL A   1      38.029  33.434  29.458  1.00  0.00    -0.203 F 
ATOM     84  C   UNL A   1      35.950  33.143  28.389  1.00  0.00     0.198 A 
ATOM     85  C   UNL A   1      34.920  30.977  28.343  1.00  0.00     0.198 A 
ATOM     86  F   UNL A   1      35.973  29.153  29.394  1.00  0.00    -0.203 F 
ATOM     87  F   UNL A   1      35.917  34.451  28.098  1.00  0.00    -0.200 F 
ATOM     88  C   UNL A   1      34.898  32.323  28.011  1.00  0.00     0.200 A 
ATOM     89  F   UNL A   1      33.910  30.179  27.972  1.00  0.00    -0.200 F 
ATOM     90  F   UNL A   1      33.857  32.832  27.339  1.00  0.00    -0.200 F 
ENDBRANCH  56  80
BRANCH  68  91
ATOM     91  C   UNL A   1      39.043  31.958  36.086  1.00  0.00     0.064 A 
ATOM     92  C   UNL A   1      38.157  31.369  37.001  1.00  0.00     0.173 A 
ATOM     93  C   UNL A   1      39.394  33.301  36.280  1.00  0.00     0.173 A 
ATOM     94  F   UNL A   1      37.780  30.091  36.847  1.00  0.00    -0.203 F 
ATOM     95  C   UNL A   1      37.619  32.108  38.050  1.00  0.00     0.198 A 
ATOM     96  C   UNL A   1      38.874  34.029  37.348  1.00  0.00     0.198 A 
ATOM     97  F   UNL A   1      40.242  33.909  35.437  1.00  0.00    -0.203 F 
ATOM     98  F   UNL A   1      36.733  31.541  38.882  1.00  0.00    -0.200 F 
ATOM     99  C   UNL A   1      37.981  33.435  38.226  1.00  0.00     0.200 A 
ATOM    100  F   UNL A   1      39.233  35.310  37.521  1.00  0.00    -0.200 F 
ATOM    101  F   UNL A   1      37.461  34.144  39.236  1.00  0.00    -0.200 F 
ENDBRANCH  68  91
ENDBRANCH  42  43
ENDBRANCH  35  37
ENDBRANCH  34  35
ENDBRANCH  33  34
ENDBRANCH  32  33
ENDBRANCH  31  32
ENDBRANCH  29  31
ENDBRANCH  27  29
ENDBRANCH   4  27
TORSDOF 22
ENDMDL
MODEL 2
REMARK VINA RESULT:     -11.3      4.989      7.724
REMARK SMILES CCCCCCCCNC(=O)Oc1cccc(-c2ccc([C@@H](C)C(=O)OCCOC(=O)c3ccc(-c4c5nc(c(-c6c(F)c(F)c(F)c(F)c6F)c6ccc([nH]6)c(-c6c(F)c(F)c(F)c(F)c6F)c6nc(c(-c7c(F)c(F)c(F)c(F)c7F)c7ccc4[nH]7)C=C6)C=C5)cc3)cc2F)c1
REMARK SMILES IDX 18 1 19 2 20 3 21 4 95 5 96 6 97 7 17 8 13 9 14 10 98 11
REMARK SMILES IDX 15 12 16 13 12 14 10 15 9 16 11 18 8 19 7 20 6 21 5 22 4 23
REMARK SMILES IDX 3 24 2 25 1 26 22 27 23 28 24 29 25 30 26 31 27 32 28 33
REMARK SMILES IDX 29 34 30 35 31 36 32 37 33 38 94 39 34 40 93 41 35 42 36 43
REMARK SMILES IDX 37 44 87 45 38 46 92 47 86 48 88 49 39 50 91 51 85 52 84 53
REMARK SMILES IDX 40 55 72 56 52 57 71 58 53 59 56 60 70 61 89 62 54 63 55 64
REMARK SMILES IDX 69 66 90 67 57 68 41 69 42 70 50 71 43 72 44 73 48 74 51 75
REMARK SMILES IDX 45 76 46 77 49 78 47 79 73 80 74 81 82 82 75 83 76 84 80 85
REMARK SMILES IDX 83 86 77 87 78 88 81 89 79 90 58 91 59 92 67 93 60 94 61 95
REMARK SMILES IDX 65 96 68 97 62 98 63 99 66 100 64 101
REMARK H PARENT 9 17 88 54 56 65
REMARK Flexibility Score: inf
ROOT
ATOM      1  C   UNL A   1      36.552  22.512  25.233  1.00  0.00     0.018 A 
ATOM      2  C   UNL A   1      37.261  23.591  25.787  1.00  0.00     0.012 A 
ATOM      3  C   UNL A   1      38.569  23.436  26.262  1.00  0.00     0.005 A 
ATOM      4  C   UNL A   1      39.214  22.194  26.204  1.00  0.00    -0.031 A 
ATOM      5  C   UNL A   1      38.507  21.113  25.656  1.00  0.00     0.044 A 
ATOM      6  C   UNL A   1      37.200  21.273  25.193  1.00  0.00     0.131 A 
ATOM      7  F   UNL A   1      36.586  20.200  24.667  1.00  0.00    -0.206 F 
ENDROOT
BRANCH   1   8
ATOM      8  C   UNL A   1      35.201  22.702  24.681  1.00  0.00    -0.012 A 
ATOM      9  C   UNL A   1      32.790  22.773  24.922  1.00  0.00     0.133 A 
ATOM     10  C   UNL A   1      32.630  23.033  23.564  1.00  0.00     0.047 A 
ATOM     11  C   UNL A   1      34.055  22.594  25.485  1.00  0.00     0.056 A 
ATOM     12  C   UNL A   1      33.756  23.143  22.755  1.00  0.00     0.004 A 
ATOM     13  C   UNL A   1      35.028  22.978  23.310  1.00  0.00     0.009 A 
BRANCH   9  14
ATOM     14  O   UNL A   1      31.620  22.575  25.669  1.00  0.00    -0.410 OA
BRANCH  14  15
ATOM     15  C   UNL A   1      31.498  23.253  26.871  1.00  0.00     0.412 C 
ATOM     16  N   UNL A   1      30.675  24.344  26.786  1.00  0.00    -0.321 N 
ATOM     17  H   UNL A   1      30.532  24.855  27.615  1.00  0.00     0.167 HD
ATOM     18  O   UNL A   1      32.052  22.967  27.925  1.00  0.00    -0.224 OA
BRANCH  16  19
ATOM     19  C   UNL A   1      29.994  24.826  25.600  1.00  0.00     0.119 C 
BRANCH  19  20
ATOM     20  C   UNL A   1      30.281  26.304  25.332  1.00  0.00     0.021 C 
BRANCH  20  21
ATOM     21  C   UNL A   1      29.764  26.828  23.985  1.00  0.00     0.002 C 
BRANCH  21  22
ATOM     22  C   UNL A   1      30.827  27.431  23.062  1.00  0.00     0.000 C 
BRANCH  22  23
ATOM     23  C   UNL A   1      31.855  26.435  22.512  1.00  0.00    -0.000 C 
BRANCH  23  24
ATOM     24  C   UNL A   1      33.307  26.923  22.523  1.00  0.00    -0.000 C 
BRANCH  24  25
ATOM     25  C   UNL A   1      33.836  27.381  23.885  1.00  0.00    -0.003 C 
ATOM     26  C   UNL A   1      33.901  26.264  24.916  1.00  0.00     0.004 C 
ENDBRANCH  24  25
ENDBRANCH  23  24
ENDBRANCH  22  23
ENDBRANCH  21  22
ENDBRANCH  20  21
ENDBRANCH  19  20
ENDBRANCH  16  19
ENDBRANCH  14  15
ENDBRANCH   9  14
ENDBRANCH   1   8
BRANCH   4  27
ATOM     27  C   UNL A   1      40.639  22.000  26.700  1.00  0.00     0.126 C 
ATOM     28  C   UNL A   1      41.011  22.975  27.814  1.00  0.00     0.025 C 
BRANCH  27  29
ATOM     29  C   UNL A   1      41.017  20.578  27.101  1.00  0.00     0.313 C 
ATOM     30  O   UNL A   1      40.779  20.135  28.220  1.00  0.00    -0.252 OA
BRANCH  29  31
ATOM     31  O   UNL A   1      41.588  19.862  26.099  1.00  0.00    -0.462 OA
BRANCH  31  32
ATOM     32  C   UNL A   1      42.254  18.639  26.469  1.00  0.00     0.274 C 
BRANCH  32  33
ATOM     33  C   UNL A   1      43.551  18.442  25.682  1.00  0.00     0.275 C 
BRANCH  33  34
ATOM     34  O   UNL A   1      43.615  19.326  24.546  1.00  0.00    -0.458 OA
BRANCH  34  35
ATOM     35  C   UNL A   1      44.867  19.626  24.130  1.00  0.00     0.338 C 
ATOM     36  O   UNL A   1      45.612  18.931  23.461  1.00  0.00    -0.246 OA
BRANCH  35  37
ATOM     37  C   UNL A   1      45.190  21.017  24.477  1.00  0.00     0.060 A 
ATOM     38  C   UNL A   1      45.702  21.256  25.752  1.00  0.00     0.016 A 
ATOM     39  C   UNL A   1      44.898  22.079  23.621  1.00  0.00     0.016 A 
ATOM     40  C   UNL A   1      45.897  22.558  26.198  1.00  0.00     0.010 A 
ATOM     41  C   UNL A   1      45.110  23.392  24.063  1.00  0.00     0.010 A 
ATOM     42  C   UNL A   1      45.590  23.638  25.361  1.00  0.00    -0.014 A 
BRANCH  42  43
ATOM     43  C   UNL A   1      45.728  25.014  25.897  1.00  0.00     0.031 A 
ATOM     44  C   UNL A   1      47.045  25.729  25.804  1.00  0.00     0.074 A 
ATOM     45  C   UNL A   1      44.648  25.648  26.392  1.00  0.00     0.049 A 
ATOM     46  N   UNL A   1      47.362  26.936  26.198  1.00  0.00    -0.248 NA
ATOM     47  C   UNL A   1      48.152  24.990  25.180  1.00  0.00     0.031 C 
ATOM     48  C   UNL A   1      43.306  25.074  26.489  1.00  0.00     0.029 A 
ATOM     49  N   UNL A   1      44.505  26.920  26.885  1.00  0.00    -0.354 N 
ATOM     50  C   UNL A   1      48.704  27.099  25.879  1.00  0.00     0.074 A 
ATOM     51  C   UNL A   1      49.149  25.858  25.281  1.00  0.00     0.031 C 
ATOM     52  C   UNL A   1      42.470  25.997  26.991  1.00  0.00     0.029 A 
ATOM     53  C   UNL A   1      43.225  27.212  27.287  1.00  0.00     0.049 A 
ATOM     54  H   UNL A   1      45.249  27.562  26.946  1.00  0.00     0.167 HD
ATOM     55  C   UNL A   1      49.489  28.188  26.060  1.00  0.00     0.037 A 
ATOM     56  C   UNL A   1      42.722  28.332  27.840  1.00  0.00     0.037 A 
ATOM     57  C   UNL A   1      49.041  29.427  26.643  1.00  0.00     0.049 A 
ATOM     58  C   UNL A   1      43.630  29.508  28.074  1.00  0.00     0.074 A 
ATOM     59  C   UNL A   1      49.765  30.584  26.878  1.00  0.00     0.029 A 
ATOM     60  N   UNL A   1      47.747  29.672  27.077  1.00  0.00    -0.354 N 
ATOM     61  N   UNL A   1      44.900  29.646  27.780  1.00  0.00    -0.248 NA
ATOM     62  C   UNL A   1      43.032  30.685  28.720  1.00  0.00     0.031 C 
ATOM     63  C   UNL A   1      48.917  31.516  27.486  1.00  0.00     0.029 A 
ATOM     64  C   UNL A   1      47.655  30.956  27.591  1.00  0.00     0.049 A 
ATOM     65  H   UNL A   1      47.003  29.029  27.028  1.00  0.00     0.167 HD
ATOM     66  C   UNL A   1      45.247  30.928  28.184  1.00  0.00     0.074 A 
ATOM     67  C   UNL A   1      44.049  31.536  28.725  1.00  0.00     0.031 C 
ATOM     68  C   UNL A   1      46.452  31.545  28.119  1.00  0.00     0.037 A 
BRANCH  55  69
ATOM     69  C   UNL A   1      50.925  28.083  25.640  1.00  0.00     0.064 A 
ATOM     70  C   UNL A   1      51.946  27.826  26.566  1.00  0.00     0.173 A 
ATOM     71  C   UNL A   1      51.279  28.200  24.288  1.00  0.00     0.173 A 
ATOM     72  F   UNL A   1      51.660  27.717  27.873  1.00  0.00    -0.203 F 
ATOM     73  C   UNL A   1      53.271  27.708  26.156  1.00  0.00     0.198 A 
ATOM     74  C   UNL A   1      52.601  28.059  23.878  1.00  0.00     0.198 A 
ATOM     75  F   UNL A   1      50.339  28.443  23.361  1.00  0.00    -0.203 F 
ATOM     76  F   UNL A   1      54.236  27.499  27.062  1.00  0.00    -0.200 F 
ATOM     77  C   UNL A   1      53.597  27.818  24.813  1.00  0.00     0.200 A 
ATOM     78  F   UNL A   1      52.913  28.154  22.578  1.00  0.00    -0.200 F 
ATOM     79  F   UNL A   1      54.873  27.697  24.419  1.00  0.00    -0.200 F 
ENDBRANCH  55  69
BRANCH  56  80
ATOM     80  C   UNL A   1      41.286  28.395  28.218  1.00  0.00     0.064 A 
ATOM     81  C   UNL A   1      40.328  28.908  27.334  1.00  0.00     0.173 A 
ATOM     82  C   UNL A   1      40.849  27.965  29.479  1.00  0.00     0.173 A 
ATOM     83  F   UNL A   1      40.703  29.356  26.126  1.00  0.00    -0.203 F 
ATOM     84  C   UNL A   1      38.989  29.007  27.704  1.00  0.00     0.198 A 
ATOM     85  C   UNL A   1      39.505  28.039  29.838  1.00  0.00     0.198 A 
ATOM     86  F   UNL A   1      41.727  27.470  30.363  1.00  0.00    -0.203 F 
ATOM     87  F   UNL A   1      38.101  29.548  26.859  1.00  0.00    -0.200 F 
ATOM     88  C   UNL A   1      38.577  28.568  28.953  1.00  0.00     0.200 A 
ATOM     89  F   UNL A   1      39.110  27.605  31.042  1.00  0.00    -0.200 F 
ATOM     90  F   UNL A   1      37.289  28.666  29.310  1.00  0.00    -0.200 F 
ENDBRANCH  56  80
BRANCH  68  91
ATOM     91  C   UNL A   1      46.521  32.959  28.618  1.00  0.00     0.064 A 
ATOM     92  C   UNL A   1      46.274  34.050  27.771  1.00  0.00     0.173 A 
ATOM     93  C   UNL A   1      46.823  33.224  29.962  1.00  0.00     0.173 A 
ATOM     94  F   UNL A   1      45.997  33.846  26.473  1.00  0.00    -0.203 F 
ATOM     95  C   UNL A   1      46.356  35.355  28.244  1.00  0.00     0.198 A 
ATOM     96  C   UNL A   1      46.877  34.532  30.438  1.00  0.00     0.198 A 
ATOM     97  F   UNL A   1      47.061  32.217  30.814  1.00  0.00    -0.203 F 
ATOM     98  F   UNL A   1      46.168  36.384  27.405  1.00  0.00    -0.200 F 
ATOM     99  C   UNL A   1      46.653  35.596  29.577  1.00  0.00     0.200 A 
ATOM    100  F   UNL A   1      47.156  34.762  31.729  1.00  0.00    -0.200 F 
ATOM    101  F   UNL A   1      46.734  36.854  30.030  1.00  0.00    -0.200 F 
ENDBRANCH  68  91
ENDBRANCH  42  43
ENDBRANCH  35  37
ENDBRANCH  34  35
ENDBRANCH  33  34
ENDBRANCH  32  33
ENDBRANCH  31  32
ENDBRANCH  29  31
ENDBRANCH  27  29
ENDBRANCH   4  27
TORSDOF 22
ENDMDL
MODEL 3
REMARK VINA RESULT:     -11.3      0.854      2.091
REMARK SMILES CCCCCCCCNC(=O)Oc1cccc(-c2ccc([C@@H](C)C(=O)OCCOC(=O)c3ccc(-c4c5nc(c(-c6c(F)c(F)c(F)c(F)c6F)c6ccc([nH]6)c(-c6c(F)c(F)c(F)c(F)c6F)c6nc(c(-c7c(F)c(F)c(F)c(F)c7F)c7ccc4[nH]7)C=C6)C=C5)cc3)cc2F)c1
REMARK SMILES IDX 18 1 19 2 20 3 21 4 95 5 96 6 97 7 17 8 13 9 14 10 98 11
REMARK SMILES IDX 15 12 16 13 12 14 10 15 9 16 11 18 8 19 7 20 6 21 5 22 4 23
REMARK SMILES IDX 3 24 2 25 1 26 22 27 23 28 24 29 25 30 26 31 27 32 28 33
REMARK SMILES IDX 29 34 30 35 31 36 32 37 33 38 94 39 34 40 93 41 35 42 36 43
REMARK SMILES IDX 37 44 87 45 38 46 92 47 86 48 88 49 39 50 91 51 85 52 84 53
REMARK SMILES IDX 40 55 72 56 52 57 71 58 53 59 56 60 70 61 89 62 54 63 55 64
REMARK SMILES IDX 69 66 90 67 57 68 41 69 42 70 50 71 43 72 44 73 48 74 51 75
REMARK SMILES IDX 45 76 46 77 49 78 47 79 73 80 74 81 82 82 75 83 76 84 80 85
REMARK SMILES IDX 83 86 77 87 78 88 81 89 79 90 58 91 59 92 67 93 60 94 61 95
REMARK SMILES IDX 65 96 68 97 62 98 63 99 66 100 64 101
REMARK H PARENT 9 17 88 54 56 65
REMARK Flexibility Score: inf
ROOT
ATOM      1  C   UNL A   1      37.285  23.004  25.544  1.00  0.00     0.018 A 
ATOM      2  C   UNL A   1      38.066  23.968  26.202  1.00  0.00     0.012 A 
ATOM      3  C   UNL A   1      39.360  23.675  26.649  1.00  0.00     0.005 A 
ATOM      4  C   UNL A   1      39.918  22.405  26.458  1.00  0.00    -0.031 A 
ATOM      5  C   UNL A   1      39.138  21.437  25.806  1.00  0.00     0.044 A 
ATOM      6  C   UNL A   1      37.846  21.734  25.371  1.00  0.00     0.131 A 
ATOM      7  F   UNL A   1      37.159  20.767  24.741  1.00  0.00    -0.206 F 
ENDROOT
BRANCH   1   8
ATOM      8  C   UNL A   1      35.950  23.342  25.025  1.00  0.00    -0.012 A 
ATOM      9  C   UNL A   1      33.694  24.179  25.326  1.00  0.00     0.133 A 
ATOM     10  C   UNL A   1      33.391  23.934  23.989  1.00  0.00     0.047 A 
ATOM     11  C   UNL A   1      34.951  23.878  25.854  1.00  0.00     0.056 A 
ATOM     12  C   UNL A   1      34.370  23.403  23.156  1.00  0.00     0.004 A 
ATOM     13  C   UNL A   1      35.637  23.111  23.671  1.00  0.00     0.009 A 
BRANCH   9  14
ATOM     14  O   UNL A   1      32.642  24.620  26.140  1.00  0.00    -0.410 OA
BRANCH  14  15
ATOM     15  C   UNL A   1      32.435  25.986  26.246  1.00  0.00     0.412 C 
ATOM     16  N   UNL A   1      31.177  26.365  25.860  1.00  0.00    -0.321 N 
ATOM     17  H   UNL A   1      30.963  27.323  25.933  1.00  0.00     0.167 HD
ATOM     18  O   UNL A   1      33.253  26.817  26.619  1.00  0.00    -0.224 OA
BRANCH  16  19
ATOM     19  C   UNL A   1      30.127  25.502  25.355  1.00  0.00     0.119 C 
BRANCH  19  20
ATOM     20  C   UNL A   1      30.065  25.504  23.827  1.00  0.00     0.021 C 
BRANCH  20  21
ATOM     21  C   UNL A   1      30.371  26.857  23.171  1.00  0.00     0.002 C 
BRANCH  21  22
ATOM     22  C   UNL A   1      31.633  26.897  22.303  1.00  0.00     0.000 C 
BRANCH  22  23
ATOM     23  C   UNL A   1      32.852  27.562  22.953  1.00  0.00    -0.000 C 
BRANCH  23  24
ATOM     24  C   UNL A   1      32.683  29.049  23.286  1.00  0.00    -0.000 C 
BRANCH  24  25
ATOM     25  C   UNL A   1      33.067  29.449  24.713  1.00  0.00    -0.003 C 
ATOM     26  C   UNL A   1      31.938  30.123  25.478  1.00  0.00     0.004 C 
ENDBRANCH  24  25
ENDBRANCH  23  24
ENDBRANCH  22  23
ENDBRANCH  21  22
ENDBRANCH  20  21
ENDBRANCH  19  20
ENDBRANCH  16  19
ENDBRANCH  14  15
ENDBRANCH   9  14
ENDBRANCH   1   8
BRANCH   4  27
ATOM     27  C   UNL A   1      41.326  22.063  26.920  1.00  0.00     0.126 C 
ATOM     28  C   UNL A   1      41.397  21.759  28.414  1.00  0.00     0.025 C 
BRANCH  27  29
ATOM     29  C   UNL A   1      42.041  20.971  26.130  1.00  0.00     0.313 C 
ATOM     30  O   UNL A   1      41.952  19.786  26.435  1.00  0.00    -0.252 OA
BRANCH  29  31
ATOM     31  O   UNL A   1      42.729  21.436  25.056  1.00  0.00    -0.462 OA
BRANCH  31  32
ATOM     32  C   UNL A   1      44.166  21.357  25.119  1.00  0.00     0.274 C 
BRANCH  32  33
ATOM     33  C   UNL A   1      44.826  22.605  24.525  1.00  0.00     0.275 C 
BRANCH  33  34
ATOM     34  O   UNL A   1      43.990  23.767  24.687  1.00  0.00    -0.458 OA
BRANCH  34  35
ATOM     35  C   UNL A   1      44.643  24.884  25.080  1.00  0.00     0.338 C 
ATOM     36  O   UNL A   1      45.662  25.354  24.604  1.00  0.00    -0.246 OA
BRANCH  35  37
ATOM     37  C   UNL A   1      43.863  25.585  26.111  1.00  0.00     0.060 A 
ATOM     38  C   UNL A   1      44.189  26.917  26.365  1.00  0.00     0.016 A 
ATOM     39  C   UNL A   1      42.910  24.928  26.891  1.00  0.00     0.016 A 
ATOM     40  C   UNL A   1      43.593  27.597  27.419  1.00  0.00     0.010 A 
ATOM     41  C   UNL A   1      42.295  25.619  27.944  1.00  0.00     0.010 A 
ATOM     42  C   UNL A   1      42.650  26.949  28.227  1.00  0.00    -0.014 A 
BRANCH  42  43
ATOM     43  C   UNL A   1      42.095  27.676  29.395  1.00  0.00     0.031 A 
ATOM     44  C   UNL A   1      42.835  27.676  30.701  1.00  0.00     0.074 A 
ATOM     45  C   UNL A   1      40.969  28.400  29.255  1.00  0.00     0.049 A 
ATOM     46  N   UNL A   1      42.524  28.262  31.830  1.00  0.00    -0.248 NA
ATOM     47  C   UNL A   1      44.096  26.921  30.744  1.00  0.00     0.031 C 
ATOM     48  C   UNL A   1      40.189  28.516  28.023  1.00  0.00     0.029 A 
ATOM     49  N   UNL A   1      40.297  29.193  30.152  1.00  0.00    -0.354 N 
ATOM     50  C   UNL A   1      43.543  27.941  32.718  1.00  0.00     0.074 A 
ATOM     51  C   UNL A   1      44.470  27.088  32.005  1.00  0.00     0.031 C 
ATOM     52  C   UNL A   1      39.156  29.348  28.235  1.00  0.00     0.029 A 
ATOM     53  C   UNL A   1      39.180  29.792  29.626  1.00  0.00     0.049 A 
ATOM     54  H   UNL A   1      40.589  29.319  31.084  1.00  0.00     0.167 HD
ATOM     55  C   UNL A   1      43.694  28.331  34.006  1.00  0.00     0.037 A 
ATOM     56  C   UNL A   1      38.273  30.600  30.205  1.00  0.00     0.037 A 
ATOM     57  C   UNL A   1      42.778  29.191  34.709  1.00  0.00     0.049 A 
ATOM     58  C   UNL A   1      38.442  30.977  31.653  1.00  0.00     0.074 A 
ATOM     59  C   UNL A   1      42.840  29.634  36.020  1.00  0.00     0.029 A 
ATOM     60  N   UNL A   1      41.633  29.745  34.156  1.00  0.00    -0.354 N 
ATOM     61  N   UNL A   1      39.402  30.657  32.486  1.00  0.00    -0.248 NA
ATOM     62  C   UNL A   1      37.396  31.827  32.240  1.00  0.00     0.031 C 
ATOM     63  C   UNL A   1      41.715  30.428  36.269  1.00  0.00     0.029 A 
ATOM     64  C   UNL A   1      40.975  30.515  35.102  1.00  0.00     0.049 A 
ATOM     65  H   UNL A   1      41.333  29.612  33.228  1.00  0.00     0.167 HD
ATOM     66  C   UNL A   1      39.089  31.282  33.685  1.00  0.00     0.074 A 
ATOM     67  C   UNL A   1      37.861  32.017  33.466  1.00  0.00     0.031 C 
ATOM     68  C   UNL A   1      39.757  31.245  34.864  1.00  0.00     0.037 A 
BRANCH  55  69
ATOM     69  C   UNL A   1      44.890  27.813  34.749  1.00  0.00     0.064 A 
ATOM     70  C   UNL A   1      44.864  26.581  35.418  1.00  0.00     0.173 A 
ATOM     71  C   UNL A   1      46.090  28.540  34.757  1.00  0.00     0.173 A 
ATOM     72  F   UNL A   1      43.736  25.854  35.450  1.00  0.00    -0.203 F 
ATOM     73  C   UNL A   1      45.990  26.104  36.083  1.00  0.00     0.198 A 
ATOM     74  C   UNL A   1      47.220  28.049  35.403  1.00  0.00     0.198 A 
ATOM     75  F   UNL A   1      46.168  29.723  34.129  1.00  0.00    -0.203 F 
ATOM     76  F   UNL A   1      45.932  24.942  36.748  1.00  0.00    -0.200 F 
ATOM     77  C   UNL A   1      47.168  26.835  36.070  1.00  0.00     0.200 A 
ATOM     78  F   UNL A   1      48.362  28.751  35.380  1.00  0.00    -0.200 F 
ATOM     79  F   UNL A   1      48.254  26.370  36.705  1.00  0.00    -0.200 F 
ENDBRANCH  55  69
BRANCH  56  80
ATOM     80  C   UNL A   1      37.118  31.106  29.420  1.00  0.00     0.064 A 
ATOM     81  C   UNL A   1      36.042  30.269  29.095  1.00  0.00     0.173 A 
ATOM     82  C   UNL A   1      37.078  32.430  28.959  1.00  0.00     0.173 A 
ATOM     83  F   UNL A   1      36.049  28.987  29.491  1.00  0.00    -0.203 F 
ATOM     84  C   UNL A   1      34.979  30.731  28.322  1.00  0.00     0.198 A 
ATOM     85  C   UNL A   1      36.001  32.899  28.209  1.00  0.00     0.198 A 
ATOM     86  F   UNL A   1      38.085  33.270  29.239  1.00  0.00    -0.203 F 
ATOM     87  F   UNL A   1      33.987  29.895  27.984  1.00  0.00    -0.200 F 
ATOM     88  C   UNL A   1      34.957  32.046  27.885  1.00  0.00     0.200 A 
ATOM     89  F   UNL A   1      35.979  34.173  27.797  1.00  0.00    -0.200 F 
ATOM     90  F   UNL A   1      33.935  32.490  27.140  1.00  0.00    -0.200 F 
ENDBRANCH  56  80
BRANCH  68  91
ATOM     91  C   UNL A   1      39.184  32.047  35.996  1.00  0.00     0.064 A 
ATOM     92  C   UNL A   1      39.542  33.388  36.199  1.00  0.00     0.173 A 
ATOM     93  C   UNL A   1      38.256  31.473  36.876  1.00  0.00     0.173 A 
ATOM     94  F   UNL A   1      40.439  33.976  35.392  1.00  0.00    -0.203 F 
ATOM     95  C   UNL A   1      39.015  34.116  37.262  1.00  0.00     0.198 A 
ATOM     96  C   UNL A   1      37.709  32.213  37.922  1.00  0.00     0.198 A 
ATOM     97  F   UNL A   1      37.875  30.196  36.721  1.00  0.00    -0.203 F 
ATOM     98  F   UNL A   1      39.412  35.380  37.469  1.00  0.00    -0.200 F 
ATOM     99  C   UNL A   1      38.096  33.530  38.119  1.00  0.00     0.200 A 
ATOM    100  F   UNL A   1      36.814  31.647  38.744  1.00  0.00    -0.200 F 
ATOM    101  F   UNL A   1      37.591  34.231  39.143  1.00  0.00    -0.200 F 
ENDBRANCH  68  91
ENDBRANCH  42  43
ENDBRANCH  35  37
ENDBRANCH  34  35
ENDBRANCH  33  34
ENDBRANCH  32  33
ENDBRANCH  31  32
ENDBRANCH  29  31
ENDBRANCH  27  29
ENDBRANCH   4  27
TORSDOF 22
ENDMDL
