MODEL 1
REMARK VINA RESULT:     -14.7      0.000      0.000
REMARK SMILES Cc1ccc(S(=O)(=O)n2cc(C(=O)C(=O)N[C@H](Cc3c[nH]c4ccccc34)C(=O)NCC(=O)OCCOC(=O)c3ccc(-c4c5nc(c(-c6c(F)c(F)c(F)c(F)c6F)c6ccc([nH]6)c(-c6c(F)c(F)c(F)c(F)c6F)c6nc(c(-c7c(F)c(F)c(F)c(F)c7F)c7ccc4[nH]7)C=C6)C=C5)cc3)c3ccccc32)cc1
REMARK SMILES IDX 32 1 33 2 31 3 30 4 28 5 29 6 17 8 16 9 14 10 15 11 12 13
REMARK SMILES IDX 13 14 11 15 9 16 10 17 108 18 103 19 107 20 104 21 106 22
REMARK SMILES IDX 105 23 6 24 7 25 8 26 5 27 1 28 2 29 3 30 110 31 4 32 109 33
REMARK SMILES IDX 18 34 19 35 20 36 27 37 21 38 22 39 26 40 23 42 25 43 24 44
REMARK SMILES IDX 34 45 35 46 36 47 37 48 38 49 39 50 40 51 41 52 102 53 42 54
REMARK SMILES IDX 101 55 43 56 44 57 45 58 95 59 46 60 100 61 94 62 96 63
REMARK SMILES IDX 47 64 99 65 93 66 92 67 48 69 80 70 60 71 79 72 61 73 64 74
REMARK SMILES IDX 78 75 97 76 62 77 63 78 77 80 98 81 65 82 49 83 50 84 58 85
REMARK SMILES IDX 51 86 52 87 56 88 59 89 53 90 54 91 57 92 55 93 81 94 82 95
REMARK SMILES IDX 90 96 83 97 84 98 88 99 91 100 85 101 86 102 89 103 87 104
REMARK SMILES IDX 66 105 67 106 75 107 68 108 69 109 73 110 76 111 70 112
REMARK SMILES IDX 71 113 74 114 72 115
REMARK H PARENT 30 7 16 12 21 41 96 68 64 79
REMARK Flexibility Score: inf
ROOT
ATOM      1  C   UNL A   1      37.085  30.090  31.509  1.00  0.00     0.325 C 
ATOM      2  O   UNL A   1      36.266  29.325  31.026  1.00  0.00    -0.250 OA
ENDROOT
BRANCH   1   3
ATOM      3  C   UNL A   1      37.905  31.196  30.698  1.00  0.00     0.238 C 
BRANCH   3   4
ATOM      4  N   UNL A   1      37.959  32.019  29.496  1.00  0.00    -0.343 N 
ATOM      5  C   UNL A   1      36.906  32.394  28.674  1.00  0.00     0.243 C 
ATOM      6  O   UNL A   1      37.059  33.463  28.064  1.00  0.00    -0.273 OA
ATOM      7  H   UNL A   1      38.848  32.348  29.235  1.00  0.00     0.164 HD
BRANCH   5   8
ATOM      8  C   UNL A   1      35.541  31.583  28.404  1.00  0.00     0.176 C 
BRANCH   8   9
ATOM      9  N   UNL A   1      35.429  30.263  27.357  1.00  0.00    -0.337 N 
ATOM     10  C   UNL A   1      34.650  29.113  26.874  1.00  0.00     0.293 C 
ATOM     11  O   UNL A   1      35.356  28.292  26.271  1.00  0.00    -0.265 OA
ATOM     12  H   UNL A   1      36.263  30.262  26.833  1.00  0.00     0.164 HD
BRANCH  10  13
ATOM     13  C   UNL A   1      32.919  28.788  26.920  1.00  0.00     0.252 C 
ATOM     14  O   UNL A   1      32.176  29.752  27.084  1.00  0.00    -0.283 OA
BRANCH  13  15
ATOM     15  C   UNL A   1      32.187  27.236  26.605  1.00  0.00     0.054 A 
ATOM     16  N   UNL A   1      32.546  26.437  23.680  1.00  0.00    -0.240 N 
ATOM     17  C   UNL A   1      32.409  27.811  24.898  1.00  0.00     0.117 A 
ATOM     18  C   UNL A   1      33.117  24.864  24.739  1.00  0.00     0.065 A 
ATOM     19  C   UNL A   1      32.649  25.188  26.563  1.00  0.00     0.012 A 
ATOM     20  C   UNL A   1      33.551  23.491  24.531  1.00  0.00     0.028 A 
ATOM     21  C   UNL A   1      32.161  23.958  27.190  1.00  0.00     0.011 A 
ATOM     22  C   UNL A   1      33.203  22.477  25.488  1.00  0.00     0.002 A 
ATOM     23  C   UNL A   1      32.504  22.684  26.699  1.00  0.00     0.001 A 
BRANCH  16  24
ATOM     24  S   UNL A   1      30.698  27.646  23.210  1.00  0.00     0.268 S 
ATOM     25  O   UNL A   1      29.755  26.763  23.901  1.00  0.00    -0.201 OA
ATOM     26  O   UNL A   1      30.653  27.646  21.758  1.00  0.00    -0.201 OA
BRANCH  24  27
ATOM     27  C   UNL A   1      29.588  29.460  23.236  1.00  0.00     0.088 A 
ATOM     28  C   UNL A   1      28.048  33.424  22.466  1.00  0.00     0.044 C 
ATOM     29  C   UNL A   1      28.332  32.108  23.124  1.00  0.00    -0.051 A 
ATOM     30  C   UNL A   1      27.658  31.044  22.634  1.00  0.00     0.005 A 
ATOM     31  C   UNL A   1      29.373  31.796  24.014  1.00  0.00     0.005 A 
ATOM     32  C   UNL A   1      28.270  29.785  22.753  1.00  0.00     0.022 A 
ATOM     33  C   UNL A   1      29.977  30.476  24.100  1.00  0.00     0.022 A 
ENDBRANCH  24  27
ENDBRANCH  16  24
ENDBRANCH  13  15
ENDBRANCH  10  13
ENDBRANCH   8   9
BRANCH   8  34
ATOM     34  C   UNL A   1      34.163  32.234  28.844  1.00  0.00     0.072 C 
BRANCH  34  35
ATOM     35  C   UNL A   1      34.090  33.477  29.671  1.00  0.00    -0.020 A 
ATOM     36  C   UNL A   1      33.635  34.724  29.263  1.00  0.00     0.087 A 
ATOM     37  C   UNL A   1      34.405  33.604  31.045  1.00  0.00     0.003 A 
ATOM     38  N   UNL A   1      33.915  35.627  30.251  1.00  0.00    -0.361 N 
ATOM     39  C   UNL A   1      34.356  34.960  31.365  1.00  0.00     0.046 A 
ATOM     40  C   UNL A   1      34.765  32.675  32.032  1.00  0.00     0.010 A 
ATOM     41  H   UNL A   1      33.815  36.603  30.175  1.00  0.00     0.166 HD
ATOM     42  C   UNL A   1      34.711  35.448  32.623  1.00  0.00     0.026 A 
ATOM     43  C   UNL A   1      35.077  33.139  33.307  1.00  0.00     0.001 A 
ATOM     44  C   UNL A   1      35.063  34.504  33.592  1.00  0.00     0.002 A 
ENDBRANCH  34  35
ENDBRANCH   8  34
ENDBRANCH   5   8
ENDBRANCH   3   4
ENDBRANCH   1   3
BRANCH   1  45
ATOM     45  O   UNL A   1      37.656  29.881  32.745  1.00  0.00    -0.461 OA
BRANCH  45  46
ATOM     46  C   UNL A   1      38.456  30.865  33.503  1.00  0.00     0.274 C 
BRANCH  46  47
ATOM     47  C   UNL A   1      38.654  30.727  35.056  1.00  0.00     0.275 C 
BRANCH  47  48
ATOM     48  O   UNL A   1      39.653  29.838  35.617  1.00  0.00    -0.458 OA
BRANCH  48  49
ATOM     49  C   UNL A   1      40.941  30.238  35.669  1.00  0.00     0.338 C 
ATOM     50  O   UNL A   1      41.365  31.311  36.049  1.00  0.00    -0.246 OA
BRANCH  49  51
ATOM     51  C   UNL A   1      41.728  29.199  34.999  1.00  0.00     0.060 A 
ATOM     52  C   UNL A   1      42.955  28.849  35.400  1.00  0.00     0.016 A 
ATOM     53  C   UNL A   1      41.140  28.338  34.044  1.00  0.00     0.016 A 
ATOM     54  C   UNL A   1      43.438  27.764  34.673  1.00  0.00     0.010 A 
ATOM     55  C   UNL A   1      41.700  27.263  33.308  1.00  0.00     0.010 A 
ATOM     56  C   UNL A   1      43.053  27.289  33.295  1.00  0.00    -0.014 A 
BRANCH  56  57
ATOM     57  C   UNL A   1      43.727  27.822  31.596  1.00  0.00     0.031 A 
ATOM     58  C   UNL A   1      44.119  26.276  30.904  1.00  0.00     0.074 A 
ATOM     59  C   UNL A   1      43.561  29.609  30.779  1.00  0.00     0.049 A 
ATOM     60  N   UNL A   1      44.287  26.060  29.641  1.00  0.00    -0.248 NA
ATOM     61  C   UNL A   1      44.252  25.005  31.596  1.00  0.00     0.031 C 
ATOM     62  C   UNL A   1      42.733  29.949  29.168  1.00  0.00     0.029 A 
ATOM     63  N   UNL A   1      43.138  30.990  31.144  1.00  0.00    -0.354 N 
ATOM     64  C   UNL A   1      44.121  24.718  29.364  1.00  0.00     0.074 A 
ATOM     65  C   UNL A   1      44.181  24.076  30.636  1.00  0.00     0.031 C 
ATOM     66  C   UNL A   1      41.958  31.018  29.116  1.00  0.00     0.029 A 
ATOM     67  C   UNL A   1      42.673  31.762  30.033  1.00  0.00     0.049 A 
ATOM     68  H   UNL A   1      43.175  31.339  32.064  1.00  0.00     0.167 HD
ATOM     69  C   UNL A   1      43.871  24.365  28.073  1.00  0.00     0.037 A 
ATOM     70  C   UNL A   1      43.613  32.480  29.392  1.00  0.00     0.037 A 
ATOM     71  C   UNL A   1      43.923  25.558  27.235  1.00  0.00     0.049 A 
ATOM     72  C   UNL A   1      44.290  31.632  27.861  1.00  0.00     0.074 A 
ATOM     73  C   UNL A   1      42.953  26.266  26.560  1.00  0.00     0.029 A 
ATOM     74  N   UNL A   1      45.067  26.347  27.240  1.00  0.00    -0.354 N 
ATOM     75  N   UNL A   1      44.444  30.301  27.674  1.00  0.00    -0.248 NA
ATOM     76  C   UNL A   1      44.968  32.188  26.629  1.00  0.00     0.031 C 
ATOM     77  C   UNL A   1      43.487  27.543  26.271  1.00  0.00     0.029 A 
ATOM     78  C   UNL A   1      44.806  27.589  26.690  1.00  0.00     0.049 A 
ATOM     79  H   UNL A   1      45.944  26.061  27.586  1.00  0.00     0.167 HD
ATOM     80  C   UNL A   1      45.362  29.910  26.688  1.00  0.00     0.074 A 
ATOM     81  C   UNL A   1      45.737  31.177  26.137  1.00  0.00     0.031 C 
ATOM     82  C   UNL A   1      45.835  28.608  26.529  1.00  0.00     0.037 A 
BRANCH  69  83
ATOM     83  C   UNL A   1      43.413  23.038  27.502  1.00  0.00     0.064 A 
ATOM     84  C   UNL A   1      44.138  22.488  26.413  1.00  0.00     0.173 A 
ATOM     85  C   UNL A   1      42.273  22.302  27.875  1.00  0.00     0.173 A 
ATOM     86  F   UNL A   1      45.258  23.066  25.956  1.00  0.00    -0.203 F 
ATOM     87  C   UNL A   1      43.751  21.328  25.744  1.00  0.00     0.198 A 
ATOM     88  C   UNL A   1      41.909  21.108  27.227  1.00  0.00     0.198 A 
ATOM     89  F   UNL A   1      41.454  22.714  28.850  1.00  0.00    -0.203 F 
ATOM     90  F   UNL A   1      44.463  20.904  24.691  1.00  0.00    -0.200 F 
ATOM     91  C   UNL A   1      42.642  20.628  26.159  1.00  0.00     0.200 A 
ATOM     92  F   UNL A   1      40.826  20.431  27.638  1.00  0.00    -0.200 F 
ATOM     93  F   UNL A   1      42.283  19.500  25.531  1.00  0.00    -0.200 F 
ENDBRANCH  69  83
BRANCH  70  94
ATOM     94  C   UNL A   1      44.101  33.349  30.837  1.00  0.00     0.064 A 
ATOM     95  C   UNL A   1      45.522  33.417  30.896  1.00  0.00     0.173 A 
ATOM     96  C   UNL A   1      43.522  34.518  31.435  1.00  0.00     0.173 A 
ATOM     97  F   UNL A   1      46.226  32.335  30.532  1.00  0.00    -0.203 F 
ATOM     98  C   UNL A   1      46.221  34.640  31.018  1.00  0.00     0.198 A 
ATOM     99  C   UNL A   1      44.213  35.754  31.566  1.00  0.00     0.198 A 
ATOM    100  F   UNL A   1      42.331  34.458  32.052  1.00  0.00    -0.203 F 
ATOM    101  F   UNL A   1      47.531  34.677  30.735  1.00  0.00    -0.200 F 
ATOM    102  C   UNL A   1      45.553  35.826  31.261  1.00  0.00     0.200 A 
ATOM    103  F   UNL A   1      43.577  36.868  31.959  1.00  0.00    -0.200 F 
ATOM    104  F   UNL A   1      46.193  37.004  31.199  1.00  0.00    -0.200 F 
ENDBRANCH  70  94
BRANCH  82 105
ATOM    105  C   UNL A   1      47.227  28.147  26.007  1.00  0.00     0.064 A 
ATOM    106  C   UNL A   1      47.410  27.583  24.735  1.00  0.00     0.173 A 
ATOM    107  C   UNL A   1      48.454  28.385  26.700  1.00  0.00     0.173 A 
ATOM    108  F   UNL A   1      46.380  27.470  23.895  1.00  0.00    -0.203 F 
ATOM    109  C   UNL A   1      48.662  27.132  24.273  1.00  0.00     0.198 A 
ATOM    110  C   UNL A   1      49.709  27.980  26.221  1.00  0.00     0.198 A 
ATOM    111  F   UNL A   1      48.497  29.033  27.873  1.00  0.00    -0.203 F 
ATOM    112  F   UNL A   1      48.750  26.513  23.086  1.00  0.00    -0.200 F 
ATOM    113  C   UNL A   1      49.805  27.300  25.030  1.00  0.00     0.200 A 
ATOM    114  F   UNL A   1      50.817  28.247  26.929  1.00  0.00    -0.200 F 
ATOM    115  F   UNL A   1      50.984  26.810  24.620  1.00  0.00    -0.200 F 
ENDBRANCH  82 105
ENDBRANCH  56  57
ENDBRANCH  49  51
ENDBRANCH  48  49
ENDBRANCH  47  48
ENDBRANCH  46  47
ENDBRANCH  45  46
ENDBRANCH   1  45
TORSDOF 20
ENDMDL
MODEL 2
REMARK VINA RESULT:     -14.6      3.206      8.053
REMARK SMILES Cc1ccc(S(=O)(=O)n2cc(C(=O)C(=O)N[C@H](Cc3c[nH]c4ccccc34)C(=O)NCC(=O)OCCOC(=O)c3ccc(-c4c5nc(c(-c6c(F)c(F)c(F)c(F)c6F)c6ccc([nH]6)c(-c6c(F)c(F)c(F)c(F)c6F)c6nc(c(-c7c(F)c(F)c(F)c(F)c7F)c7ccc4[nH]7)C=C6)C=C5)cc3)c3ccccc32)cc1
REMARK SMILES IDX 32 1 33 2 31 3 30 4 28 5 29 6 17 8 16 9 14 10 15 11 12 13
REMARK SMILES IDX 13 14 11 15 9 16 10 17 108 18 103 19 107 20 104 21 106 22
REMARK SMILES IDX 105 23 6 24 7 25 8 26 5 27 1 28 2 29 3 30 110 31 4 32 109 33
REMARK SMILES IDX 18 34 19 35 20 36 27 37 21 38 22 39 26 40 23 42 25 43 24 44
REMARK SMILES IDX 34 45 35 46 36 47 37 48 38 49 39 50 40 51 41 52 102 53 42 54
REMARK SMILES IDX 101 55 43 56 44 57 45 58 95 59 46 60 100 61 94 62 96 63
REMARK SMILES IDX 47 64 99 65 93 66 92 67 48 69 80 70 60 71 79 72 61 73 64 74
REMARK SMILES IDX 78 75 97 76 62 77 63 78 77 80 98 81 65 82 49 83 50 84 58 85
REMARK SMILES IDX 51 86 52 87 56 88 59 89 53 90 54 91 57 92 55 93 81 94 82 95
REMARK SMILES IDX 90 96 83 97 84 98 88 99 91 100 85 101 86 102 89 103 87 104
REMARK SMILES IDX 66 105 67 106 75 107 68 108 69 109 73 110 76 111 70 112
REMARK SMILES IDX 71 113 74 114 72 115
REMARK H PARENT 30 7 16 12 21 41 96 68 64 79
REMARK Flexibility Score: inf
ROOT
ATOM      1  C   UNL A   1      35.127  32.110  32.437  1.00  0.00     0.325 C 
ATOM      2  O   UNL A   1      35.884  31.191  32.708  1.00  0.00    -0.250 OA
ENDROOT
BRANCH   1   3
ATOM      3  C   UNL A   1      34.801  32.633  30.963  1.00  0.00     0.238 C 
BRANCH   3   4
ATOM      4  N   UNL A   1      35.290  33.384  29.813  1.00  0.00    -0.343 N 
ATOM      5  C   UNL A   1      35.193  33.044  28.471  1.00  0.00     0.243 C 
ATOM      6  O   UNL A   1      35.180  33.997  27.678  1.00  0.00    -0.273 OA
ATOM      7  H   UNL A   1      35.744  34.234  30.011  1.00  0.00     0.164 HD
BRANCH   5   8
ATOM      8  C   UNL A   1      35.133  31.562  27.841  1.00  0.00     0.176 C 
BRANCH   8   9
ATOM      9  N   UNL A   1      33.707  30.675  27.675  1.00  0.00    -0.337 N 
ATOM     10  C   UNL A   1      32.854  29.825  26.831  1.00  0.00     0.293 C 
ATOM     11  O   UNL A   1      31.685  29.784  27.240  1.00  0.00    -0.265 OA
ATOM     12  H   UNL A   1      33.229  30.768  28.531  1.00  0.00     0.164 HD
BRANCH  10  13
ATOM     13  C   UNL A   1      33.245  28.807  25.447  1.00  0.00     0.252 C 
ATOM     14  O   UNL A   1      34.246  28.101  25.541  1.00  0.00    -0.283 OA
BRANCH  13  15
ATOM     15  C   UNL A   1      32.245  28.623  24.029  1.00  0.00     0.054 A 
ATOM     16  N   UNL A   1      30.184  26.406  24.434  1.00  0.00    -0.240 N 
ATOM     17  C   UNL A   1      31.842  27.071  24.882  1.00  0.00     0.117 A 
ATOM     18  C   UNL A   1      29.169  27.965  23.755  1.00  0.00     0.065 A 
ATOM     19  C   UNL A   1      30.432  29.291  23.209  1.00  0.00     0.012 A 
ATOM     20  C   UNL A   1      27.817  28.307  23.339  1.00  0.00     0.028 A 
ATOM     21  C   UNL A   1      29.980  29.951  21.983  1.00  0.00     0.011 A 
ATOM     22  C   UNL A   1      27.612  29.259  22.283  1.00  0.00     0.002 A 
ATOM     23  C   UNL A   1      28.622  29.982  21.610  1.00  0.00     0.001 A 
BRANCH  16  24
ATOM     24  S   UNL A   1      31.763  24.933  23.775  1.00  0.00     0.268 S 
ATOM     25  O   UNL A   1      31.674  25.237  22.345  1.00  0.00    -0.201 OA
ATOM     26  O   UNL A   1      31.233  23.652  24.208  1.00  0.00    -0.201 OA
BRANCH  24  27
ATOM     27  C   UNL A   1      33.733  24.135  23.859  1.00  0.00     0.088 A 
ATOM     28  C   UNL A   1      37.251  21.777  24.725  1.00  0.00     0.044 C 
ATOM     29  C   UNL A   1      36.358  22.893  24.273  1.00  0.00    -0.051 A 
ATOM     30  C   UNL A   1      35.724  22.703  23.095  1.00  0.00     0.005 A 
ATOM     31  C   UNL A   1      35.911  23.996  25.020  1.00  0.00     0.005 A 
ATOM     32  C   UNL A   1      34.493  23.356  22.914  1.00  0.00     0.022 A 
ATOM     33  C   UNL A   1      34.626  24.639  24.796  1.00  0.00     0.022 A 
ENDBRANCH  24  27
ENDBRANCH  16  24
ENDBRANCH  13  15
ENDBRANCH  10  13
ENDBRANCH   8   9
BRANCH   8  34
ATOM     34  C   UNL A   1      36.480  30.740  27.687  1.00  0.00     0.072 C 
BRANCH  34  35
ATOM     35  C   UNL A   1      37.049  29.914  28.795  1.00  0.00    -0.020 A 
ATOM     36  C   UNL A   1      36.388  29.482  29.937  1.00  0.00     0.087 A 
ATOM     37  C   UNL A   1      38.349  29.357  28.859  1.00  0.00     0.003 A 
ATOM     38  N   UNL A   1      37.309  28.927  30.782  1.00  0.00    -0.361 N 
ATOM     39  C   UNL A   1      38.510  28.809  30.131  1.00  0.00     0.046 A 
ATOM     40  C   UNL A   1      39.414  29.310  27.948  1.00  0.00     0.010 A 
ATOM     41  H   UNL A   1      37.136  28.654  31.712  1.00  0.00     0.166 HD
ATOM     42  C   UNL A   1      39.717  28.261  30.565  1.00  0.00     0.026 A 
ATOM     43  C   UNL A   1      40.612  28.724  28.348  1.00  0.00     0.001 A 
ATOM     44  C   UNL A   1      40.764  28.221  29.639  1.00  0.00     0.002 A 
ENDBRANCH  34  35
ENDBRANCH   8  34
ENDBRANCH   5   8
ENDBRANCH   3   4
ENDBRANCH   1   3
BRANCH   1  45
ATOM     45  O   UNL A   1      34.717  33.031  33.375  1.00  0.00    -0.461 OA
BRANCH  45  46
ATOM     46  C   UNL A   1      35.005  34.480  33.343  1.00  0.00     0.274 C 
BRANCH  46  47
ATOM     47  C   UNL A   1      36.479  35.012  33.209  1.00  0.00     0.275 C 
BRANCH  47  48
ATOM     48  O   UNL A   1      37.614  34.208  33.620  1.00  0.00    -0.458 OA
BRANCH  48  49
ATOM     49  C   UNL A   1      38.330  33.546  32.686  1.00  0.00     0.338 C 
ATOM     50  O   UNL A   1      38.107  33.483  31.494  1.00  0.00    -0.246 OA
BRANCH  49  51
ATOM     51  C   UNL A   1      39.329  32.755  33.411  1.00  0.00     0.060 A 
ATOM     52  C   UNL A   1      40.348  33.310  34.075  1.00  0.00     0.016 A 
ATOM     53  C   UNL A   1      39.135  31.376  33.652  1.00  0.00     0.016 A 
ATOM     54  C   UNL A   1      41.084  32.354  34.770  1.00  0.00     0.010 A 
ATOM     55  C   UNL A   1      39.946  30.442  34.345  1.00  0.00     0.010 A 
ATOM     56  C   UNL A   1      41.217  30.876  34.510  1.00  0.00    -0.014 A 
BRANCH  56  57
ATOM     57  C   UNL A   1      42.427  29.949  33.368  1.00  0.00     0.031 A 
ATOM     58  C   UNL A   1      42.135  30.762  31.860  1.00  0.00     0.074 A 
ATOM     59  C   UNL A   1      43.877  28.740  33.934  1.00  0.00     0.049 A 
ATOM     60  N   UNL A   1      42.941  30.745  30.849  1.00  0.00    -0.248 NA
ATOM     61  C   UNL A   1      41.011  31.617  31.518  1.00  0.00     0.031 C 
ATOM     62  C   UNL A   1      45.662  28.995  33.551  1.00  0.00     0.029 A 
ATOM     63  N   UNL A   1      44.370  28.052  35.161  1.00  0.00    -0.354 N 
ATOM     64  C   UNL A   1      42.680  31.815  30.017  1.00  0.00     0.074 A 
ATOM     65  C   UNL A   1      41.403  32.293  30.432  1.00  0.00     0.031 C 
ATOM     66  C   UNL A   1      46.517  28.758  34.529  1.00  0.00     0.029 A 
ATOM     67  C   UNL A   1      45.771  27.768  35.138  1.00  0.00     0.049 A 
ATOM     68  H   UNL A   1      43.785  27.817  35.918  1.00  0.00     0.167 HD
ATOM     69  C   UNL A   1      43.652  32.185  29.139  1.00  0.00     0.037 A 
ATOM     70  C   UNL A   1      46.111  26.572  34.625  1.00  0.00     0.037 A 
ATOM     71  C   UNL A   1      44.768  31.251  29.244  1.00  0.00     0.049 A 
ATOM     72  C   UNL A   1      46.619  26.646  32.821  1.00  0.00     0.074 A 
ATOM     73  C   UNL A   1      46.049  31.381  29.733  1.00  0.00     0.029 A 
ATOM     74  N   UNL A   1      44.541  29.891  29.069  1.00  0.00    -0.354 N 
ATOM     75  N   UNL A   1      46.140  27.491  31.879  1.00  0.00    -0.248 NA
ATOM     76  C   UNL A   1      47.475  25.721  31.986  1.00  0.00     0.031 C 
ATOM     77  C   UNL A   1      46.544  30.079  29.973  1.00  0.00     0.029 A 
ATOM     78  C   UNL A   1      45.605  29.152  29.553  1.00  0.00     0.049 A 
ATOM     79  H   UNL A   1      43.733  29.507  28.657  1.00  0.00     0.167 HD
ATOM     80  C   UNL A   1      46.299  27.094  30.543  1.00  0.00     0.074 A 
ATOM     81  C   UNL A   1      47.068  25.897  30.697  1.00  0.00     0.031 C 
ATOM     82  C   UNL A   1      45.656  27.698  29.464  1.00  0.00     0.037 A 
BRANCH  69  83
ATOM     83  C   UNL A   1      43.767  33.433  28.286  1.00  0.00     0.064 A 
ATOM     84  C   UNL A   1      43.706  34.695  28.930  1.00  0.00     0.173 A 
ATOM     85  C   UNL A   1      43.846  33.496  26.883  1.00  0.00     0.173 A 
ATOM     86  F   UNL A   1      43.647  34.797  30.265  1.00  0.00    -0.203 F 
ATOM     87  C   UNL A   1      43.699  35.906  28.240  1.00  0.00     0.198 A 
ATOM     88  C   UNL A   1      43.884  34.720  26.191  1.00  0.00     0.198 A 
ATOM     89  F   UNL A   1      43.860  32.394  26.124  1.00  0.00    -0.203 F 
ATOM     90  F   UNL A   1      43.586  37.055  28.922  1.00  0.00    -0.200 F 
ATOM     91  C   UNL A   1      43.802  35.921  26.869  1.00  0.00     0.200 A 
ATOM     92  F   UNL A   1      43.984  34.726  24.853  1.00  0.00    -0.200 F 
ATOM     93  F   UNL A   1      43.820  37.086  26.206  1.00  0.00    -0.200 F 
ENDBRANCH  69  83
BRANCH  70  94
ATOM     94  C   UNL A   1      45.119  25.673  35.760  1.00  0.00     0.064 A 
ATOM     95  C   UNL A   1      44.518  24.566  35.096  1.00  0.00     0.173 A 
ATOM     96  C   UNL A   1      45.375  25.348  37.134  1.00  0.00     0.173 A 
ATOM     97  F   UNL A   1      44.060  24.745  33.848  1.00  0.00    -0.203 F 
ATOM     98  C   UNL A   1      44.657  23.235  35.555  1.00  0.00     0.198 A 
ATOM     99  C   UNL A   1      45.515  24.016  37.611  1.00  0.00     0.198 A 
ATOM    100  F   UNL A   1      45.339  26.297  38.084  1.00  0.00    -0.203 F 
ATOM    101  F   UNL A   1      44.363  22.222  34.727  1.00  0.00    -0.200 F 
ATOM    102  C   UNL A   1      45.242  22.957  36.777  1.00  0.00     0.200 A 
ATOM    103  F   UNL A   1      45.935  23.765  38.861  1.00  0.00    -0.200 F 
ATOM    104  F   UNL A   1      45.533  21.695  37.130  1.00  0.00    -0.200 F 
ENDBRANCH  70  94
BRANCH  82 105
ATOM    105  C   UNL A   1      45.199  27.044  28.127  1.00  0.00     0.064 A 
ATOM    106  C   UNL A   1      44.023  26.286  28.018  1.00  0.00     0.173 A 
ATOM    107  C   UNL A   1      45.842  27.272  26.871  1.00  0.00     0.173 A 
ATOM    108  F   UNL A   1      43.215  26.142  29.070  1.00  0.00    -0.203 F 
ATOM    109  C   UNL A   1      43.624  25.662  26.819  1.00  0.00     0.198 A 
ATOM    110  C   UNL A   1      45.419  26.691  25.665  1.00  0.00     0.198 A 
ATOM    111  F   UNL A   1      46.906  28.077  26.750  1.00  0.00    -0.203 F 
ATOM    112  F   UNL A   1      42.542  24.871  26.808  1.00  0.00    -0.200 F 
ATOM    113  C   UNL A   1      44.342  25.838  25.651  1.00  0.00     0.200 A 
ATOM    114  F   UNL A   1      46.074  26.959  24.525  1.00  0.00    -0.200 F 
ATOM    115  F   UNL A   1      44.001  25.191  24.527  1.00  0.00    -0.200 F 
ENDBRANCH  82 105
ENDBRANCH  56  57
ENDBRANCH  49  51
ENDBRANCH  48  49
ENDBRANCH  47  48
ENDBRANCH  46  47
ENDBRANCH  45  46
ENDBRANCH   1  45
TORSDOF 20
ENDMDL
MODEL 3
REMARK VINA RESULT:     -14.6      3.166      5.617
REMARK SMILES Cc1ccc(S(=O)(=O)n2cc(C(=O)C(=O)N[C@H](Cc3c[nH]c4ccccc34)C(=O)NCC(=O)OCCOC(=O)c3ccc(-c4c5nc(c(-c6c(F)c(F)c(F)c(F)c6F)c6ccc([nH]6)c(-c6c(F)c(F)c(F)c(F)c6F)c6nc(c(-c7c(F)c(F)c(F)c(F)c7F)c7ccc4[nH]7)C=C6)C=C5)cc3)c3ccccc32)cc1
REMARK SMILES IDX 32 1 33 2 31 3 30 4 28 5 29 6 17 8 16 9 14 10 15 11 12 13
REMARK SMILES IDX 13 14 11 15 9 16 10 17 108 18 103 19 107 20 104 21 106 22
REMARK SMILES IDX 105 23 6 24 7 25 8 26 5 27 1 28 2 29 3 30 110 31 4 32 109 33
REMARK SMILES IDX 18 34 19 35 20 36 27 37 21 38 22 39 26 40 23 42 25 43 24 44
REMARK SMILES IDX 34 45 35 46 36 47 37 48 38 49 39 50 40 51 41 52 102 53 42 54
REMARK SMILES IDX 101 55 43 56 44 57 45 58 95 59 46 60 100 61 94 62 96 63
REMARK SMILES IDX 47 64 99 65 93 66 92 67 48 69 80 70 60 71 79 72 61 73 64 74
REMARK SMILES IDX 78 75 97 76 62 77 63 78 77 80 98 81 65 82 49 83 50 84 58 85
REMARK SMILES IDX 51 86 52 87 56 88 59 89 53 90 54 91 57 92 55 93 81 94 82 95
REMARK SMILES IDX 90 96 83 97 84 98 88 99 91 100 85 101 86 102 89 103 87 104
REMARK SMILES IDX 66 105 67 106 75 107 68 108 69 109 73 110 76 111 70 112
REMARK SMILES IDX 71 113 74 114 72 115
REMARK H PARENT 30 7 16 12 21 41 96 68 64 79
REMARK Flexibility Score: inf
ROOT
ATOM      1  C   UNL A   1      36.921  29.466  32.342  1.00  0.00     0.325 C 
ATOM      2  O   UNL A   1      37.405  28.553  32.992  1.00  0.00    -0.250 OA
ENDROOT
BRANCH   1   3
ATOM      3  C   UNL A   1      36.477  29.375  30.810  1.00  0.00     0.238 C 
BRANCH   3   4
ATOM      4  N   UNL A   1      36.863  29.617  29.425  1.00  0.00    -0.343 N 
ATOM      5  C   UNL A   1      36.321  30.537  28.539  1.00  0.00     0.243 C 
ATOM      6  O   UNL A   1      37.089  30.941  27.653  1.00  0.00    -0.273 OA
ATOM      7  H   UNL A   1      37.595  29.060  29.075  1.00  0.00     0.164 HD
BRANCH   5   8
ATOM      8  C   UNL A   1      34.813  31.101  28.518  1.00  0.00     0.176 C 
BRANCH   8   9
ATOM      9  N   UNL A   1      33.484  30.200  27.998  1.00  0.00    -0.337 N 
ATOM     10  C   UNL A   1      32.952  29.155  27.110  1.00  0.00     0.293 C 
ATOM     11  O   UNL A   1      31.720  29.223  26.996  1.00  0.00    -0.265 OA
ATOM     12  H   UNL A   1      32.718  30.517  28.529  1.00  0.00     0.164 HD
BRANCH  10  13
ATOM     13  C   UNL A   1      33.750  27.807  26.304  1.00  0.00     0.252 C 
ATOM     14  O   UNL A   1      34.915  27.980  25.953  1.00  0.00    -0.283 OA
BRANCH  13  15
ATOM     15  C   UNL A   1      33.063  26.216  26.104  1.00  0.00     0.054 A 
ATOM     16  N   UNL A   1      33.172  25.345  23.179  1.00  0.00    -0.240 N 
ATOM     17  C   UNL A   1      33.091  26.749  24.368  1.00  0.00     0.117 A 
ATOM     18  C   UNL A   1      33.914  23.831  24.217  1.00  0.00     0.065 A 
ATOM     19  C   UNL A   1      33.611  24.189  26.070  1.00  0.00     0.012 A 
ATOM     20  C   UNL A   1      34.388  22.472  24.004  1.00  0.00     0.028 A 
ATOM     21  C   UNL A   1      33.243  22.960  26.774  1.00  0.00     0.011 A 
ATOM     22  C   UNL A   1      34.182  21.474  25.017  1.00  0.00     0.002 A 
ATOM     23  C   UNL A   1      33.595  21.687  26.284  1.00  0.00     0.001 A 
BRANCH  16  24
ATOM     24  S   UNL A   1      31.233  26.458  22.862  1.00  0.00     0.268 S 
ATOM     25  O   UNL A   1      30.363  25.414  23.408  1.00  0.00    -0.201 OA
ATOM     26  O   UNL A   1      31.191  26.662  21.425  1.00  0.00    -0.201 OA
BRANCH  24  27
ATOM     27  C   UNL A   1      29.982  28.157  23.131  1.00  0.00     0.088 A 
ATOM     28  C   UNL A   1      27.890  31.914  22.694  1.00  0.00     0.044 C 
ATOM     29  C   UNL A   1      28.468  30.664  23.287  1.00  0.00    -0.051 A 
ATOM     30  C   UNL A   1      27.808  29.519  23.009  1.00  0.00     0.005 A 
ATOM     31  C   UNL A   1      29.727  30.497  23.887  1.00  0.00     0.005 A 
ATOM     32  C   UNL A   1      28.558  28.331  22.995  1.00  0.00     0.022 A 
ATOM     33  C   UNL A   1      30.468  29.246  23.844  1.00  0.00     0.022 A 
ENDBRANCH  24  27
ENDBRANCH  16  24
ENDBRANCH  13  15
ENDBRANCH  10  13
ENDBRANCH   8   9
BRANCH   8  34
ATOM     34  C   UNL A   1      34.579  32.665  28.648  1.00  0.00     0.072 C 
BRANCH  34  35
ATOM     35  C   UNL A   1      34.725  33.395  29.944  1.00  0.00    -0.020 A 
ATOM     36  C   UNL A   1      35.486  33.007  31.038  1.00  0.00     0.087 A 
ATOM     37  C   UNL A   1      34.171  34.655  30.277  1.00  0.00     0.003 A 
ATOM     38  N   UNL A   1      35.194  33.842  32.082  1.00  0.00    -0.361 N 
ATOM     39  C   UNL A   1      34.418  34.878  31.631  1.00  0.00     0.046 A 
ATOM     40  C   UNL A   1      33.448  35.605  29.542  1.00  0.00     0.010 A 
ATOM     41  H   UNL A   1      35.495  33.718  33.011  1.00  0.00     0.166 HD
ATOM     42  C   UNL A   1      33.920  35.990  32.311  1.00  0.00     0.026 A 
ATOM     43  C   UNL A   1      32.983  36.744  30.194  1.00  0.00     0.001 A 
ATOM     44  C   UNL A   1      33.204  36.924  31.558  1.00  0.00     0.002 A 
ENDBRANCH  34  35
ENDBRANCH   8  34
ENDBRANCH   5   8
ENDBRANCH   3   4
ENDBRANCH   1   3
BRANCH   1  45
ATOM     45  O   UNL A   1      37.004  30.783  32.739  1.00  0.00    -0.461 OA
BRANCH  45  46
ATOM     46  C   UNL A   1      37.787  31.289  33.886  1.00  0.00     0.274 C 
BRANCH  46  47
ATOM     47  C   UNL A   1      38.104  32.821  34.039  1.00  0.00     0.275 C 
BRANCH  47  48
ATOM     48  O   UNL A   1      39.228  33.433  33.356  1.00  0.00    -0.458 OA
BRANCH  48  49
ATOM     49  C   UNL A   1      39.092  33.813  32.068  1.00  0.00     0.338 C 
ATOM     50  O   UNL A   1      38.330  34.648  31.621  1.00  0.00    -0.246 OA
BRANCH  49  51
ATOM     51  C   UNL A   1      39.908  32.890  31.273  1.00  0.00     0.060 A 
ATOM     52  C   UNL A   1      39.399  31.813  30.666  1.00  0.00     0.016 A 
ATOM     53  C   UNL A   1      41.231  33.221  30.900  1.00  0.00     0.016 A 
ATOM     54  C   UNL A   1      40.355  31.170  29.884  1.00  0.00     0.010 A 
ATOM     55  C   UNL A   1      42.173  32.500  30.122  1.00  0.00     0.010 A 
ATOM     56  C   UNL A   1      41.857  31.190  30.002  1.00  0.00    -0.014 A 
BRANCH  56  57
ATOM     57  C   UNL A   1      43.006  30.093  31.052  1.00  0.00     0.031 A 
ATOM     58  C   UNL A   1      43.054  28.652  30.081  1.00  0.00     0.074 A 
ATOM     59  C   UNL A   1      44.129  30.683  32.561  1.00  0.00     0.049 A 
ATOM     60  N   UNL A   1      43.960  27.735  30.174  1.00  0.00    -0.248 NA
ATOM     61  C   UNL A   1      42.156  28.284  29.000  1.00  0.00     0.031 C 
ATOM     62  C   UNL A   1      45.963  30.516  32.627  1.00  0.00     0.029 A 
ATOM     63  N   UNL A   1      44.334  31.879  33.426  1.00  0.00    -0.354 N 
ATOM     64  C   UNL A   1      44.003  26.992  29.011  1.00  0.00     0.074 A 
ATOM     65  C   UNL A   1      42.795  27.318  28.329  1.00  0.00     0.031 C 
ATOM     66  C   UNL A   1      46.635  31.550  33.103  1.00  0.00     0.029 A 
ATOM     67  C   UNL A   1      45.652  31.974  33.974  1.00  0.00     0.049 A 
ATOM     68  H   UNL A   1      43.628  32.542  33.603  1.00  0.00     0.167 HD
ATOM     69  C   UNL A   1      45.127  26.263  28.769  1.00  0.00     0.037 A 
ATOM     70  C   UNL A   1      45.826  31.381  35.169  1.00  0.00     0.037 A 
ATOM     71  C   UNL A   1      46.031  26.389  29.907  1.00  0.00     0.049 A 
ATOM     72  C   UNL A   1      46.555  29.656  35.052  1.00  0.00     0.074 A 
ATOM     73  C   UNL A   1      47.245  27.020  30.067  1.00  0.00     0.029 A 
ATOM     74  N   UNL A   1      45.580  26.055  31.178  1.00  0.00    -0.354 N 
ATOM     75  N   UNL A   1      46.357  28.760  34.058  1.00  0.00    -0.248 NA
ATOM     76  C   UNL A   1      47.322  28.826  36.056  1.00  0.00     0.031 C 
ATOM     77  C   UNL A   1      47.459  27.178  31.455  1.00  0.00     0.029 A 
ATOM     78  C   UNL A   1      46.424  26.570  32.146  1.00  0.00     0.049 A 
ATOM     79  H   UNL A   1      44.773  25.524  31.365  1.00  0.00     0.167 HD
ATOM     80  C   UNL A   1      46.602  27.415  34.372  1.00  0.00     0.074 A 
ATOM     81  C   UNL A   1      47.114  27.526  35.703  1.00  0.00     0.031 C 
ATOM     82  C   UNL A   1      46.217  26.341  33.570  1.00  0.00     0.037 A 
BRANCH  69  83
ATOM     83  C   UNL A   1      45.571  25.557  27.503  1.00  0.00     0.064 A 
ATOM     84  C   UNL A   1      45.390  24.152  27.418  1.00  0.00     0.173 A 
ATOM     85  C   UNL A   1      46.235  26.129  26.402  1.00  0.00     0.173 A 
ATOM     86  F   UNL A   1      44.758  23.469  28.381  1.00  0.00    -0.203 F 
ATOM     87  C   UNL A   1      45.851  23.386  26.348  1.00  0.00     0.198 A 
ATOM     88  C   UNL A   1      46.660  25.360  25.304  1.00  0.00     0.198 A 
ATOM     89  F   UNL A   1      46.527  27.434  26.352  1.00  0.00    -0.203 F 
ATOM     90  F   UNL A   1      45.687  22.056  26.369  1.00  0.00    -0.200 F 
ATOM     91  C   UNL A   1      46.474  23.991  25.282  1.00  0.00     0.200 A 
ATOM     92  F   UNL A   1      47.267  25.957  24.267  1.00  0.00    -0.200 F 
ATOM     93  F   UNL A   1      46.896  23.258  24.242  1.00  0.00    -0.200 F 
ENDBRANCH  69  83
BRANCH  70  94
ATOM     94  C   UNL A   1      44.554  32.310  35.946  1.00  0.00     0.064 A 
ATOM     95  C   UNL A   1      44.013  31.563  37.031  1.00  0.00     0.173 A 
ATOM     96  C   UNL A   1      44.499  33.714  36.234  1.00  0.00     0.173 A 
ATOM     97  F   UNL A   1      43.833  30.244  36.868  1.00  0.00    -0.203 F 
ATOM     98  C   UNL A   1      43.947  32.072  38.348  1.00  0.00     0.198 A 
ATOM     99  C   UNL A   1      44.431  34.241  37.552  1.00  0.00     0.198 A 
ATOM    100  F   UNL A   1      44.349  34.614  35.248  1.00  0.00    -0.203 F 
ATOM    101  F   UNL A   1      43.746  31.226  39.369  1.00  0.00    -0.200 F 
ATOM    102  C   UNL A   1      44.248  33.394  38.621  1.00  0.00     0.200 A 
ATOM    103  F   UNL A   1      44.568  35.556  37.784  1.00  0.00    -0.200 F 
ATOM    104  F   UNL A   1      44.358  33.829  39.886  1.00  0.00    -0.200 F 
ENDBRANCH  70  94
BRANCH  82 105
ATOM    105  C   UNL A   1      45.814  24.904  34.015  1.00  0.00     0.064 A 
ATOM    106  C   UNL A   1      44.478  24.510  34.180  1.00  0.00     0.173 A 
ATOM    107  C   UNL A   1      46.742  23.825  34.151  1.00  0.00     0.173 A 
ATOM    108  F   UNL A   1      43.486  25.359  33.905  1.00  0.00    -0.203 F 
ATOM    109  C   UNL A   1      44.109  23.222  34.617  1.00  0.00     0.198 A 
ATOM    110  C   UNL A   1      46.373  22.528  34.540  1.00  0.00     0.198 A 
ATOM    111  F   UNL A   1      48.050  23.975  33.904  1.00  0.00    -0.203 F 
ATOM    112  F   UNL A   1      42.819  22.940  34.849  1.00  0.00    -0.200 F 
ATOM    113  C   UNL A   1      45.060  22.242  34.829  1.00  0.00     0.200 A 
ATOM    114  F   UNL A   1      47.304  21.567  34.640  1.00  0.00    -0.200 F 
ATOM    115  F   UNL A   1      44.717  21.038  35.310  1.00  0.00    -0.200 F 
ENDBRANCH  82 105
ENDBRANCH  56  57
ENDBRANCH  49  51
ENDBRANCH  48  49
ENDBRANCH  47  48
ENDBRANCH  46  47
ENDBRANCH  45  46
ENDBRANCH   1  45
TORSDOF 20
ENDMDL
