MODEL 1
REMARK VINA RESULT:     -12.1      0.000      0.000
REMARK SMILES O=C(CC1(CC(=O)OCCOC(=O)c2ccc(-c3c4nc(c(-c5c(F)c(F)c(F)c(F)c5F)c5ccc([nH]5)c(-c5c(F)c(F)c(F)c(F)c5F)c5nc(c(-c6c(F)c(F)c(F)c(F)c6F)c6ccc3[nH]6)C=C5)C=C4)cc2)CCCCC1)NNC(=O)C1CC1
REMARK SMILES IDX 8 1 6 2 7 3 5 4 4 5 77 6 81 7 78 8 80 9 79 10 3 11 2 12 1 13
REMARK SMILES IDX 82 14 83 16 84 17 85 19 86 20 87 21 88 22 9 23 10 24 11 25
REMARK SMILES IDX 12 26 13 27 14 28 15 29 76 30 16 31 75 32 17 33 18 34 19 35
REMARK SMILES IDX 69 36 20 37 74 38 68 39 70 40 21 41 73 42 67 43 66 44 22 46
REMARK SMILES IDX 54 47 34 48 53 49 35 50 38 51 52 52 71 53 36 54 37 55 51 57
REMARK SMILES IDX 72 58 39 59 23 60 24 61 32 62 25 63 26 64 30 65 33 66 27 67
REMARK SMILES IDX 28 68 31 69 29 70 55 71 56 72 64 73 57 74 58 75 62 76 65 77
REMARK SMILES IDX 59 78 60 79 63 80 61 81 40 82 41 83 49 84 42 85 43 86 47 87
REMARK SMILES IDX 50 88 44 89 45 90 48 91 46 92
REMARK H PARENT 82 15 83 18 70 45 38 56
REMARK Flexibility Score: inf
ROOT
ATOM      1  O   UNL A   1      31.361  30.033  26.069  1.00  0.00    -0.462 OA
ENDROOT
BRANCH   1   2
ATOM      2  C   UNL A   1      31.543  28.782  26.532  1.00  0.00     0.306 C 
ATOM      3  O   UNL A   1      31.797  28.512  27.702  1.00  0.00    -0.252 OA
BRANCH   2   4
ATOM      4  C   UNL A   1      31.394  27.719  25.477  1.00  0.00     0.130 C 
BRANCH   4   5
ATOM      5  C   UNL A   1      32.298  27.534  24.180  1.00  0.00    -0.010 C 
ATOM      6  C   UNL A   1      31.863  26.083  23.712  1.00  0.00     0.008 C 
ATOM      7  C   UNL A   1      33.796  27.417  24.515  1.00  0.00     0.008 C 
ATOM      8  C   UNL A   1      32.096  24.978  24.755  1.00  0.00     0.001 C 
ATOM      9  C   UNL A   1      34.071  26.419  25.645  1.00  0.00     0.001 C 
ATOM     10  C   UNL A   1      33.481  25.026  25.401  1.00  0.00     0.000 C 
BRANCH   5  11
ATOM     11  C   UNL A   1      32.085  28.474  22.855  1.00  0.00     0.109 C 
BRANCH  11  12
ATOM     12  C   UNL A   1      30.713  28.938  22.160  1.00  0.00     0.238 C 
ATOM     13  O   UNL A   1      29.697  28.244  22.242  1.00  0.00    -0.273 OA
ATOM     14  N   UNL A   1      30.654  30.221  21.584  1.00  0.00    -0.268 N 
ATOM     15  H   UNL A   1      31.447  30.801  21.642  1.00  0.00     0.191 HD
BRANCH  14  16
ATOM     16  N   UNL A   1      29.491  30.716  20.919  1.00  0.00    -0.267 N 
ATOM     17  C   UNL A   1      28.462  31.590  21.326  1.00  0.00     0.241 C 
ATOM     18  H   UNL A   1      29.387  30.382  19.999  1.00  0.00     0.191 HD
ATOM     19  O   UNL A   1      27.620  31.909  20.486  1.00  0.00    -0.273 OA
BRANCH  17  20
ATOM     20  C   UNL A   1      28.284  32.133  22.723  1.00  0.00     0.080 C 
ATOM     21  C   UNL A   1      27.396  31.487  23.782  1.00  0.00     0.014 C 
ATOM     22  C   UNL A   1      28.867  31.406  23.938  1.00  0.00     0.014 C 
ENDBRANCH  17  20
ENDBRANCH  14  16
ENDBRANCH  11  12
ENDBRANCH   5  11
ENDBRANCH   4   5
ENDBRANCH   2   4
ENDBRANCH   1   2
BRANCH   1  23
ATOM     23  C   UNL A   1      32.352  30.935  26.569  1.00  0.00     0.274 C 
BRANCH  23  24
ATOM     24  C   UNL A   1      31.612  32.172  27.051  1.00  0.00     0.275 C 
BRANCH  24  25
ATOM     25  O   UNL A   1      32.345  33.448  26.944  1.00  0.00    -0.458 OA
BRANCH  25  26
ATOM     26  C   UNL A   1      32.974  33.865  28.053  1.00  0.00     0.338 C 
ATOM     27  O   UNL A   1      32.654  34.888  28.673  1.00  0.00    -0.246 OA
BRANCH  26  28
ATOM     28  C   UNL A   1      34.224  33.364  28.597  1.00  0.00     0.060 A 
ATOM     29  C   UNL A   1      34.098  32.388  29.586  1.00  0.00     0.016 A 
ATOM     30  C   UNL A   1      35.341  34.229  28.635  1.00  0.00     0.016 A 
ATOM     31  C   UNL A   1      35.121  32.220  30.517  1.00  0.00     0.010 A 
ATOM     32  C   UNL A   1      36.409  33.999  29.492  1.00  0.00     0.010 A 
ATOM     33  C   UNL A   1      36.314  32.967  30.416  1.00  0.00    -0.014 A 
BRANCH  33  34
ATOM     34  C   UNL A   1      37.530  32.445  31.065  1.00  0.00     0.031 A 
ATOM     35  C   UNL A   1      37.980  32.844  32.431  1.00  0.00     0.074 A 
ATOM     36  C   UNL A   1      38.222  31.566  30.318  1.00  0.00     0.049 A 
ATOM     37  N   UNL A   1      38.951  32.333  33.142  1.00  0.00    -0.248 NA
ATOM     38  C   UNL A   1      37.281  33.963  33.078  1.00  0.00     0.031 C 
ATOM     39  C   UNL A   1      37.888  31.213  28.932  1.00  0.00     0.029 A 
ATOM     40  N   UNL A   1      39.293  30.775  30.611  1.00  0.00    -0.354 N 
ATOM     41  C   UNL A   1      38.980  33.056  34.325  1.00  0.00     0.074 A 
ATOM     42  C   UNL A   1      37.951  34.072  34.220  1.00  0.00     0.031 C 
ATOM     43  C   UNL A   1      38.651  30.190  28.542  1.00  0.00     0.029 A 
ATOM     44  C   UNL A   1      39.585  29.879  29.612  1.00  0.00     0.049 A 
ATOM     45  H   UNL A   1      39.804  30.840  31.450  1.00  0.00     0.167 HD
ATOM     46  C   UNL A   1      39.795  32.869  35.392  1.00  0.00     0.037 A 
ATOM     47  C   UNL A   1      40.504  28.902  29.568  1.00  0.00     0.037 A 
ATOM     48  C   UNL A   1      40.821  31.853  35.444  1.00  0.00     0.049 A 
ATOM     49  C   UNL A   1      41.370  28.709  30.769  1.00  0.00     0.074 A 
ATOM     50  C   UNL A   1      41.686  31.545  36.479  1.00  0.00     0.029 A 
ATOM     51  N   UNL A   1      41.126  30.984  34.401  1.00  0.00    -0.354 N 
ATOM     52  N   UNL A   1      41.344  29.350  31.914  1.00  0.00    -0.248 NA
ATOM     53  C   UNL A   1      42.396  27.670  30.674  1.00  0.00     0.031 C 
ATOM     54  C   UNL A   1      42.545  30.528  36.046  1.00  0.00     0.029 A 
ATOM     55  C   UNL A   1      42.183  30.159  34.759  1.00  0.00     0.049 A 
ATOM     56  H   UNL A   1      40.660  30.958  33.535  1.00  0.00     0.167 HD
ATOM     57  C   UNL A   1      42.352  28.793  32.681  1.00  0.00     0.074 A 
ATOM     58  C   UNL A   1      42.945  27.737  31.879  1.00  0.00     0.031 C 
ATOM     59  C   UNL A   1      42.760  29.130  33.929  1.00  0.00     0.037 A 
BRANCH  46  60
ATOM     60  C   UNL A   1      39.626  33.782  36.575  1.00  0.00     0.064 A 
ATOM     61  C   UNL A   1      40.198  35.063  36.605  1.00  0.00     0.173 A 
ATOM     62  C   UNL A   1      38.846  33.392  37.675  1.00  0.00     0.173 A 
ATOM     63  F   UNL A   1      40.956  35.488  35.584  1.00  0.00    -0.203 F 
ATOM     64  C   UNL A   1      40.019  35.906  37.702  1.00  0.00     0.198 A 
ATOM     65  C   UNL A   1      38.646  34.247  38.757  1.00  0.00     0.198 A 
ATOM     66  F   UNL A   1      38.266  32.183  37.699  1.00  0.00    -0.203 F 
ATOM     67  F   UNL A   1      40.612  37.108  37.724  1.00  0.00    -0.200 F 
ATOM     68  C   UNL A   1      39.241  35.500  38.774  1.00  0.00     0.200 A 
ATOM     69  F   UNL A   1      37.881  33.858  39.787  1.00  0.00    -0.200 F 
ATOM     70  F   UNL A   1      39.067  36.313  39.826  1.00  0.00    -0.200 F 
ENDBRANCH  46  60
BRANCH  47  71
ATOM     71  C   UNL A   1      40.602  28.052  28.357  1.00  0.00     0.064 A 
ATOM     72  C   UNL A   1      41.388  28.439  27.265  1.00  0.00     0.173 A 
ATOM     73  C   UNL A   1      39.975  26.798  28.301  1.00  0.00     0.173 A 
ATOM     74  F   UNL A   1      42.009  29.629  27.274  1.00  0.00    -0.203 F 
ATOM     75  C   UNL A   1      41.535  27.609  26.157  1.00  0.00     0.198 A 
ATOM     76  C   UNL A   1      40.150  25.954  27.208  1.00  0.00     0.198 A 
ATOM     77  F   UNL A   1      39.233  26.370  29.332  1.00  0.00    -0.203 F 
ATOM     78  F   UNL A   1      42.270  28.014  25.112  1.00  0.00    -0.200 F 
ATOM     79  C   UNL A   1      40.924  26.363  26.133  1.00  0.00     0.200 A 
ATOM     80  F   UNL A   1      39.585  24.739  27.205  1.00  0.00    -0.200 F 
ATOM     81  F   UNL A   1      41.083  25.556  25.075  1.00  0.00    -0.200 F 
ENDBRANCH  47  71
BRANCH  59  82
ATOM     82  C   UNL A   1      43.898  28.332  34.489  1.00  0.00     0.064 A 
ATOM     83  C   UNL A   1      45.228  28.761  34.355  1.00  0.00     0.173 A 
ATOM     84  C   UNL A   1      43.657  27.128  35.165  1.00  0.00     0.173 A 
ATOM     85  F   UNL A   1      45.508  29.894  33.694  1.00  0.00    -0.203 F 
ATOM     86  C   UNL A   1      46.278  27.995  34.851  1.00  0.00     0.198 A 
ATOM     87  C   UNL A   1      44.707  26.380  35.688  1.00  0.00     0.198 A 
ATOM     88  F   UNL A   1      42.403  26.677  35.318  1.00  0.00    -0.203 F 
ATOM     89  F   UNL A   1      47.543  28.392  34.660  1.00  0.00    -0.200 F 
ATOM     90  C   UNL A   1      46.016  26.809  35.522  1.00  0.00     0.200 A 
ATOM     91  F   UNL A   1      44.454  25.240  36.343  1.00  0.00    -0.200 F 
ATOM     92  F   UNL A   1      47.029  26.072  35.998  1.00  0.00    -0.200 F 
ENDBRANCH  59  82
ENDBRANCH  33  34
ENDBRANCH  26  28
ENDBRANCH  25  26
ENDBRANCH  24  25
ENDBRANCH  23  24
ENDBRANCH   1  23
TORSDOF 16
ENDMDL
MODEL 2
REMARK VINA RESULT:     -12.0      0.616      2.098
REMARK SMILES O=C(CC1(CC(=O)OCCOC(=O)c2ccc(-c3c4nc(c(-c5c(F)c(F)c(F)c(F)c5F)c5ccc([nH]5)c(-c5c(F)c(F)c(F)c(F)c5F)c5nc(c(-c6c(F)c(F)c(F)c(F)c6F)c6ccc3[nH]6)C=C5)C=C4)cc2)CCCCC1)NNC(=O)C1CC1
REMARK SMILES IDX 8 1 6 2 7 3 5 4 4 5 77 6 81 7 78 8 80 9 79 10 3 11 2 12 1 13
REMARK SMILES IDX 82 14 83 16 84 17 85 19 86 20 87 21 88 22 9 23 10 24 11 25
REMARK SMILES IDX 12 26 13 27 14 28 15 29 76 30 16 31 75 32 17 33 18 34 19 35
REMARK SMILES IDX 69 36 20 37 74 38 68 39 70 40 21 41 73 42 67 43 66 44 22 46
REMARK SMILES IDX 54 47 34 48 53 49 35 50 38 51 52 52 71 53 36 54 37 55 51 57
REMARK SMILES IDX 72 58 39 59 23 60 24 61 32 62 25 63 26 64 30 65 33 66 27 67
REMARK SMILES IDX 28 68 31 69 29 70 55 71 56 72 64 73 57 74 58 75 62 76 65 77
REMARK SMILES IDX 59 78 60 79 63 80 61 81 40 82 41 83 49 84 42 85 43 86 47 87
REMARK SMILES IDX 50 88 44 89 45 90 48 91 46 92
REMARK H PARENT 82 15 83 18 70 45 38 56
REMARK Flexibility Score: inf
ROOT
ATOM      1  O   UNL A   1      32.831  30.020  26.683  1.00  0.00    -0.462 OA
ENDROOT
BRANCH   1   2
ATOM      2  C   UNL A   1      32.420  28.781  27.013  1.00  0.00     0.306 C 
ATOM      3  O   UNL A   1      31.422  28.545  27.688  1.00  0.00    -0.252 OA
BRANCH   2   4
ATOM      4  C   UNL A   1      33.296  27.687  26.465  1.00  0.00     0.130 C 
BRANCH   4   5
ATOM      5  C   UNL A   1      33.183  27.007  25.030  1.00  0.00    -0.010 C 
ATOM      6  C   UNL A   1      31.726  26.384  25.105  1.00  0.00     0.008 C 
ATOM      7  C   UNL A   1      34.129  25.804  24.869  1.00  0.00     0.008 C 
ATOM      8  C   UNL A   1      31.520  25.379  26.251  1.00  0.00     0.001 C 
ATOM      9  C   UNL A   1      34.056  24.834  26.053  1.00  0.00     0.001 C 
ATOM     10  C   UNL A   1      32.639  24.344  26.369  1.00  0.00     0.000 C 
BRANCH   5  11
ATOM     11  C   UNL A   1      33.173  27.908  23.662  1.00  0.00     0.109 C 
BRANCH  11  12
ATOM     12  C   UNL A   1      31.938  28.266  22.700  1.00  0.00     0.238 C 
ATOM     13  O   UNL A   1      31.147  27.392  22.336  1.00  0.00    -0.273 OA
ATOM     14  N   UNL A   1      31.688  29.620  22.403  1.00  0.00    -0.268 N 
ATOM     15  H   UNL A   1      32.266  30.305  22.809  1.00  0.00     0.191 HD
BRANCH  14  16
ATOM     16  N   UNL A   1      30.633  30.039  21.538  1.00  0.00    -0.267 N 
ATOM     17  C   UNL A   1      29.336  30.532  21.788  1.00  0.00     0.241 C 
ATOM     18  H   UNL A   1      30.853  29.969  20.581  1.00  0.00     0.191 HD
ATOM     19  O   UNL A   1      28.670  30.901  20.822  1.00  0.00    -0.273 OA
BRANCH  17  20
ATOM     20  C   UNL A   1      28.680  30.603  23.146  1.00  0.00     0.080 C 
ATOM     21  C   UNL A   1      27.474  31.481  23.466  1.00  0.00     0.014 C 
ATOM     22  C   UNL A   1      27.288  30.012  23.388  1.00  0.00     0.014 C 
ENDBRANCH  17  20
ENDBRANCH  14  16
ENDBRANCH  11  12
ENDBRANCH   5  11
ENDBRANCH   4   5
ENDBRANCH   2   4
ENDBRANCH   1   2
BRANCH   1  23
ATOM     23  C   UNL A   1      31.791  30.779  26.064  1.00  0.00     0.274 C 
BRANCH  23  24
ATOM     24  C   UNL A   1      31.530  31.977  26.963  1.00  0.00     0.275 C 
BRANCH  24  25
ATOM     25  O   UNL A   1      32.433  33.131  26.783  1.00  0.00    -0.458 OA
BRANCH  25  26
ATOM     26  C   UNL A   1      33.036  33.590  27.889  1.00  0.00     0.338 C 
ATOM     27  O   UNL A   1      32.685  34.622  28.477  1.00  0.00    -0.246 OA
BRANCH  26  28
ATOM     28  C   UNL A   1      34.288  33.131  28.465  1.00  0.00     0.060 A 
ATOM     29  C   UNL A   1      34.169  32.158  29.458  1.00  0.00     0.016 A 
ATOM     30  C   UNL A   1      35.377  34.029  28.522  1.00  0.00     0.016 A 
ATOM     31  C   UNL A   1      35.175  32.027  30.412  1.00  0.00     0.010 A 
ATOM     32  C   UNL A   1      36.432  33.838  29.404  1.00  0.00     0.010 A 
ATOM     33  C   UNL A   1      36.348  32.809  30.333  1.00  0.00    -0.014 A 
BRANCH  33  34
ATOM     34  C   UNL A   1      37.564  32.329  31.013  1.00  0.00     0.031 A 
ATOM     35  C   UNL A   1      37.975  32.756  32.382  1.00  0.00     0.074 A 
ATOM     36  C   UNL A   1      38.294  31.459  30.291  1.00  0.00     0.049 A 
ATOM     37  N   UNL A   1      38.945  32.280  33.119  1.00  0.00    -0.248 NA
ATOM     38  C   UNL A   1      37.233  33.864  33.000  1.00  0.00     0.031 C 
ATOM     39  C   UNL A   1      37.997  31.079  28.904  1.00  0.00     0.029 A 
ATOM     40  N   UNL A   1      39.380  30.700  30.615  1.00  0.00    -0.354 N 
ATOM     41  C   UNL A   1      38.930  33.019  34.292  1.00  0.00     0.074 A 
ATOM     42  C   UNL A   1      37.878  34.005  34.154  1.00  0.00     0.031 C 
ATOM     43  C   UNL A   1      38.795  30.073  28.542  1.00  0.00     0.029 A 
ATOM     44  C   UNL A   1      39.715  29.801  29.634  1.00  0.00     0.049 A 
ATOM     45  H   UNL A   1      39.871  30.790  31.463  1.00  0.00     0.167 HD
ATOM     46  C   UNL A   1      39.729  32.867  35.378  1.00  0.00     0.037 A 
ATOM     47  C   UNL A   1      40.660  28.849  29.621  1.00  0.00     0.037 A 
ATOM     48  C   UNL A   1      40.781  31.881  35.463  1.00  0.00     0.049 A 
ATOM     49  C   UNL A   1      41.507  28.694  30.842  1.00  0.00     0.074 A 
ATOM     50  C   UNL A   1      41.633  31.609  36.519  1.00  0.00     0.029 A 
ATOM     51  N   UNL A   1      41.130  31.007  34.438  1.00  0.00    -0.354 N 
ATOM     52  N   UNL A   1      41.442  29.348  31.977  1.00  0.00    -0.248 NA
ATOM     53  C   UNL A   1      42.563  27.682  30.780  1.00  0.00     0.031 C 
ATOM     54  C   UNL A   1      42.527  30.610  36.116  1.00  0.00     0.029 A 
ATOM     55  C   UNL A   1      42.201  30.215  34.827  1.00  0.00     0.049 A 
ATOM     56  H   UNL A   1      40.682  30.957  33.563  1.00  0.00     0.167 HD
ATOM     57  C   UNL A   1      42.448  28.828  32.771  1.00  0.00     0.074 A 
ATOM     58  C   UNL A   1      43.085  27.779  31.995  1.00  0.00     0.031 C 
ATOM     59  C   UNL A   1      42.821  29.191  34.023  1.00  0.00     0.037 A 
BRANCH  46  60
ATOM     60  C   UNL A   1      39.512  33.790  36.545  1.00  0.00     0.064 A 
ATOM     61  C   UNL A   1      38.745  33.407  37.656  1.00  0.00     0.173 A 
ATOM     62  C   UNL A   1      40.114  35.058  36.577  1.00  0.00     0.173 A 
ATOM     63  F   UNL A   1      38.143  32.208  37.680  1.00  0.00    -0.203 F 
ATOM     64  C   UNL A   1      38.566  34.267  38.739  1.00  0.00     0.198 A 
ATOM     65  C   UNL A   1      39.955  35.904  37.673  1.00  0.00     0.198 A 
ATOM     66  F   UNL A   1      40.867  35.476  35.549  1.00  0.00    -0.203 F 
ATOM     67  F   UNL A   1      37.793  33.893  39.768  1.00  0.00    -0.200 F 
ATOM     68  C   UNL A   1      39.174  35.512  38.749  1.00  0.00     0.200 A 
ATOM     69  F   UNL A   1      40.556  37.103  37.686  1.00  0.00    -0.200 F 
ATOM     70  F   UNL A   1      39.004  36.336  39.793  1.00  0.00    -0.200 F 
ENDBRANCH  46  60
BRANCH  47  71
ATOM     71  C   UNL A   1      40.806  27.986  28.424  1.00  0.00     0.064 A 
ATOM     72  C   UNL A   1      40.128  26.765  28.327  1.00  0.00     0.173 A 
ATOM     73  C   UNL A   1      41.565  28.403  27.319  1.00  0.00     0.173 A 
ATOM     74  F   UNL A   1      39.389  26.325  29.357  1.00  0.00    -0.203 F 
ATOM     75  C   UNL A   1      40.212  25.987  27.175  1.00  0.00     0.198 A 
ATOM     76  C   UNL A   1      41.620  27.643  26.155  1.00  0.00     0.198 A 
ATOM     77  F   UNL A   1      42.212  29.577  27.352  1.00  0.00    -0.203 F 
ATOM     78  F   UNL A   1      39.576  24.809  27.117  1.00  0.00    -0.200 F 
ATOM     79  C   UNL A   1      40.949  26.431  26.086  1.00  0.00     0.200 A 
ATOM     80  F   UNL A   1      42.306  28.092  25.096  1.00  0.00    -0.200 F 
ATOM     81  F   UNL A   1      41.011  25.692  24.970  1.00  0.00    -0.200 F 
ENDBRANCH  47  71
BRANCH  59  82
ATOM     82  C   UNL A   1      43.970  28.432  34.616  1.00  0.00     0.064 A 
ATOM     83  C   UNL A   1      43.768  27.238  35.325  1.00  0.00     0.173 A 
ATOM     84  C   UNL A   1      45.282  28.903  34.474  1.00  0.00     0.173 A 
ATOM     85  F   UNL A   1      42.526  26.762  35.508  1.00  0.00    -0.203 F 
ATOM     86  C   UNL A   1      44.838  26.559  35.899  1.00  0.00     0.198 A 
ATOM     87  C   UNL A   1      46.354  28.205  35.021  1.00  0.00     0.198 A 
ATOM     88  F   UNL A   1      45.524  30.039  33.804  1.00  0.00    -0.203 F 
ATOM     89  F   UNL A   1      44.618  25.454  36.623  1.00  0.00    -0.200 F 
ATOM     90  C   UNL A   1      46.130  27.040  35.741  1.00  0.00     0.200 A 
ATOM     91  F   UNL A   1      47.601  28.664  34.860  1.00  0.00    -0.200 F 
ATOM     92  F   UNL A   1      47.161  26.386  36.294  1.00  0.00    -0.200 F 
ENDBRANCH  59  82
ENDBRANCH  33  34
ENDBRANCH  26  28
ENDBRANCH  25  26
ENDBRANCH  24  25
ENDBRANCH  23  24
ENDBRANCH   1  23
TORSDOF 16
ENDMDL
MODEL 3
REMARK VINA RESULT:     -11.9      3.474      5.333
REMARK SMILES O=C(CC1(CC(=O)OCCOC(=O)c2ccc(-c3c4nc(c(-c5c(F)c(F)c(F)c(F)c5F)c5ccc([nH]5)c(-c5c(F)c(F)c(F)c(F)c5F)c5nc(c(-c6c(F)c(F)c(F)c(F)c6F)c6ccc3[nH]6)C=C5)C=C4)cc2)CCCCC1)NNC(=O)C1CC1
REMARK SMILES IDX 8 1 6 2 7 3 5 4 4 5 77 6 81 7 78 8 80 9 79 10 3 11 2 12 1 13
REMARK SMILES IDX 82 14 83 16 84 17 85 19 86 20 87 21 88 22 9 23 10 24 11 25
REMARK SMILES IDX 12 26 13 27 14 28 15 29 76 30 16 31 75 32 17 33 18 34 19 35
REMARK SMILES IDX 69 36 20 37 74 38 68 39 70 40 21 41 73 42 67 43 66 44 22 46
REMARK SMILES IDX 54 47 34 48 53 49 35 50 38 51 52 52 71 53 36 54 37 55 51 57
REMARK SMILES IDX 72 58 39 59 23 60 24 61 32 62 25 63 26 64 30 65 33 66 27 67
REMARK SMILES IDX 28 68 31 69 29 70 55 71 56 72 64 73 57 74 58 75 62 76 65 77
REMARK SMILES IDX 59 78 60 79 63 80 61 81 40 82 41 83 49 84 42 85 43 86 47 87
REMARK SMILES IDX 50 88 44 89 45 90 48 91 46 92
REMARK H PARENT 82 15 83 18 70 45 38 56
REMARK Flexibility Score: inf
ROOT
ATOM      1  O   UNL A   1      33.324  27.274  25.063  1.00  0.00    -0.462 OA
ENDROOT
BRANCH   1   2
ATOM      2  C   UNL A   1      33.250  26.005  24.620  1.00  0.00     0.306 C 
ATOM      3  O   UNL A   1      32.411  25.605  23.817  1.00  0.00    -0.252 OA
BRANCH   2   4
ATOM      4  C   UNL A   1      34.308  25.100  25.192  1.00  0.00     0.130 C 
BRANCH   4   5
ATOM      5  C   UNL A   1      34.234  23.516  25.322  1.00  0.00    -0.010 C 
ATOM      6  C   UNL A   1      35.524  23.224  26.198  1.00  0.00     0.008 C 
ATOM      7  C   UNL A   1      34.487  22.800  23.983  1.00  0.00     0.008 C 
ATOM      8  C   UNL A   1      36.844  23.703  25.572  1.00  0.00     0.001 C 
ATOM      9  C   UNL A   1      35.724  23.334  23.253  1.00  0.00     0.001 C 
ATOM     10  C   UNL A   1      37.000  23.319  24.100  1.00  0.00     0.000 C 
BRANCH   5  11
ATOM     11  C   UNL A   1      33.013  22.787  26.134  1.00  0.00     0.109 C 
BRANCH  11  12
ATOM     12  C   UNL A   1      32.487  21.273  26.015  1.00  0.00     0.238 C 
ATOM     13  O   UNL A   1      31.466  21.008  25.376  1.00  0.00    -0.273 OA
ATOM     14  N   UNL A   1      33.294  20.240  26.528  1.00  0.00    -0.268 N 
ATOM     15  H   UNL A   1      34.164  20.474  26.926  1.00  0.00     0.191 HD
BRANCH  14  16
ATOM     16  N   UNL A   1      32.904  18.867  26.496  1.00  0.00    -0.267 N 
ATOM     17  C   UNL A   1      33.078  17.851  25.534  1.00  0.00     0.241 C 
ATOM     18  H   UNL A   1      32.419  18.573  27.300  1.00  0.00     0.191 HD
ATOM     19  O   UNL A   1      32.703  16.716  25.829  1.00  0.00    -0.273 OA
BRANCH  17  20
ATOM     20  C   UNL A   1      33.649  18.051  24.152  1.00  0.00     0.080 C 
ATOM     21  C   UNL A   1      33.727  16.954  23.094  1.00  0.00     0.014 C 
ATOM     22  C   UNL A   1      32.749  18.053  22.913  1.00  0.00     0.014 C 
ENDBRANCH  17  20
ENDBRANCH  14  16
ENDBRANCH  11  12
ENDBRANCH   5  11
ENDBRANCH   4   5
ENDBRANCH   2   4
ENDBRANCH   1   2
BRANCH   1  23
ATOM     23  C   UNL A   1      32.083  27.965  24.912  1.00  0.00     0.274 C 
BRANCH  23  24
ATOM     24  C   UNL A   1      32.065  29.065  25.960  1.00  0.00     0.275 C 
BRANCH  24  25
ATOM     25  O   UNL A   1      33.041  30.156  25.772  1.00  0.00    -0.458 OA
BRANCH  25  26
ATOM     26  C   UNL A   1      33.396  30.831  26.874  1.00  0.00     0.338 C 
ATOM     27  O   UNL A   1      32.897  31.917  27.197  1.00  0.00    -0.246 OA
BRANCH  26  28
ATOM     28  C   UNL A   1      34.527  30.563  27.746  1.00  0.00     0.060 A 
ATOM     29  C   UNL A   1      35.342  31.661  28.024  1.00  0.00     0.016 A 
ATOM     30  C   UNL A   1      35.106  29.274  27.726  1.00  0.00     0.016 A 
ATOM     31  C   UNL A   1      36.673  31.453  28.378  1.00  0.00     0.010 A 
ATOM     32  C   UNL A   1      36.401  29.053  28.179  1.00  0.00     0.010 A 
ATOM     33  C   UNL A   1      37.178  30.145  28.540  1.00  0.00    -0.014 A 
BRANCH  33  34
ATOM     34  C   UNL A   1      38.382  29.951  29.369  1.00  0.00     0.031 A 
ATOM     35  C   UNL A   1      38.535  30.490  30.751  1.00  0.00     0.074 A 
ATOM     36  C   UNL A   1      39.355  29.239  28.771  1.00  0.00     0.049 A 
ATOM     37  N   UNL A   1      39.492  30.250  31.610  1.00  0.00    -0.248 NA
ATOM     38  C   UNL A   1      37.513  31.429  31.232  1.00  0.00     0.031 C 
ATOM     39  C   UNL A   1      39.304  28.771  27.380  1.00  0.00     0.029 A 
ATOM     40  N   UNL A   1      40.530  28.737  29.246  1.00  0.00    -0.354 N 
ATOM     41  C   UNL A   1      39.189  30.997  32.738  1.00  0.00     0.074 A 
ATOM     42  C   UNL A   1      37.976  31.733  32.440  1.00  0.00     0.031 C 
ATOM     43  C   UNL A   1      40.331  27.949  27.155  1.00  0.00     0.029 A 
ATOM     44  C   UNL A   1      41.157  27.905  28.351  1.00  0.00     0.049 A 
ATOM     45  H   UNL A   1      40.892  28.950  30.137  1.00  0.00     0.167 HD
ATOM     46  C   UNL A   1      39.872  31.045  33.909  1.00  0.00     0.037 A 
ATOM     47  C   UNL A   1      42.275  27.176  28.485  1.00  0.00     0.037 A 
ATOM     48  C   UNL A   1      41.090  30.308  34.154  1.00  0.00     0.049 A 
ATOM     49  C   UNL A   1      42.989  27.236  29.795  1.00  0.00     0.074 A 
ATOM     50  C   UNL A   1      41.853  30.249  35.306  1.00  0.00     0.029 A 
ATOM     51  N   UNL A   1      41.728  29.503  33.215  1.00  0.00    -0.354 N 
ATOM     52  N   UNL A   1      42.659  27.888  30.884  1.00  0.00    -0.248 NA
ATOM     53  C   UNL A   1      44.233  26.470  29.896  1.00  0.00     0.031 C 
ATOM     54  C   UNL A   1      42.976  29.454  35.050  1.00  0.00     0.029 A 
ATOM     55  C   UNL A   1      42.889  28.967  33.754  1.00  0.00     0.049 A 
ATOM     56  H   UNL A   1      41.404  29.338  32.300  1.00  0.00     0.167 HD
ATOM     57  C   UNL A   1      43.654  27.614  31.805  1.00  0.00     0.074 A 
ATOM     58  C   UNL A   1      44.581  26.706  31.153  1.00  0.00     0.031 C 
ATOM     59  C   UNL A   1      43.798  28.080  33.071  1.00  0.00     0.037 A 
BRANCH  46  60
ATOM     60  C   UNL A   1      39.335  31.930  35.000  1.00  0.00     0.064 A 
ATOM     61  C   UNL A   1      39.556  33.315  35.003  1.00  0.00     0.173 A 
ATOM     62  C   UNL A   1      38.550  31.394  36.034  1.00  0.00     0.173 A 
ATOM     63  F   UNL A   1      40.301  33.882  34.041  1.00  0.00    -0.203 F 
ATOM     64  C   UNL A   1      39.037  34.126  36.012  1.00  0.00     0.198 A 
ATOM     65  C   UNL A   1      38.011  32.211  37.026  1.00  0.00     0.198 A 
ATOM     66  F   UNL A   1      38.296  30.078  36.079  1.00  0.00    -0.203 F 
ATOM     67  F   UNL A   1      39.301  35.440  36.015  1.00  0.00    -0.200 F 
ATOM     68  C   UNL A   1      38.262  33.574  37.020  1.00  0.00     0.200 A 
ATOM     69  F   UNL A   1      37.249  31.678  37.992  1.00  0.00    -0.200 F 
ATOM     70  F   UNL A   1      37.761  34.356  37.987  1.00  0.00    -0.200 F 
ENDBRANCH  46  60
BRANCH  47  71
ATOM     71  C   UNL A   1      42.733  26.335  27.353  1.00  0.00     0.064 A 
ATOM     72  C   UNL A   1      43.741  26.778  26.488  1.00  0.00     0.173 A 
ATOM     73  C   UNL A   1      42.228  25.040  27.163  1.00  0.00     0.173 A 
ATOM     74  F   UNL A   1      44.256  28.008  26.631  1.00  0.00    -0.203 F 
ATOM     75  C   UNL A   1      44.219  25.960  25.466  1.00  0.00     0.198 A 
ATOM     76  C   UNL A   1      42.730  24.211  26.164  1.00  0.00     0.198 A 
ATOM     77  F   UNL A   1      41.281  24.560  27.982  1.00  0.00    -0.203 F 
ATOM     78  F   UNL A   1      45.164  26.416  24.633  1.00  0.00    -0.200 F 
ATOM     79  C   UNL A   1      43.721  24.674  25.312  1.00  0.00     0.200 A 
ATOM     80  F   UNL A   1      42.269  22.959  26.041  1.00  0.00    -0.200 F 
ATOM     81  F   UNL A   1      44.196  23.881  24.342  1.00  0.00    -0.200 F 
ENDBRANCH  47  71
BRANCH  59  82
ATOM     82  C   UNL A   1      45.004  27.596  33.819  1.00  0.00     0.064 A 
ATOM     83  C   UNL A   1      44.961  26.431  34.600  1.00  0.00     0.173 A 
ATOM     84  C   UNL A   1      46.211  28.305  33.754  1.00  0.00     0.173 A 
ATOM     85  F   UNL A   1      43.819  25.735  34.712  1.00  0.00    -0.203 F 
ATOM     86  C   UNL A   1      46.078  26.012  35.316  1.00  0.00     0.198 A 
ATOM     87  C   UNL A   1      47.335  27.865  34.445  1.00  0.00     0.198 A 
ATOM     88  F   UNL A   1      46.299  29.425  33.019  1.00  0.00    -0.203 F 
ATOM     89  F   UNL A   1      45.999  24.931  36.104  1.00  0.00    -0.200 F 
ATOM     90  C   UNL A   1      47.265  26.725  35.233  1.00  0.00     0.200 A 
ATOM     91  F   UNL A   1      48.483  28.549  34.357  1.00  0.00    -0.200 F 
ATOM     92  F   UNL A   1      48.339  26.320  35.923  1.00  0.00    -0.200 F 
ENDBRANCH  59  82
ENDBRANCH  33  34
ENDBRANCH  26  28
ENDBRANCH  25  26
ENDBRANCH  24  25
ENDBRANCH  23  24
ENDBRANCH   1  23
TORSDOF 16
ENDMDL
