MODEL 1
REMARK VINA RESULT:     -13.6      0.000      0.000
REMARK SMILES O=C(OCCOC(=O)[C@@]1(c2ccccc2)CCCC[NH2+]1)c1ccc(-c2c3nc(c(-c4c(F)c(F)c(F)c(F)c4F)c4ccc([nH]4)c(-c4c(F)c(F)c(F)c(F)c4F)c4nc(c(-c5c(F)c(F)c(F)c(F)c5F)c5ccc2[nH]5)C=C4)C=C3)cc1
REMARK SMILES IDX 4 1 3 2 2 3 1 4 21 5 22 6 83 7 23 8 82 9 24 10 25 11 26 12
REMARK SMILES IDX 76 13 27 14 81 15 75 16 77 17 28 18 80 19 74 20 73 21 29 23
REMARK SMILES IDX 61 24 41 25 60 26 42 27 45 28 59 29 78 30 43 31 44 32 58 34
REMARK SMILES IDX 79 35 46 36 30 37 31 38 39 39 32 40 33 41 37 42 40 43 34 44
REMARK SMILES IDX 35 45 38 46 36 47 62 48 63 49 71 50 64 51 65 52 69 53 72 54
REMARK SMILES IDX 66 55 67 56 70 57 68 58 47 59 48 60 56 61 49 62 50 63 54 64
REMARK SMILES IDX 57 65 51 66 52 67 55 68 53 69 5 70 6 71 7 72 8 73 9 74 16 75
REMARK SMILES IDX 20 76 17 77 19 78 18 81 10 82 11 83 15 84 12 85 14 86 13 87
REMARK H PARENT 77 22 45 33 20 79 20 80
REMARK Flexibility Score: inf
ROOT
ATOM      1  C   UNL A   1      38.583  21.208  25.347  1.00  0.00     0.275 C 
ENDROOT
BRANCH   1   2
ATOM      2  O   UNL A   1      39.657  21.352  26.327  1.00  0.00    -0.458 OA
BRANCH   2   3
ATOM      3  C   UNL A   1      40.775  22.151  26.129  1.00  0.00     0.338 C 
ATOM      4  O   UNL A   1      41.700  21.809  25.407  1.00  0.00    -0.246 OA
BRANCH   3   5
ATOM      5  C   UNL A   1      41.005  23.181  27.216  1.00  0.00     0.060 A 
ATOM      6  C   UNL A   1      42.454  23.961  26.990  1.00  0.00     0.016 A 
ATOM      7  C   UNL A   1      39.609  24.036  27.808  1.00  0.00     0.016 A 
ATOM      8  C   UNL A   1      42.549  25.702  27.193  1.00  0.00     0.010 A 
ATOM      9  C   UNL A   1      39.563  25.749  28.156  1.00  0.00     0.010 A 
ATOM     10  C   UNL A   1      41.031  26.722  27.893  1.00  0.00    -0.014 A 
BRANCH  10  11
ATOM     11  C   UNL A   1      40.842  27.936  29.077  1.00  0.00     0.031 A 
ATOM     12  C   UNL A   1      39.620  28.978  29.076  1.00  0.00     0.074 A 
ATOM     13  C   UNL A   1      41.634  28.042  30.168  1.00  0.00     0.049 A 
ATOM     14  N   UNL A   1      39.067  29.614  30.104  1.00  0.00    -0.248 NA
ATOM     15  C   UNL A   1      38.935  29.338  27.819  1.00  0.00     0.031 C 
ATOM     16  C   UNL A   1      42.877  27.333  30.345  1.00  0.00     0.029 A 
ATOM     17  N   UNL A   1      41.440  28.642  31.403  1.00  0.00    -0.354 N 
ATOM     18  C   UNL A   1      37.988  30.365  29.602  1.00  0.00     0.074 A 
ATOM     19  C   UNL A   1      37.913  30.087  28.198  1.00  0.00     0.031 C 
ATOM     20  C   UNL A   1      43.211  27.300  31.635  1.00  0.00     0.029 A 
ATOM     21  C   UNL A   1      42.310  28.168  32.373  1.00  0.00     0.049 A 
ATOM     22  H   UNL A   1      40.758  29.331  31.573  1.00  0.00     0.167 HD
ATOM     23  C   UNL A   1      37.166  31.275  30.190  1.00  0.00     0.037 A 
ATOM     24  C   UNL A   1      42.415  28.385  33.701  1.00  0.00     0.037 A 
ATOM     25  C   UNL A   1      37.299  31.731  31.545  1.00  0.00     0.049 A 
ATOM     26  C   UNL A   1      41.504  29.392  34.337  1.00  0.00     0.074 A 
ATOM     27  C   UNL A   1      36.561  32.700  32.207  1.00  0.00     0.029 A 
ATOM     28  N   UNL A   1      38.277  31.300  32.420  1.00  0.00    -0.354 N 
ATOM     29  N   UNL A   1      40.455  29.991  33.833  1.00  0.00    -0.248 NA
ATOM     30  C   UNL A   1      41.843  29.813  35.703  1.00  0.00     0.031 C 
ATOM     31  C   UNL A   1      37.155  32.920  33.453  1.00  0.00     0.029 A 
ATOM     32  C   UNL A   1      38.205  32.030  33.592  1.00  0.00     0.049 A 
ATOM     33  H   UNL A   1      38.925  30.581  32.237  1.00  0.00     0.167 HD
ATOM     34  C   UNL A   1      40.051  30.906  34.793  1.00  0.00     0.074 A 
ATOM     35  C   UNL A   1      40.907  30.719  35.944  1.00  0.00     0.031 C 
ATOM     36  C   UNL A   1      39.089  31.855  34.710  1.00  0.00     0.037 A 
BRANCH  23  37
ATOM     37  C   UNL A   1      36.106  31.962  29.351  1.00  0.00     0.064 A 
ATOM     38  C   UNL A   1      35.006  31.269  28.820  1.00  0.00     0.173 A 
ATOM     39  C   UNL A   1      36.143  33.356  29.167  1.00  0.00     0.173 A 
ATOM     40  F   UNL A   1      34.916  29.939  28.960  1.00  0.00    -0.203 F 
ATOM     41  C   UNL A   1      33.990  31.944  28.140  1.00  0.00     0.198 A 
ATOM     42  C   UNL A   1      35.116  34.028  28.504  1.00  0.00     0.198 A 
ATOM     43  F   UNL A   1      37.163  34.074  29.658  1.00  0.00    -0.203 F 
ATOM     44  F   UNL A   1      32.954  31.261  27.631  1.00  0.00    -0.200 F 
ATOM     45  C   UNL A   1      34.040  33.323  27.990  1.00  0.00     0.200 A 
ATOM     46  F   UNL A   1      35.162  35.362  28.373  1.00  0.00    -0.200 F 
ATOM     47  F   UNL A   1      33.053  33.970  27.353  1.00  0.00    -0.200 F 
ENDBRANCH  23  37
BRANCH  24  48
ATOM     48  C   UNL A   1      43.501  27.722  34.495  1.00  0.00     0.064 A 
ATOM     49  C   UNL A   1      44.789  28.271  34.602  1.00  0.00     0.173 A 
ATOM     50  C   UNL A   1      43.270  26.507  35.164  1.00  0.00     0.173 A 
ATOM     51  F   UNL A   1      45.095  29.402  33.950  1.00  0.00    -0.203 F 
ATOM     52  C   UNL A   1      45.786  27.638  35.348  1.00  0.00     0.198 A 
ATOM     53  C   UNL A   1      44.242  25.916  35.966  1.00  0.00     0.198 A 
ATOM     54  F   UNL A   1      42.077  25.902  35.069  1.00  0.00    -0.203 F 
ATOM     55  F   UNL A   1      47.025  28.147  35.379  1.00  0.00    -0.200 F 
ATOM     56  C   UNL A   1      45.505  26.474  36.049  1.00  0.00     0.200 A 
ATOM     57  F   UNL A   1      43.948  24.808  36.660  1.00  0.00    -0.200 F 
ATOM     58  F   UNL A   1      46.453  25.883  36.788  1.00  0.00    -0.200 F 
ENDBRANCH  24  48
BRANCH  36  59
ATOM     59  C   UNL A   1      38.956  32.795  35.867  1.00  0.00     0.064 A 
ATOM     60  C   UNL A   1      38.250  32.422  37.021  1.00  0.00     0.173 A 
ATOM     61  C   UNL A   1      39.567  34.054  35.842  1.00  0.00     0.173 A 
ATOM     62  F   UNL A   1      37.641  31.228  37.086  1.00  0.00    -0.203 F 
ATOM     63  C   UNL A   1      38.135  33.294  38.099  1.00  0.00     0.198 A 
ATOM     64  C   UNL A   1      39.476  34.910  36.934  1.00  0.00     0.198 A 
ATOM     65  F   UNL A   1      40.262  34.448  34.764  1.00  0.00    -0.203 F 
ATOM     66  F   UNL A   1      37.415  32.939  39.171  1.00  0.00    -0.200 F 
ATOM     67  C   UNL A   1      38.754  34.534  38.056  1.00  0.00     0.200 A 
ATOM     68  F   UNL A   1      40.089  36.103  36.899  1.00  0.00    -0.200 F 
ATOM     69  F   UNL A   1      38.647  35.371  39.097  1.00  0.00    -0.200 F 
ENDBRANCH  36  59
ENDBRANCH  10  11
ENDBRANCH   3   5
ENDBRANCH   2   3
ENDBRANCH   1   2
BRANCH   1  70
ATOM     70  C   UNL A   1      37.244  21.953  25.716  1.00  0.00     0.274 C 
BRANCH  70  71
ATOM     71  O   UNL A   1      36.077  21.239  25.245  1.00  0.00    -0.457 OA
BRANCH  71  72
ATOM     72  C   UNL A   1      34.842  21.350  25.793  1.00  0.00     0.373 C 
ATOM     73  O   UNL A   1      34.690  21.462  27.006  1.00  0.00    -0.244 OA
BRANCH  72  74
ATOM     74  C   UNL A   1      33.605  21.330  24.644  1.00  0.00     0.219 C 
ATOM     75  C   UNL A   1      31.901  21.656  25.415  1.00  0.00     0.087 C 
ATOM     76  N   UNL A   1      34.038  22.389  23.373  1.00  0.00    -0.328 N 
ATOM     77  C   UNL A   1      31.036  23.685  25.398  1.00  0.00     0.013 C 
ATOM     78  C   UNL A   1      33.566  24.097  23.277  1.00  0.00     0.261 C 
ATOM     79  H   UNL A   1      33.678  21.957  22.523  1.00  0.00     0.347 HD
ATOM     80  H   UNL A   1      35.041  22.481  23.541  1.00  0.00     0.347 HD
ATOM     81  C   UNL A   1      32.078  24.911  24.208  1.00  0.00     0.062 C 
BRANCH  74  82
ATOM     82  C   UNL A   1      33.456  19.779  24.253  1.00  0.00     0.024 A 
ATOM     83  C   UNL A   1      34.383  18.797  24.627  1.00  0.00     0.011 A 
ATOM     84  C   UNL A   1      32.531  19.377  23.247  1.00  0.00     0.011 A 
ATOM     85  C   UNL A   1      34.370  17.500  24.077  1.00  0.00     0.001 A 
ATOM     86  C   UNL A   1      32.504  18.080  22.705  1.00  0.00     0.001 A 
ATOM     87  C   UNL A   1      33.431  17.139  23.120  1.00  0.00     0.000 A 
ENDBRANCH  74  82
ENDBRANCH  72  74
ENDBRANCH  71  72
ENDBRANCH  70  71
ENDBRANCH   1  70
TORSDOF 12
ENDMDL
MODEL 2
REMARK VINA RESULT:     -13.6      0.234      1.188
REMARK SMILES O=C(OCCOC(=O)[C@@]1(c2ccccc2)CCCC[NH2+]1)c1ccc(-c2c3nc(c(-c4c(F)c(F)c(F)c(F)c4F)c4ccc([nH]4)c(-c4c(F)c(F)c(F)c(F)c4F)c4nc(c(-c5c(F)c(F)c(F)c(F)c5F)c5ccc2[nH]5)C=C4)C=C3)cc1
REMARK SMILES IDX 4 1 3 2 2 3 1 4 21 5 22 6 83 7 23 8 82 9 24 10 25 11 26 12
REMARK SMILES IDX 76 13 27 14 81 15 75 16 77 17 28 18 80 19 74 20 73 21 29 23
REMARK SMILES IDX 61 24 41 25 60 26 42 27 45 28 59 29 78 30 43 31 44 32 58 34
REMARK SMILES IDX 79 35 46 36 30 37 31 38 39 39 32 40 33 41 37 42 40 43 34 44
REMARK SMILES IDX 35 45 38 46 36 47 62 48 63 49 71 50 64 51 65 52 69 53 72 54
REMARK SMILES IDX 66 55 67 56 70 57 68 58 47 59 48 60 56 61 49 62 50 63 54 64
REMARK SMILES IDX 57 65 51 66 52 67 55 68 53 69 5 70 6 71 7 72 8 73 9 74 16 75
REMARK SMILES IDX 20 76 17 77 19 78 18 81 10 82 11 83 15 84 12 85 14 86 13 87
REMARK H PARENT 77 22 45 33 20 79 20 80
REMARK Flexibility Score: inf
ROOT
ATOM      1  C   UNL A   1      38.407  22.026  25.649  1.00  0.00     0.275 C 
ENDROOT
BRANCH   1   2
ATOM      2  O   UNL A   1      39.688  21.477  26.089  1.00  0.00    -0.458 OA
BRANCH   2   3
ATOM      3  C   UNL A   1      40.889  22.168  26.003  1.00  0.00     0.338 C 
ATOM      4  O   UNL A   1      41.846  21.735  25.377  1.00  0.00    -0.246 OA
BRANCH   3   5
ATOM      5  C   UNL A   1      41.105  23.182  27.108  1.00  0.00     0.060 A 
ATOM      6  C   UNL A   1      42.539  23.991  26.891  1.00  0.00     0.016 A 
ATOM      7  C   UNL A   1      39.696  24.001  27.719  1.00  0.00     0.016 A 
ATOM      8  C   UNL A   1      42.604  25.730  27.125  1.00  0.00     0.010 A 
ATOM      9  C   UNL A   1      39.621  25.707  28.098  1.00  0.00     0.010 A 
ATOM     10  C   UNL A   1      41.071  26.710  27.848  1.00  0.00    -0.014 A 
BRANCH  10  11
ATOM     11  C   UNL A   1      40.864  27.899  29.054  1.00  0.00     0.031 A 
ATOM     12  C   UNL A   1      39.641  28.940  29.058  1.00  0.00     0.074 A 
ATOM     13  C   UNL A   1      41.642  27.984  30.157  1.00  0.00     0.049 A 
ATOM     14  N   UNL A   1      39.073  29.554  30.091  1.00  0.00    -0.248 NA
ATOM     15  C   UNL A   1      38.972  29.325  27.800  1.00  0.00     0.031 C 
ATOM     16  C   UNL A   1      42.884  27.274  30.335  1.00  0.00     0.029 A 
ATOM     17  N   UNL A   1      41.431  28.559  31.401  1.00  0.00    -0.354 N 
ATOM     18  C   UNL A   1      38.000  30.314  29.590  1.00  0.00     0.074 A 
ATOM     19  C   UNL A   1      37.944  30.064  28.181  1.00  0.00     0.031 C 
ATOM     20  C   UNL A   1      43.201  27.215  31.629  1.00  0.00     0.029 A 
ATOM     21  C   UNL A   1      42.289  28.066  32.373  1.00  0.00     0.049 A 
ATOM     22  H   UNL A   1      40.746  29.243  31.576  1.00  0.00     0.167 HD
ATOM     23  C   UNL A   1      37.169  31.210  30.187  1.00  0.00     0.037 A 
ATOM     24  C   UNL A   1      42.376  28.255  33.706  1.00  0.00     0.037 A 
ATOM     25  C   UNL A   1      37.283  31.639  31.552  1.00  0.00     0.049 A 
ATOM     26  C   UNL A   1      41.455  29.248  34.350  1.00  0.00     0.074 A 
ATOM     27  C   UNL A   1      36.536  32.593  32.224  1.00  0.00     0.029 A 
ATOM     28  N   UNL A   1      38.250  31.191  32.431  1.00  0.00    -0.354 N 
ATOM     29  N   UNL A   1      40.412  29.856  33.845  1.00  0.00    -0.248 NA
ATOM     30  C   UNL A   1      41.776  29.642  35.729  1.00  0.00     0.031 C 
ATOM     31  C   UNL A   1      37.113  32.788  33.482  1.00  0.00     0.029 A 
ATOM     32  C   UNL A   1      38.163  31.897  33.617  1.00  0.00     0.049 A 
ATOM     33  H   UNL A   1      38.902  30.477  32.242  1.00  0.00     0.167 HD
ATOM     34  C   UNL A   1      39.994  30.751  34.818  1.00  0.00     0.074 A 
ATOM     35  C   UNL A   1      40.835  30.542  35.976  1.00  0.00     0.031 C 
ATOM     36  C   UNL A   1      39.032  31.700  34.742  1.00  0.00     0.037 A 
BRANCH  23  37
ATOM     37  C   UNL A   1      36.119  31.913  29.348  1.00  0.00     0.064 A 
ATOM     38  C   UNL A   1      35.009  31.237  28.817  1.00  0.00     0.173 A 
ATOM     39  C   UNL A   1      36.175  33.307  29.165  1.00  0.00     0.173 A 
ATOM     40  F   UNL A   1      34.900  29.908  28.955  1.00  0.00    -0.203 F 
ATOM     41  C   UNL A   1      34.003  31.927  28.137  1.00  0.00     0.198 A 
ATOM     42  C   UNL A   1      35.159  33.994  28.502  1.00  0.00     0.198 A 
ATOM     43  F   UNL A   1      37.206  34.009  29.656  1.00  0.00    -0.203 F 
ATOM     44  F   UNL A   1      32.958  31.258  27.628  1.00  0.00    -0.200 F 
ATOM     45  C   UNL A   1      34.073  33.304  27.988  1.00  0.00     0.200 A 
ATOM     46  F   UNL A   1      35.224  35.327  28.373  1.00  0.00    -0.200 F 
ATOM     47  F   UNL A   1      33.095  33.966  27.351  1.00  0.00    -0.200 F 
ENDBRANCH  23  37
BRANCH  24  48
ATOM     48  C   UNL A   1      43.452  27.578  34.500  1.00  0.00     0.064 A 
ATOM     49  C   UNL A   1      43.248  26.341  35.132  1.00  0.00     0.173 A 
ATOM     50  C   UNL A   1      44.721  28.167  34.652  1.00  0.00     0.173 A 
ATOM     51  F   UNL A   1      42.048  25.745  35.072  1.00  0.00    -0.203 F 
ATOM     52  C   UNL A   1      44.264  25.726  35.867  1.00  0.00     0.198 A 
ATOM     53  C   UNL A   1      45.754  27.519  35.323  1.00  0.00     0.198 A 
ATOM     54  F   UNL A   1      44.974  29.369  34.114  1.00  0.00    -0.203 F 
ATOM     55  F   UNL A   1      44.022  24.578  36.516  1.00  0.00    -0.200 F 
ATOM     56  C   UNL A   1      45.523  26.304  35.942  1.00  0.00     0.200 A 
ATOM     57  F   UNL A   1      46.973  28.074  35.362  1.00  0.00    -0.200 F 
ATOM     58  F   UNL A   1      46.506  25.699  36.621  1.00  0.00    -0.200 F 
ENDBRANCH  24  48
BRANCH  36  59
ATOM     59  C   UNL A   1      38.882  32.616  35.916  1.00  0.00     0.064 A 
ATOM     60  C   UNL A   1      38.173  32.213  37.059  1.00  0.00     0.173 A 
ATOM     61  C   UNL A   1      39.481  33.882  35.920  1.00  0.00     0.173 A 
ATOM     62  F   UNL A   1      37.576  31.012  37.097  1.00  0.00    -0.203 F 
ATOM     63  C   UNL A   1      38.042  33.063  38.152  1.00  0.00     0.198 A 
ATOM     64  C   UNL A   1      39.375  34.715  37.027  1.00  0.00     0.198 A 
ATOM     65  F   UNL A   1      40.179  34.303  34.854  1.00  0.00    -0.203 F 
ATOM     66  F   UNL A   1      37.319  32.680  39.213  1.00  0.00    -0.200 F 
ATOM     67  C   UNL A   1      38.650  34.310  38.138  1.00  0.00     0.200 A 
ATOM     68  F   UNL A   1      39.975  35.914  37.020  1.00  0.00    -0.200 F 
ATOM     69  F   UNL A   1      38.528  35.125  39.194  1.00  0.00    -0.200 F 
ENDBRANCH  36  59
ENDBRANCH  10  11
ENDBRANCH   3   5
ENDBRANCH   2   3
ENDBRANCH   1   2
BRANCH   1  70
ATOM     70  C   UNL A   1      37.349  20.953  25.186  1.00  0.00     0.274 C 
BRANCH  70  71
ATOM     71  O   UNL A   1      36.096  21.560  24.795  1.00  0.00    -0.457 OA
BRANCH  71  72
ATOM     72  C   UNL A   1      34.945  21.459  25.506  1.00  0.00     0.373 C 
ATOM     73  O   UNL A   1      34.952  21.454  26.732  1.00  0.00    -0.244 OA
BRANCH  72  74
ATOM     74  C   UNL A   1      33.571  21.364  24.528  1.00  0.00     0.219 C 
ATOM     75  C   UNL A   1      31.971  21.650  25.507  1.00  0.00     0.087 C 
ATOM     76  N   UNL A   1      33.795  22.402  23.188  1.00  0.00    -0.328 N 
ATOM     77  C   UNL A   1      31.033  23.646  25.558  1.00  0.00     0.013 C 
ATOM     78  C   UNL A   1      33.249  24.089  23.116  1.00  0.00     0.261 C 
ATOM     79  H   UNL A   1      33.345  21.935  22.402  1.00  0.00     0.347 HD
ATOM     80  H   UNL A   1      34.807  22.535  23.222  1.00  0.00     0.347 HD
ATOM     81  C   UNL A   1      31.864  24.875  24.215  1.00  0.00     0.062 C 
BRANCH  74  82
ATOM     82  C   UNL A   1      33.433  19.798  24.195  1.00  0.00     0.024 A 
ATOM     83  C   UNL A   1      34.354  18.835  24.626  1.00  0.00     0.011 A 
ATOM     84  C   UNL A   1      32.529  19.355  23.187  1.00  0.00     0.011 A 
ATOM     85  C   UNL A   1      34.355  17.517  24.127  1.00  0.00     0.001 A 
ATOM     86  C   UNL A   1      32.516  18.039  22.696  1.00  0.00     0.001 A 
ATOM     87  C   UNL A   1      33.435  17.116  23.166  1.00  0.00     0.000 A 
ENDBRANCH  74  82
ENDBRANCH  72  74
ENDBRANCH  71  72
ENDBRANCH  70  71
ENDBRANCH   1  70
TORSDOF 12
ENDMDL
MODEL 3
REMARK VINA RESULT:     -13.4      0.831      2.329
REMARK SMILES O=C(OCCOC(=O)[C@@]1(c2ccccc2)CCCC[NH2+]1)c1ccc(-c2c3nc(c(-c4c(F)c(F)c(F)c(F)c4F)c4ccc([nH]4)c(-c4c(F)c(F)c(F)c(F)c4F)c4nc(c(-c5c(F)c(F)c(F)c(F)c5F)c5ccc2[nH]5)C=C4)C=C3)cc1
REMARK SMILES IDX 4 1 3 2 2 3 1 4 21 5 22 6 83 7 23 8 82 9 24 10 25 11 26 12
REMARK SMILES IDX 76 13 27 14 81 15 75 16 77 17 28 18 80 19 74 20 73 21 29 23
REMARK SMILES IDX 61 24 41 25 60 26 42 27 45 28 59 29 78 30 43 31 44 32 58 34
REMARK SMILES IDX 79 35 46 36 30 37 31 38 39 39 32 40 33 41 37 42 40 43 34 44
REMARK SMILES IDX 35 45 38 46 36 47 62 48 63 49 71 50 64 51 65 52 69 53 72 54
REMARK SMILES IDX 66 55 67 56 70 57 68 58 47 59 48 60 56 61 49 62 50 63 54 64
REMARK SMILES IDX 57 65 51 66 52 67 55 68 53 69 5 70 6 71 7 72 8 73 9 74 16 75
REMARK SMILES IDX 20 76 17 77 19 78 18 81 10 82 11 83 15 84 12 85 14 86 13 87
REMARK H PARENT 77 22 45 33 20 79 20 80
REMARK Flexibility Score: inf
ROOT
ATOM      1  C   UNL A   1      38.729  21.070  25.514  1.00  0.00     0.275 C 
ENDROOT
BRANCH   1   2
ATOM      2  O   UNL A   1      39.865  21.261  26.415  1.00  0.00    -0.458 OA
BRANCH   2   3
ATOM      3  C   UNL A   1      40.918  22.125  26.148  1.00  0.00     0.338 C 
ATOM      4  O   UNL A   1      41.820  21.831  25.376  1.00  0.00    -0.246 OA
BRANCH   3   5
ATOM      5  C   UNL A   1      41.146  23.178  27.213  1.00  0.00     0.060 A 
ATOM      6  C   UNL A   1      42.546  24.020  26.916  1.00  0.00     0.016 A 
ATOM      7  C   UNL A   1      39.739  23.975  27.855  1.00  0.00     0.016 A 
ATOM      8  C   UNL A   1      42.569  25.766  27.096  1.00  0.00     0.010 A 
ATOM      9  C   UNL A   1      39.628  25.688  28.187  1.00  0.00     0.010 A 
ATOM     10  C   UNL A   1      41.037  26.724  27.850  1.00  0.00    -0.014 A 
BRANCH  10  11
ATOM     11  C   UNL A   1      40.842  27.943  29.028  1.00  0.00     0.031 A 
ATOM     12  C   UNL A   1      39.616  28.980  29.022  1.00  0.00     0.074 A 
ATOM     13  C   UNL A   1      41.633  28.057  30.119  1.00  0.00     0.049 A 
ATOM     14  N   UNL A   1      39.059  29.619  30.046  1.00  0.00    -0.248 NA
ATOM     15  C   UNL A   1      38.931  29.332  27.762  1.00  0.00     0.031 C 
ATOM     16  C   UNL A   1      42.879  27.355  30.300  1.00  0.00     0.029 A 
ATOM     17  N   UNL A   1      41.436  28.663  31.351  1.00  0.00    -0.354 N 
ATOM     18  C   UNL A   1      37.978  30.364  29.539  1.00  0.00     0.074 A 
ATOM     19  C   UNL A   1      37.905  30.078  28.137  1.00  0.00     0.031 C 
ATOM     20  C   UNL A   1      43.212  27.329  31.590  1.00  0.00     0.029 A 
ATOM     21  C   UNL A   1      42.307  28.196  32.324  1.00  0.00     0.049 A 
ATOM     22  H   UNL A   1      40.751  29.350  31.517  1.00  0.00     0.167 HD
ATOM     23  C   UNL A   1      37.152  31.272  30.123  1.00  0.00     0.037 A 
ATOM     24  C   UNL A   1      42.410  28.420  33.651  1.00  0.00     0.037 A 
ATOM     25  C   UNL A   1      37.282  31.736  31.476  1.00  0.00     0.049 A 
ATOM     26  C   UNL A   1      41.494  29.427  34.281  1.00  0.00     0.074 A 
ATOM     27  C   UNL A   1      36.540  32.705  32.132  1.00  0.00     0.029 A 
ATOM     28  N   UNL A   1      38.261  31.313  32.353  1.00  0.00    -0.354 N 
ATOM     29  N   UNL A   1      40.444  30.019  33.774  1.00  0.00    -0.248 NA
ATOM     30  C   UNL A   1      41.831  29.856  35.646  1.00  0.00     0.031 C 
ATOM     31  C   UNL A   1      37.132  32.933  33.378  1.00  0.00     0.029 A 
ATOM     32  C   UNL A   1      38.186  32.048  33.522  1.00  0.00     0.049 A 
ATOM     33  H   UNL A   1      38.912  30.595  32.174  1.00  0.00     0.167 HD
ATOM     34  C   UNL A   1      40.036  30.937  34.729  1.00  0.00     0.074 A 
ATOM     35  C   UNL A   1      40.891  30.760  35.881  1.00  0.00     0.031 C 
ATOM     36  C   UNL A   1      39.070  31.882  34.641  1.00  0.00     0.037 A 
BRANCH  23  37
ATOM     37  C   UNL A   1      36.090  31.951  29.280  1.00  0.00     0.064 A 
ATOM     38  C   UNL A   1      34.985  31.255  28.765  1.00  0.00     0.173 A 
ATOM     39  C   UNL A   1      36.130  33.343  29.076  1.00  0.00     0.173 A 
ATOM     40  F   UNL A   1      34.891  29.927  28.923  1.00  0.00    -0.203 F 
ATOM     41  C   UNL A   1      33.967  31.924  28.080  1.00  0.00     0.198 A 
ATOM     42  C   UNL A   1      35.102  34.009  28.409  1.00  0.00     0.198 A 
ATOM     43  F   UNL A   1      37.155  34.064  29.551  1.00  0.00    -0.203 F 
ATOM     44  F   UNL A   1      32.927  31.237  27.587  1.00  0.00    -0.200 F 
ATOM     45  C   UNL A   1      34.021  33.300  27.911  1.00  0.00     0.200 A 
ATOM     46  F   UNL A   1      35.152  35.341  28.260  1.00  0.00    -0.200 F 
ATOM     47  F   UNL A   1      33.033  33.942  27.269  1.00  0.00    -0.200 F 
ENDBRANCH  23  37
BRANCH  24  48
ATOM     48  C   UNL A   1      43.498  27.766  34.449  1.00  0.00     0.064 A 
ATOM     49  C   UNL A   1      44.738  28.385  34.670  1.00  0.00     0.173 A 
ATOM     50  C   UNL A   1      43.318  26.487  35.007  1.00  0.00     0.173 A 
ATOM     51  F   UNL A   1      44.999  29.583  34.126  1.00  0.00    -0.203 F 
ATOM     52  C   UNL A   1      45.739  27.758  35.417  1.00  0.00     0.198 A 
ATOM     53  C   UNL A   1      44.287  25.896  35.811  1.00  0.00     0.198 A 
ATOM     54  F   UNL A   1      42.176  25.816  34.799  1.00  0.00    -0.203 F 
ATOM     55  F   UNL A   1      46.937  28.342  35.556  1.00  0.00    -0.200 F 
ATOM     56  C   UNL A   1      45.503  26.525  36.007  1.00  0.00     0.200 A 
ATOM     57  F   UNL A   1      44.036  24.718  36.399  1.00  0.00    -0.200 F 
ATOM     58  F   UNL A   1      46.451  25.938  36.749  1.00  0.00    -0.200 F 
ENDBRANCH  24  48
BRANCH  36  59
ATOM     59  C   UNL A   1      38.932  32.827  35.793  1.00  0.00     0.064 A 
ATOM     60  C   UNL A   1      38.226  32.457  36.949  1.00  0.00     0.173 A 
ATOM     61  C   UNL A   1      39.539  34.088  35.763  1.00  0.00     0.173 A 
ATOM     62  F   UNL A   1      37.621  31.261  37.019  1.00  0.00    -0.203 F 
ATOM     63  C   UNL A   1      38.107  33.333  38.022  1.00  0.00     0.198 A 
ATOM     64  C   UNL A   1      39.444  34.949  36.851  1.00  0.00     0.198 A 
ATOM     65  F   UNL A   1      40.234  34.480  34.684  1.00  0.00    -0.203 F 
ATOM     66  F   UNL A   1      37.386  32.981  39.095  1.00  0.00    -0.200 F 
ATOM     67  C   UNL A   1      38.722  34.575  37.975  1.00  0.00     0.200 A 
ATOM     68  F   UNL A   1      40.053  36.143  36.812  1.00  0.00    -0.200 F 
ATOM     69  F   UNL A   1      38.611  35.417  39.011  1.00  0.00    -0.200 F 
ENDBRANCH  36  59
ENDBRANCH  10  11
ENDBRANCH   3   5
ENDBRANCH   2   3
ENDBRANCH   1   2
BRANCH   1  70
ATOM     70  C   UNL A   1      37.792  22.327  25.352  1.00  0.00     0.274 C 
BRANCH  70  71
ATOM     71  O   UNL A   1      36.399  21.955  25.237  1.00  0.00    -0.457 OA
BRANCH  71  72
ATOM     72  C   UNL A   1      35.561  22.421  24.277  1.00  0.00     0.373 C 
ATOM     73  O   UNL A   1      35.992  22.894  23.231  1.00  0.00    -0.244 OA
BRANCH  72  74
ATOM     74  C   UNL A   1      33.931  22.255  24.686  1.00  0.00     0.219 C 
ATOM     75  C   UNL A   1      32.800  22.299  23.163  1.00  0.00     0.087 C 
ATOM     76  N   UNL A   1      33.765  20.867  25.671  1.00  0.00    -0.328 N 
ATOM     77  C   UNL A   1      32.112  20.423  22.227  1.00  0.00     0.013 C 
ATOM     78  C   UNL A   1      33.374  19.244  25.070  1.00  0.00     0.261 C 
ATOM     79  H   UNL A   1      33.032  21.094  26.342  1.00  0.00     0.347 HD
ATOM     80  H   UNL A   1      34.733  20.729  25.964  1.00  0.00     0.347 HD
ATOM     81  C   UNL A   1      32.528  18.840  23.377  1.00  0.00     0.062 C 
BRANCH  74  82
ATOM     82  C   UNL A   1      33.553  23.658  25.371  1.00  0.00     0.024 A 
ATOM     83  C   UNL A   1      32.286  23.941  25.898  1.00  0.00     0.011 A 
ATOM     84  C   UNL A   1      34.400  24.791  25.204  1.00  0.00     0.011 A 
ATOM     85  C   UNL A   1      31.899  25.244  26.271  1.00  0.00     0.001 A 
ATOM     86  C   UNL A   1      34.025  26.090  25.587  1.00  0.00     0.001 A 
ATOM     87  C   UNL A   1      32.767  26.318  26.119  1.00  0.00     0.000 A 
ENDBRANCH  74  82
ENDBRANCH  72  74
ENDBRANCH  71  72
ENDBRANCH  70  71
ENDBRANCH   1  70
TORSDOF 12
ENDMDL
