MODEL 1
REMARK VINA RESULT:     -11.6      0.000      0.000
REMARK SMILES O=C(C[C@H]1C(=O)Nc2ccccc21)OCCOC(=O)c1ccc(-c2c3nc(c(-c4c(F)c(F)c(F)c(F)c4F)c4ccc([nH]4)c(-c4c(F)c(F)c(F)c(F)c4F)c4nc(c(-c5c(F)c(F)c(F)c(F)c5F)c5ccc2[nH]5)C=C4)C=C3)cc1
REMARK SMILES IDX 16 1 15 2 14 3 2 4 1 5 3 6 4 7 5 8 13 9 6 10 7 11 8 12 12 13
REMARK SMILES IDX 9 15 11 16 10 17 17 18 18 19 19 20 20 21 21 22 82 23 22 24
REMARK SMILES IDX 81 25 23 26 24 27 25 28 75 29 26 30 80 31 74 32 76 33 27 34
REMARK SMILES IDX 79 35 73 36 72 37 28 39 60 40 40 41 59 42 41 43 44 44 58 45
REMARK SMILES IDX 77 46 42 47 43 48 57 50 78 51 45 52 29 53 30 54 38 55 31 56
REMARK SMILES IDX 32 57 36 58 39 59 33 60 34 61 37 62 35 63 61 64 62 65 70 66
REMARK SMILES IDX 63 67 64 68 68 69 71 70 65 71 66 72 69 73 67 74 46 75 47 76
REMARK SMILES IDX 55 77 48 78 49 79 53 80 56 81 50 82 51 83 54 84 52 85
REMARK H PARENT 7 14 76 38 44 49
REMARK Flexibility Score: inf
ROOT
ATOM      1  C   UNL A   1      32.886  33.293  27.626  1.00  0.00     0.275 C 
ENDROOT
BRANCH   1   2
ATOM      2  C   UNL A   1      33.495  34.652  27.976  1.00  0.00     0.274 C 
BRANCH   2   3
ATOM      3  O   UNL A   1      32.583  35.448  28.761  1.00  0.00    -0.462 OA
BRANCH   3   4
ATOM      4  C   UNL A   1      32.917  36.540  29.485  1.00  0.00     0.307 C 
ATOM      5  O   UNL A   1      33.246  37.582  28.922  1.00  0.00    -0.252 OA
BRANCH   4   6
ATOM      6  C   UNL A   1      32.865  36.467  30.987  1.00  0.00     0.141 C 
BRANCH   6   7
ATOM      7  C   UNL A   1      34.197  36.269  31.698  1.00  0.00     0.122 C 
ATOM      8  C   UNL A   1      34.028  36.814  33.133  1.00  0.00     0.232 C 
ATOM      9  C   UNL A   1      34.620  34.852  31.964  1.00  0.00    -0.011 A 
ATOM     10  O   UNL A   1      33.719  37.953  33.441  1.00  0.00    -0.274 OA
ATOM     11  N   UNL A   1      34.247  35.765  34.012  1.00  0.00    -0.325 N 
ATOM     12  C   UNL A   1      34.595  34.609  33.335  1.00  0.00     0.045 A 
ATOM     13  C   UNL A   1      35.018  33.862  31.083  1.00  0.00     0.007 A 
ATOM     14  H   UNL A   1      34.166  35.834  34.990  1.00  0.00     0.169 HD
ATOM     15  C   UNL A   1      34.903  33.380  33.876  1.00  0.00     0.026 A 
ATOM     16  C   UNL A   1      35.337  32.607  31.606  1.00  0.00     0.000 A 
ATOM     17  C   UNL A   1      35.271  32.365  32.990  1.00  0.00     0.002 A 
ENDBRANCH   6   7
ENDBRANCH   4   6
ENDBRANCH   3   4
ENDBRANCH   2   3
ENDBRANCH   1   2
BRANCH   1  18
ATOM     18  O   UNL A   1      33.594  32.253  28.321  1.00  0.00    -0.458 OA
BRANCH  18  19
ATOM     19  C   UNL A   1      33.959  31.189  27.564  1.00  0.00     0.338 C 
ATOM     20  O   UNL A   1      33.334  30.709  26.634  1.00  0.00    -0.246 OA
BRANCH  19  21
ATOM     21  C   UNL A   1      35.337  30.780  27.920  1.00  0.00     0.060 A 
ATOM     22  C   UNL A   1      35.610  29.409  28.002  1.00  0.00     0.016 A 
ATOM     23  C   UNL A   1      36.350  31.714  28.169  1.00  0.00     0.016 A 
ATOM     24  C   UNL A   1      36.871  28.971  28.408  1.00  0.00     0.010 A 
ATOM     25  C   UNL A   1      37.615  31.274  28.570  1.00  0.00     0.010 A 
ATOM     26  C   UNL A   1      37.863  29.902  28.743  1.00  0.00    -0.014 A 
BRANCH  26  27
ATOM     27  C   UNL A   1      39.058  29.446  29.492  1.00  0.00     0.031 A 
ATOM     28  C   UNL A   1      39.300  30.023  30.862  1.00  0.00     0.074 A 
ATOM     29  C   UNL A   1      39.889  28.512  28.999  1.00  0.00     0.049 A 
ATOM     30  N   UNL A   1      40.225  29.732  31.741  1.00  0.00    -0.248 NA
ATOM     31  C   UNL A   1      38.369  31.079  31.297  1.00  0.00     0.031 C 
ATOM     32  C   UNL A   1      39.768  27.874  27.691  1.00  0.00     0.029 A 
ATOM     33  N   UNL A   1      41.006  27.937  29.556  1.00  0.00    -0.354 N 
ATOM     34  C   UNL A   1      39.982  30.559  32.830  1.00  0.00     0.074 A 
ATOM     35  C   UNL A   1      38.856  31.397  32.486  1.00  0.00     0.031 C 
ATOM     36  C   UNL A   1      40.769  26.987  27.547  1.00  0.00     0.029 A 
ATOM     37  C   UNL A   1      41.605  27.004  28.748  1.00  0.00     0.049 A 
ATOM     38  H   UNL A   1      41.344  28.173  30.449  1.00  0.00     0.167 HD
ATOM     39  C   UNL A   1      40.626  30.603  34.020  1.00  0.00     0.037 A 
ATOM     40  C   UNL A   1      42.699  26.248  28.962  1.00  0.00     0.037 A 
ATOM     41  C   UNL A   1      41.747  29.774  34.366  1.00  0.00     0.049 A 
ATOM     42  C   UNL A   1      43.425  26.345  30.282  1.00  0.00     0.074 A 
ATOM     43  C   UNL A   1      42.455  29.730  35.554  1.00  0.00     0.029 A 
ATOM     44  N   UNL A   1      42.331  28.848  33.516  1.00  0.00    -0.354 N 
ATOM     45  N   UNL A   1      43.147  27.078  31.332  1.00  0.00    -0.248 NA
ATOM     46  C   UNL A   1      44.611  25.491  30.448  1.00  0.00     0.031 C 
ATOM     47  C   UNL A   1      43.496  28.807  35.408  1.00  0.00     0.029 A 
ATOM     48  C   UNL A   1      43.404  28.240  34.146  1.00  0.00     0.049 A 
ATOM     49  H   UNL A   1      42.027  28.651  32.600  1.00  0.00     0.167 HD
ATOM     50  C   UNL A   1      44.091  26.742  32.295  1.00  0.00     0.074 A 
ATOM     51  C   UNL A   1      44.948  25.735  31.706  1.00  0.00     0.031 C 
ATOM     52  C   UNL A   1      44.232  27.220  33.557  1.00  0.00     0.037 A 
BRANCH  39  53
ATOM     53  C   UNL A   1      40.132  31.597  35.028  1.00  0.00     0.064 A 
ATOM     54  C   UNL A   1      40.714  32.868  35.152  1.00  0.00     0.173 A 
ATOM     55  C   UNL A   1      39.060  31.280  35.873  1.00  0.00     0.173 A 
ATOM     56  F   UNL A   1      41.755  33.213  34.379  1.00  0.00    -0.203 F 
ATOM     57  C   UNL A   1      40.258  33.775  36.105  1.00  0.00     0.198 A 
ATOM     58  C   UNL A   1      38.587  32.198  36.806  1.00  0.00     0.198 A 
ATOM     59  F   UNL A   1      38.469  30.078  35.795  1.00  0.00    -0.203 F 
ATOM     60  F   UNL A   1      40.862  34.963  36.241  1.00  0.00    -0.200 F 
ATOM     61  C   UNL A   1      39.192  33.442  36.927  1.00  0.00     0.200 A 
ATOM     62  F   UNL A   1      37.553  31.879  37.596  1.00  0.00    -0.200 F 
ATOM     63  F   UNL A   1      38.754  34.314  37.844  1.00  0.00    -0.200 F 
ENDBRANCH  39  53
BRANCH  40  64
ATOM     64  C   UNL A   1      43.170  25.301  27.918  1.00  0.00     0.064 A 
ATOM     65  C   UNL A   1      42.771  23.956  27.933  1.00  0.00     0.173 A 
ATOM     66  C   UNL A   1      44.055  25.708  26.911  1.00  0.00     0.173 A 
ATOM     67  F   UNL A   1      41.948  23.513  28.894  1.00  0.00    -0.203 F 
ATOM     68  C   UNL A   1      43.262  23.050  26.995  1.00  0.00     0.198 A 
ATOM     69  C   UNL A   1      44.524  24.806  25.958  1.00  0.00     0.198 A 
ATOM     70  F   UNL A   1      44.471  26.982  26.857  1.00  0.00    -0.203 F 
ATOM     71  F   UNL A   1      42.909  21.759  27.066  1.00  0.00    -0.200 F 
ATOM     72  C   UNL A   1      44.136  23.476  26.007  1.00  0.00     0.200 A 
ATOM     73  F   UNL A   1      45.365  25.222  25.001  1.00  0.00    -0.200 F 
ATOM     74  F   UNL A   1      44.612  22.603  25.110  1.00  0.00    -0.200 F 
ENDBRANCH  40  64
BRANCH  52  75
ATOM     75  C   UNL A   1      45.311  26.619  34.411  1.00  0.00     0.064 A 
ATOM     76  C   UNL A   1      46.599  27.170  34.474  1.00  0.00     0.173 A 
ATOM     77  C   UNL A   1      45.035  25.498  35.209  1.00  0.00     0.173 A 
ATOM     78  F   UNL A   1      46.915  28.234  33.722  1.00  0.00    -0.203 F 
ATOM     79  C   UNL A   1      47.580  26.602  35.283  1.00  0.00     0.198 A 
ATOM     80  C   UNL A   1      46.010  24.952  36.040  1.00  0.00     0.198 A 
ATOM     81  F   UNL A   1      43.816  24.939  35.194  1.00  0.00    -0.203 F 
ATOM     82  F   UNL A   1      48.818  27.116  35.291  1.00  0.00    -0.200 F 
ATOM     83  C   UNL A   1      47.284  25.499  36.070  1.00  0.00     0.200 A 
ATOM     84  F   UNL A   1      45.717  23.895  36.811  1.00  0.00    -0.200 F 
ATOM     85  F   UNL A   1      48.228  24.959  36.853  1.00  0.00    -0.200 F 
ENDBRANCH  52  75
ENDBRANCH  26  27
ENDBRANCH  19  21
ENDBRANCH  18  19
ENDBRANCH   1  18
TORSDOF 12
ENDMDL
MODEL 2
REMARK VINA RESULT:     -11.5      0.143      2.036
REMARK SMILES O=C(C[C@H]1C(=O)Nc2ccccc21)OCCOC(=O)c1ccc(-c2c3nc(c(-c4c(F)c(F)c(F)c(F)c4F)c4ccc([nH]4)c(-c4c(F)c(F)c(F)c(F)c4F)c4nc(c(-c5c(F)c(F)c(F)c(F)c5F)c5ccc2[nH]5)C=C4)C=C3)cc1
REMARK SMILES IDX 16 1 15 2 14 3 2 4 1 5 3 6 4 7 5 8 13 9 6 10 7 11 8 12 12 13
REMARK SMILES IDX 9 15 11 16 10 17 17 18 18 19 19 20 20 21 21 22 82 23 22 24
REMARK SMILES IDX 81 25 23 26 24 27 25 28 75 29 26 30 80 31 74 32 76 33 27 34
REMARK SMILES IDX 79 35 73 36 72 37 28 39 60 40 40 41 59 42 41 43 44 44 58 45
REMARK SMILES IDX 77 46 42 47 43 48 57 50 78 51 45 52 29 53 30 54 38 55 31 56
REMARK SMILES IDX 32 57 36 58 39 59 33 60 34 61 37 62 35 63 61 64 62 65 70 66
REMARK SMILES IDX 63 67 64 68 68 69 71 70 65 71 66 72 69 73 67 74 46 75 47 76
REMARK SMILES IDX 55 77 48 78 49 79 53 80 56 81 50 82 51 83 54 84 52 85
REMARK H PARENT 7 14 76 38 44 49
REMARK Flexibility Score: inf
ROOT
ATOM      1  C   UNL A   1      32.906  33.247  27.697  1.00  0.00     0.275 C 
ENDROOT
BRANCH   1   2
ATOM      2  C   UNL A   1      33.498  34.624  28.002  1.00  0.00     0.274 C 
BRANCH   2   3
ATOM      3  O   UNL A   1      32.572  35.438  28.752  1.00  0.00    -0.462 OA
BRANCH   3   4
ATOM      4  C   UNL A   1      32.904  36.502  29.518  1.00  0.00     0.307 C 
ATOM      5  O   UNL A   1      33.226  37.566  28.995  1.00  0.00    -0.252 OA
BRANCH   4   6
ATOM      6  C   UNL A   1      32.858  36.369  31.016  1.00  0.00     0.141 C 
BRANCH   6   7
ATOM      7  C   UNL A   1      34.201  36.235  31.722  1.00  0.00     0.122 C 
ATOM      8  C   UNL A   1      34.028  36.829  33.136  1.00  0.00     0.232 C 
ATOM      9  C   UNL A   1      34.667  34.842  32.037  1.00  0.00    -0.011 A 
ATOM     10  O   UNL A   1      33.689  37.970  33.404  1.00  0.00    -0.274 OA
ATOM     11  N   UNL A   1      34.284  35.821  34.052  1.00  0.00    -0.325 N 
ATOM     12  C   UNL A   1      34.660  34.651  33.416  1.00  0.00     0.045 A 
ATOM     13  C   UNL A   1      35.086  33.831  31.190  1.00  0.00     0.007 A 
ATOM     14  H   UNL A   1      34.209  35.925  35.028  1.00  0.00     0.169 HD
ATOM     15  C   UNL A   1      35.007  33.453  34.000  1.00  0.00     0.026 A 
ATOM     16  C   UNL A   1      35.445  32.606  31.758  1.00  0.00     0.000 A 
ATOM     17  C   UNL A   1      35.397  32.415  33.150  1.00  0.00     0.002 A 
ENDBRANCH   6   7
ENDBRANCH   4   6
ENDBRANCH   3   4
ENDBRANCH   2   3
ENDBRANCH   1   2
BRANCH   1  18
ATOM     18  O   UNL A   1      33.662  32.233  28.383  1.00  0.00    -0.458 OA
BRANCH  18  19
ATOM     19  C   UNL A   1      34.051  31.181  27.622  1.00  0.00     0.338 C 
ATOM     20  O   UNL A   1      33.447  30.702  26.679  1.00  0.00    -0.246 OA
BRANCH  19  21
ATOM     21  C   UNL A   1      35.429  30.787  27.995  1.00  0.00     0.060 A 
ATOM     22  C   UNL A   1      35.735  29.420  28.013  1.00  0.00     0.016 A 
ATOM     23  C   UNL A   1      36.411  31.730  28.321  1.00  0.00     0.016 A 
ATOM     24  C   UNL A   1      36.995  28.991  28.431  1.00  0.00     0.010 A 
ATOM     25  C   UNL A   1      37.675  31.300  28.735  1.00  0.00     0.010 A 
ATOM     26  C   UNL A   1      37.953  29.927  28.843  1.00  0.00    -0.014 A 
BRANCH  26  27
ATOM     27  C   UNL A   1      39.139  29.461  29.601  1.00  0.00     0.031 A 
ATOM     28  C   UNL A   1      39.363  30.019  30.981  1.00  0.00     0.074 A 
ATOM     29  C   UNL A   1      39.976  28.534  29.105  1.00  0.00     0.049 A 
ATOM     30  N   UNL A   1      40.277  29.715  31.868  1.00  0.00    -0.248 NA
ATOM     31  C   UNL A   1      38.427  31.068  31.419  1.00  0.00     0.031 C 
ATOM     32  C   UNL A   1      39.871  27.913  27.787  1.00  0.00     0.029 A 
ATOM     33  N   UNL A   1      41.085  27.950  29.667  1.00  0.00    -0.354 N 
ATOM     34  C   UNL A   1      40.020  30.526  32.965  1.00  0.00     0.074 A 
ATOM     35  C   UNL A   1      38.898  31.369  32.619  1.00  0.00     0.031 C 
ATOM     36  C   UNL A   1      40.874  27.029  27.643  1.00  0.00     0.029 A 
ATOM     37  C   UNL A   1      41.695  27.029  28.854  1.00  0.00     0.049 A 
ATOM     38  H   UNL A   1      41.412  28.173  30.568  1.00  0.00     0.167 HD
ATOM     39  C   UNL A   1      40.649  30.554  34.163  1.00  0.00     0.037 A 
ATOM     40  C   UNL A   1      42.787  26.269  29.072  1.00  0.00     0.037 A 
ATOM     41  C   UNL A   1      41.766  29.720  34.512  1.00  0.00     0.049 A 
ATOM     42  C   UNL A   1      43.495  26.348  30.402  1.00  0.00     0.074 A 
ATOM     43  C   UNL A   1      42.458  29.659  35.709  1.00  0.00     0.029 A 
ATOM     44  N   UNL A   1      42.360  28.805  33.657  1.00  0.00    -0.354 N 
ATOM     45  N   UNL A   1      43.204  27.066  31.459  1.00  0.00    -0.248 NA
ATOM     46  C   UNL A   1      44.679  25.491  30.572  1.00  0.00     0.031 C 
ATOM     47  C   UNL A   1      43.501  28.738  35.563  1.00  0.00     0.029 A 
ATOM     48  C   UNL A   1      43.425  28.188  34.292  1.00  0.00     0.049 A 
ATOM     49  H   UNL A   1      42.068  28.622  32.734  1.00  0.00     0.167 HD
ATOM     50  C   UNL A   1      44.136  26.716  32.429  1.00  0.00     0.074 A 
ATOM     51  C   UNL A   1      45.000  25.718  31.837  1.00  0.00     0.031 C 
ATOM     52  C   UNL A   1      44.260  27.177  33.699  1.00  0.00     0.037 A 
BRANCH  39  53
ATOM     53  C   UNL A   1      40.142  31.534  35.179  1.00  0.00     0.064 A 
ATOM     54  C   UNL A   1      39.033  31.244  35.989  1.00  0.00     0.173 A 
ATOM     55  C   UNL A   1      40.775  32.772  35.350  1.00  0.00     0.173 A 
ATOM     56  F   UNL A   1      38.381  30.079  35.851  1.00  0.00    -0.203 F 
ATOM     57  C   UNL A   1      38.561  32.170  36.915  1.00  0.00     0.198 A 
ATOM     58  C   UNL A   1      40.318  33.686  36.295  1.00  0.00     0.198 A 
ATOM     59  F   UNL A   1      41.839  33.098  34.600  1.00  0.00    -0.203 F 
ATOM     60  F   UNL A   1      37.470  31.894  37.642  1.00  0.00    -0.200 F 
ATOM     61  C   UNL A   1      39.207  33.388  37.072  1.00  0.00     0.200 A 
ATOM     62  F   UNL A   1      40.947  34.859  36.451  1.00  0.00    -0.200 F 
ATOM     63  F   UNL A   1      38.752  34.279  37.962  1.00  0.00    -0.200 F 
ENDBRANCH  39  53
BRANCH  40  64
ATOM     64  C   UNL A   1      43.270  25.337  28.021  1.00  0.00     0.064 A 
ATOM     65  C   UNL A   1      44.138  25.775  27.012  1.00  0.00     0.173 A 
ATOM     66  C   UNL A   1      42.844  24.001  27.981  1.00  0.00     0.173 A 
ATOM     67  F   UNL A   1      44.550  27.051  26.991  1.00  0.00    -0.203 F 
ATOM     68  C   UNL A   1      44.542  24.921  25.987  1.00  0.00     0.198 A 
ATOM     69  C   UNL A   1      43.269  23.141  26.971  1.00  0.00     0.198 A 
ATOM     70  F   UNL A   1      42.008  23.534  28.920  1.00  0.00    -0.203 F 
ATOM     71  F   UNL A   1      45.327  25.381  25.004  1.00  0.00    -0.200 F 
ATOM     72  C   UNL A   1      44.109  23.604  25.970  1.00  0.00     0.200 A 
ATOM     73  F   UNL A   1      42.854  21.867  26.960  1.00  0.00    -0.200 F 
ATOM     74  F   UNL A   1      44.492  22.784  24.981  1.00  0.00    -0.200 F 
ENDBRANCH  40  64
BRANCH  52  75
ATOM     75  C   UNL A   1      45.328  26.564  34.558  1.00  0.00     0.064 A 
ATOM     76  C   UNL A   1      45.092  25.414  35.326  1.00  0.00     0.173 A 
ATOM     77  C   UNL A   1      46.619  27.114  34.579  1.00  0.00     0.173 A 
ATOM     78  F   UNL A   1      43.872  24.856  35.349  1.00  0.00    -0.203 F 
ATOM     79  C   UNL A   1      46.101  24.856  36.106  1.00  0.00     0.198 A 
ATOM     80  C   UNL A   1      47.634  26.535  35.336  1.00  0.00     0.198 A 
ATOM     81  F   UNL A   1      46.900  28.207  33.854  1.00  0.00    -0.203 F 
ATOM     82  F   UNL A   1      45.840  23.785  36.869  1.00  0.00    -0.200 F 
ATOM     83  C   UNL A   1      47.373  25.411  36.105  1.00  0.00     0.200 A 
ATOM     84  F   UNL A   1      48.865  27.065  35.322  1.00  0.00    -0.200 F 
ATOM     85  F   UNL A   1      48.344  24.868  36.852  1.00  0.00    -0.200 F 
ENDBRANCH  52  75
ENDBRANCH  26  27
ENDBRANCH  19  21
ENDBRANCH  18  19
ENDBRANCH   1  18
TORSDOF 12
ENDMDL
MODEL 3
REMARK VINA RESULT:     -11.5      1.528      2.585
REMARK SMILES O=C(C[C@H]1C(=O)Nc2ccccc21)OCCOC(=O)c1ccc(-c2c3nc(c(-c4c(F)c(F)c(F)c(F)c4F)c4ccc([nH]4)c(-c4c(F)c(F)c(F)c(F)c4F)c4nc(c(-c5c(F)c(F)c(F)c(F)c5F)c5ccc2[nH]5)C=C4)C=C3)cc1
REMARK SMILES IDX 16 1 15 2 14 3 2 4 1 5 3 6 4 7 5 8 13 9 6 10 7 11 8 12 12 13
REMARK SMILES IDX 9 15 11 16 10 17 17 18 18 19 19 20 20 21 21 22 82 23 22 24
REMARK SMILES IDX 81 25 23 26 24 27 25 28 75 29 26 30 80 31 74 32 76 33 27 34
REMARK SMILES IDX 79 35 73 36 72 37 28 39 60 40 40 41 59 42 41 43 44 44 58 45
REMARK SMILES IDX 77 46 42 47 43 48 57 50 78 51 45 52 29 53 30 54 38 55 31 56
REMARK SMILES IDX 32 57 36 58 39 59 33 60 34 61 37 62 35 63 61 64 62 65 70 66
REMARK SMILES IDX 63 67 64 68 68 69 71 70 65 71 66 72 69 73 67 74 46 75 47 76
REMARK SMILES IDX 55 77 48 78 49 79 53 80 56 81 50 82 51 83 54 84 52 85
REMARK H PARENT 7 14 76 38 44 49
REMARK Flexibility Score: inf
ROOT
ATOM      1  C   UNL A   1      33.395  33.984  28.539  1.00  0.00     0.275 C 
ENDROOT
BRANCH   1   2
ATOM      2  C   UNL A   1      34.286  34.710  29.548  1.00  0.00     0.274 C 
BRANCH   2   3
ATOM      3  O   UNL A   1      33.839  34.481  30.901  1.00  0.00    -0.462 OA
BRANCH   3   4
ATOM      4  C   UNL A   1      34.403  33.622  31.780  1.00  0.00     0.307 C 
ATOM      5  O   UNL A   1      33.708  33.035  32.607  1.00  0.00    -0.252 OA
BRANCH   4   6
ATOM      6  C   UNL A   1      35.888  33.385  31.724  1.00  0.00     0.141 C 
BRANCH   6   7
ATOM      7  C   UNL A   1      36.774  34.596  31.987  1.00  0.00     0.122 C 
ATOM      8  C   UNL A   1      37.078  34.611  33.501  1.00  0.00     0.232 C 
ATOM      9  C   UNL A   1      38.158  34.563  31.404  1.00  0.00    -0.011 A 
ATOM     10  O   UNL A   1      36.257  34.670  34.402  1.00  0.00    -0.274 OA
ATOM     11  N   UNL A   1      38.450  34.502  33.657  1.00  0.00    -0.325 N 
ATOM     12  C   UNL A   1      39.093  34.473  32.432  1.00  0.00     0.045 A 
ATOM     13  C   UNL A   1      38.570  34.632  30.085  1.00  0.00     0.007 A 
ATOM     14  H   UNL A   1      38.908  34.452  34.527  1.00  0.00     0.169 HD
ATOM     15  C   UNL A   1      40.448  34.391  32.197  1.00  0.00     0.026 A 
ATOM     16  C   UNL A   1      39.939  34.552  29.819  1.00  0.00     0.000 A 
ATOM     17  C   UNL A   1      40.869  34.423  30.866  1.00  0.00     0.002 A 
ENDBRANCH   6   7
ENDBRANCH   4   6
ENDBRANCH   3   4
ENDBRANCH   2   3
ENDBRANCH   1   2
BRANCH   1  18
ATOM     18  O   UNL A   1      34.215  33.257  27.607  1.00  0.00    -0.458 OA
BRANCH  18  19
ATOM     19  C   UNL A   1      34.106  31.907  27.664  1.00  0.00     0.338 C 
ATOM     20  O   UNL A   1      33.123  31.243  27.386  1.00  0.00    -0.246 OA
BRANCH  19  21
ATOM     21  C   UNL A   1      35.433  31.318  27.958  1.00  0.00     0.060 A 
ATOM     22  C   UNL A   1      35.508  29.930  28.124  1.00  0.00     0.016 A 
ATOM     23  C   UNL A   1      36.587  32.103  28.069  1.00  0.00     0.016 A 
ATOM     24  C   UNL A   1      36.719  29.333  28.477  1.00  0.00     0.010 A 
ATOM     25  C   UNL A   1      37.801  31.503  28.419  1.00  0.00     0.010 A 
ATOM     26  C   UNL A   1      37.859  30.124  28.677  1.00  0.00    -0.014 A 
BRANCH  26  27
ATOM     27  C   UNL A   1      39.028  29.542  29.377  1.00  0.00     0.031 A 
ATOM     28  C   UNL A   1      39.297  29.979  30.793  1.00  0.00     0.074 A 
ATOM     29  C   UNL A   1      39.811  28.615  28.798  1.00  0.00     0.049 A 
ATOM     30  N   UNL A   1      40.205  29.562  31.639  1.00  0.00    -0.248 NA
ATOM     31  C   UNL A   1      38.421  31.036  31.325  1.00  0.00     0.031 C 
ATOM     32  C   UNL A   1      39.659  28.104  27.439  1.00  0.00     0.029 A 
ATOM     33  N   UNL A   1      40.896  27.935  29.297  1.00  0.00    -0.354 N 
ATOM     34  C   UNL A   1      40.003  30.297  32.799  1.00  0.00     0.074 A 
ATOM     35  C   UNL A   1      38.922  31.220  32.537  1.00  0.00     0.031 C 
ATOM     36  C   UNL A   1      40.614  27.185  27.211  1.00  0.00     0.029 A 
ATOM     37  C   UNL A   1      41.448  27.050  28.406  1.00  0.00     0.049 A 
ATOM     38  H   UNL A   1      41.245  28.071  30.207  1.00  0.00     0.167 HD
ATOM     39  C   UNL A   1      40.647  30.201  33.986  1.00  0.00     0.037 A 
ATOM     40  C   UNL A   1      42.502  26.223  28.547  1.00  0.00     0.037 A 
ATOM     41  C   UNL A   1      41.724  29.288  34.252  1.00  0.00     0.049 A 
ATOM     42  C   UNL A   1      43.230  26.163  29.868  1.00  0.00     0.074 A 
ATOM     43  C   UNL A   1      42.427  29.100  35.429  1.00  0.00     0.029 A 
ATOM     44  N   UNL A   1      42.261  28.414  33.319  1.00  0.00    -0.354 N 
ATOM     45  N   UNL A   1      42.989  26.811  30.981  1.00  0.00    -0.248 NA
ATOM     46  C   UNL A   1      44.370  25.237  29.952  1.00  0.00     0.031 C 
ATOM     47  C   UNL A   1      43.419  28.142  35.196  1.00  0.00     0.029 A 
ATOM     48  C   UNL A   1      43.300  27.697  33.888  1.00  0.00     0.049 A 
ATOM     49  H   UNL A   1      41.949  28.317  32.390  1.00  0.00     0.167 HD
ATOM     50  C   UNL A   1      43.913  26.341  31.907  1.00  0.00     0.074 A 
ATOM     51  C   UNL A   1      44.718  25.349  31.226  1.00  0.00     0.031 C 
ATOM     52  C   UNL A   1      44.076  26.694  33.206  1.00  0.00     0.037 A 
BRANCH  39  53
ATOM     53  C   UNL A   1      40.203  31.123  35.082  1.00  0.00     0.064 A 
ATOM     54  C   UNL A   1      39.039  30.873  35.826  1.00  0.00     0.173 A 
ATOM     55  C   UNL A   1      40.952  32.265  35.398  1.00  0.00     0.173 A 
ATOM     56  F   UNL A   1      38.277  29.803  35.549  1.00  0.00    -0.203 F 
ATOM     57  C   UNL A   1      38.627  31.747  36.828  1.00  0.00     0.198 A 
ATOM     58  C   UNL A   1      40.554  33.123  36.418  1.00  0.00     0.198 A 
ATOM     59  F   UNL A   1      42.072  32.549  34.716  1.00  0.00    -0.203 F 
ATOM     60  F   UNL A   1      37.487  31.516  37.491  1.00  0.00    -0.200 F 
ATOM     61  C   UNL A   1      39.388  32.868  37.127  1.00  0.00     0.200 A 
ATOM     62  F   UNL A   1      41.292  34.202  36.712  1.00  0.00    -0.200 F 
ATOM     63  F   UNL A   1      38.991  33.709  38.091  1.00  0.00    -0.200 F 
ENDBRANCH  39  53
BRANCH  40  64
ATOM     64  C   UNL A   1      42.925  25.352  27.420  1.00  0.00     0.064 A 
ATOM     65  C   UNL A   1      43.958  25.741  26.556  1.00  0.00     0.173 A 
ATOM     66  C   UNL A   1      42.281  24.133  27.160  1.00  0.00     0.173 A 
ATOM     67  F   UNL A   1      44.584  26.911  26.746  1.00  0.00    -0.203 F 
ATOM     68  C   UNL A   1      44.313  24.958  25.459  1.00  0.00     0.198 A 
ATOM     69  C   UNL A   1      42.655  23.338  26.079  1.00  0.00     0.198 A 
ATOM     70  F   UNL A   1      41.282  23.719  27.954  1.00  0.00    -0.203 F 
ATOM     71  F   UNL A   1      45.266  25.380  24.617  1.00  0.00    -0.200 F 
ATOM     72  C   UNL A   1      43.663  23.756  25.223  1.00  0.00     0.200 A 
ATOM     73  F   UNL A   1      42.028  22.175  25.857  1.00  0.00    -0.200 F 
ATOM     74  F   UNL A   1      44.000  23.006  24.166  1.00  0.00    -0.200 F 
ENDBRANCH  40  64
BRANCH  52  75
ATOM     75  C   UNL A   1      45.121  25.964  33.998  1.00  0.00     0.064 A 
ATOM     76  C   UNL A   1      46.438  26.437  34.101  1.00  0.00     0.173 A 
ATOM     77  C   UNL A   1      44.786  24.795  34.699  1.00  0.00     0.173 A 
ATOM     78  F   UNL A   1      46.811  27.543  33.442  1.00  0.00    -0.203 F 
ATOM     79  C   UNL A   1      47.387  25.749  34.852  1.00  0.00     0.198 A 
ATOM     80  C   UNL A   1      45.731  24.126  35.473  1.00  0.00     0.198 A 
ATOM     81  F   UNL A   1      43.538  24.306  34.642  1.00  0.00    -0.203 F 
ATOM     82  F   UNL A   1      48.652  26.192  34.897  1.00  0.00    -0.200 F 
ATOM     83  C   UNL A   1      47.033  24.599  35.543  1.00  0.00     0.200 A 
ATOM     84  F   UNL A   1      45.382  23.024  36.151  1.00  0.00    -0.200 F 
ATOM     85  F   UNL A   1      47.947  23.943  36.270  1.00  0.00    -0.200 F 
ENDBRANCH  52  75
ENDBRANCH  26  27
ENDBRANCH  19  21
ENDBRANCH  18  19
ENDBRANCH   1  18
TORSDOF 12
ENDMDL
