MODEL 1
REMARK VINA RESULT:     -14.4      0.000      0.000
REMARK SMILES Cc1ccc(NC(=O)CN2C(=O)S/C(=C\c3cc(Cl)c(OCC(=O)OCCOC(=O)c4ccc(-c5c6nc(c(-c7c(F)c(F)c(F)c(F)c7F)c7ccc([nH]7)c(-c7c(F)c(F)c(F)c(F)c7F)c7nc(c(-c8c(F)c(F)c(F)c(F)c8F)c8ccc5[nH]8)C=C7)C=C6)cc4)c(Cl)c3)C2=O)cc1
REMARK SMILES IDX 23 1 24 2 22 3 21 4 20 5 16 6 17 7 96 8 18 9 94 10 19 11
REMARK SMILES IDX 95 12 15 13 10 14 11 15 97 16 12 17 13 18 14 19 98 20 9 21
REMARK SMILES IDX 7 22 6 23 8 25 5 26 1 27 2 28 3 29 100 30 4 31 99 32 25 33
REMARK SMILES IDX 26 34 27 35 28 36 29 37 30 38 31 39 32 40 93 41 33 42 92 43
REMARK SMILES IDX 34 44 35 45 36 46 86 47 37 48 91 49 85 50 87 51 38 52 90 53
REMARK SMILES IDX 84 54 83 55 39 57 71 58 51 59 70 60 52 61 55 62 69 63 88 64
REMARK SMILES IDX 53 65 54 66 68 68 89 69 56 70 40 71 41 72 49 73 42 74 43 75
REMARK SMILES IDX 47 76 50 77 44 78 45 79 48 80 46 81 72 82 73 83 81 84 74 85
REMARK SMILES IDX 75 86 79 87 82 88 76 89 77 90 80 91 78 92 57 93 58 94 66 95
REMARK SMILES IDX 59 96 60 97 64 98 67 99 61 100 62 101 65 102 63 103
REMARK H PARENT 6 24 87 56 55 67
REMARK Flexibility Score: inf
ROOT
ATOM      1  C   UNL A   1      42.596  18.986  26.079  1.00  0.00     0.344 C 
ATOM      2  O   UNL A   1      42.501  17.746  25.838  1.00  0.00    -0.248 OA
ENDROOT
BRANCH   1   3
ATOM      3  C   UNL A   1      41.154  20.428  26.865  1.00  0.00     0.352 C 
BRANCH   3   4
ATOM      4  O   UNL A   1      39.599  20.703  26.919  1.00  0.00    -0.479 OA
BRANCH   4   5
ATOM      5  C   UNL A   1      38.885  21.591  26.140  1.00  0.00     0.157 A 
ATOM      6  C   UNL A   1      36.863  23.135  24.747  1.00  0.00    -0.021 A 
ATOM      7  C   UNL A   1      37.838  23.755  25.551  1.00  0.00     0.032 A 
ATOM      8  C   UNL A   1      37.054  21.760  24.559  1.00  0.00     0.032 A 
ATOM      9  C   UNL A   1      38.831  22.989  26.250  1.00  0.00     0.085 A 
ATOM     10  C   UNL A   1      38.097  21.029  25.141  1.00  0.00     0.085 A 
ATOM     11  Cl  UNL A   1      39.980  23.843  27.217  1.00  0.00    -0.080 Cl
ATOM     12  Cl  UNL A   1      38.304  19.392  24.613  1.00  0.00    -0.080 Cl
BRANCH   6  13
ATOM     13  C   UNL A   1      35.595  23.828  24.284  1.00  0.00     0.029 C 
ATOM     14  N   UNL A   1      32.020  23.171  24.476  1.00  0.00    -0.259 N 
ATOM     15  C   UNL A   1      32.475  21.962  24.910  1.00  0.00     0.294 C 
ATOM     16  C   UNL A   1      33.029  24.037  24.067  1.00  0.00     0.268 C 
ATOM     17  O   UNL A   1      32.005  21.234  25.765  1.00  0.00    -0.261 OA
ATOM     18  S   UNL A   1      33.955  21.614  24.071  1.00  0.00    -0.022 SA
ATOM     19  C   UNL A   1      34.363  23.294  24.083  1.00  0.00     0.083 C 
ATOM     20  O   UNL A   1      32.904  25.230  23.828  1.00  0.00    -0.268 OA
BRANCH  14  21
ATOM     21  C   UNL A   1      30.672  23.580  24.866  1.00  0.00     0.230 C 
BRANCH  21  22
ATOM     22  C   UNL A   1      30.666  24.434  26.160  1.00  0.00     0.244 C 
ATOM     23  N   UNL A   1      30.203  25.722  26.177  1.00  0.00    -0.325 N 
ATOM     24  H   UNL A   1      29.803  26.002  27.032  1.00  0.00     0.169 HD
ATOM     25  O   UNL A   1      31.035  23.943  27.232  1.00  0.00    -0.273 OA
BRANCH  23  26
ATOM     26  C   UNL A   1      30.202  26.710  25.185  1.00  0.00     0.041 A 
ATOM     27  C   UNL A   1      30.043  29.768  22.148  1.00  0.00     0.044 C 
ATOM     28  C   UNL A   1      30.058  28.710  23.209  1.00  0.00    -0.051 A 
ATOM     29  C   UNL A   1      31.018  28.774  24.222  1.00  0.00     0.005 A 
ATOM     30  C   UNL A   1      29.139  27.656  23.213  1.00  0.00     0.005 A 
ATOM     31  C   UNL A   1      31.080  27.789  25.206  1.00  0.00     0.026 A 
ATOM     32  C   UNL A   1      29.203  26.668  24.205  1.00  0.00     0.026 A 
ENDBRANCH  23  26
ENDBRANCH  21  22
ENDBRANCH  14  21
ENDBRANCH   6  13
ENDBRANCH   4   5
ENDBRANCH   3   4
ENDBRANCH   1   3
BRANCH   1  33
ATOM     33  O   UNL A   1      43.988  19.293  25.825  1.00  0.00    -0.460 OA
BRANCH  33  34
ATOM     34  C   UNL A   1      44.410  19.384  24.454  1.00  0.00     0.274 C 
BRANCH  34  35
ATOM     35  C   UNL A   1      45.737  20.147  24.380  1.00  0.00     0.275 C 
BRANCH  35  36
ATOM     36  O   UNL A   1      46.032  20.980  25.531  1.00  0.00    -0.458 OA
BRANCH  36  37
ATOM     37  C   UNL A   1      45.852  22.324  25.636  1.00  0.00     0.338 C 
ATOM     38  O   UNL A   1      46.788  23.106  25.632  1.00  0.00    -0.246 OA
BRANCH  37  39
ATOM     39  C   UNL A   1      44.522  22.770  26.120  1.00  0.00     0.060 A 
ATOM     40  C   UNL A   1      43.814  24.111  25.109  1.00  0.00     0.016 A 
ATOM     41  C   UNL A   1      44.146  22.689  27.879  1.00  0.00     0.016 A 
ATOM     42  C   UNL A   1      42.962  25.485  25.909  1.00  0.00     0.010 A 
ATOM     43  C   UNL A   1      43.249  24.068  28.665  1.00  0.00     0.010 A 
ATOM     44  C   UNL A   1      42.779  25.500  27.688  1.00  0.00    -0.014 A 
BRANCH  44  45
ATOM     45  C   UNL A   1      42.961  26.762  28.444  1.00  0.00     0.031 A 
ATOM     46  C   UNL A   1      41.762  27.531  28.784  1.00  0.00     0.074 A 
ATOM     47  C   UNL A   1      44.165  27.122  28.972  1.00  0.00     0.049 A 
ATOM     48  N   UNL A   1      41.766  28.792  29.032  1.00  0.00    -0.248 NA
ATOM     49  C   UNL A   1      40.425  26.957  28.765  1.00  0.00     0.031 C 
ATOM     50  C   UNL A   1      44.441  28.043  30.080  1.00  0.00     0.029 A 
ATOM     51  N   UNL A   1      45.443  26.750  28.588  1.00  0.00    -0.354 N 
ATOM     52  C   UNL A   1      40.521  29.121  29.516  1.00  0.00     0.074 A 
ATOM     53  C   UNL A   1      39.691  28.001  29.157  1.00  0.00     0.031 C 
ATOM     54  C   UNL A   1      45.761  28.307  30.142  1.00  0.00     0.029 A 
ATOM     55  C   UNL A   1      46.400  27.666  29.009  1.00  0.00     0.049 A 
ATOM     56  H   UNL A   1      45.649  25.933  28.078  1.00  0.00     0.167 HD
ATOM     57  C   UNL A   1      40.409  30.230  30.302  1.00  0.00     0.037 A 
ATOM     58  C   UNL A   1      47.225  28.272  28.104  1.00  0.00     0.037 A 
ATOM     59  C   UNL A   1      41.717  30.891  30.407  1.00  0.00     0.049 A 
ATOM     60  C   UNL A   1      46.820  29.716  27.903  1.00  0.00     0.074 A 
ATOM     61  C   UNL A   1      42.699  30.873  31.384  1.00  0.00     0.029 A 
ATOM     62  N   UNL A   1      42.318  31.393  29.258  1.00  0.00    -0.354 N 
ATOM     63  N   UNL A   1      45.682  30.189  28.337  1.00  0.00    -0.248 NA
ATOM     64  C   UNL A   1      47.628  30.744  27.254  1.00  0.00     0.031 C 
ATOM     65  C   UNL A   1      43.909  31.330  30.795  1.00  0.00     0.029 A 
ATOM     66  C   UNL A   1      43.657  31.655  29.470  1.00  0.00     0.049 A 
ATOM     67  H   UNL A   1      41.850  31.541  28.405  1.00  0.00     0.167 HD
ATOM     68  C   UNL A   1      45.586  31.520  28.062  1.00  0.00     0.074 A 
ATOM     69  C   UNL A   1      46.834  31.825  27.386  1.00  0.00     0.031 C 
ATOM     70  C   UNL A   1      44.476  32.236  28.412  1.00  0.00     0.037 A 
BRANCH  57  71
ATOM     71  C   UNL A   1      39.233  30.595  31.194  1.00  0.00     0.064 A 
ATOM     72  C   UNL A   1      38.078  31.191  30.633  1.00  0.00     0.173 A 
ATOM     73  C   UNL A   1      39.169  30.430  32.593  1.00  0.00     0.173 A 
ATOM     74  F   UNL A   1      37.954  31.369  29.312  1.00  0.00    -0.203 F 
ATOM     75  C   UNL A   1      36.998  31.632  31.407  1.00  0.00     0.198 A 
ATOM     76  C   UNL A   1      38.096  30.885  33.368  1.00  0.00     0.198 A 
ATOM     77  F   UNL A   1      40.113  29.791  33.283  1.00  0.00    -0.203 F 
ATOM     78  F   UNL A   1      35.944  32.204  30.809  1.00  0.00    -0.200 F 
ATOM     79  C   UNL A   1      37.012  31.490  32.777  1.00  0.00     0.200 A 
ATOM     80  F   UNL A   1      38.129  30.721  34.699  1.00  0.00    -0.200 F 
ATOM     81  F   UNL A   1      35.982  31.914  33.520  1.00  0.00    -0.200 F 
ENDBRANCH  57  71
BRANCH  58  82
ATOM     82  C   UNL A   1      47.720  27.305  27.080  1.00  0.00     0.064 A 
ATOM     83  C   UNL A   1      47.142  27.411  25.794  1.00  0.00     0.173 A 
ATOM     84  C   UNL A   1      48.979  26.699  27.167  1.00  0.00     0.173 A 
ATOM     85  F   UNL A   1      45.925  27.962  25.656  1.00  0.00    -0.203 F 
ATOM     86  C   UNL A   1      47.863  27.104  24.642  1.00  0.00     0.198 A 
ATOM     87  C   UNL A   1      49.685  26.357  26.007  1.00  0.00     0.198 A 
ATOM     88  F   UNL A   1      49.589  26.573  28.354  1.00  0.00    -0.203 F 
ATOM     89  F   UNL A   1      47.353  27.397  23.437  1.00  0.00    -0.200 F 
ATOM     90  C   UNL A   1      49.147  26.604  24.749  1.00  0.00     0.200 A 
ATOM     91  F   UNL A   1      50.946  25.910  26.106  1.00  0.00    -0.200 F 
ATOM     92  F   UNL A   1      49.894  26.429  23.649  1.00  0.00    -0.200 F 
ENDBRANCH  58  82
BRANCH  70  93
ATOM     93  C   UNL A   1      44.096  33.589  27.859  1.00  0.00     0.064 A 
ATOM     94  C   UNL A   1      43.711  33.807  26.528  1.00  0.00     0.173 A 
ATOM     95  C   UNL A   1      43.959  34.708  28.719  1.00  0.00     0.173 A 
ATOM     96  F   UNL A   1      43.626  32.805  25.646  1.00  0.00    -0.203 F 
ATOM     97  C   UNL A   1      43.328  35.068  26.067  1.00  0.00     0.198 A 
ATOM     98  C   UNL A   1      43.482  35.938  28.276  1.00  0.00     0.198 A 
ATOM     99  F   UNL A   1      44.249  34.643  30.026  1.00  0.00    -0.203 F 
ATOM    100  F   UNL A   1      43.053  35.240  24.767  1.00  0.00    -0.200 F 
ATOM    101  C   UNL A   1      43.203  36.130  26.942  1.00  0.00     0.200 A 
ATOM    102  F   UNL A   1      43.281  36.928  29.158  1.00  0.00    -0.200 F 
ATOM    103  F   UNL A   1      42.789  37.325  26.505  1.00  0.00    -0.200 F 
ENDBRANCH  70  93
ENDBRANCH  44  45
ENDBRANCH  37  39
ENDBRANCH  36  37
ENDBRANCH  35  36
ENDBRANCH  34  35
ENDBRANCH  33  34
ENDBRANCH   1  33
TORSDOF 17
ENDMDL
MODEL 2
REMARK VINA RESULT:     -14.1      1.611      2.383
REMARK SMILES Cc1ccc(NC(=O)CN2C(=O)S/C(=C\c3cc(Cl)c(OCC(=O)OCCOC(=O)c4ccc(-c5c6nc(c(-c7c(F)c(F)c(F)c(F)c7F)c7ccc([nH]7)c(-c7c(F)c(F)c(F)c(F)c7F)c7nc(c(-c8c(F)c(F)c(F)c(F)c8F)c8ccc5[nH]8)C=C7)C=C6)cc4)c(Cl)c3)C2=O)cc1
REMARK SMILES IDX 23 1 24 2 22 3 21 4 20 5 16 6 17 7 96 8 18 9 94 10 19 11
REMARK SMILES IDX 95 12 15 13 10 14 11 15 97 16 12 17 13 18 14 19 98 20 9 21
REMARK SMILES IDX 7 22 6 23 8 25 5 26 1 27 2 28 3 29 100 30 4 31 99 32 25 33
REMARK SMILES IDX 26 34 27 35 28 36 29 37 30 38 31 39 32 40 93 41 33 42 92 43
REMARK SMILES IDX 34 44 35 45 36 46 86 47 37 48 91 49 85 50 87 51 38 52 90 53
REMARK SMILES IDX 84 54 83 55 39 57 71 58 51 59 70 60 52 61 55 62 69 63 88 64
REMARK SMILES IDX 53 65 54 66 68 68 89 69 56 70 40 71 41 72 49 73 42 74 43 75
REMARK SMILES IDX 47 76 50 77 44 78 45 79 48 80 46 81 72 82 73 83 81 84 74 85
REMARK SMILES IDX 75 86 79 87 82 88 76 89 77 90 80 91 78 92 57 93 58 94 66 95
REMARK SMILES IDX 59 96 60 97 64 98 67 99 61 100 62 101 65 102 63 103
REMARK H PARENT 6 24 87 56 55 67
REMARK Flexibility Score: inf
ROOT
ATOM      1  C   UNL A   1      42.815  18.481  26.094  1.00  0.00     0.344 C 
ATOM      2  O   UNL A   1      42.350  17.358  25.737  1.00  0.00    -0.248 OA
ENDROOT
BRANCH   1   3
ATOM      3  C   UNL A   1      41.890  20.177  27.115  1.00  0.00     0.352 C 
BRANCH   3   4
ATOM      4  O   UNL A   1      40.470  20.756  27.493  1.00  0.00    -0.479 OA
BRANCH   4   5
ATOM      5  C   UNL A   1      39.723  21.664  26.769  1.00  0.00     0.157 A 
ATOM      6  C   UNL A   1      37.643  23.250  25.516  1.00  0.00    -0.021 A 
ATOM      7  C   UNL A   1      38.668  23.848  26.276  1.00  0.00     0.032 A 
ATOM      8  C   UNL A   1      37.811  21.877  25.294  1.00  0.00     0.032 A 
ATOM      9  C   UNL A   1      39.689  23.060  26.905  1.00  0.00     0.085 A 
ATOM     10  C   UNL A   1      38.876  21.127  25.806  1.00  0.00     0.085 A 
ATOM     11  Cl  UNL A   1      40.898  23.887  27.823  1.00  0.00    -0.080 Cl
ATOM     12  Cl  UNL A   1      39.038  19.498  25.239  1.00  0.00    -0.080 Cl
BRANCH   6  13
ATOM     13  C   UNL A   1      36.359  23.962  25.135  1.00  0.00     0.029 C 
ATOM     14  N   UNL A   1      32.842  23.069  24.848  1.00  0.00    -0.259 N 
ATOM     15  C   UNL A   1      33.362  21.818  25.002  1.00  0.00     0.294 C 
ATOM     16  C   UNL A   1      33.805  24.069  24.758  1.00  0.00     0.268 C 
ATOM     17  O   UNL A   1      32.893  20.868  25.603  1.00  0.00    -0.261 OA
ATOM     18  S   UNL A   1      34.917  21.785  24.232  1.00  0.00    -0.022 SA
ATOM     19  C   UNL A   1      35.190  23.427  24.702  1.00  0.00     0.083 C 
ATOM     20  O   UNL A   1      33.604  25.273  24.817  1.00  0.00    -0.268 OA
BRANCH  14  21
ATOM     21  C   UNL A   1      31.443  23.284  25.212  1.00  0.00     0.230 C 
BRANCH  21  22
ATOM     22  C   UNL A   1      31.292  24.134  26.499  1.00  0.00     0.244 C 
ATOM     23  N   UNL A   1      30.654  25.344  26.499  1.00  0.00    -0.325 N 
ATOM     24  H   UNL A   1      30.202  25.569  27.344  1.00  0.00     0.169 HD
ATOM     25  O   UNL A   1      31.703  23.702  27.582  1.00  0.00    -0.273 OA
BRANCH  23  26
ATOM     26  C   UNL A   1      30.536  26.319  25.500  1.00  0.00     0.041 A 
ATOM     27  C   UNL A   1      30.016  29.318  22.446  1.00  0.00     0.044 C 
ATOM     28  C   UNL A   1      30.156  28.277  23.513  1.00  0.00    -0.051 A 
ATOM     29  C   UNL A   1      31.114  28.451  24.515  1.00  0.00     0.005 A 
ATOM     30  C   UNL A   1      29.357  27.130  23.535  1.00  0.00     0.005 A 
ATOM     31  C   UNL A   1      31.293  27.486  25.504  1.00  0.00     0.026 A 
ATOM     32  C   UNL A   1      29.538  26.162  24.532  1.00  0.00     0.026 A 
ENDBRANCH  23  26
ENDBRANCH  21  22
ENDBRANCH  14  21
ENDBRANCH   6  13
ENDBRANCH   4   5
ENDBRANCH   3   4
ENDBRANCH   1   3
BRANCH   1  33
ATOM     33  O   UNL A   1      44.226  18.398  25.781  1.00  0.00    -0.460 OA
BRANCH  33  34
ATOM     34  C   UNL A   1      44.649  18.864  24.488  1.00  0.00     0.274 C 
BRANCH  34  35
ATOM     35  C   UNL A   1      45.179  20.296  24.612  1.00  0.00     0.275 C 
BRANCH  35  36
ATOM     36  O   UNL A   1      44.227  21.336  24.265  1.00  0.00    -0.458 OA
BRANCH  36  37
ATOM     37  C   UNL A   1      43.935  22.451  24.986  1.00  0.00     0.338 C 
ATOM     38  O   UNL A   1      42.846  22.998  24.922  1.00  0.00    -0.246 OA
BRANCH  37  39
ATOM     39  C   UNL A   1      45.092  23.180  25.562  1.00  0.00     0.060 A 
ATOM     40  C   UNL A   1      45.303  22.876  27.346  1.00  0.00     0.016 A 
ATOM     41  C   UNL A   1      45.573  24.770  24.868  1.00  0.00     0.016 A 
ATOM     42  C   UNL A   1      45.742  24.237  28.444  1.00  0.00     0.010 A 
ATOM     43  C   UNL A   1      46.052  26.125  25.989  1.00  0.00     0.010 A 
ATOM     44  C   UNL A   1      46.011  25.871  27.767  1.00  0.00    -0.014 A 
BRANCH  44  45
ATOM     45  C   UNL A   1      45.498  27.065  28.479  1.00  0.00     0.031 A 
ATOM     46  C   UNL A   1      44.071  27.372  28.352  1.00  0.00     0.074 A 
ATOM     47  C   UNL A   1      46.260  27.761  29.369  1.00  0.00     0.049 A 
ATOM     48  N   UNL A   1      43.572  28.542  28.527  1.00  0.00    -0.248 NA
ATOM     49  C   UNL A   1      43.091  26.394  27.905  1.00  0.00     0.031 C 
ATOM     50  C   UNL A   1      45.823  28.638  30.460  1.00  0.00     0.029 A 
ATOM     51  N   UNL A   1      47.639  27.857  29.463  1.00  0.00    -0.354 N 
ATOM     52  C   UNL A   1      42.202  28.409  28.540  1.00  0.00     0.074 A 
ATOM     53  C   UNL A   1      41.965  27.108  27.972  1.00  0.00     0.031 C 
ATOM     54  C   UNL A   1      46.877  29.316  30.956  1.00  0.00     0.029 A 
ATOM     55  C   UNL A   1      48.035  29.003  30.142  1.00  0.00     0.049 A 
ATOM     56  H   UNL A   1      48.264  27.192  29.093  1.00  0.00     0.167 HD
ATOM     57  C   UNL A   1      41.470  29.360  29.188  1.00  0.00     0.037 A 
ATOM     58  C   UNL A   1      48.866  29.910  29.546  1.00  0.00     0.037 A 
ATOM     59  C   UNL A   1      42.367  30.404  29.701  1.00  0.00     0.049 A 
ATOM     60  C   UNL A   1      48.096  31.152  29.150  1.00  0.00     0.074 A 
ATOM     61  C   UNL A   1      42.908  30.640  30.955  1.00  0.00     0.029 A 
ATOM     62  N   UNL A   1      43.117  31.157  28.805  1.00  0.00    -0.354 N 
ATOM     63  N   UNL A   1      46.791  31.193  29.146  1.00  0.00    -0.248 NA
ATOM     64  C   UNL A   1      48.685  32.432  28.768  1.00  0.00     0.031 C 
ATOM     65  C   UNL A   1      44.021  31.510  30.794  1.00  0.00     0.029 A 
ATOM     66  C   UNL A   1      44.138  31.828  29.449  1.00  0.00     0.049 A 
ATOM     67  H   UNL A   1      42.943  31.205  27.837  1.00  0.00     0.167 HD
ATOM     68  C   UNL A   1      46.357  32.435  28.793  1.00  0.00     0.074 A 
ATOM     69  C   UNL A   1      47.582  33.180  28.570  1.00  0.00     0.031 C 
ATOM     70  C   UNL A   1      45.023  32.720  28.708  1.00  0.00     0.037 A 
BRANCH  57  71
ATOM     71  C   UNL A   1      40.012  29.254  29.606  1.00  0.00     0.064 A 
ATOM     72  C   UNL A   1      38.987  29.388  28.638  1.00  0.00     0.173 A 
ATOM     73  C   UNL A   1      39.537  29.062  30.919  1.00  0.00     0.173 A 
ATOM     74  F   UNL A   1      39.268  29.521  27.336  1.00  0.00    -0.203 F 
ATOM     75  C   UNL A   1      37.627  29.389  28.967  1.00  0.00     0.198 A 
ATOM     76  C   UNL A   1      38.177  29.079  31.250  1.00  0.00     0.198 A 
ATOM     77  F   UNL A   1      40.349  28.810  31.945  1.00  0.00    -0.203 F 
ATOM     78  F   UNL A   1      36.711  29.537  28.000  1.00  0.00    -0.200 F 
ATOM     79  C   UNL A   1      37.221  29.246  30.276  1.00  0.00     0.200 A 
ATOM     80  F   UNL A   1      37.809  28.924  32.530  1.00  0.00    -0.200 F 
ATOM     81  F   UNL A   1      35.921  29.251  30.595  1.00  0.00    -0.200 F 
ENDBRANCH  57  71
BRANCH  58  82
ATOM     82  C   UNL A   1      49.969  29.235  28.800  1.00  0.00     0.064 A 
ATOM     83  C   UNL A   1      50.907  28.526  29.584  1.00  0.00     0.173 A 
ATOM     84  C   UNL A   1      49.846  28.861  27.456  1.00  0.00     0.173 A 
ATOM     85  F   UNL A   1      51.082  28.859  30.874  1.00  0.00    -0.203 F 
ATOM     86  C   UNL A   1      51.545  27.384  29.104  1.00  0.00     0.198 A 
ATOM     87  C   UNL A   1      50.520  27.735  26.968  1.00  0.00     0.198 A 
ATOM     88  F   UNL A   1      48.970  29.485  26.657  1.00  0.00    -0.203 F 
ATOM     89  F   UNL A   1      52.278  26.629  29.936  1.00  0.00    -0.200 F 
ATOM     90  C   UNL A   1      51.328  26.972  27.803  1.00  0.00     0.200 A 
ATOM     91  F   UNL A   1      50.280  27.309  25.718  1.00  0.00    -0.200 F 
ATOM     92  F   UNL A   1      51.834  25.806  27.374  1.00  0.00    -0.200 F 
ENDBRANCH  58  82
BRANCH  70  93
ATOM     93  C   UNL A   1      44.425  33.909  27.995  1.00  0.00     0.064 A 
ATOM     94  C   UNL A   1      43.922  33.862  26.686  1.00  0.00     0.173 A 
ATOM     95  C   UNL A   1      44.197  35.127  28.687  1.00  0.00     0.173 A 
ATOM     96  F   UNL A   1      43.913  32.728  25.976  1.00  0.00    -0.203 F 
ATOM     97  C   UNL A   1      43.341  34.976  26.079  1.00  0.00     0.198 A 
ATOM     98  C   UNL A   1      43.529  36.202  28.109  1.00  0.00     0.198 A 
ATOM     99  F   UNL A   1      44.584  35.308  29.957  1.00  0.00    -0.203 F 
ATOM    100  F   UNL A   1      42.955  34.902  24.797  1.00  0.00    -0.200 F 
ATOM    101  C   UNL A   1      43.134  36.141  26.792  1.00  0.00     0.200 A 
ATOM    102  F   UNL A   1      43.257  37.288  28.847  1.00  0.00    -0.200 F 
ATOM    103  F   UNL A   1      42.532  37.190  26.219  1.00  0.00    -0.200 F 
ENDBRANCH  70  93
ENDBRANCH  44  45
ENDBRANCH  37  39
ENDBRANCH  36  37
ENDBRANCH  35  36
ENDBRANCH  34  35
ENDBRANCH  33  34
ENDBRANCH   1  33
TORSDOF 17
ENDMDL
MODEL 3
REMARK VINA RESULT:     -12.8      4.432      9.417
REMARK SMILES Cc1ccc(NC(=O)CN2C(=O)S/C(=C\c3cc(Cl)c(OCC(=O)OCCOC(=O)c4ccc(-c5c6nc(c(-c7c(F)c(F)c(F)c(F)c7F)c7ccc([nH]7)c(-c7c(F)c(F)c(F)c(F)c7F)c7nc(c(-c8c(F)c(F)c(F)c(F)c8F)c8ccc5[nH]8)C=C7)C=C6)cc4)c(Cl)c3)C2=O)cc1
REMARK SMILES IDX 23 1 24 2 22 3 21 4 20 5 16 6 17 7 96 8 18 9 94 10 19 11
REMARK SMILES IDX 95 12 15 13 10 14 11 15 97 16 12 17 13 18 14 19 98 20 9 21
REMARK SMILES IDX 7 22 6 23 8 25 5 26 1 27 2 28 3 29 100 30 4 31 99 32 25 33
REMARK SMILES IDX 26 34 27 35 28 36 29 37 30 38 31 39 32 40 93 41 33 42 92 43
REMARK SMILES IDX 34 44 35 45 36 46 86 47 37 48 91 49 85 50 87 51 38 52 90 53
REMARK SMILES IDX 84 54 83 55 39 57 71 58 51 59 70 60 52 61 55 62 69 63 88 64
REMARK SMILES IDX 53 65 54 66 68 68 89 69 56 70 40 71 41 72 49 73 42 74 43 75
REMARK SMILES IDX 47 76 50 77 44 78 45 79 48 80 46 81 72 82 73 83 81 84 74 85
REMARK SMILES IDX 75 86 79 87 82 88 76 89 77 90 80 91 78 92 57 93 58 94 66 95
REMARK SMILES IDX 59 96 60 97 64 98 67 99 61 100 62 101 65 102 63 103
REMARK H PARENT 6 24 87 56 55 67
REMARK Flexibility Score: inf
ROOT
ATOM      1  C   UNL A   1      37.127  33.351  32.744  1.00  0.00     0.344 C 
ATOM      2  O   UNL A   1      37.473  34.222  33.595  1.00  0.00    -0.248 OA
ENDROOT
BRANCH   1   3
ATOM      3  C   UNL A   1      35.737  33.439  31.059  1.00  0.00     0.352 C 
BRANCH   3   4
ATOM      4  O   UNL A   1      35.724  33.510  29.481  1.00  0.00    -0.479 OA
BRANCH   4   5
ATOM      5  C   UNL A   1      35.312  32.524  28.609  1.00  0.00     0.157 A 
ATOM      6  C   UNL A   1      34.509  30.061  27.302  1.00  0.00    -0.021 A 
ATOM      7  C   UNL A   1      33.692  31.208  27.278  1.00  0.00     0.032 A 
ATOM      8  C   UNL A   1      35.778  30.265  27.860  1.00  0.00     0.032 A 
ATOM      9  C   UNL A   1      34.085  32.421  27.935  1.00  0.00     0.085 A 
ATOM     10  C   UNL A   1      36.211  31.485  28.392  1.00  0.00     0.085 A 
ATOM     11  Cl  UNL A   1      33.008  33.771  27.854  1.00  0.00    -0.080 Cl
ATOM     12  Cl  UNL A   1      37.884  31.607  28.826  1.00  0.00    -0.080 Cl
BRANCH   6  13
ATOM     13  C   UNL A   1      34.013  28.671  26.953  1.00  0.00     0.029 C 
ATOM     14  N   UNL A   1      33.331  26.814  23.897  1.00  0.00    -0.259 N 
ATOM     15  C   UNL A   1      33.506  28.051  23.352  1.00  0.00     0.294 C 
ATOM     16  C   UNL A   1      33.370  26.803  25.287  1.00  0.00     0.268 C 
ATOM     17  O   UNL A   1      34.029  28.349  22.294  1.00  0.00    -0.261 OA
ATOM     18  S   UNL A   1      32.906  29.225  24.482  1.00  0.00    -0.022 SA
ATOM     19  C   UNL A   1      33.444  28.240  25.798  1.00  0.00     0.083 C 
ATOM     20  O   UNL A   1      33.438  25.812  26.001  1.00  0.00    -0.268 OA
BRANCH  14  21
ATOM     21  C   UNL A   1      33.549  25.648  23.044  1.00  0.00     0.230 C 
BRANCH  21  22
ATOM     22  C   UNL A   1      32.282  25.261  22.239  1.00  0.00     0.244 C 
ATOM     23  N   UNL A   1      31.446  24.256  22.641  1.00  0.00    -0.325 N 
ATOM     24  H   UNL A   1      30.502  24.383  22.391  1.00  0.00     0.169 HD
ATOM     25  O   UNL A   1      31.967  25.900  21.229  1.00  0.00    -0.273 OA
BRANCH  23  26
ATOM     26  C   UNL A   1      31.705  23.075  23.348  1.00  0.00     0.041 A 
ATOM     27  C   UNL A   1      32.650  19.440  25.469  1.00  0.00     0.044 C 
ATOM     28  C   UNL A   1      32.360  20.704  24.718  1.00  0.00    -0.051 A 
ATOM     29  C   UNL A   1      31.727  21.760  25.379  1.00  0.00     0.005 A 
ATOM     30  C   UNL A   1      32.702  20.857  23.371  1.00  0.00     0.005 A 
ATOM     31  C   UNL A   1      31.414  22.937  24.702  1.00  0.00     0.026 A 
ATOM     32  C   UNL A   1      32.387  22.043  22.694  1.00  0.00     0.026 A 
ENDBRANCH  23  26
ENDBRANCH  21  22
ENDBRANCH  14  21
ENDBRANCH   6  13
ENDBRANCH   4   5
ENDBRANCH   3   4
ENDBRANCH   1   3
BRANCH   1  33
ATOM     33  O   UNL A   1      37.970  32.211  33.036  1.00  0.00    -0.460 OA
BRANCH  33  34
ATOM     34  C   UNL A   1      37.351  31.063  33.641  1.00  0.00     0.274 C 
BRANCH  34  35
ATOM     35  C   UNL A   1      36.875  30.105  32.544  1.00  0.00     0.275 C 
BRANCH  35  36
ATOM     36  O   UNL A   1      37.451  28.774  32.598  1.00  0.00    -0.458 OA
BRANCH  36  37
ATOM     37  C   UNL A   1      38.639  28.375  32.067  1.00  0.00     0.338 C 
ATOM     38  O   UNL A   1      39.327  27.515  32.592  1.00  0.00    -0.246 OA
BRANCH  37  39
ATOM     39  C   UNL A   1      39.233  29.272  31.046  1.00  0.00     0.060 A 
ATOM     40  C   UNL A   1      39.422  28.468  29.422  1.00  0.00     0.016 A 
ATOM     41  C   UNL A   1      40.409  30.538  31.554  1.00  0.00     0.016 A 
ATOM     42  C   UNL A   1      40.915  28.748  28.449  1.00  0.00     0.010 A 
ATOM     43  C   UNL A   1      41.893  30.837  30.538  1.00  0.00     0.010 A 
ATOM     44  C   UNL A   1      42.181  29.850  29.065  1.00  0.00    -0.014 A 
BRANCH  44  45
ATOM     45  C   UNL A   1      43.612  29.496  28.915  1.00  0.00     0.031 A 
ATOM     46  C   UNL A   1      44.536  30.554  28.499  1.00  0.00     0.074 A 
ATOM     47  C   UNL A   1      44.106  28.291  29.318  1.00  0.00     0.049 A 
ATOM     48  N   UNL A   1      45.664  30.335  27.926  1.00  0.00    -0.248 NA
ATOM     49  C   UNL A   1      44.210  31.969  28.597  1.00  0.00     0.031 C 
ATOM     50  C   UNL A   1      45.486  27.937  29.665  1.00  0.00     0.029 A 
ATOM     51  N   UNL A   1      43.454  27.078  29.473  1.00  0.00    -0.354 N 
ATOM     52  C   UNL A   1      46.343  31.532  27.880  1.00  0.00     0.074 A 
ATOM     53  C   UNL A   1      45.332  32.525  28.136  1.00  0.00     0.031 C 
ATOM     54  C   UNL A   1      45.602  26.599  29.785  1.00  0.00     0.029 A 
ATOM     55  C   UNL A   1      44.334  26.004  29.411  1.00  0.00     0.049 A 
ATOM     56  H   UNL A   1      42.483  26.989  29.611  1.00  0.00     0.167 HD
ATOM     57  C   UNL A   1      47.703  31.497  27.796  1.00  0.00     0.037 A 
ATOM     58  C   UNL A   1      44.154  25.013  28.488  1.00  0.00     0.037 A 
ATOM     59  C   UNL A   1      48.153  30.102  27.706  1.00  0.00     0.049 A 
ATOM     60  C   UNL A   1      45.182  25.126  27.383  1.00  0.00     0.074 A 
ATOM     61  C   UNL A   1      48.659  29.219  28.646  1.00  0.00     0.029 A 
ATOM     62  N   UNL A   1      47.761  29.330  26.617  1.00  0.00    -0.354 N 
ATOM     63  N   UNL A   1      45.929  26.186  27.230  1.00  0.00    -0.248 NA
ATOM     64  C   UNL A   1      45.489  24.093  26.398  1.00  0.00     0.031 C 
ATOM     65  C   UNL A   1      48.525  27.902  28.126  1.00  0.00     0.029 A 
ATOM     66  C   UNL A   1      47.968  27.986  26.859  1.00  0.00     0.049 A 
ATOM     67  H   UNL A   1      47.385  29.695  25.784  1.00  0.00     0.167 HD
ATOM     68  C   UNL A   1      46.793  26.012  26.191  1.00  0.00     0.074 A 
ATOM     69  C   UNL A   1      46.483  24.681  25.703  1.00  0.00     0.031 C 
ATOM     70  C   UNL A   1      47.673  26.993  25.831  1.00  0.00     0.037 A 
BRANCH  57  71
ATOM     71  C   UNL A   1      48.659  32.650  28.056  1.00  0.00     0.064 A 
ATOM     72  C   UNL A   1      48.752  33.715  27.128  1.00  0.00     0.173 A 
ATOM     73  C   UNL A   1      49.532  32.772  29.156  1.00  0.00     0.173 A 
ATOM     74  F   UNL A   1      47.953  33.781  26.056  1.00  0.00    -0.203 F 
ATOM     75  C   UNL A   1      49.672  34.761  27.262  1.00  0.00     0.198 A 
ATOM     76  C   UNL A   1      50.463  33.810  29.281  1.00  0.00     0.198 A 
ATOM     77  F   UNL A   1      49.513  31.926  30.184  1.00  0.00    -0.203 F 
ATOM     78  F   UNL A   1      49.717  35.729  26.335  1.00  0.00    -0.200 F 
ATOM     79  C   UNL A   1      50.537  34.803  28.333  1.00  0.00     0.200 A 
ATOM     80  F   UNL A   1      51.284  33.834  30.342  1.00  0.00    -0.200 F 
ATOM     81  F   UNL A   1      51.421  35.801  28.462  1.00  0.00    -0.200 F 
ENDBRANCH  57  71
BRANCH  58  82
ATOM     82  C   UNL A   1      42.716  24.628  28.371  1.00  0.00     0.064 A 
ATOM     83  C   UNL A   1      41.970  25.304  27.378  1.00  0.00     0.173 A 
ATOM     84  C   UNL A   1      42.236  23.383  28.793  1.00  0.00     0.173 A 
ATOM     85  F   UNL A   1      42.373  26.513  26.952  1.00  0.00    -0.203 F 
ATOM     86  C   UNL A   1      40.915  24.686  26.710  1.00  0.00     0.198 A 
ATOM     87  C   UNL A   1      41.151  22.782  28.145  1.00  0.00     0.198 A 
ATOM     88  F   UNL A   1      42.897  22.683  29.726  1.00  0.00    -0.203 F 
ATOM     89  F   UNL A   1      40.357  25.283  25.647  1.00  0.00    -0.200 F 
ATOM     90  C   UNL A   1      40.525  23.412  27.075  1.00  0.00     0.200 A 
ATOM     91  F   UNL A   1      40.795  21.530  28.469  1.00  0.00    -0.200 F 
ATOM     92  F   UNL A   1      39.599  22.761  26.354  1.00  0.00    -0.200 F 
ENDBRANCH  58  82
BRANCH  70  93
ATOM     93  C   UNL A   1      48.406  27.072  24.513  1.00  0.00     0.064 A 
ATOM     94  C   UNL A   1      47.852  27.611  23.343  1.00  0.00     0.173 A 
ATOM     95  C   UNL A   1      49.782  26.734  24.431  1.00  0.00     0.173 A 
ATOM     96  F   UNL A   1      46.619  28.130  23.322  1.00  0.00    -0.203 F 
ATOM     97  C   UNL A   1      48.580  27.701  22.155  1.00  0.00     0.198 A 
ATOM     98  C   UNL A   1      50.529  26.918  23.272  1.00  0.00     0.198 A 
ATOM     99  F   UNL A   1      50.459  26.246  25.479  1.00  0.00    -0.203 F 
ATOM    100  F   UNL A   1      47.976  28.145  21.044  1.00  0.00    -0.200 F 
ATOM    101  C   UNL A   1      49.919  27.366  22.122  1.00  0.00     0.200 A 
ATOM    102  F   UNL A   1      51.847  26.673  23.287  1.00  0.00    -0.200 F 
ATOM    103  F   UNL A   1      50.625  27.500  20.992  1.00  0.00    -0.200 F 
ENDBRANCH  70  93
ENDBRANCH  44  45
ENDBRANCH  37  39
ENDBRANCH  36  37
ENDBRANCH  35  36
ENDBRANCH  34  35
ENDBRANCH  33  34
ENDBRANCH   1  33
TORSDOF 17
ENDMDL
