MODEL 1
REMARK VINA RESULT:     -11.9      0.000      0.000
REMARK SMILES C[C@](NC(=O)c1ccc(Br)o1)(C(=O)OCCOC(=O)c1ccc(-c2c3nc(c(-c4c(F)c(F)c(F)c(F)c4F)c4ccc([nH]4)c(-c4c(F)c(F)c(F)c(F)c4F)c4nc(c(-c5c(F)c(F)c(F)c(F)c5F)c5ccc2[nH]5)C=C4)C=C3)cc1)C(F)(F)F
REMARK SMILES IDX 15 1 14 2 12 3 13 4 2 5 1 6 83 7 84 8 85 9 86 10 3 11 4 12
REMARK SMILES IDX 5 14 6 15 7 16 11 17 8 18 9 19 10 20 16 21 17 22 18 23 19 24
REMARK SMILES IDX 20 25 21 26 82 27 22 28 81 29 23 30 24 31 25 32 75 33 26 34
REMARK SMILES IDX 80 35 74 36 76 37 27 38 79 39 73 40 72 41 28 43 60 44 40 45
REMARK SMILES IDX 59 46 41 47 44 48 58 49 77 50 42 51 43 52 57 54 78 55 45 56
REMARK SMILES IDX 29 57 30 58 38 59 31 60 32 61 36 62 39 63 33 64 34 65 37 66
REMARK SMILES IDX 35 67 61 68 62 69 70 70 63 71 64 72 68 73 71 74 65 75 66 76
REMARK SMILES IDX 69 77 67 78 46 79 47 80 55 81 48 82 49 83 53 84 56 85 50 86
REMARK SMILES IDX 51 87 54 88 52 89
REMARK H PARENT 3 13 76 42 44 53
REMARK Flexibility Score: inf
ROOT
ATOM      1  C   UNL A   1      31.209  28.994  24.673  1.00  0.00     0.274 C 
ENDROOT
BRANCH   1   2
ATOM      2  O   UNL A   1      30.895  27.584  24.672  1.00  0.00    -0.460 OA
BRANCH   2   3
ATOM      3  C   UNL A   1      31.677  26.768  23.912  1.00  0.00     0.341 C 
ATOM      4  O   UNL A   1      31.742  26.837  22.690  1.00  0.00    -0.249 OA
BRANCH   3   5
ATOM      5  C   UNL A   1      32.393  25.688  24.738  1.00  0.00     0.231 C 
ATOM      6  C   UNL A   1      32.869  24.621  23.746  1.00  0.00     0.058 C 
BRANCH   5   7
ATOM      7  C   UNL A   1      33.649  26.344  25.332  1.00  0.00     0.422 C 
ATOM      8  F   UNL A   1      33.435  26.759  26.602  1.00  0.00    -0.168 F 
ATOM      9  F   UNL A   1      34.669  25.448  25.392  1.00  0.00    -0.168 F 
ATOM     10  F   UNL A   1      34.107  27.396  24.622  1.00  0.00    -0.168 F 
ENDBRANCH   5   7
BRANCH   5  11
ATOM     11  N   UNL A   1      31.527  25.202  25.864  1.00  0.00    -0.326 N 
ATOM     12  C   UNL A   1      31.413  24.025  26.547  1.00  0.00     0.288 C 
ATOM     13  H   UNL A   1      30.898  25.889  26.183  1.00  0.00     0.165 HD
ATOM     14  O   UNL A   1      30.414  23.872  27.249  1.00  0.00    -0.266 OA
BRANCH  12  15
ATOM     15  C   UNL A   1      32.463  23.052  26.466  1.00  0.00     0.192 A 
ATOM     16  C   UNL A   1      33.699  22.984  27.083  1.00  0.00     0.057 A 
ATOM     17  O   UNL A   1      32.272  21.947  25.688  1.00  0.00    -0.444 OA
ATOM     18  C   UNL A   1      34.304  21.785  26.635  1.00  0.00     0.059 A 
ATOM     19  C   UNL A   1      33.389  21.180  25.804  1.00  0.00     0.170 A 
ATOM     20  Br  UNL A   1      33.633  19.544  24.946  1.00  0.00    -0.008 Br
ENDBRANCH  12  15
ENDBRANCH   5  11
ENDBRANCH   3   5
ENDBRANCH   2   3
ENDBRANCH   1   2
BRANCH   1  21
ATOM     21  C   UNL A   1      31.686  29.464  26.046  1.00  0.00     0.275 C 
BRANCH  21  22
ATOM     22  O   UNL A   1      32.981  30.084  25.953  1.00  0.00    -0.458 OA
BRANCH  22  23
ATOM     23  C   UNL A   1      33.221  31.035  26.882  1.00  0.00     0.338 C 
ATOM     24  O   UNL A   1      32.435  31.849  27.338  1.00  0.00    -0.246 OA
BRANCH  23  25
ATOM     25  C   UNL A   1      34.577  30.865  27.411  1.00  0.00     0.060 A 
ATOM     26  C   UNL A   1      35.012  29.567  27.660  1.00  0.00     0.016 A 
ATOM     27  C   UNL A   1      35.344  31.957  27.807  1.00  0.00     0.016 A 
ATOM     28  C   UNL A   1      36.159  29.342  28.405  1.00  0.00     0.010 A 
ATOM     29  C   UNL A   1      36.554  31.728  28.470  1.00  0.00     0.010 A 
ATOM     30  C   UNL A   1      36.954  30.419  28.804  1.00  0.00    -0.014 A 
BRANCH  30  31
ATOM     31  C   UNL A   1      38.183  30.182  29.601  1.00  0.00     0.031 A 
ATOM     32  C   UNL A   1      39.272  29.311  29.048  1.00  0.00     0.074 A 
ATOM     33  C   UNL A   1      38.326  30.742  30.817  1.00  0.00     0.049 A 
ATOM     34  N   UNL A   1      40.283  28.755  29.664  1.00  0.00    -0.248 NA
ATOM     35  C   UNL A   1      39.205  29.015  27.608  1.00  0.00     0.031 C 
ATOM     36  C   UNL A   1      37.381  31.671  31.439  1.00  0.00     0.029 A 
ATOM     37  N   UNL A   1      39.318  30.600  31.754  1.00  0.00    -0.354 N 
ATOM     38  C   UNL A   1      40.925  27.981  28.708  1.00  0.00     0.074 A 
ATOM     39  C   UNL A   1      40.208  28.159  27.463  1.00  0.00     0.031 C 
ATOM     40  C   UNL A   1      37.842  32.021  32.648  1.00  0.00     0.029 A 
ATOM     41  C   UNL A   1      39.060  31.268  32.924  1.00  0.00     0.049 A 
ATOM     42  H   UNL A   1      40.135  30.071  31.601  1.00  0.00     0.167 HD
ATOM     43  C   UNL A   1      42.005  27.180  28.869  1.00  0.00     0.037 A 
ATOM     44  C   UNL A   1      39.690  31.226  34.112  1.00  0.00     0.037 A 
ATOM     45  C   UNL A   1      42.744  27.065  30.099  1.00  0.00     0.049 A 
ATOM     46  C   UNL A   1      40.879  30.326  34.277  1.00  0.00     0.074 A 
ATOM     47  C   UNL A   1      43.864  26.297  30.368  1.00  0.00     0.029 A 
ATOM     48  N   UNL A   1      42.445  27.758  31.263  1.00  0.00    -0.354 N 
ATOM     49  N   UNL A   1      41.432  29.526  33.399  1.00  0.00    -0.248 NA
ATOM     50  C   UNL A   1      41.515  30.304  35.599  1.00  0.00     0.031 C 
ATOM     51  C   UNL A   1      44.226  26.506  31.704  1.00  0.00     0.029 A 
ATOM     52  C   UNL A   1      43.352  27.429  32.257  1.00  0.00     0.049 A 
ATOM     53  H   UNL A   1      41.698  28.391  31.367  1.00  0.00     0.167 HD
ATOM     54  C   UNL A   1      42.480  28.902  34.059  1.00  0.00     0.074 A 
ATOM     55  C   UNL A   1      42.496  29.433  35.408  1.00  0.00     0.031 C 
ATOM     56  C   UNL A   1      43.345  27.970  33.591  1.00  0.00     0.037 A 
BRANCH  43  57
ATOM     57  C   UNL A   1      42.407  26.323  27.708  1.00  0.00     0.064 A 
ATOM     58  C   UNL A   1      41.825  25.072  27.463  1.00  0.00     0.173 A 
ATOM     59  C   UNL A   1      43.398  26.771  26.819  1.00  0.00     0.173 A 
ATOM     60  F   UNL A   1      40.887  24.590  28.292  1.00  0.00    -0.203 F 
ATOM     61  C   UNL A   1      42.238  24.290  26.386  1.00  0.00     0.198 A 
ATOM     62  C   UNL A   1      43.791  25.998  25.731  1.00  0.00     0.198 A 
ATOM     63  F   UNL A   1      43.986  27.963  27.009  1.00  0.00    -0.203 F 
ATOM     64  F   UNL A   1      41.702  23.075  26.197  1.00  0.00    -0.200 F 
ATOM     65  C   UNL A   1      43.217  24.754  25.519  1.00  0.00     0.200 A 
ATOM     66  F   UNL A   1      44.732  26.453  24.892  1.00  0.00    -0.200 F 
ATOM     67  F   UNL A   1      43.614  23.999  24.486  1.00  0.00    -0.200 F 
ENDBRANCH  43  57
BRANCH  44  68
ATOM     68  C   UNL A   1      39.147  32.018  35.244  1.00  0.00     0.064 A 
ATOM     69  C   UNL A   1      38.405  31.409  36.263  1.00  0.00     0.173 A 
ATOM     70  C   UNL A   1      39.420  33.390  35.362  1.00  0.00     0.173 A 
ATOM     71  F   UNL A   1      38.103  30.105  36.181  1.00  0.00    -0.203 F 
ATOM     72  C   UNL A   1      37.962  32.141  37.362  1.00  0.00     0.198 A 
ATOM     73  C   UNL A   1      38.999  34.115  36.473  1.00  0.00     0.198 A 
ATOM     74  F   UNL A   1      40.131  34.016  34.412  1.00  0.00    -0.203 F 
ATOM     75  F   UNL A   1      37.240  31.539  38.317  1.00  0.00    -0.200 F 
ATOM     76  C   UNL A   1      38.270  33.489  37.473  1.00  0.00     0.200 A 
ATOM     77  F   UNL A   1      39.314  35.412  36.583  1.00  0.00    -0.200 F 
ATOM     78  F   UNL A   1      37.864  34.186  38.543  1.00  0.00    -0.200 F 
ENDBRANCH  44  68
BRANCH  56  79
ATOM     79  C   UNL A   1      44.392  27.479  34.542  1.00  0.00     0.064 A 
ATOM     80  C   UNL A   1      44.212  26.300  35.278  1.00  0.00     0.173 A 
ATOM     81  C   UNL A   1      45.605  28.168  34.680  1.00  0.00     0.173 A 
ATOM     82  F   UNL A   1      43.060  25.617  35.189  1.00  0.00    -0.203 F 
ATOM     83  C   UNL A   1      45.208  25.833  36.130  1.00  0.00     0.198 A 
ATOM     84  C   UNL A   1      46.606  27.689  35.518  1.00  0.00     0.198 A 
ATOM     85  F   UNL A   1      45.821  29.300  33.993  1.00  0.00    -0.203 F 
ATOM     86  F   UNL A   1      45.007  24.719  36.849  1.00  0.00    -0.200 F 
ATOM     87  C   UNL A   1      46.407  26.524  36.245  1.00  0.00     0.200 A 
ATOM     88  F   UNL A   1      47.765  28.354  35.625  1.00  0.00    -0.200 F 
ATOM     89  F   UNL A   1      47.367  26.071  37.061  1.00  0.00    -0.200 F 
ENDBRANCH  56  79
ENDBRANCH  30  31
ENDBRANCH  23  25
ENDBRANCH  22  23
ENDBRANCH  21  22
ENDBRANCH   1  21
TORSDOF 14
ENDMDL
MODEL 2
REMARK VINA RESULT:     -11.8      4.480      9.718
REMARK SMILES C[C@](NC(=O)c1ccc(Br)o1)(C(=O)OCCOC(=O)c1ccc(-c2c3nc(c(-c4c(F)c(F)c(F)c(F)c4F)c4ccc([nH]4)c(-c4c(F)c(F)c(F)c(F)c4F)c4nc(c(-c5c(F)c(F)c(F)c(F)c5F)c5ccc2[nH]5)C=C4)C=C3)cc1)C(F)(F)F
REMARK SMILES IDX 15 1 14 2 12 3 13 4 2 5 1 6 83 7 84 8 85 9 86 10 3 11 4 12
REMARK SMILES IDX 5 14 6 15 7 16 11 17 8 18 9 19 10 20 16 21 17 22 18 23 19 24
REMARK SMILES IDX 20 25 21 26 82 27 22 28 81 29 23 30 24 31 25 32 75 33 26 34
REMARK SMILES IDX 80 35 74 36 76 37 27 38 79 39 73 40 72 41 28 43 60 44 40 45
REMARK SMILES IDX 59 46 41 47 44 48 58 49 77 50 42 51 43 52 57 54 78 55 45 56
REMARK SMILES IDX 29 57 30 58 38 59 31 60 32 61 36 62 39 63 33 64 34 65 37 66
REMARK SMILES IDX 35 67 61 68 62 69 70 70 63 71 64 72 68 73 71 74 65 75 66 76
REMARK SMILES IDX 69 77 67 78 46 79 47 80 55 81 48 82 49 83 53 84 56 85 50 86
REMARK SMILES IDX 51 87 54 88 52 89
REMARK H PARENT 3 13 76 42 44 53
REMARK Flexibility Score: inf
ROOT
ATOM      1  C   UNL A   1      35.830  20.353  25.007  1.00  0.00     0.274 C 
ENDROOT
BRANCH   1   2
ATOM      2  O   UNL A   1      34.986  21.133  25.883  1.00  0.00    -0.460 OA
BRANCH   2   3
ATOM      3  C   UNL A   1      33.639  21.035  25.705  1.00  0.00     0.341 C 
ATOM      4  O   UNL A   1      33.053  19.972  25.529  1.00  0.00    -0.249 OA
BRANCH   3   5
ATOM      5  C   UNL A   1      32.943  22.404  25.652  1.00  0.00     0.231 C 
ATOM      6  C   UNL A   1      33.942  23.424  26.210  1.00  0.00     0.058 C 
BRANCH   5   7
ATOM      7  C   UNL A   1      32.738  22.740  24.166  1.00  0.00     0.422 C 
ATOM      8  F   UNL A   1      33.016  24.039  23.911  1.00  0.00    -0.168 F 
ATOM      9  F   UNL A   1      33.587  22.011  23.394  1.00  0.00    -0.168 F 
ATOM     10  F   UNL A   1      31.494  22.483  23.713  1.00  0.00    -0.168 F 
ENDBRANCH   5   7
BRANCH   5  11
ATOM     11  N   UNL A   1      31.601  22.360  26.323  1.00  0.00    -0.326 N 
ATOM     12  C   UNL A   1      30.713  23.302  26.754  1.00  0.00     0.288 C 
ATOM     13  H   UNL A   1      31.292  21.440  26.491  1.00  0.00     0.165 HD
ATOM     14  O   UNL A   1      29.813  22.930  27.506  1.00  0.00    -0.266 OA
BRANCH  12  15
ATOM     15  C   UNL A   1      30.825  24.652  26.284  1.00  0.00     0.192 A 
ATOM     16  C   UNL A   1      30.330  25.272  25.151  1.00  0.00     0.057 A 
ATOM     17  O   UNL A   1      31.497  25.559  27.052  1.00  0.00    -0.444 OA
ATOM     18  C   UNL A   1      30.746  26.623  25.221  1.00  0.00     0.059 A 
ATOM     19  C   UNL A   1      31.435  26.752  26.405  1.00  0.00     0.170 A 
ATOM     20  Br  UNL A   1      32.190  28.333  27.043  1.00  0.00    -0.008 Br
ENDBRANCH  12  15
ENDBRANCH   5  11
ENDBRANCH   3   5
ENDBRANCH   2   3
ENDBRANCH   1   2
BRANCH   1  21
ATOM     21  C   UNL A   1      37.108  21.105  24.641  1.00  0.00     0.275 C 
BRANCH  21  22
ATOM     22  O   UNL A   1      37.613  21.838  25.772  1.00  0.00    -0.458 OA
BRANCH  22  23
ATOM     23  C   UNL A   1      38.888  21.548  26.111  1.00  0.00     0.338 C 
ATOM     24  O   UNL A   1      39.519  20.537  25.850  1.00  0.00    -0.246 OA
BRANCH  23  25
ATOM     25  C   UNL A   1      39.501  22.720  26.740  1.00  0.00     0.060 A 
ATOM     26  C   UNL A   1      39.105  23.975  26.287  1.00  0.00     0.016 A 
ATOM     27  C   UNL A   1      40.557  22.593  27.639  1.00  0.00     0.016 A 
ATOM     28  C   UNL A   1      39.827  25.106  26.633  1.00  0.00     0.010 A 
ATOM     29  C   UNL A   1      41.221  23.747  28.067  1.00  0.00     0.010 A 
ATOM     30  C   UNL A   1      40.883  25.009  27.542  1.00  0.00    -0.014 A 
BRANCH  30  31
ATOM     31  C   UNL A   1      41.657  26.219  27.916  1.00  0.00     0.031 A 
ATOM     32  C   UNL A   1      41.016  27.280  28.760  1.00  0.00     0.074 A 
ATOM     33  C   UNL A   1      42.928  26.370  27.500  1.00  0.00     0.049 A 
ATOM     34  N   UNL A   1      41.396  28.514  28.971  1.00  0.00    -0.248 NA
ATOM     35  C   UNL A   1      39.771  26.906  29.450  1.00  0.00     0.031 C 
ATOM     36  C   UNL A   1      43.696  25.381  26.742  1.00  0.00     0.029 A 
ATOM     37  N   UNL A   1      43.796  27.423  27.647  1.00  0.00    -0.354 N 
ATOM     38  C   UNL A   1      40.400  29.085  29.749  1.00  0.00     0.074 A 
ATOM     39  C   UNL A   1      39.411  28.058  29.998  1.00  0.00     0.031 C 
ATOM     40  C   UNL A   1      44.920  25.869  26.497  1.00  0.00     0.029 A 
ATOM     41  C   UNL A   1      44.989  27.238  26.995  1.00  0.00     0.049 A 
ATOM     42  H   UNL A   1      43.583  28.230  28.170  1.00  0.00     0.167 HD
ATOM     43  C   UNL A   1      40.317  30.361  30.196  1.00  0.00     0.037 A 
ATOM     44  C   UNL A   1      45.999  28.096  26.760  1.00  0.00     0.037 A 
ATOM     45  C   UNL A   1      41.341  31.352  29.994  1.00  0.00     0.049 A 
ATOM     46  C   UNL A   1      45.887  29.508  27.253  1.00  0.00     0.074 A 
ATOM     47  C   UNL A   1      41.368  32.669  30.418  1.00  0.00     0.029 A 
ATOM     48  N   UNL A   1      42.535  31.123  29.323  1.00  0.00    -0.354 N 
ATOM     49  N   UNL A   1      44.904  30.074  27.911  1.00  0.00    -0.248 NA
ATOM     50  C   UNL A   1      47.007  30.406  26.950  1.00  0.00     0.031 C 
ATOM     51  C   UNL A   1      42.567  33.245  29.979  1.00  0.00     0.029 A 
ATOM     52  C   UNL A   1      43.301  32.277  29.312  1.00  0.00     0.049 A 
ATOM     53  H   UNL A   1      42.797  30.266  28.915  1.00  0.00     0.167 HD
ATOM     54  C   UNL A   1      45.284  31.394  28.102  1.00  0.00     0.074 A 
ATOM     55  C   UNL A   1      46.598  31.540  27.505  1.00  0.00     0.031 C 
ATOM     56  C   UNL A   1      44.603  32.395  28.710  1.00  0.00     0.037 A 
BRANCH  43  57
ATOM     57  C   UNL A   1      39.051  30.769  30.887  1.00  0.00     0.064 A 
ATOM     58  C   UNL A   1      37.949  31.281  30.190  1.00  0.00     0.173 A 
ATOM     59  C   UNL A   1      38.945  30.638  32.281  1.00  0.00     0.173 A 
ATOM     60  F   UNL A   1      38.006  31.443  28.861  1.00  0.00    -0.203 F 
ATOM     61  C   UNL A   1      36.794  31.671  30.867  1.00  0.00     0.198 A 
ATOM     62  C   UNL A   1      37.782  31.007  32.952  1.00  0.00     0.198 A 
ATOM     63  F   UNL A   1      39.972  30.152  32.995  1.00  0.00    -0.203 F 
ATOM     64  F   UNL A   1      35.768  32.204  30.187  1.00  0.00    -0.200 F 
ATOM     65  C   UNL A   1      36.710  31.531  32.245  1.00  0.00     0.200 A 
ATOM     66  F   UNL A   1      37.701  30.862  34.281  1.00  0.00    -0.200 F 
ATOM     67  F   UNL A   1      35.600  31.909  32.894  1.00  0.00    -0.200 F 
ENDBRANCH  43  57
BRANCH  44  68
ATOM     68  C   UNL A   1      47.162  27.638  25.959  1.00  0.00     0.064 A 
ATOM     69  C   UNL A   1      47.156  27.721  24.563  1.00  0.00     0.173 A 
ATOM     70  C   UNL A   1      48.329  27.171  26.584  1.00  0.00     0.173 A 
ATOM     71  F   UNL A   1      46.055  28.141  23.922  1.00  0.00    -0.203 F 
ATOM     72  C   UNL A   1      48.277  27.361  23.819  1.00  0.00     0.198 A 
ATOM     73  C   UNL A   1      49.458  26.837  25.841  1.00  0.00     0.198 A 
ATOM     74  F   UNL A   1      48.383  27.079  27.921  1.00  0.00    -0.203 F 
ATOM     75  F   UNL A   1      48.242  27.435  22.481  1.00  0.00    -0.200 F 
ATOM     76  C   UNL A   1      49.431  26.932  24.458  1.00  0.00     0.200 A 
ATOM     77  F   UNL A   1      50.575  26.441  26.466  1.00  0.00    -0.200 F 
ATOM     78  F   UNL A   1      50.517  26.610  23.743  1.00  0.00    -0.200 F 
ENDBRANCH  44  68
BRANCH  56  79
ATOM     79  C   UNL A   1      45.276  33.731  28.775  1.00  0.00     0.064 A 
ATOM     80  C   UNL A   1      46.145  34.059  29.826  1.00  0.00     0.173 A 
ATOM     81  C   UNL A   1      45.087  34.671  27.752  1.00  0.00     0.173 A 
ATOM     82  F   UNL A   1      46.341  33.196  30.834  1.00  0.00    -0.203 F 
ATOM     83  C   UNL A   1      46.793  35.290  29.854  1.00  0.00     0.198 A 
ATOM     84  C   UNL A   1      45.752  35.893  27.775  1.00  0.00     0.198 A 
ATOM     85  F   UNL A   1      44.266  34.399  26.727  1.00  0.00    -0.203 F 
ATOM     86  F   UNL A   1      47.598  35.598  30.882  1.00  0.00    -0.200 F 
ATOM     87  C   UNL A   1      46.602  36.203  28.827  1.00  0.00     0.200 A 
ATOM     88  F   UNL A   1      45.571  36.772  26.780  1.00  0.00    -0.200 F 
ATOM     89  F   UNL A   1      47.232  37.384  28.853  1.00  0.00    -0.200 F 
ENDBRANCH  56  79
ENDBRANCH  30  31
ENDBRANCH  23  25
ENDBRANCH  22  23
ENDBRANCH  21  22
ENDBRANCH   1  21
TORSDOF 14
ENDMDL
MODEL 3
REMARK VINA RESULT:     -11.8      1.539      2.504
REMARK SMILES C[C@](NC(=O)c1ccc(Br)o1)(C(=O)OCCOC(=O)c1ccc(-c2c3nc(c(-c4c(F)c(F)c(F)c(F)c4F)c4ccc([nH]4)c(-c4c(F)c(F)c(F)c(F)c4F)c4nc(c(-c5c(F)c(F)c(F)c(F)c5F)c5ccc2[nH]5)C=C4)C=C3)cc1)C(F)(F)F
REMARK SMILES IDX 15 1 14 2 12 3 13 4 2 5 1 6 83 7 84 8 85 9 86 10 3 11 4 12
REMARK SMILES IDX 5 14 6 15 7 16 11 17 8 18 9 19 10 20 16 21 17 22 18 23 19 24
REMARK SMILES IDX 20 25 21 26 82 27 22 28 81 29 23 30 24 31 25 32 75 33 26 34
REMARK SMILES IDX 80 35 74 36 76 37 27 38 79 39 73 40 72 41 28 43 60 44 40 45
REMARK SMILES IDX 59 46 41 47 44 48 58 49 77 50 42 51 43 52 57 54 78 55 45 56
REMARK SMILES IDX 29 57 30 58 38 59 31 60 32 61 36 62 39 63 33 64 34 65 37 66
REMARK SMILES IDX 35 67 61 68 62 69 70 70 63 71 64 72 68 73 71 74 65 75 66 76
REMARK SMILES IDX 69 77 67 78 46 79 47 80 55 81 48 82 49 83 53 84 56 85 50 86
REMARK SMILES IDX 51 87 54 88 52 89
REMARK H PARENT 3 13 76 42 44 53
REMARK Flexibility Score: inf
ROOT
ATOM      1  C   UNL A   1      31.403  29.785  24.509  1.00  0.00     0.274 C 
ENDROOT
BRANCH   1   2
ATOM      2  O   UNL A   1      30.986  28.402  24.475  1.00  0.00    -0.460 OA
BRANCH   2   3
ATOM      3  C   UNL A   1      30.909  27.802  23.254  1.00  0.00     0.341 C 
ATOM      4  O   UNL A   1      30.411  28.332  22.268  1.00  0.00    -0.249 OA
BRANCH   3   5
ATOM      5  C   UNL A   1      31.423  26.353  23.269  1.00  0.00     0.231 C 
ATOM      6  C   UNL A   1      32.502  26.283  24.356  1.00  0.00     0.058 C 
BRANCH   5   7
ATOM      7  C   UNL A   1      30.254  25.472  23.735  1.00  0.00     0.422 C 
ATOM      8  F   UNL A   1      30.102  24.391  22.937  1.00  0.00    -0.168 F 
ATOM      9  F   UNL A   1      30.491  24.993  24.985  1.00  0.00    -0.168 F 
ATOM     10  F   UNL A   1      29.070  26.117  23.793  1.00  0.00    -0.168 F 
ENDBRANCH   5   7
BRANCH   5  11
ATOM     11  N   UNL A   1      31.840  25.910  21.897  1.00  0.00    -0.326 N 
ATOM     12  C   UNL A   1      32.772  25.039  21.412  1.00  0.00     0.288 C 
ATOM     13  H   UNL A   1      31.323  26.350  21.183  1.00  0.00     0.165 HD
ATOM     14  O   UNL A   1      33.037  25.102  20.212  1.00  0.00    -0.266 OA
BRANCH  12  15
ATOM     15  C   UNL A   1      33.358  24.066  22.288  1.00  0.00     0.192 A 
ATOM     16  C   UNL A   1      32.858  22.889  22.815  1.00  0.00     0.057 A 
ATOM     17  O   UNL A   1      34.649  24.243  22.692  1.00  0.00    -0.444 OA
ATOM     18  C   UNL A   1      33.894  22.333  23.605  1.00  0.00     0.059 A 
ATOM     19  C   UNL A   1      34.969  23.183  23.482  1.00  0.00     0.170 A 
ATOM     20  Br  UNL A   1      36.633  22.935  24.284  1.00  0.00    -0.008 Br
ENDBRANCH  12  15
ENDBRANCH   5  11
ENDBRANCH   3   5
ENDBRANCH   2   3
ENDBRANCH   1   2
BRANCH   1  21
ATOM     21  C   UNL A   1      31.533  30.298  25.943  1.00  0.00     0.275 C 
BRANCH  21  22
ATOM     22  O   UNL A   1      32.902  30.251  26.382  1.00  0.00    -0.458 OA
BRANCH  22  23
ATOM     23  C   UNL A   1      33.308  31.329  27.085  1.00  0.00     0.338 C 
ATOM     24  O   UNL A   1      32.654  32.313  27.390  1.00  0.00    -0.246 OA
BRANCH  23  25
ATOM     25  C   UNL A   1      34.665  31.098  27.588  1.00  0.00     0.060 A 
ATOM     26  C   UNL A   1      35.003  29.797  27.949  1.00  0.00     0.016 A 
ATOM     27  C   UNL A   1      35.533  32.154  27.853  1.00  0.00     0.016 A 
ATOM     28  C   UNL A   1      36.155  29.549  28.679  1.00  0.00     0.010 A 
ATOM     29  C   UNL A   1      36.743  31.888  28.500  1.00  0.00     0.010 A 
ATOM     30  C   UNL A   1      37.049  30.588  28.948  1.00  0.00    -0.014 A 
BRANCH  30  31
ATOM     31  C   UNL A   1      38.284  30.325  29.728  1.00  0.00     0.031 A 
ATOM     32  C   UNL A   1      39.348  29.435  29.158  1.00  0.00     0.074 A 
ATOM     33  C   UNL A   1      38.453  30.879  30.944  1.00  0.00     0.049 A 
ATOM     34  N   UNL A   1      40.356  28.858  29.760  1.00  0.00    -0.248 NA
ATOM     35  C   UNL A   1      39.257  29.145  27.718  1.00  0.00     0.031 C 
ATOM     36  C   UNL A   1      37.534  31.823  31.580  1.00  0.00     0.029 A 
ATOM     37  N   UNL A   1      39.454  30.715  31.867  1.00  0.00    -0.354 N 
ATOM     38  C   UNL A   1      40.971  28.075  28.793  1.00  0.00     0.074 A 
ATOM     39  C   UNL A   1      40.241  28.271  27.559  1.00  0.00     0.031 C 
ATOM     40  C   UNL A   1      38.017  32.161  32.785  1.00  0.00     0.029 A 
ATOM     41  C   UNL A   1      39.224  31.384  33.042  1.00  0.00     0.049 A 
ATOM     42  H   UNL A   1      40.259  30.171  31.702  1.00  0.00     0.167 HD
ATOM     43  C   UNL A   1      42.037  27.254  28.938  1.00  0.00     0.037 A 
ATOM     44  C   UNL A   1      39.869  31.326  34.222  1.00  0.00     0.037 A 
ATOM     45  C   UNL A   1      42.790  27.120  30.157  1.00  0.00     0.049 A 
ATOM     46  C   UNL A   1      41.042  30.404  34.369  1.00  0.00     0.074 A 
ATOM     47  C   UNL A   1      43.899  26.331  30.410  1.00  0.00     0.029 A 
ATOM     48  N   UNL A   1      42.520  27.816  31.328  1.00  0.00    -0.354 N 
ATOM     49  N   UNL A   1      41.568  29.595  33.481  1.00  0.00    -0.248 NA
ATOM     50  C   UNL A   1      41.695  30.365  35.682  1.00  0.00     0.031 C 
ATOM     51  C   UNL A   1      44.282  26.528  31.742  1.00  0.00     0.029 A 
ATOM     52  C   UNL A   1      43.433  27.466  32.308  1.00  0.00     0.049 A 
ATOM     53  H   UNL A   1      41.786  28.462  31.443  1.00  0.00     0.167 HD
ATOM     54  C   UNL A   1      42.613  28.950  34.126  1.00  0.00     0.074 A 
ATOM     55  C   UNL A   1      42.657  29.476  35.476  1.00  0.00     0.031 C 
ATOM     56  C   UNL A   1      43.454  28.003  33.644  1.00  0.00     0.037 A 
BRANCH  43  57
ATOM     57  C   UNL A   1      42.408  26.392  27.769  1.00  0.00     0.064 A 
ATOM     58  C   UNL A   1      43.394  26.766  26.846  1.00  0.00     0.173 A 
ATOM     59  C   UNL A   1      41.761  25.161  27.576  1.00  0.00     0.173 A 
ATOM     60  F   UNL A   1      44.029  27.940  26.975  1.00  0.00    -0.203 F 
ATOM     61  C   UNL A   1      43.700  25.951  25.757  1.00  0.00     0.198 A 
ATOM     62  C   UNL A   1      42.085  24.338  26.501  1.00  0.00     0.198 A 
ATOM     63  F   UNL A   1      40.810  24.756  28.433  1.00  0.00    -0.203 F 
ATOM     64  F   UNL A   1      44.612  26.350  24.859  1.00  0.00    -0.200 F 
ATOM     65  C   UNL A   1      43.048  24.738  25.587  1.00  0.00     0.200 A 
ATOM     66  F   UNL A   1      41.459  23.164  26.345  1.00  0.00    -0.200 F 
ATOM     67  F   UNL A   1      43.343  23.957  24.538  1.00  0.00    -0.200 F 
ENDBRANCH  43  57
BRANCH  44  68
ATOM     68  C   UNL A   1      39.356  32.125  35.363  1.00  0.00     0.064 A 
ATOM     69  C   UNL A   1      38.513  31.555  36.324  1.00  0.00     0.173 A 
ATOM     70  C   UNL A   1      39.756  33.457  35.549  1.00  0.00     0.173 A 
ATOM     71  F   UNL A   1      38.088  30.292  36.176  1.00  0.00    -0.203 F 
ATOM     72  C   UNL A   1      38.095  32.285  37.434  1.00  0.00     0.198 A 
ATOM     73  C   UNL A   1      39.359  34.178  36.673  1.00  0.00     0.198 A 
ATOM     74  F   UNL A   1      40.567  34.045  34.657  1.00  0.00    -0.203 F 
ATOM     75  F   UNL A   1      37.275  31.723  38.333  1.00  0.00    -0.200 F 
ATOM     76  C   UNL A   1      38.528  33.591  37.614  1.00  0.00     0.200 A 
ATOM     77  F   UNL A   1      39.794  35.432  36.849  1.00  0.00    -0.200 F 
ATOM     78  F   UNL A   1      38.144  34.284  38.695  1.00  0.00    -0.200 F 
ENDBRANCH  44  68
BRANCH  56  79
ATOM     79  C   UNL A   1      44.504  27.489  34.580  1.00  0.00     0.064 A 
ATOM     80  C   UNL A   1      45.737  28.141  34.720  1.00  0.00     0.173 A 
ATOM     81  C   UNL A   1      44.254  26.363  35.377  1.00  0.00     0.173 A 
ATOM     82  F   UNL A   1      46.024  29.213  33.965  1.00  0.00    -0.203 F 
ATOM     83  C   UNL A   1      46.689  27.675  35.621  1.00  0.00     0.198 A 
ATOM     84  C   UNL A   1      45.201  25.912  36.290  1.00  0.00     0.198 A 
ATOM     85  F   UNL A   1      43.087  25.709  35.276  1.00  0.00    -0.203 F 
ATOM     86  F   UNL A   1      47.874  28.294  35.722  1.00  0.00    -0.200 F 
ATOM     87  C   UNL A   1      46.419  26.565  36.410  1.00  0.00     0.200 A 
ATOM     88  F   UNL A   1      44.937  24.843  37.055  1.00  0.00    -0.200 F 
ATOM     89  F   UNL A   1      47.334  26.122  37.281  1.00  0.00    -0.200 F 
ENDBRANCH  56  79
ENDBRANCH  30  31
ENDBRANCH  23  25
ENDBRANCH  22  23
ENDBRANCH  21  22
ENDBRANCH   1  21
TORSDOF 14
ENDMDL
