MODEL 1
REMARK VINA RESULT:     -11.9      0.000      0.000
REMARK SMILES C[C@@H]1C[N@@H+]([C@@H]2CC[C@]([NH2+]C3CC3)(C(=O)OCCOC(=O)c3ccc(-c4c5nc(c(-c6c(F)c(F)c(F)c(F)c6F)c6ccc([nH]6)c(-c6c(F)c(F)c(F)c(F)c6F)c6nc(c(-c7c(F)c(F)c(F)c(F)c7F)c7ccc4[nH]7)C=C6)C=C5)cc3)C2)CC(C)(C)O1
REMARK SMILES IDX 16 1 15 2 13 3 14 4 8 5 5 6 6 7 84 8 7 9 4 10 1 11 2 12 3 13
REMARK SMILES IDX 89 14 86 15 85 16 87 18 88 19 9 20 10 23 11 24 12 25 17 26
REMARK SMILES IDX 18 27 19 28 20 29 21 30 22 31 83 32 23 33 82 34 24 35 25 36
REMARK SMILES IDX 26 37 76 38 27 39 81 40 75 41 77 42 28 43 80 44 74 45 73 46
REMARK SMILES IDX 29 48 61 49 41 50 60 51 42 52 45 53 59 54 78 55 43 56 44 57
REMARK SMILES IDX 58 59 79 60 46 61 30 62 31 63 39 64 32 65 33 66 37 67 40 68
REMARK SMILES IDX 34 69 35 70 38 71 36 72 62 73 63 74 71 75 64 76 65 77 69 78
REMARK SMILES IDX 72 79 66 80 67 81 70 82 68 83 47 84 48 85 56 86 49 87 50 88
REMARK SMILES IDX 54 89 57 90 51 91 52 92 55 93 53 94
REMARK H PARENT 4 17 9 21 9 22 77 47 45 58
REMARK Flexibility Score: inf
ROOT
ATOM      1  C   UNL A   1      33.108  29.363  24.803  1.00  0.00     0.274 C 
ENDROOT
BRANCH   1   2
ATOM      2  O   UNL A   1      32.623  29.102  23.470  1.00  0.00    -0.457 OA
BRANCH   2   3
ATOM      3  C   UNL A   1      33.102  27.972  22.865  1.00  0.00     0.368 C 
ATOM      4  O   UNL A   1      34.031  27.960  22.065  1.00  0.00    -0.245 OA
BRANCH   3   5
ATOM      5  C   UNL A   1      32.282  26.706  23.261  1.00  0.00     0.200 C 
ATOM      6  C   UNL A   1      32.940  24.391  23.639  1.00  0.00     0.191 C 
ATOM      7  C   UNL A   1      32.931  24.624  22.127  1.00  0.00     0.072 C 
ATOM      8  C   UNL A   1      33.142  25.804  24.179  1.00  0.00     0.146 C 
ATOM      9  C   UNL A   1      32.071  25.886  21.963  1.00  0.00     0.087 C 
BRANCH   6  10
ATOM     10  N   UNL A   1      33.853  23.399  24.215  1.00  0.00    -0.328 N 
ATOM     11  C   UNL A   1      34.425  20.275  25.010  1.00  0.00     0.045 C 
ATOM     12  C   UNL A   1      34.337  21.545  25.855  1.00  0.00     0.171 C 
ATOM     13  C   UNL A   1      33.316  22.583  25.320  1.00  0.00     0.294 C 
ATOM     14  O   UNL A   1      35.636  22.102  26.110  1.00  0.00    -0.361 OA
ATOM     15  C   UNL A   1      36.157  22.981  25.096  1.00  0.00     0.112 C 
ATOM     16  C   UNL A   1      35.100  24.035  24.684  1.00  0.00     0.297 C 
ATOM     17  H   UNL A   1      34.017  22.760  23.437  1.00  0.00     0.348 HD
ATOM     18  C   UNL A   1      36.686  22.201  23.885  1.00  0.00     0.048 C 
ATOM     19  C   UNL A   1      37.344  23.702  25.752  1.00  0.00     0.048 C 
ENDBRANCH   6  10
BRANCH   5  20
ATOM     20  N   UNL A   1      31.023  27.130  23.929  1.00  0.00    -0.329 N 
ATOM     21  H   UNL A   1      31.120  28.115  24.171  1.00  0.00     0.347 HD
ATOM     22  H   UNL A   1      30.920  26.497  24.722  1.00  0.00     0.347 HD
BRANCH  20  23
ATOM     23  C   UNL A   1      29.778  26.985  23.165  1.00  0.00     0.183 C 
ATOM     24  C   UNL A   1      28.500  26.635  23.876  1.00  0.00     0.071 C 
ATOM     25  C   UNL A   1      28.702  28.021  23.344  1.00  0.00     0.071 C 
ENDBRANCH  20  23
ENDBRANCH   5  20
ENDBRANCH   3   5
ENDBRANCH   2   3
ENDBRANCH   1   2
BRANCH   1  26
ATOM     26  C   UNL A   1      32.033  30.082  25.616  1.00  0.00     0.275 C 
BRANCH  26  27
ATOM     27  O   UNL A   1      32.510  30.258  26.960  1.00  0.00    -0.458 OA
BRANCH  27  28
ATOM     28  C   UNL A   1      33.185  31.407  27.200  1.00  0.00     0.338 C 
ATOM     29  O   UNL A   1      32.831  32.541  26.936  1.00  0.00    -0.246 OA
BRANCH  28  30
ATOM     30  C   UNL A   1      34.479  31.078  27.835  1.00  0.00     0.060 A 
ATOM     31  C   UNL A   1      34.754  29.771  28.236  1.00  0.00     0.016 A 
ATOM     32  C   UNL A   1      35.399  32.090  28.094  1.00  0.00     0.016 A 
ATOM     33  C   UNL A   1      35.922  29.473  28.938  1.00  0.00     0.010 A 
ATOM     34  C   UNL A   1      36.604  31.781  28.734  1.00  0.00     0.010 A 
ATOM     35  C   UNL A   1      36.867  30.475  29.187  1.00  0.00    -0.014 A 
BRANCH  35  36
ATOM     36  C   UNL A   1      38.100  30.190  29.973  1.00  0.00     0.031 A 
ATOM     37  C   UNL A   1      39.165  29.301  29.390  1.00  0.00     0.074 A 
ATOM     38  C   UNL A   1      38.275  30.709  31.205  1.00  0.00     0.049 A 
ATOM     39  N   UNL A   1      40.202  28.751  29.972  1.00  0.00    -0.248 NA
ATOM     40  C   UNL A   1      39.036  28.976  27.961  1.00  0.00     0.031 C 
ATOM     41  C   UNL A   1      37.357  31.626  31.877  1.00  0.00     0.029 A 
ATOM     42  N   UNL A   1      39.290  30.527  32.113  1.00  0.00    -0.354 N 
ATOM     43  C   UNL A   1      40.810  27.970  28.998  1.00  0.00     0.074 A 
ATOM     44  C   UNL A   1      40.031  28.118  27.788  1.00  0.00     0.031 C 
ATOM     45  C   UNL A   1      37.859  31.944  33.082  1.00  0.00     0.029 A 
ATOM     46  C   UNL A   1      39.094  31.196  33.297  1.00  0.00     0.049 A 
ATOM     47  H   UNL A   1      40.082  29.970  31.933  1.00  0.00     0.167 HD
ATOM     48  C   UNL A   1      41.918  27.197  29.106  1.00  0.00     0.037 A 
ATOM     49  C   UNL A   1      39.804  31.176  34.441  1.00  0.00     0.037 A 
ATOM     50  C   UNL A   1      42.727  27.096  30.292  1.00  0.00     0.049 A 
ATOM     51  C   UNL A   1      41.015  30.290  34.547  1.00  0.00     0.074 A 
ATOM     52  C   UNL A   1      43.878  26.352  30.492  1.00  0.00     0.029 A 
ATOM     53  N   UNL A   1      42.480  27.774  31.475  1.00  0.00    -0.354 N 
ATOM     54  N   UNL A   1      41.549  29.506  33.643  1.00  0.00    -0.248 NA
ATOM     55  C   UNL A   1      41.708  30.267  35.844  1.00  0.00     0.031 C 
ATOM     56  C   UNL A   1      44.311  26.559  31.806  1.00  0.00     0.029 A 
ATOM     57  C   UNL A   1      43.451  27.459  32.413  1.00  0.00     0.049 A 
ATOM     58  H   UNL A   1      41.727  28.390  31.627  1.00  0.00     0.167 HD
ATOM     59  C   UNL A   1      42.640  28.904  34.255  1.00  0.00     0.074 A 
ATOM     60  C   UNL A   1      42.707  29.429  35.603  1.00  0.00     0.031 C 
ATOM     61  C   UNL A   1      43.504  27.991  33.749  1.00  0.00     0.037 A 
BRANCH  48  62
ATOM     62  C   UNL A   1      42.303  26.369  27.916  1.00  0.00     0.064 A 
ATOM     63  C   UNL A   1      41.719  25.120  27.663  1.00  0.00     0.173 A 
ATOM     64  C   UNL A   1      43.249  26.852  27.001  1.00  0.00     0.173 A 
ATOM     65  F   UNL A   1      40.821  24.608  28.517  1.00  0.00    -0.203 F 
ATOM     66  C   UNL A   1      42.087  24.373  26.546  1.00  0.00     0.198 A 
ATOM     67  C   UNL A   1      43.596  26.115  25.872  1.00  0.00     0.198 A 
ATOM     68  F   UNL A   1      43.832  28.045  27.196  1.00  0.00    -0.203 F 
ATOM     69  F   UNL A   1      41.549  23.163  26.345  1.00  0.00    -0.200 F 
ATOM     70  C   UNL A   1      43.020  24.874  25.649  1.00  0.00     0.200 A 
ATOM     71  F   UNL A   1      44.489  26.605  25.000  1.00  0.00    -0.200 F 
ATOM     72  F   UNL A   1      43.368  24.156  24.572  1.00  0.00    -0.200 F 
ENDBRANCH  48  62
BRANCH  49  73
ATOM     73  C   UNL A   1      39.364  31.996  35.600  1.00  0.00     0.064 A 
ATOM     74  C   UNL A   1      39.881  33.282  35.809  1.00  0.00     0.173 A 
ATOM     75  C   UNL A   1      38.427  31.511  36.522  1.00  0.00     0.173 A 
ATOM     76  F   UNL A   1      40.804  33.776  34.970  1.00  0.00    -0.203 F 
ATOM     77  C   UNL A   1      39.481  34.050  36.900  1.00  0.00     0.198 A 
ATOM     78  C   UNL A   1      38.006  32.290  37.598  1.00  0.00     0.198 A 
ATOM     79  F   UNL A   1      37.908  30.284  36.371  1.00  0.00    -0.203 F 
ATOM     80  F   UNL A   1      40.020  35.259  37.100  1.00  0.00    -0.200 F 
ATOM     81  C   UNL A   1      38.538  33.556  37.790  1.00  0.00     0.200 A 
ATOM     82  F   UNL A   1      37.088  31.812  38.450  1.00  0.00    -0.200 F 
ATOM     83  F   UNL A   1      38.149  34.296  38.837  1.00  0.00    -0.200 F 
ENDBRANCH  49  73
BRANCH  61  84
ATOM     84  C   UNL A   1      44.605  27.516  34.648  1.00  0.00     0.064 A 
ATOM     85  C   UNL A   1      45.845  28.170  34.695  1.00  0.00     0.173 A 
ATOM     86  C   UNL A   1      44.406  26.418  35.499  1.00  0.00     0.173 A 
ATOM     87  F   UNL A   1      46.087  29.213  33.888  1.00  0.00    -0.203 F 
ATOM     88  C   UNL A   1      46.853  27.730  35.548  1.00  0.00     0.198 A 
ATOM     89  C   UNL A   1      45.408  25.996  36.367  1.00  0.00     0.198 A 
ATOM     90  F   UNL A   1      43.235  25.764  35.495  1.00  0.00    -0.203 F 
ATOM     91  F   UNL A   1      48.044  28.345  35.548  1.00  0.00    -0.200 F 
ATOM     92  C   UNL A   1      46.632  26.647  36.388  1.00  0.00     0.200 A 
ATOM     93  F   UNL A   1      45.191  24.956  37.184  1.00  0.00    -0.200 F 
ATOM     94  F   UNL A   1      47.602  26.228  37.210  1.00  0.00    -0.200 F 
ENDBRANCH  61  84
ENDBRANCH  35  36
ENDBRANCH  28  30
ENDBRANCH  27  28
ENDBRANCH  26  27
ENDBRANCH   1  26
TORSDOF 14
ENDMDL
MODEL 2
REMARK VINA RESULT:     -11.9      0.381      1.648
REMARK SMILES C[C@@H]1C[N@@H+]([C@@H]2CC[C@]([NH2+]C3CC3)(C(=O)OCCOC(=O)c3ccc(-c4c5nc(c(-c6c(F)c(F)c(F)c(F)c6F)c6ccc([nH]6)c(-c6c(F)c(F)c(F)c(F)c6F)c6nc(c(-c7c(F)c(F)c(F)c(F)c7F)c7ccc4[nH]7)C=C6)C=C5)cc3)C2)CC(C)(C)O1
REMARK SMILES IDX 16 1 15 2 13 3 14 4 8 5 5 6 6 7 84 8 7 9 4 10 1 11 2 12 3 13
REMARK SMILES IDX 89 14 86 15 85 16 87 18 88 19 9 20 10 23 11 24 12 25 17 26
REMARK SMILES IDX 18 27 19 28 20 29 21 30 22 31 83 32 23 33 82 34 24 35 25 36
REMARK SMILES IDX 26 37 76 38 27 39 81 40 75 41 77 42 28 43 80 44 74 45 73 46
REMARK SMILES IDX 29 48 61 49 41 50 60 51 42 52 45 53 59 54 78 55 43 56 44 57
REMARK SMILES IDX 58 59 79 60 46 61 30 62 31 63 39 64 32 65 33 66 37 67 40 68
REMARK SMILES IDX 34 69 35 70 38 71 36 72 62 73 63 74 71 75 64 76 65 77 69 78
REMARK SMILES IDX 72 79 66 80 67 81 70 82 68 83 47 84 48 85 56 86 49 87 50 88
REMARK SMILES IDX 54 89 57 90 51 91 52 92 55 93 53 94
REMARK H PARENT 4 17 9 21 9 22 77 47 45 58
REMARK Flexibility Score: inf
ROOT
ATOM      1  C   UNL A   1      33.260  29.358  24.380  1.00  0.00     0.274 C 
ENDROOT
BRANCH   1   2
ATOM      2  O   UNL A   1      32.787  29.011  23.061  1.00  0.00    -0.457 OA
BRANCH   2   3
ATOM      3  C   UNL A   1      33.319  27.877  22.510  1.00  0.00     0.368 C 
ATOM      4  O   UNL A   1      34.291  27.866  21.764  1.00  0.00    -0.245 OA
BRANCH   3   5
ATOM      5  C   UNL A   1      32.501  26.605  22.889  1.00  0.00     0.200 C 
ATOM      6  C   UNL A   1      33.180  24.320  23.389  1.00  0.00     0.191 C 
ATOM      7  C   UNL A   1      33.275  24.505  21.874  1.00  0.00     0.072 C 
ATOM      8  C   UNL A   1      33.312  25.753  23.896  1.00  0.00     0.146 C 
ATOM      9  C   UNL A   1      32.401  25.739  21.607  1.00  0.00     0.087 C 
BRANCH   6  10
ATOM     10  N   UNL A   1      34.070  23.369  24.063  1.00  0.00    -0.328 N 
ATOM     11  C   UNL A   1      34.654  20.286  24.997  1.00  0.00     0.045 C 
ATOM     12  C   UNL A   1      34.475  21.579  25.792  1.00  0.00     0.171 C 
ATOM     13  C   UNL A   1      33.473  22.574  25.151  1.00  0.00     0.294 C 
ATOM     14  O   UNL A   1      35.739  22.175  26.123  1.00  0.00    -0.361 OA
ATOM     15  C   UNL A   1      36.312  23.036  25.122  1.00  0.00     0.112 C 
ATOM     16  C   UNL A   1      35.265  24.050  24.600  1.00  0.00     0.297 C 
ATOM     17  H   UNL A   1      34.306  22.711  23.319  1.00  0.00     0.348 HD
ATOM     18  C   UNL A   1      36.946  22.233  23.978  1.00  0.00     0.048 C 
ATOM     19  C   UNL A   1      37.431  23.806  25.839  1.00  0.00     0.048 C 
ENDBRANCH   6  10
BRANCH   5  20
ATOM     20  N   UNL A   1      31.187  27.019  23.450  1.00  0.00    -0.329 N 
ATOM     21  H   UNL A   1      30.803  27.737  22.836  1.00  0.00     0.347 HD
ATOM     22  H   UNL A   1      31.393  27.327  24.401  1.00  0.00     0.347 HD
BRANCH  20  23
ATOM     23  C   UNL A   1      30.166  25.977  23.603  1.00  0.00     0.183 C 
ATOM     24  C   UNL A   1      29.826  25.457  24.973  1.00  0.00     0.071 C 
ATOM     25  C   UNL A   1      28.858  26.344  24.250  1.00  0.00     0.071 C 
ENDBRANCH  20  23
ENDBRANCH   5  20
ENDBRANCH   3   5
ENDBRANCH   2   3
ENDBRANCH   1   2
BRANCH   1  26
ATOM     26  C   UNL A   1      32.122  29.971  25.195  1.00  0.00     0.275 C 
BRANCH  26  27
ATOM     27  O   UNL A   1      32.512  30.010  26.577  1.00  0.00    -0.458 OA
BRANCH  27  28
ATOM     28  C   UNL A   1      33.047  31.177  27.007  1.00  0.00     0.338 C 
ATOM     29  O   UNL A   1      32.580  32.293  26.882  1.00  0.00    -0.246 OA
BRANCH  28  30
ATOM     30  C   UNL A   1      34.345  30.899  27.656  1.00  0.00     0.060 A 
ATOM     31  C   UNL A   1      34.717  29.588  27.954  1.00  0.00     0.016 A 
ATOM     32  C   UNL A   1      35.171  31.955  28.033  1.00  0.00     0.016 A 
ATOM     33  C   UNL A   1      35.886  29.324  28.669  1.00  0.00     0.010 A 
ATOM     34  C   UNL A   1      36.379  31.689  28.686  1.00  0.00     0.010 A 
ATOM     35  C   UNL A   1      36.737  30.373  29.036  1.00  0.00    -0.014 A 
BRANCH  35  36
ATOM     36  C   UNL A   1      37.967  30.121  29.837  1.00  0.00     0.031 A 
ATOM     37  C   UNL A   1      39.064  29.263  29.267  1.00  0.00     0.074 A 
ATOM     38  C   UNL A   1      38.110  30.640  31.073  1.00  0.00     0.049 A 
ATOM     39  N   UNL A   1      40.107  28.741  29.861  1.00  0.00    -0.248 NA
ATOM     40  C   UNL A   1      38.963  28.938  27.835  1.00  0.00     0.031 C 
ATOM     41  C   UNL A   1      37.158  31.530  31.735  1.00  0.00     0.029 A 
ATOM     42  N   UNL A   1      39.118  30.484  31.994  1.00  0.00    -0.354 N 
ATOM     43  C   UNL A   1      40.751  27.979  28.893  1.00  0.00     0.074 A 
ATOM     44  C   UNL A   1      39.983  28.109  27.673  1.00  0.00     0.031 C 
ATOM     45  C   UNL A   1      37.635  31.858  32.947  1.00  0.00     0.029 A 
ATOM     46  C   UNL A   1      38.887  31.144  33.177  1.00  0.00     0.049 A 
ATOM     47  H   UNL A   1      39.927  29.951  31.824  1.00  0.00     0.167 HD
ATOM     48  C   UNL A   1      41.878  27.238  29.014  1.00  0.00     0.037 A 
ATOM     49  C   UNL A   1      39.583  31.141  34.330  1.00  0.00     0.037 A 
ATOM     50  C   UNL A   1      42.673  27.155  30.211  1.00  0.00     0.049 A 
ATOM     51  C   UNL A   1      40.816  30.289  34.451  1.00  0.00     0.074 A 
ATOM     52  C   UNL A   1      43.842  26.444  30.425  1.00  0.00     0.029 A 
ATOM     53  N   UNL A   1      42.392  27.824  31.392  1.00  0.00    -0.354 N 
ATOM     54  N   UNL A   1      41.384  29.522  33.552  1.00  0.00    -0.248 NA
ATOM     55  C   UNL A   1      41.492  30.282  35.757  1.00  0.00     0.031 C 
ATOM     56  C   UNL A   1      44.251  26.659  31.745  1.00  0.00     0.029 A 
ATOM     57  C   UNL A   1      43.359  27.533  32.342  1.00  0.00     0.049 A 
ATOM     58  H   UNL A   1      41.620  28.417  31.536  1.00  0.00     0.167 HD
ATOM     59  C   UNL A   1      42.483  28.950  34.178  1.00  0.00     0.074 A 
ATOM     60  C   UNL A   1      42.517  29.473  35.527  1.00  0.00     0.031 C 
ATOM     61  C   UNL A   1      43.379  28.062  33.681  1.00  0.00     0.037 A 
BRANCH  48  62
ATOM     62  C   UNL A   1      42.301  26.425  27.828  1.00  0.00     0.064 A 
ATOM     63  C   UNL A   1      43.299  26.865  26.946  1.00  0.00     0.173 A 
ATOM     64  C   UNL A   1      41.720  25.170  27.592  1.00  0.00     0.173 A 
ATOM     65  F   UNL A   1      43.874  28.064  27.121  1.00  0.00    -0.203 F 
ATOM     66  C   UNL A   1      43.682  26.087  25.856  1.00  0.00     0.198 A 
ATOM     67  C   UNL A   1      42.123  24.384  26.516  1.00  0.00     0.198 A 
ATOM     68  F   UNL A   1      40.765  24.702  28.410  1.00  0.00    -0.203 F 
ATOM     69  F   UNL A   1      44.606  26.545  25.001  1.00  0.00    -0.200 F 
ATOM     70  C   UNL A   1      43.098  24.846  25.645  1.00  0.00     0.200 A 
ATOM     71  F   UNL A   1      41.566  23.181  26.320  1.00  0.00    -0.200 F 
ATOM     72  F   UNL A   1      43.473  24.097  24.599  1.00  0.00    -0.200 F 
ENDBRANCH  48  62
BRANCH  49  73
ATOM     73  C   UNL A   1      39.104  31.945  35.485  1.00  0.00     0.064 A 
ATOM     74  C   UNL A   1      39.436  33.302  35.604  1.00  0.00     0.173 A 
ATOM     75  C   UNL A   1      38.313  31.375  36.493  1.00  0.00     0.173 A 
ATOM     76  F   UNL A   1      40.218  33.882  34.681  1.00  0.00    -0.203 F 
ATOM     77  C   UNL A   1      39.001  34.056  36.691  1.00  0.00     0.198 A 
ATOM     78  C   UNL A   1      37.855  32.138  37.565  1.00  0.00     0.198 A 
ATOM     79  F   UNL A   1      37.973  30.080  36.429  1.00  0.00    -0.203 F 
ATOM     80  F   UNL A   1      39.366  35.340  36.803  1.00  0.00    -0.200 F 
ATOM     81  C   UNL A   1      38.204  33.476  37.667  1.00  0.00     0.200 A 
ATOM     82  F   UNL A   1      37.077  31.575  38.500  1.00  0.00    -0.200 F 
ATOM     83  F   UNL A   1      37.780  34.203  38.709  1.00  0.00    -0.200 F 
ENDBRANCH  49  73
BRANCH  61  84
ATOM     84  C   UNL A   1      44.480  27.616  34.594  1.00  0.00     0.064 A 
ATOM     85  C   UNL A   1      44.352  26.467  35.387  1.00  0.00     0.173 A 
ATOM     86  C   UNL A   1      45.690  28.324  34.650  1.00  0.00     0.173 A 
ATOM     87  F   UNL A   1      43.208  25.767  35.380  1.00  0.00    -0.203 F 
ATOM     88  C   UNL A   1      45.390  26.053  36.218  1.00  0.00     0.198 A 
ATOM     89  C   UNL A   1      46.733  27.894  35.464  1.00  0.00     0.198 A 
ATOM     90  F   UNL A   1      45.862  29.427  33.905  1.00  0.00    -0.203 F 
ATOM     91  F   UNL A   1      45.231  24.974  36.997  1.00  0.00    -0.200 F 
ATOM     92  C   UNL A   1      46.581  26.763  36.251  1.00  0.00     0.200 A 
ATOM     93  F   UNL A   1      47.887  28.576  35.489  1.00  0.00    -0.200 F 
ATOM     94  F   UNL A   1      47.579  26.360  37.049  1.00  0.00    -0.200 F 
ENDBRANCH  61  84
ENDBRANCH  35  36
ENDBRANCH  28  30
ENDBRANCH  27  28
ENDBRANCH  26  27
ENDBRANCH   1  26
TORSDOF 14
ENDMDL
MODEL 3
REMARK VINA RESULT:     -11.9      1.824      3.523
REMARK SMILES C[C@@H]1C[N@@H+]([C@@H]2CC[C@]([NH2+]C3CC3)(C(=O)OCCOC(=O)c3ccc(-c4c5nc(c(-c6c(F)c(F)c(F)c(F)c6F)c6ccc([nH]6)c(-c6c(F)c(F)c(F)c(F)c6F)c6nc(c(-c7c(F)c(F)c(F)c(F)c7F)c7ccc4[nH]7)C=C6)C=C5)cc3)C2)CC(C)(C)O1
REMARK SMILES IDX 16 1 15 2 13 3 14 4 8 5 5 6 6 7 84 8 7 9 4 10 1 11 2 12 3 13
REMARK SMILES IDX 89 14 86 15 85 16 87 18 88 19 9 20 10 23 11 24 12 25 17 26
REMARK SMILES IDX 18 27 19 28 20 29 21 30 22 31 83 32 23 33 82 34 24 35 25 36
REMARK SMILES IDX 26 37 76 38 27 39 81 40 75 41 77 42 28 43 80 44 74 45 73 46
REMARK SMILES IDX 29 48 61 49 41 50 60 51 42 52 45 53 59 54 78 55 43 56 44 57
REMARK SMILES IDX 58 59 79 60 46 61 30 62 31 63 39 64 32 65 33 66 37 67 40 68
REMARK SMILES IDX 34 69 35 70 38 71 36 72 62 73 63 74 71 75 64 76 65 77 69 78
REMARK SMILES IDX 72 79 66 80 67 81 70 82 68 83 47 84 48 85 56 86 49 87 50 88
REMARK SMILES IDX 54 89 57 90 51 91 52 92 55 93 53 94
REMARK H PARENT 4 17 9 21 9 22 77 47 45 58
REMARK Flexibility Score: inf
ROOT
ATOM      1  C   UNL A   1      31.287  31.722  26.551  1.00  0.00     0.274 C 
ENDROOT
BRANCH   1   2
ATOM      2  O   UNL A   1      32.391  30.836  26.268  1.00  0.00    -0.457 OA
BRANCH   2   3
ATOM      3  C   UNL A   1      32.066  29.624  25.723  1.00  0.00     0.368 C 
ATOM      4  O   UNL A   1      31.356  29.482  24.733  1.00  0.00    -0.245 OA
BRANCH   3   5
ATOM      5  C   UNL A   1      32.649  28.438  26.550  1.00  0.00     0.200 C 
ATOM      6  C   UNL A   1      32.998  26.089  26.006  1.00  0.00     0.191 C 
ATOM      7  C   UNL A   1      31.503  26.282  26.265  1.00  0.00     0.072 C 
ATOM      8  C   UNL A   1      33.438  27.495  25.609  1.00  0.00     0.146 C 
ATOM      9  C   UNL A   1      31.442  27.603  27.047  1.00  0.00     0.087 C 
BRANCH   6  10
ATOM     10  N   UNL A   1      33.446  25.043  25.081  1.00  0.00    -0.328 N 
ATOM     11  C   UNL A   1      35.068  22.236  24.628  1.00  0.00     0.045 C 
ATOM     12  C   UNL A   1      35.279  23.641  24.065  1.00  0.00     0.171 C 
ATOM     13  C   UNL A   1      34.895  24.775  25.051  1.00  0.00     0.294 C 
ATOM     14  O   UNL A   1      34.680  23.786  22.768  1.00  0.00    -0.361 OA
ATOM     15  C   UNL A   1      33.285  24.141  22.753  1.00  0.00     0.112 C 
ATOM     16  C   UNL A   1      33.009  25.334  23.700  1.00  0.00     0.297 C 
ATOM     17  H   UNL A   1      33.003  24.203  25.454  1.00  0.00     0.348 HD
ATOM     18  C   UNL A   1      32.388  22.939  23.075  1.00  0.00     0.048 C 
ATOM     19  C   UNL A   1      32.992  24.578  21.310  1.00  0.00     0.048 C 
ENDBRANCH   6  10
BRANCH   5  20
ATOM     20  N   UNL A   1      33.508  28.977  27.637  1.00  0.00    -0.329 N 
ATOM     21  H   UNL A   1      33.459  28.326  28.419  1.00  0.00     0.347 HD
ATOM     22  H   UNL A   1      33.140  29.909  27.826  1.00  0.00     0.347 HD
BRANCH  20  23
ATOM     23  C   UNL A   1      34.927  29.188  27.327  1.00  0.00     0.183 C 
ATOM     24  C   UNL A   1      35.556  30.532  27.572  1.00  0.00     0.071 C 
ATOM     25  C   UNL A   1      35.889  29.379  28.468  1.00  0.00     0.071 C 
ENDBRANCH  20  23
ENDBRANCH   5  20
ENDBRANCH   3   5
ENDBRANCH   2   3
ENDBRANCH   1   2
BRANCH   1  26
ATOM     26  C   UNL A   1      31.812  33.118  26.879  1.00  0.00     0.275 C 
BRANCH  26  27
ATOM     27  O   UNL A   1      33.024  32.990  27.639  1.00  0.00    -0.458 OA
BRANCH  27  28
ATOM     28  C   UNL A   1      33.347  34.048  28.419  1.00  0.00     0.338 C 
ATOM     29  O   UNL A   1      32.807  35.139  28.443  1.00  0.00    -0.246 OA
BRANCH  28  30
ATOM     30  C   UNL A   1      34.511  33.690  29.256  1.00  0.00     0.060 A 
ATOM     31  C   UNL A   1      35.759  34.261  29.008  1.00  0.00     0.016 A 
ATOM     32  C   UNL A   1      34.376  32.729  30.254  1.00  0.00     0.016 A 
ATOM     33  C   UNL A   1      36.886  33.845  29.716  1.00  0.00     0.010 A 
ATOM     34  C   UNL A   1      35.491  32.361  31.015  1.00  0.00     0.010 A 
ATOM     35  C   UNL A   1      36.763  32.895  30.737  1.00  0.00    -0.014 A 
BRANCH  35  36
ATOM     36  C   UNL A   1      37.959  32.402  31.477  1.00  0.00     0.031 A 
ATOM     37  C   UNL A   1      38.825  31.335  30.865  1.00  0.00     0.074 A 
ATOM     38  C   UNL A   1      38.273  32.890  32.693  1.00  0.00     0.049 A 
ATOM     39  N   UNL A   1      39.772  30.615  31.412  1.00  0.00    -0.248 NA
ATOM     40  C   UNL A   1      38.581  31.028  29.447  1.00  0.00     0.031 C 
ATOM     41  C   UNL A   1      37.560  33.960  33.389  1.00  0.00     0.029 A 
ATOM     42  N   UNL A   1      39.277  32.538  33.563  1.00  0.00    -0.354 N 
ATOM     43  C   UNL A   1      40.192  29.731  30.426  1.00  0.00     0.074 A 
ATOM     44  C   UNL A   1      39.401  30.006  29.246  1.00  0.00     0.031 C 
ATOM     45  C   UNL A   1      38.159  34.192  34.568  1.00  0.00     0.029 A 
ATOM     46  C   UNL A   1      39.251  33.240  34.744  1.00  0.00     0.049 A 
ATOM     47  H   UNL A   1      39.950  31.850  33.360  1.00  0.00     0.167 HD
ATOM     48  C   UNL A   1      41.150  28.776  30.501  1.00  0.00     0.037 A 
ATOM     49  C   UNL A   1      39.994  33.103  35.859  1.00  0.00     0.037 A 
ATOM     50  C   UNL A   1      41.977  28.542  31.656  1.00  0.00     0.049 A 
ATOM     51  C   UNL A   1      41.033  32.018  35.930  1.00  0.00     0.074 A 
ATOM     52  C   UNL A   1      42.986  27.608  31.820  1.00  0.00     0.029 A 
ATOM     53  N   UNL A   1      41.903  29.261  32.837  1.00  0.00    -0.354 N 
ATOM     54  N   UNL A   1      41.382  31.145  35.016  1.00  0.00    -0.248 NA
ATOM     55  C   UNL A   1      41.765  31.882  37.198  1.00  0.00     0.031 C 
ATOM     56  C   UNL A   1      43.504  27.744  33.113  1.00  0.00     0.029 A 
ATOM     57  C   UNL A   1      42.842  28.786  33.740  1.00  0.00     0.049 A 
ATOM     58  H   UNL A   1      41.277  30.001  33.011  1.00  0.00     0.167 HD
ATOM     59  C   UNL A   1      42.375  30.365  35.593  1.00  0.00     0.074 A 
ATOM     60  C   UNL A   1      42.590  30.879  36.930  1.00  0.00     0.031 C 
ATOM     61  C   UNL A   1      43.043  29.310  35.066  1.00  0.00     0.037 A 
BRANCH  48  62
ATOM     62  C   UNL A   1      41.333  27.886  29.309  1.00  0.00     0.064 A 
ATOM     63  C   UNL A   1      42.423  28.028  28.438  1.00  0.00     0.173 A 
ATOM     64  C   UNL A   1      40.418  26.853  29.055  1.00  0.00     0.173 A 
ATOM     65  F   UNL A   1      43.317  29.010  28.630  1.00  0.00    -0.203 F 
ATOM     66  C   UNL A   1      42.576  27.182  27.342  1.00  0.00     0.198 A 
ATOM     67  C   UNL A   1      40.588  25.994  27.974  1.00  0.00     0.198 A 
ATOM     68  F   UNL A   1      39.361  26.672  29.862  1.00  0.00    -0.203 F 
ATOM     69  F   UNL A   1      43.601  27.362  26.498  1.00  0.00    -0.200 F 
ATOM     70  C   UNL A   1      41.663  26.163  27.114  1.00  0.00     0.200 A 
ATOM     71  F   UNL A   1      39.711  25.002  27.762  1.00  0.00    -0.200 F 
ATOM     72  F   UNL A   1      41.816  25.346  26.062  1.00  0.00    -0.200 F 
ENDBRANCH  48  62
BRANCH  49  73
ATOM     73  C   UNL A   1      39.753  33.995  37.023  1.00  0.00     0.064 A 
ATOM     74  C   UNL A   1      40.379  35.247  37.111  1.00  0.00     0.173 A 
ATOM     75  C   UNL A   1      38.902  33.616  38.070  1.00  0.00     0.173 A 
ATOM     76  F   UNL A   1      41.227  35.639  36.148  1.00  0.00    -0.203 F 
ATOM     77  C   UNL A   1      40.167  36.082  38.205  1.00  0.00     0.198 A 
ATOM     78  C   UNL A   1      38.669  34.463  39.151  1.00  0.00     0.198 A 
ATOM     79  F   UNL A   1      38.285  32.426  38.036  1.00  0.00    -0.203 F 
ATOM     80  F   UNL A   1      40.808  37.255  38.285  1.00  0.00    -0.200 F 
ATOM     81  C   UNL A   1      39.306  35.693  39.221  1.00  0.00     0.200 A 
ATOM     82  F   UNL A   1      37.828  34.087  40.125  1.00  0.00    -0.200 F 
ATOM     83  F   UNL A   1      39.097  36.498  40.271  1.00  0.00    -0.200 F 
ENDBRANCH  49  73
BRANCH  61  84
ATOM     84  C   UNL A   1      44.079  28.654  35.927  1.00  0.00     0.064 A 
ATOM     85  C   UNL A   1      43.754  27.593  36.784  1.00  0.00     0.173 A 
ATOM     86  C   UNL A   1      45.419  29.068  35.870  1.00  0.00     0.173 A 
ATOM     87  F   UNL A   1      42.484  27.175  36.886  1.00  0.00    -0.203 F 
ATOM     88  C   UNL A   1      44.729  26.981  37.566  1.00  0.00     0.198 A 
ATOM     89  C   UNL A   1      46.395  28.439  36.636  1.00  0.00     0.198 A 
ATOM     90  F   UNL A   1      45.781  30.076  35.061  1.00  0.00    -0.203 F 
ATOM     91  F   UNL A   1      44.389  25.994  38.407  1.00  0.00    -0.200 F 
ATOM     92  C   UNL A   1      46.050  27.400  37.487  1.00  0.00     0.200 A 
ATOM     93  F   UNL A   1      47.672  28.838  36.552  1.00  0.00    -0.200 F 
ATOM     94  F   UNL A   1      46.987  26.806  38.238  1.00  0.00    -0.200 F 
ENDBRANCH  61  84
ENDBRANCH  35  36
ENDBRANCH  28  30
ENDBRANCH  27  28
ENDBRANCH  26  27
ENDBRANCH   1  26
TORSDOF 14
ENDMDL
