MODEL 1
REMARK VINA RESULT:     -13.3      0.000      0.000
REMARK SMILES Cc1cccc(NC(=O)[C@H]2C=C[C@@H]([NH3+])C2)c1C(=O)OCCOC(=O)c1ccc(-c2c3nc(c(-c4c(F)c(F)c(F)c(F)c4F)c4ccc([nH]4)c(-c4c(F)c(F)c(F)c(F)c4F)c4nc(c(-c5c(F)c(F)c(F)c(F)c5F)c5ccc2[nH]5)C=C4)C=C3)cc1
REMARK SMILES IDX 20 1 19 2 17 3 18 4 16 5 1 6 2 7 3 8 4 9 6 10 5 11 7 12 8 13
REMARK SMILES IDX 9 15 10 16 11 17 15 18 12 19 13 20 14 21 21 25 22 26 23 27
REMARK SMILES IDX 24 28 25 29 26 30 87 31 27 32 86 33 28 34 29 35 30 36 80 37
REMARK SMILES IDX 31 38 85 39 79 40 81 41 32 42 84 43 78 44 77 45 33 47 65 48
REMARK SMILES IDX 45 49 64 50 46 51 49 52 63 53 82 54 47 55 48 56 62 58 83 59
REMARK SMILES IDX 50 60 34 61 35 62 43 63 36 64 37 65 41 66 44 67 38 68 39 69
REMARK SMILES IDX 42 70 40 71 66 72 67 73 75 74 68 75 69 76 73 77 76 78 70 79
REMARK SMILES IDX 71 80 74 81 72 82 51 83 52 84 60 85 53 86 54 87 58 88 61 89
REMARK SMILES IDX 55 90 56 91 59 92 57 93
REMARK H PARENT 7 14 14 22 14 23 14 24 81 46 49 57
REMARK Flexibility Score: inf
ROOT
ATOM      1  C   UNL A   1      33.692  28.692  25.922  1.00  0.00     0.275 C 
ENDROOT
BRANCH   1   2
ATOM      2  O   UNL A   1      33.409  27.375  26.457  1.00  0.00    -0.458 OA
BRANCH   2   3
ATOM      3  C   UNL A   1      32.073  27.100  26.514  1.00  0.00     0.340 C 
ATOM      4  O   UNL A   1      31.333  27.425  27.431  1.00  0.00    -0.246 OA
BRANCH   3   5
ATOM      5  C   UNL A   1      31.589  26.103  25.539  1.00  0.00     0.086 A 
ATOM      6  C   UNL A   1      30.484  28.116  24.328  1.00  0.00     0.045 C 
ATOM      7  C   UNL A   1      30.861  26.659  24.448  1.00  0.00    -0.034 A 
ATOM      8  C   UNL A   1      30.494  25.839  23.375  1.00  0.00     0.004 A 
ATOM      9  C   UNL A   1      30.749  24.482  23.421  1.00  0.00     0.002 A 
ATOM     10  C   UNL A   1      31.960  24.736  25.515  1.00  0.00     0.056 A 
ATOM     11  C   UNL A   1      31.420  23.948  24.513  1.00  0.00     0.027 A 
BRANCH  10  12
ATOM     12  N   UNL A   1      32.814  24.125  26.447  1.00  0.00    -0.325 N 
ATOM     13  C   UNL A   1      34.034  23.517  26.395  1.00  0.00     0.231 C 
ATOM     14  H   UNL A   1      32.441  24.137  27.359  1.00  0.00     0.169 HD
ATOM     15  O   UNL A   1      34.351  22.983  27.476  1.00  0.00    -0.274 OA
BRANCH  13  16
ATOM     16  C   UNL A   1      35.084  23.367  25.251  1.00  0.00     0.107 C 
ATOM     17  C   UNL A   1      36.444  23.673  25.824  1.00  0.00    -0.012 C 
ATOM     18  C   UNL A   1      35.371  22.195  24.297  1.00  0.00     0.087 C 
ATOM     19  C   UNL A   1      37.394  22.833  25.406  1.00  0.00     0.033 C 
ATOM     20  C   UNL A   1      36.876  21.830  24.436  1.00  0.00     0.205 C 
BRANCH  20  21
ATOM     21  N   UNL A   1      37.148  20.478  24.904  1.00  0.00    -0.352 N 
ATOM     22  H   UNL A   1      36.409  19.852  24.585  1.00  0.00     0.345 HD
ATOM     23  H   UNL A   1      37.185  20.470  25.923  1.00  0.00     0.345 HD
ATOM     24  H   UNL A   1      38.044  20.163  24.529  1.00  0.00     0.345 HD
ENDBRANCH  20  21
ENDBRANCH  13  16
ENDBRANCH  10  12
ENDBRANCH   3   5
ENDBRANCH   2   3
ENDBRANCH   1   2
BRANCH   1  25
ATOM     25  C   UNL A   1      33.950  29.806  26.958  1.00  0.00     0.275 C 
BRANCH  25  26
ATOM     26  O   UNL A   1      34.963  29.673  27.985  1.00  0.00    -0.458 OA
BRANCH  26  27
ATOM     27  C   UNL A   1      36.042  30.474  27.995  1.00  0.00     0.338 C 
ATOM     28  O   UNL A   1      36.000  31.685  27.804  1.00  0.00    -0.246 OA
BRANCH  27  29
ATOM     29  C   UNL A   1      37.287  29.745  28.275  1.00  0.00     0.060 A 
ATOM     30  C   UNL A   1      37.354  28.975  29.445  1.00  0.00     0.016 A 
ATOM     31  C   UNL A   1      38.269  29.658  27.285  1.00  0.00     0.016 A 
ATOM     32  C   UNL A   1      38.328  28.005  29.582  1.00  0.00     0.010 A 
ATOM     33  C   UNL A   1      39.181  28.640  27.367  1.00  0.00     0.010 A 
ATOM     34  C   UNL A   1      39.221  27.846  28.526  1.00  0.00    -0.014 A 
BRANCH  34  35
ATOM     35  C   UNL A   1      40.480  27.161  28.698  1.00  0.00     0.031 A 
ATOM     36  C   UNL A   1      40.627  25.732  28.389  1.00  0.00     0.074 A 
ATOM     37  C   UNL A   1      41.430  28.077  28.984  1.00  0.00     0.049 A 
ATOM     38  N   UNL A   1      41.592  25.008  28.829  1.00  0.00    -0.248 NA
ATOM     39  C   UNL A   1      39.662  24.946  27.622  1.00  0.00     0.031 C 
ATOM     40  C   UNL A   1      42.872  28.059  28.890  1.00  0.00     0.029 A 
ATOM     41  N   UNL A   1      41.150  29.329  29.575  1.00  0.00    -0.354 N 
ATOM     42  C   UNL A   1      41.586  23.826  28.111  1.00  0.00     0.074 A 
ATOM     43  C   UNL A   1      40.271  23.757  27.533  1.00  0.00     0.031 C 
ATOM     44  C   UNL A   1      43.358  29.058  29.657  1.00  0.00     0.029 A 
ATOM     45  C   UNL A   1      42.235  29.646  30.385  1.00  0.00     0.049 A 
ATOM     46  H   UNL A   1      40.341  29.874  29.441  1.00  0.00     0.167 HD
ATOM     47  C   UNL A   1      42.780  23.188  27.934  1.00  0.00     0.037 A 
ATOM     48  C   UNL A   1      42.038  29.580  31.737  1.00  0.00     0.037 A 
ATOM     49  C   UNL A   1      43.803  23.912  28.689  1.00  0.00     0.049 A 
ATOM     50  C   UNL A   1      42.817  28.424  32.305  1.00  0.00     0.074 A 
ATOM     51  C   UNL A   1      44.670  24.922  28.305  1.00  0.00     0.029 A 
ATOM     52  N   UNL A   1      43.716  23.961  30.075  1.00  0.00    -0.354 N 
ATOM     53  N   UNL A   1      43.010  27.290  31.687  1.00  0.00    -0.248 NA
ATOM     54  C   UNL A   1      43.516  28.518  33.579  1.00  0.00     0.031 C 
ATOM     55  C   UNL A   1      45.025  25.647  29.474  1.00  0.00     0.029 A 
ATOM     56  C   UNL A   1      44.379  25.074  30.559  1.00  0.00     0.049 A 
ATOM     57  H   UNL A   1      43.248  23.299  30.633  1.00  0.00     0.167 HD
ATOM     58  C   UNL A   1      43.908  26.549  32.404  1.00  0.00     0.074 A 
ATOM     59  C   UNL A   1      44.177  27.350  33.588  1.00  0.00     0.031 C 
ATOM     60  C   UNL A   1      44.411  25.351  31.984  1.00  0.00     0.037 A 
BRANCH  47  61
ATOM     61  C   UNL A   1      43.134  22.160  26.872  1.00  0.00     0.064 A 
ATOM     62  C   UNL A   1      42.507  20.888  26.894  1.00  0.00     0.173 A 
ATOM     63  C   UNL A   1      44.095  22.309  25.853  1.00  0.00     0.173 A 
ATOM     64  F   UNL A   1      41.522  20.609  27.759  1.00  0.00    -0.203 F 
ATOM     65  C   UNL A   1      42.863  19.845  26.032  1.00  0.00     0.198 A 
ATOM     66  C   UNL A   1      44.457  21.260  24.993  1.00  0.00     0.198 A 
ATOM     67  F   UNL A   1      44.705  23.473  25.620  1.00  0.00    -0.203 F 
ATOM     68  F   UNL A   1      42.244  18.661  26.132  1.00  0.00    -0.200 F 
ATOM     69  C   UNL A   1      43.848  20.027  25.088  1.00  0.00     0.200 A 
ATOM     70  F   UNL A   1      45.405  21.461  24.066  1.00  0.00    -0.200 F 
ATOM     71  F   UNL A   1      44.199  19.028  24.268  1.00  0.00    -0.200 F 
ENDBRANCH  47  61
BRANCH  48  72
ATOM     72  C   UNL A   1      40.664  29.995  32.184  1.00  0.00     0.064 A 
ATOM     73  C   UNL A   1      40.213  31.294  31.855  1.00  0.00     0.173 A 
ATOM     74  C   UNL A   1      39.696  29.094  32.648  1.00  0.00     0.173 A 
ATOM     75  F   UNL A   1      41.086  32.216  31.416  1.00  0.00    -0.203 F 
ATOM     76  C   UNL A   1      38.861  31.634  31.874  1.00  0.00     0.198 A 
ATOM     77  C   UNL A   1      38.340  29.446  32.691  1.00  0.00     0.198 A 
ATOM     78  F   UNL A   1      40.037  27.841  32.983  1.00  0.00    -0.203 F 
ATOM     79  F   UNL A   1      38.466  32.835  31.427  1.00  0.00    -0.200 F 
ATOM     80  C   UNL A   1      37.924  30.706  32.282  1.00  0.00     0.200 A 
ATOM     81  F   UNL A   1      37.427  28.524  33.035  1.00  0.00    -0.200 F 
ATOM     82  F   UNL A   1      36.623  31.012  32.222  1.00  0.00    -0.200 F 
ENDBRANCH  48  72
BRANCH  60  83
ATOM     83  C   UNL A   1      45.091  24.364  32.890  1.00  0.00     0.064 A 
ATOM     84  C   UNL A   1      46.389  24.556  33.389  1.00  0.00     0.173 A 
ATOM     85  C   UNL A   1      44.382  23.263  33.424  1.00  0.00     0.173 A 
ATOM     86  F   UNL A   1      47.102  25.649  33.087  1.00  0.00    -0.203 F 
ATOM     87  C   UNL A   1      46.977  23.650  34.268  1.00  0.00     0.198 A 
ATOM     88  C   UNL A   1      44.942  22.411  34.368  1.00  0.00     0.198 A 
ATOM     89  F   UNL A   1      43.115  22.999  33.074  1.00  0.00    -0.203 F 
ATOM     90  F   UNL A   1      48.247  23.834  34.650  1.00  0.00    -0.200 F 
ATOM     91  C   UNL A   1      46.251  22.586  34.766  1.00  0.00     0.200 A 
ATOM     92  F   UNL A   1      44.199  21.435  34.905  1.00  0.00    -0.200 F 
ATOM     93  F   UNL A   1      46.806  21.744  35.647  1.00  0.00    -0.200 F 
ENDBRANCH  60  83
ENDBRANCH  34  35
ENDBRANCH  27  29
ENDBRANCH  26  27
ENDBRANCH  25  26
ENDBRANCH   1  25
TORSDOF 14
ENDMDL
MODEL 2
REMARK VINA RESULT:     -13.1      0.826      1.435
REMARK SMILES Cc1cccc(NC(=O)[C@H]2C=C[C@@H]([NH3+])C2)c1C(=O)OCCOC(=O)c1ccc(-c2c3nc(c(-c4c(F)c(F)c(F)c(F)c4F)c4ccc([nH]4)c(-c4c(F)c(F)c(F)c(F)c4F)c4nc(c(-c5c(F)c(F)c(F)c(F)c5F)c5ccc2[nH]5)C=C4)C=C3)cc1
REMARK SMILES IDX 20 1 19 2 17 3 18 4 16 5 1 6 2 7 3 8 4 9 6 10 5 11 7 12 8 13
REMARK SMILES IDX 9 15 10 16 11 17 15 18 12 19 13 20 14 21 21 25 22 26 23 27
REMARK SMILES IDX 24 28 25 29 26 30 87 31 27 32 86 33 28 34 29 35 30 36 80 37
REMARK SMILES IDX 31 38 85 39 79 40 81 41 32 42 84 43 78 44 77 45 33 47 65 48
REMARK SMILES IDX 45 49 64 50 46 51 49 52 63 53 82 54 47 55 48 56 62 58 83 59
REMARK SMILES IDX 50 60 34 61 35 62 43 63 36 64 37 65 41 66 44 67 38 68 39 69
REMARK SMILES IDX 42 70 40 71 66 72 67 73 75 74 68 75 69 76 73 77 76 78 70 79
REMARK SMILES IDX 71 80 74 81 72 82 51 83 52 84 60 85 53 86 54 87 58 88 61 89
REMARK SMILES IDX 55 90 56 91 59 92 57 93
REMARK H PARENT 7 14 14 22 14 23 14 24 81 46 49 57
REMARK Flexibility Score: inf
ROOT
ATOM      1  C   UNL A   1      33.825  28.325  26.155  1.00  0.00     0.275 C 
ENDROOT
BRANCH   1   2
ATOM      2  O   UNL A   1      33.501  26.925  26.345  1.00  0.00    -0.458 OA
BRANCH   2   3
ATOM      3  C   UNL A   1      32.158  26.695  26.412  1.00  0.00     0.340 C 
ATOM      4  O   UNL A   1      31.428  27.084  27.311  1.00  0.00    -0.246 OA
BRANCH   3   5
ATOM      5  C   UNL A   1      31.643  25.669  25.482  1.00  0.00     0.086 A 
ATOM      6  C   UNL A   1      30.720  27.668  24.105  1.00  0.00     0.045 C 
ATOM      7  C   UNL A   1      30.993  26.200  24.330  1.00  0.00    -0.034 A 
ATOM      8  C   UNL A   1      30.611  25.337  23.298  1.00  0.00     0.004 A 
ATOM      9  C   UNL A   1      30.773  23.972  23.438  1.00  0.00     0.002 A 
ATOM     10  C   UNL A   1      31.921  24.283  25.559  1.00  0.00     0.056 A 
ATOM     11  C   UNL A   1      31.367  23.468  24.587  1.00  0.00     0.027 A 
BRANCH  10  12
ATOM     12  N   UNL A   1      32.699  23.680  26.561  1.00  0.00    -0.325 N 
ATOM     13  C   UNL A   1      33.858  22.962  26.592  1.00  0.00     0.231 C 
ATOM     14  H   UNL A   1      32.313  23.805  27.458  1.00  0.00     0.169 HD
ATOM     15  O   UNL A   1      34.105  22.496  27.722  1.00  0.00    -0.274 OA
BRANCH  13  16
ATOM     16  C   UNL A   1      34.910  22.618  25.491  1.00  0.00     0.107 C 
ATOM     17  C   UNL A   1      35.676  23.875  25.171  1.00  0.00    -0.012 C 
ATOM     18  C   UNL A   1      35.999  21.533  25.445  1.00  0.00     0.087 C 
ATOM     19  C   UNL A   1      36.989  23.673  25.031  1.00  0.00     0.033 C 
ATOM     20  C   UNL A   1      37.359  22.239  25.183  1.00  0.00     0.205 C 
BRANCH  20  21
ATOM     21  N   UNL A   1      38.358  22.076  26.230  1.00  0.00    -0.352 N 
ATOM     22  H   UNL A   1      38.390  21.100  26.521  1.00  0.00     0.345 HD
ATOM     23  H   UNL A   1      38.113  22.662  27.029  1.00  0.00     0.345 HD
ATOM     24  H   UNL A   1      39.272  22.354  25.873  1.00  0.00     0.345 HD
ENDBRANCH  20  21
ENDBRANCH  13  16
ENDBRANCH  10  12
ENDBRANCH   3   5
ENDBRANCH   2   3
ENDBRANCH   1   2
BRANCH   1  25
ATOM     25  C   UNL A   1      34.291  29.091  27.411  1.00  0.00     0.275 C 
BRANCH  25  26
ATOM     26  O   UNL A   1      35.105  30.286  27.317  1.00  0.00    -0.458 OA
BRANCH  26  27
ATOM     27  C   UNL A   1      35.734  30.777  28.400  1.00  0.00     0.338 C 
ATOM     28  O   UNL A   1      35.284  31.671  29.108  1.00  0.00    -0.246 OA
BRANCH  27  29
ATOM     29  C   UNL A   1      37.023  30.118  28.654  1.00  0.00     0.060 A 
ATOM     30  C   UNL A   1      37.098  29.202  29.714  1.00  0.00     0.016 A 
ATOM     31  C   UNL A   1      38.056  30.246  27.723  1.00  0.00     0.016 A 
ATOM     32  C   UNL A   1      38.145  28.304  29.779  1.00  0.00     0.010 A 
ATOM     33  C   UNL A   1      39.048  29.303  27.724  1.00  0.00     0.010 A 
ATOM     34  C   UNL A   1      39.099  28.362  28.768  1.00  0.00    -0.014 A 
BRANCH  34  35
ATOM     35  C   UNL A   1      40.404  27.763  28.923  1.00  0.00     0.031 A 
ATOM     36  C   UNL A   1      40.676  26.389  28.482  1.00  0.00     0.074 A 
ATOM     37  C   UNL A   1      41.267  28.717  29.336  1.00  0.00     0.049 A 
ATOM     38  N   UNL A   1      41.682  25.700  28.888  1.00  0.00    -0.248 NA
ATOM     39  C   UNL A   1      39.803  25.611  27.602  1.00  0.00     0.031 C 
ATOM     40  C   UNL A   1      42.708  28.819  29.300  1.00  0.00     0.029 A 
ATOM     41  N   UNL A   1      40.867  29.877  30.035  1.00  0.00    -0.354 N 
ATOM     42  C   UNL A   1      41.795  24.600  28.058  1.00  0.00     0.074 A 
ATOM     43  C   UNL A   1      40.510  24.488  27.423  1.00  0.00     0.031 C 
ATOM     44  C   UNL A   1      43.086  29.771  30.180  1.00  0.00     0.029 A 
ATOM     45  C   UNL A   1      41.895  30.193  30.916  1.00  0.00     0.049 A 
ATOM     46  H   UNL A   1      40.021  30.368  29.922  1.00  0.00     0.167 HD
ATOM     47  C   UNL A   1      43.042  24.077  27.868  1.00  0.00     0.037 A 
ATOM     48  C   UNL A   1      41.660  29.976  32.245  1.00  0.00     0.037 A 
ATOM     49  C   UNL A   1      43.978  24.798  28.731  1.00  0.00     0.049 A 
ATOM     50  C   UNL A   1      42.511  28.832  32.729  1.00  0.00     0.074 A 
ATOM     51  C   UNL A   1      44.772  25.906  28.484  1.00  0.00     0.029 A 
ATOM     52  N   UNL A   1      43.841  24.700  30.111  1.00  0.00    -0.354 N 
ATOM     53  N   UNL A   1      42.815  27.785  32.011  1.00  0.00    -0.248 NA
ATOM     54  C   UNL A   1      43.157  28.851  34.034  1.00  0.00     0.031 C 
ATOM     55  C   UNL A   1      45.029  26.534  29.732  1.00  0.00     0.029 A 
ATOM     56  C   UNL A   1      44.395  25.807  30.728  1.00  0.00     0.049 A 
ATOM     57  H   UNL A   1      43.410  23.951  30.582  1.00  0.00     0.167 HD
ATOM     58  C   UNL A   1      43.746  27.047  32.688  1.00  0.00     0.074 A 
ATOM     59  C   UNL A   1      43.910  27.743  33.955  1.00  0.00     0.031 C 
ATOM     60  C   UNL A   1      44.358  25.940  32.173  1.00  0.00     0.037 A 
BRANCH  47  61
ATOM     61  C   UNL A   1      43.512  23.192  26.726  1.00  0.00     0.064 A 
ATOM     62  C   UNL A   1      43.127  21.828  26.694  1.00  0.00     0.173 A 
ATOM     63  C   UNL A   1      44.371  23.570  25.675  1.00  0.00     0.173 A 
ATOM     64  F   UNL A   1      42.261  21.325  27.585  1.00  0.00    -0.203 F 
ATOM     65  C   UNL A   1      43.614  20.917  25.750  1.00  0.00     0.198 A 
ATOM     66  C   UNL A   1      44.864  22.656  24.732  1.00  0.00     0.198 A 
ATOM     67  F   UNL A   1      44.746  24.838  25.490  1.00  0.00    -0.203 F 
ATOM     68  F   UNL A   1      43.226  19.635  25.802  1.00  0.00    -0.200 F 
ATOM     69  C   UNL A   1      44.494  21.329  24.776  1.00  0.00     0.200 A 
ATOM     70  F   UNL A   1      45.706  23.077  23.777  1.00  0.00    -0.200 F 
ATOM     71  F   UNL A   1      44.971  20.458  23.876  1.00  0.00    -0.200 F 
ENDBRANCH  47  61
BRANCH  48  72
ATOM     72  C   UNL A   1      40.243  30.237  32.674  1.00  0.00     0.064 A 
ATOM     73  C   UNL A   1      39.739  31.553  32.567  1.00  0.00     0.173 A 
ATOM     74  C   UNL A   1      39.303  29.221  32.898  1.00  0.00     0.173 A 
ATOM     75  F   UNL A   1      40.581  32.580  32.366  1.00  0.00    -0.203 F 
ATOM     76  C   UNL A   1      38.371  31.823  32.565  1.00  0.00     0.198 A 
ATOM     77  C   UNL A   1      37.929  29.498  32.921  1.00  0.00     0.198 A 
ATOM     78  F   UNL A   1      39.694  27.944  33.013  1.00  0.00    -0.203 F 
ATOM     79  F   UNL A   1      37.934  33.069  32.328  1.00  0.00    -0.200 F 
ATOM     80  C   UNL A   1      37.466  30.794  32.730  1.00  0.00     0.200 A 
ATOM     81  F   UNL A   1      37.052  28.487  33.026  1.00  0.00    -0.200 F 
ATOM     82  F   UNL A   1      36.155  31.047  32.647  1.00  0.00    -0.200 F 
ENDBRANCH  48  72
BRANCH  60  83
ATOM     83  C   UNL A   1      45.086  24.923  33.006  1.00  0.00     0.064 A 
ATOM     84  C   UNL A   1      44.542  23.669  33.325  1.00  0.00     0.173 A 
ATOM     85  C   UNL A   1      46.437  25.120  33.374  1.00  0.00     0.173 A 
ATOM     86  F   UNL A   1      43.330  23.299  32.890  1.00  0.00    -0.203 F 
ATOM     87  C   UNL A   1      45.258  22.724  34.056  1.00  0.00     0.198 A 
ATOM     88  C   UNL A   1      47.176  24.141  34.026  1.00  0.00     0.198 A 
ATOM     89  F   UNL A   1      47.093  26.253  33.080  1.00  0.00    -0.203 F 
ATOM     90  F   UNL A   1      44.666  21.575  34.405  1.00  0.00    -0.200 F 
ATOM     91  C   UNL A   1      46.577  22.955  34.396  1.00  0.00     0.200 A 
ATOM     92  F   UNL A   1      48.477  24.346  34.274  1.00  0.00    -0.200 F 
ATOM     93  F   UNL A   1      47.276  22.025  35.059  1.00  0.00    -0.200 F 
ENDBRANCH  60  83
ENDBRANCH  34  35
ENDBRANCH  27  29
ENDBRANCH  26  27
ENDBRANCH  25  26
ENDBRANCH   1  25
TORSDOF 14
ENDMDL
MODEL 3
REMARK VINA RESULT:     -13.1      1.696      3.363
REMARK SMILES Cc1cccc(NC(=O)[C@H]2C=C[C@@H]([NH3+])C2)c1C(=O)OCCOC(=O)c1ccc(-c2c3nc(c(-c4c(F)c(F)c(F)c(F)c4F)c4ccc([nH]4)c(-c4c(F)c(F)c(F)c(F)c4F)c4nc(c(-c5c(F)c(F)c(F)c(F)c5F)c5ccc2[nH]5)C=C4)C=C3)cc1
REMARK SMILES IDX 20 1 19 2 17 3 18 4 16 5 1 6 2 7 3 8 4 9 6 10 5 11 7 12 8 13
REMARK SMILES IDX 9 15 10 16 11 17 15 18 12 19 13 20 14 21 21 25 22 26 23 27
REMARK SMILES IDX 24 28 25 29 26 30 87 31 27 32 86 33 28 34 29 35 30 36 80 37
REMARK SMILES IDX 31 38 85 39 79 40 81 41 32 42 84 43 78 44 77 45 33 47 65 48
REMARK SMILES IDX 45 49 64 50 46 51 49 52 63 53 82 54 47 55 48 56 62 58 83 59
REMARK SMILES IDX 50 60 34 61 35 62 43 63 36 64 37 65 41 66 44 67 38 68 39 69
REMARK SMILES IDX 42 70 40 71 66 72 67 73 75 74 68 75 69 76 73 77 76 78 70 79
REMARK SMILES IDX 71 80 74 81 72 82 51 83 52 84 60 85 53 86 54 87 58 88 61 89
REMARK SMILES IDX 55 90 56 91 59 92 57 93
REMARK H PARENT 7 14 14 22 14 23 14 24 81 46 49 57
REMARK Flexibility Score: inf
ROOT
ATOM      1  C   UNL A   1      32.152  29.463  27.179  1.00  0.00     0.275 C 
ENDROOT
BRANCH   1   2
ATOM      2  O   UNL A   1      31.817  28.822  25.924  1.00  0.00    -0.458 OA
BRANCH   2   3
ATOM      3  C   UNL A   1      31.426  27.523  26.078  1.00  0.00     0.340 C 
ATOM      4  O   UNL A   1      31.031  27.034  27.126  1.00  0.00    -0.246 OA
BRANCH   3   5
ATOM      5  C   UNL A   1      31.792  26.616  24.972  1.00  0.00     0.086 A 
ATOM      6  C   UNL A   1      34.233  26.905  25.807  1.00  0.00     0.045 C 
ATOM      7  C   UNL A   1      33.178  26.293  24.916  1.00  0.00    -0.034 A 
ATOM      8  C   UNL A   1      33.622  25.316  24.019  1.00  0.00     0.004 A 
ATOM      9  C   UNL A   1      32.738  24.740  23.127  1.00  0.00     0.002 A 
ATOM     10  C   UNL A   1      30.874  25.926  24.143  1.00  0.00     0.056 A 
ATOM     11  C   UNL A   1      31.397  25.099  23.165  1.00  0.00     0.027 A 
BRANCH  10  12
ATOM     12  N   UNL A   1      29.477  26.041  24.232  1.00  0.00    -0.325 N 
ATOM     13  C   UNL A   1      28.548  26.949  23.814  1.00  0.00     0.231 C 
ATOM     14  H   UNL A   1      29.070  25.284  24.712  1.00  0.00     0.169 HD
ATOM     15  O   UNL A   1      27.406  26.703  24.251  1.00  0.00    -0.274 OA
BRANCH  13  16
ATOM     16  C   UNL A   1      28.651  28.217  22.911  1.00  0.00     0.107 C 
ATOM     17  C   UNL A   1      27.408  29.042  23.123  1.00  0.00    -0.012 C 
ATOM     18  C   UNL A   1      29.754  29.284  22.799  1.00  0.00     0.087 C 
ATOM     19  C   UNL A   1      27.652  30.351  23.215  1.00  0.00     0.033 C 
ATOM     20  C   UNL A   1      29.095  30.672  23.038  1.00  0.00     0.205 C 
BRANCH  20  21
ATOM     21  N   UNL A   1      29.600  31.412  24.186  1.00  0.00    -0.352 N 
ATOM     22  H   UNL A   1      28.817  31.744  24.748  1.00  0.00     0.345 HD
ATOM     23  H   UNL A   1      30.149  32.208  23.863  1.00  0.00     0.345 HD
ATOM     24  H   UNL A   1      30.189  30.800  24.752  1.00  0.00     0.345 HD
ENDBRANCH  20  21
ENDBRANCH  13  16
ENDBRANCH  10  12
ENDBRANCH   3   5
ENDBRANCH   2   3
ENDBRANCH   1   2
BRANCH   1  25
ATOM     25  C   UNL A   1      33.447  30.302  27.190  1.00  0.00     0.275 C 
BRANCH  25  26
ATOM     26  O   UNL A   1      34.670  29.810  27.792  1.00  0.00    -0.458 OA
BRANCH  26  27
ATOM     27  C   UNL A   1      35.587  30.662  28.282  1.00  0.00     0.338 C 
ATOM     28  O   UNL A   1      35.366  31.844  28.524  1.00  0.00    -0.246 OA
BRANCH  27  29
ATOM     29  C   UNL A   1      36.890  30.022  28.512  1.00  0.00     0.060 A 
ATOM     30  C   UNL A   1      37.029  29.190  29.632  1.00  0.00     0.016 A 
ATOM     31  C   UNL A   1      37.867  30.076  27.514  1.00  0.00     0.016 A 
ATOM     32  C   UNL A   1      38.080  28.297  29.705  1.00  0.00     0.010 A 
ATOM     33  C   UNL A   1      38.860  29.134  27.531  1.00  0.00     0.010 A 
ATOM     34  C   UNL A   1      38.974  28.276  28.638  1.00  0.00    -0.014 A 
BRANCH  34  35
ATOM     35  C   UNL A   1      40.286  27.687  28.763  1.00  0.00     0.031 A 
ATOM     36  C   UNL A   1      40.548  26.300  28.361  1.00  0.00     0.074 A 
ATOM     37  C   UNL A   1      41.160  28.659  29.108  1.00  0.00     0.049 A 
ATOM     38  N   UNL A   1      41.573  25.630  28.751  1.00  0.00    -0.248 NA
ATOM     39  C   UNL A   1      39.646  25.488  27.544  1.00  0.00     0.031 C 
ATOM     40  C   UNL A   1      42.598  28.766  29.011  1.00  0.00     0.029 A 
ATOM     41  N   UNL A   1      40.782  29.842  29.781  1.00  0.00    -0.354 N 
ATOM     42  C   UNL A   1      41.659  24.501  27.956  1.00  0.00     0.074 A 
ATOM     43  C   UNL A   1      40.351  24.362  27.377  1.00  0.00     0.031 C 
ATOM     44  C   UNL A   1      43.005  29.749  29.842  1.00  0.00     0.029 A 
ATOM     45  C   UNL A   1      41.842  30.193  30.608  1.00  0.00     0.049 A 
ATOM     46  H   UNL A   1      39.930  30.325  29.684  1.00  0.00     0.167 HD
ATOM     47  C   UNL A   1      42.900  23.977  27.736  1.00  0.00     0.037 A 
ATOM     48  C   UNL A   1      41.661  30.022  31.953  1.00  0.00     0.037 A 
ATOM     49  C   UNL A   1      43.866  24.732  28.535  1.00  0.00     0.049 A 
ATOM     50  C   UNL A   1      42.536  28.900  32.443  1.00  0.00     0.074 A 
ATOM     51  C   UNL A   1      44.644  25.833  28.218  1.00  0.00     0.029 A 
ATOM     52  N   UNL A   1      43.784  24.683  29.922  1.00  0.00    -0.354 N 
ATOM     53  N   UNL A   1      42.817  27.828  31.751  1.00  0.00    -0.248 NA
ATOM     54  C   UNL A   1      43.233  28.967  33.720  1.00  0.00     0.031 C 
ATOM     55  C   UNL A   1      44.946  26.506  29.432  1.00  0.00     0.029 A 
ATOM     56  C   UNL A   1      44.356  25.812  30.477  1.00  0.00     0.049 A 
ATOM     57  H   UNL A   1      43.375  23.949  30.436  1.00  0.00     0.167 HD
ATOM     58  C   UNL A   1      43.778  27.119  32.416  1.00  0.00     0.074 A 
ATOM     59  C   UNL A   1      43.987  27.860  33.651  1.00  0.00     0.031 C 
ATOM     60  C   UNL A   1      44.375  25.997  31.917  1.00  0.00     0.037 A 
BRANCH  47  61
ATOM     61  C   UNL A   1      43.330  23.053  26.608  1.00  0.00     0.064 A 
ATOM     62  C   UNL A   1      43.024  21.671  26.681  1.00  0.00     0.173 A 
ATOM     63  C   UNL A   1      44.080  23.416  25.471  1.00  0.00     0.173 A 
ATOM     64  F   UNL A   1      42.260  21.175  27.664  1.00  0.00    -0.203 F 
ATOM     65  C   UNL A   1      43.487  20.735  25.750  1.00  0.00     0.198 A 
ATOM     66  C   UNL A   1      44.551  22.476  24.541  1.00  0.00     0.198 A 
ATOM     67  F   UNL A   1      44.366  24.689  25.190  1.00  0.00    -0.203 F 
ATOM     68  F   UNL A   1      43.179  19.439  25.901  1.00  0.00    -0.200 F 
ATOM     69  C   UNL A   1      44.263  21.136  24.686  1.00  0.00     0.200 A 
ATOM     70  F   UNL A   1      45.289  22.886  23.500  1.00  0.00    -0.200 F 
ATOM     71  F   UNL A   1      44.716  20.241  23.798  1.00  0.00    -0.200 F 
ENDBRANCH  47  61
BRANCH  48  72
ATOM     72  C   UNL A   1      40.260  30.292  32.428  1.00  0.00     0.064 A 
ATOM     73  C   UNL A   1      39.738  31.597  32.277  1.00  0.00     0.173 A 
ATOM     74  C   UNL A   1      39.341  29.282  32.742  1.00  0.00     0.173 A 
ATOM     75  F   UNL A   1      40.561  32.620  31.989  1.00  0.00    -0.203 F 
ATOM     76  C   UNL A   1      38.369  31.856  32.319  1.00  0.00     0.198 A 
ATOM     77  C   UNL A   1      37.966  29.547  32.809  1.00  0.00     0.198 A 
ATOM     78  F   UNL A   1      39.750  28.015  32.904  1.00  0.00    -0.203 F 
ATOM     79  F   UNL A   1      37.909  33.084  32.039  1.00  0.00    -0.200 F 
ATOM     80  C   UNL A   1      37.483  30.828  32.574  1.00  0.00     0.200 A 
ATOM     81  F   UNL A   1      37.105  28.537  33.002  1.00  0.00    -0.200 F 
ATOM     82  F   UNL A   1      36.167  31.066  32.534  1.00  0.00    -0.200 F 
ENDBRANCH  48  72
BRANCH  60  83
ATOM     83  C   UNL A   1      45.140  25.012  32.756  1.00  0.00     0.064 A 
ATOM     84  C   UNL A   1      46.445  25.252  33.213  1.00  0.00     0.173 A 
ATOM     85  C   UNL A   1      44.510  23.854  33.269  1.00  0.00     0.173 A 
ATOM     86  F   UNL A   1      47.088  26.393  32.931  1.00  0.00    -0.203 F 
ATOM     87  C   UNL A   1      47.113  24.344  34.031  1.00  0.00     0.198 A 
ATOM     88  C   UNL A   1      45.150  22.997  34.156  1.00  0.00     0.198 A 
ATOM     89  F   UNL A   1      43.245  23.538  32.956  1.00  0.00    -0.203 F 
ATOM     90  F   UNL A   1      48.386  24.580  34.374  1.00  0.00    -0.200 F 
ATOM     91  C   UNL A   1      46.463  23.225  34.512  1.00  0.00     0.200 A 
ATOM     92  F   UNL A   1      44.479  21.962  34.679  1.00  0.00    -0.200 F 
ATOM     93  F   UNL A   1      47.094  22.379  35.335  1.00  0.00    -0.200 F 
ENDBRANCH  60  83
ENDBRANCH  34  35
ENDBRANCH  27  29
ENDBRANCH  26  27
ENDBRANCH  25  26
ENDBRANCH   1  25
TORSDOF 14
ENDMDL
