MODEL 1
REMARK VINA RESULT:     -12.2      0.000      0.000
REMARK SMILES Cc1nccnc1N1CCC2(CCC(=O)N([C@@H](C)C(=O)OCCOC(=O)c3ccc(-c4c5nc(c(-c6c(F)c(F)c(F)c(F)c6F)c6ccc([nH]6)c(-c6c(F)c(F)c(F)c(F)c6F)c6nc(c(-c7c(F)c(F)c(F)c(F)c7F)c7ccc4[nH]7)C=C6)C=C5)cc3)C2)CC1
REMARK SMILES IDX 22 1 21 2 19 3 20 4 17 5 18 6 16 7 8 8 9 9 92 10 10 11 91 12
REMARK SMILES IDX 11 13 12 14 90 15 13 16 14 17 15 18 7 19 1 20 2 21 3 22 4 23
REMARK SMILES IDX 6 24 5 25 23 26 24 27 25 28 26 29 27 30 28 31 89 32 29 33
REMARK SMILES IDX 88 34 30 35 31 36 32 37 82 38 33 39 87 40 81 41 83 42 34 43
REMARK SMILES IDX 86 44 80 45 79 46 35 48 67 49 47 50 66 51 48 52 51 53 65 54
REMARK SMILES IDX 84 55 49 56 50 57 64 59 85 60 52 61 36 62 37 63 45 64 38 65
REMARK SMILES IDX 39 66 43 67 46 68 40 69 41 70 44 71 42 72 68 73 69 74 77 75
REMARK SMILES IDX 70 76 71 77 75 78 78 79 72 80 73 81 76 82 74 83 53 84 54 85
REMARK SMILES IDX 62 86 55 87 56 88 60 89 63 90 57 91 58 92 61 93 59 94
REMARK H PARENT 83 47 51 58
REMARK Flexibility Score: inf
ROOT
ATOM      1  C   UNL A   1      31.305  29.581  24.693  1.00  0.00     0.274 C 
ENDROOT
BRANCH   1   2
ATOM      2  O   UNL A   1      30.974  28.181  24.816  1.00  0.00    -0.461 OA
BRANCH   2   3
ATOM      3  C   UNL A   1      31.847  27.280  24.298  1.00  0.00     0.328 C 
ATOM      4  O   UNL A   1      32.158  27.232  23.108  1.00  0.00    -0.250 OA
BRANCH   3   5
ATOM      5  C   UNL A   1      32.485  26.335  25.346  1.00  0.00     0.192 C 
ATOM      6  C   UNL A   1      33.580  27.069  26.121  1.00  0.00     0.044 C 
BRANCH   5   7
ATOM      7  N   UNL A   1      32.878  24.969  24.923  1.00  0.00    -0.329 N 
ATOM      8  N   UNL A   1      37.291  22.105  25.253  1.00  0.00    -0.355 N 
ATOM      9  C   UNL A   1      36.123  21.857  26.083  1.00  0.00     0.119 C 
ATOM     10  C   UNL A   1      37.008  22.130  23.826  1.00  0.00     0.119 C 
ATOM     11  C   UNL A   1      35.179  23.035  25.884  1.00  0.00     0.030 C 
ATOM     12  C   UNL A   1      36.092  23.329  23.543  1.00  0.00     0.030 C 
ATOM     13  C   UNL A   1      34.804  23.370  24.422  1.00  0.00    -0.008 C 
ATOM     14  C   UNL A   1      33.731  22.420  23.865  1.00  0.00     0.019 C 
ATOM     15  C   UNL A   1      34.215  24.800  24.353  1.00  0.00     0.127 C 
ATOM     16  C   UNL A   1      32.385  22.575  24.563  1.00  0.00     0.101 C 
ATOM     17  C   UNL A   1      31.905  24.000  24.771  1.00  0.00     0.223 C 
ATOM     18  O   UNL A   1      30.704  24.233  24.907  1.00  0.00    -0.275 OA
BRANCH   8  19
ATOM     19  C   UNL A   1      38.520  21.703  25.744  1.00  0.00     0.150 A 
ATOM     20  C   UNL A   1      38.993  23.965  26.828  1.00  0.00     0.071 C 
ATOM     21  C   UNL A   1      39.361  22.548  26.504  1.00  0.00     0.080 A 
ATOM     22  N   UNL A   1      40.536  22.120  27.061  1.00  0.00    -0.256 NA
ATOM     23  C   UNL A   1      40.846  20.827  26.851  1.00  0.00     0.131 A 
ATOM     24  N   UNL A   1      38.866  20.402  25.575  1.00  0.00    -0.236 NA
ATOM     25  C   UNL A   1      40.027  19.987  26.128  1.00  0.00     0.133 A 
ENDBRANCH   8  19
ENDBRANCH   5   7
ENDBRANCH   3   5
ENDBRANCH   2   3
ENDBRANCH   1   2
BRANCH   1  26
ATOM     26  C   UNL A   1      31.776  30.158  26.038  1.00  0.00     0.275 C 
BRANCH  26  27
ATOM     27  O   UNL A   1      33.196  30.442  26.052  1.00  0.00    -0.458 OA
BRANCH  27  28
ATOM     28  C   UNL A   1      33.532  31.343  26.996  1.00  0.00     0.338 C 
ATOM     29  O   UNL A   1      32.833  32.257  27.387  1.00  0.00    -0.246 OA
BRANCH  28  30
ATOM     30  C   UNL A   1      34.822  31.103  27.643  1.00  0.00     0.060 A 
ATOM     31  C   UNL A   1      35.072  29.803  28.091  1.00  0.00     0.016 A 
ATOM     32  C   UNL A   1      35.659  32.157  28.004  1.00  0.00     0.016 A 
ATOM     33  C   UNL A   1      36.165  29.547  28.907  1.00  0.00     0.010 A 
ATOM     34  C   UNL A   1      36.780  31.892  28.799  1.00  0.00     0.010 A 
ATOM     35  C   UNL A   1      37.039  30.588  29.253  1.00  0.00    -0.014 A 
BRANCH  35  36
ATOM     36  C   UNL A   1      38.271  30.262  30.005  1.00  0.00     0.031 A 
ATOM     37  C   UNL A   1      39.371  29.447  29.395  1.00  0.00     0.074 A 
ATOM     38  C   UNL A   1      38.390  30.748  31.255  1.00  0.00     0.049 A 
ATOM     39  N   UNL A   1      40.502  29.066  29.932  1.00  0.00    -0.248 NA
ATOM     40  C   UNL A   1      39.182  29.004  28.006  1.00  0.00     0.031 C 
ATOM     41  C   UNL A   1      37.383  31.566  31.934  1.00  0.00     0.029 A 
ATOM     42  N   UNL A   1      39.400  30.630  32.173  1.00  0.00    -0.354 N 
ATOM     43  C   UNL A   1      41.157  28.329  28.956  1.00  0.00     0.074 A 
ATOM     44  C   UNL A   1      40.292  28.307  27.794  1.00  0.00     0.031 C 
ATOM     45  C   UNL A   1      37.829  31.885  33.157  1.00  0.00     0.029 A 
ATOM     46  C   UNL A   1      39.127  31.253  33.365  1.00  0.00     0.049 A 
ATOM     47  H   UNL A   1      40.239  30.147  31.996  1.00  0.00     0.167 HD
ATOM     48  C   UNL A   1      42.368  27.729  29.032  1.00  0.00     0.037 A 
ATOM     49  C   UNL A   1      39.830  31.288  34.511  1.00  0.00     0.037 A 
ATOM     50  C   UNL A   1      43.223  27.759  30.193  1.00  0.00     0.049 A 
ATOM     51  C   UNL A   1      41.151  30.579  34.575  1.00  0.00     0.074 A 
ATOM     52  C   UNL A   1      44.481  27.206  30.355  1.00  0.00     0.029 A 
ATOM     53  N   UNL A   1      42.902  28.375  31.395  1.00  0.00    -0.354 N 
ATOM     54  N   UNL A   1      41.770  29.904  33.638  1.00  0.00    -0.248 NA
ATOM     55  C   UNL A   1      41.868  30.633  35.855  1.00  0.00     0.031 C 
ATOM     56  C   UNL A   1      44.905  27.451  31.666  1.00  0.00     0.029 A 
ATOM     57  C   UNL A   1      43.926  28.190  32.311  1.00  0.00     0.049 A 
ATOM     58  H   UNL A   1      42.069  28.869  31.572  1.00  0.00     0.167 HD
ATOM     59  C   UNL A   1      42.949  29.453  34.211  1.00  0.00     0.074 A 
ATOM     60  C   UNL A   1      42.972  29.955  35.570  1.00  0.00     0.031 C 
ATOM     61  C   UNL A   1      43.923  28.687  33.663  1.00  0.00     0.037 A 
BRANCH  48  62
ATOM     62  C   UNL A   1      42.843  26.962  27.836  1.00  0.00     0.064 A 
ATOM     63  C   UNL A   1      43.551  27.584  26.799  1.00  0.00     0.173 A 
ATOM     64  C   UNL A   1      42.654  25.574  27.765  1.00  0.00     0.173 A 
ATOM     65  F   UNL A   1      43.755  28.910  26.821  1.00  0.00    -0.203 F 
ATOM     66  C   UNL A   1      44.051  26.844  25.730  1.00  0.00     0.198 A 
ATOM     67  C   UNL A   1      43.168  24.835  26.703  1.00  0.00     0.198 A 
ATOM     68  F   UNL A   1      41.989  24.931  28.737  1.00  0.00    -0.203 F 
ATOM     69  F   UNL A   1      44.720  27.459  24.745  1.00  0.00    -0.200 F 
ATOM     70  C   UNL A   1      43.865  25.470  25.686  1.00  0.00     0.200 A 
ATOM     71  F   UNL A   1      42.998  23.505  26.669  1.00  0.00    -0.200 F 
ATOM     72  F   UNL A   1      44.363  24.756  24.667  1.00  0.00    -0.200 F 
ENDBRANCH  48  62
BRANCH  49  73
ATOM     73  C   UNL A   1      39.275  31.993  35.692  1.00  0.00     0.064 A 
ATOM     74  C   UNL A   1      38.407  31.346  36.581  1.00  0.00     0.173 A 
ATOM     75  C   UNL A   1      39.618  33.326  35.963  1.00  0.00     0.173 A 
ATOM     76  F   UNL A   1      38.036  30.078  36.350  1.00  0.00    -0.203 F 
ATOM     77  C   UNL A   1      37.893  32.011  37.692  1.00  0.00     0.198 A 
ATOM     78  C   UNL A   1      39.125  33.981  37.089  1.00  0.00     0.198 A 
ATOM     79  F   UNL A   1      40.449  33.987  35.143  1.00  0.00    -0.203 F 
ATOM     80  F   UNL A   1      37.035  31.383  38.508  1.00  0.00    -0.200 F 
ATOM     81  C   UNL A   1      38.257  33.324  37.949  1.00  0.00     0.200 A 
ATOM     82  F   UNL A   1      39.491  35.245  37.340  1.00  0.00    -0.200 F 
ATOM     83  F   UNL A   1      37.768  33.960  39.021  1.00  0.00    -0.200 F 
ENDBRANCH  49  73
BRANCH  61  84
ATOM     84  C   UNL A   1      45.089  28.352  34.542  1.00  0.00     0.064 A 
ATOM     85  C   UNL A   1      45.095  27.192  35.329  1.00  0.00     0.173 A 
ATOM     86  C   UNL A   1      46.210  29.192  34.592  1.00  0.00     0.173 A 
ATOM     87  F   UNL A   1      44.036  26.369  35.329  1.00  0.00    -0.203 F 
ATOM     88  C   UNL A   1      46.175  26.897  36.156  1.00  0.00     0.198 A 
ATOM     89  C   UNL A   1      47.298  28.881  35.403  1.00  0.00     0.198 A 
ATOM     90  F   UNL A   1      46.249  30.312  33.856  1.00  0.00    -0.203 F 
ATOM     91  F   UNL A   1      46.141  25.808  36.936  1.00  0.00    -0.200 F 
ATOM     92  C   UNL A   1      47.277  27.740  36.189  1.00  0.00     0.200 A 
ATOM     93  F   UNL A   1      48.364  29.693  35.431  1.00  0.00    -0.200 F 
ATOM     94  F   UNL A   1      48.315  27.455  36.988  1.00  0.00    -0.200 F 
ENDBRANCH  61  84
ENDBRANCH  35  36
ENDBRANCH  28  30
ENDBRANCH  27  28
ENDBRANCH  26  27
ENDBRANCH   1  26
TORSDOF 13
ENDMDL
MODEL 2
REMARK VINA RESULT:     -12.2      4.203      9.998
REMARK SMILES Cc1nccnc1N1CCC2(CCC(=O)N([C@@H](C)C(=O)OCCOC(=O)c3ccc(-c4c5nc(c(-c6c(F)c(F)c(F)c(F)c6F)c6ccc([nH]6)c(-c6c(F)c(F)c(F)c(F)c6F)c6nc(c(-c7c(F)c(F)c(F)c(F)c7F)c7ccc4[nH]7)C=C6)C=C5)cc3)C2)CC1
REMARK SMILES IDX 22 1 21 2 19 3 20 4 17 5 18 6 16 7 8 8 9 9 92 10 10 11 91 12
REMARK SMILES IDX 11 13 12 14 90 15 13 16 14 17 15 18 7 19 1 20 2 21 3 22 4 23
REMARK SMILES IDX 6 24 5 25 23 26 24 27 25 28 26 29 27 30 28 31 89 32 29 33
REMARK SMILES IDX 88 34 30 35 31 36 32 37 82 38 33 39 87 40 81 41 83 42 34 43
REMARK SMILES IDX 86 44 80 45 79 46 35 48 67 49 47 50 66 51 48 52 51 53 65 54
REMARK SMILES IDX 84 55 49 56 50 57 64 59 85 60 52 61 36 62 37 63 45 64 38 65
REMARK SMILES IDX 39 66 43 67 46 68 40 69 41 70 44 71 42 72 68 73 69 74 77 75
REMARK SMILES IDX 70 76 71 77 75 78 78 79 72 80 73 81 76 82 74 83 53 84 54 85
REMARK SMILES IDX 62 86 55 87 56 88 60 89 63 90 57 91 58 92 61 93 59 94
REMARK H PARENT 83 47 51 58
REMARK Flexibility Score: inf
ROOT
ATOM      1  C   UNL A   1      35.144  20.247  25.028  1.00  0.00     0.274 C 
ENDROOT
BRANCH   1   2
ATOM      2  O   UNL A   1      34.048  21.019  24.493  1.00  0.00    -0.461 OA
BRANCH   2   3
ATOM      3  C   UNL A   1      32.848  20.930  25.123  1.00  0.00     0.328 C 
ATOM      4  O   UNL A   1      32.176  19.901  25.179  1.00  0.00    -0.250 OA
BRANCH   3   5
ATOM      5  C   UNL A   1      32.406  22.233  25.837  1.00  0.00     0.192 C 
ATOM      6  C   UNL A   1      30.894  22.221  26.066  1.00  0.00     0.044 C 
BRANCH   5   7
ATOM      7  N   UNL A   1      32.915  23.529  25.326  1.00  0.00    -0.329 N 
ATOM      8  N   UNL A   1      30.733  27.695  22.945  1.00  0.00    -0.355 N 
ATOM      9  C   UNL A   1      31.160  27.712  24.336  1.00  0.00     0.119 C 
ATOM     10  C   UNL A   1      31.768  27.275  22.013  1.00  0.00     0.119 C 
ATOM     11  C   UNL A   1      31.482  26.274  24.718  1.00  0.00     0.030 C 
ATOM     12  C   UNL A   1      32.112  25.809  22.313  1.00  0.00     0.030 C 
ATOM     13  C   UNL A   1      32.482  25.531  23.802  1.00  0.00    -0.008 C 
ATOM     14  C   UNL A   1      33.938  25.929  24.089  1.00  0.00     0.019 C 
ATOM     15  C   UNL A   1      32.378  24.006  24.051  1.00  0.00     0.127 C 
ATOM     16  C   UNL A   1      34.411  25.489  25.469  1.00  0.00     0.101 C 
ATOM     17  C   UNL A   1      34.069  24.064  25.865  1.00  0.00     0.223 C 
ATOM     18  O   UNL A   1      34.742  23.481  26.713  1.00  0.00    -0.275 OA
BRANCH   8  19
ATOM     19  C   UNL A   1      29.734  28.576  22.574  1.00  0.00     0.150 A 
ATOM     20  C   UNL A   1      27.899  27.201  23.695  1.00  0.00     0.071 C 
ATOM     21  C   UNL A   1      28.374  28.389  22.913  1.00  0.00     0.080 A 
ATOM     22  N   UNL A   1      27.402  29.306  22.618  1.00  0.00    -0.256 NA
ATOM     23  C   UNL A   1      27.821  30.420  21.987  1.00  0.00     0.131 A 
ATOM     24  N   UNL A   1      30.110  29.724  21.954  1.00  0.00    -0.236 NA
ATOM     25  C   UNL A   1      29.145  30.625  21.667  1.00  0.00     0.133 A 
ENDBRANCH   8  19
ENDBRANCH   5   7
ENDBRANCH   3   5
ENDBRANCH   2   3
ENDBRANCH   1   2
BRANCH   1  26
ATOM     26  C   UNL A   1      36.495  20.890  24.678  1.00  0.00     0.275 C 
BRANCH  26  27
ATOM     27  O   UNL A   1      37.014  21.712  25.751  1.00  0.00    -0.458 OA
BRANCH  27  28
ATOM     28  C   UNL A   1      38.332  21.522  25.956  1.00  0.00     0.338 C 
ATOM     29  O   UNL A   1      38.956  20.517  25.678  1.00  0.00    -0.246 OA
BRANCH  28  30
ATOM     30  C   UNL A   1      39.046  22.687  26.476  1.00  0.00     0.060 A 
ATOM     31  C   UNL A   1      38.632  23.940  26.015  1.00  0.00     0.016 A 
ATOM     32  C   UNL A   1      40.226  22.549  27.205  1.00  0.00     0.016 A 
ATOM     33  C   UNL A   1      39.396  25.067  26.283  1.00  0.00     0.010 A 
ATOM     34  C   UNL A   1      40.978  23.690  27.503  1.00  0.00     0.010 A 
ATOM     35  C   UNL A   1      40.567  24.953  27.045  1.00  0.00    -0.014 A 
BRANCH  35  36
ATOM     36  C   UNL A   1      41.286  26.187  27.434  1.00  0.00     0.031 A 
ATOM     37  C   UNL A   1      40.619  27.265  28.234  1.00  0.00     0.074 A 
ATOM     38  C   UNL A   1      42.577  26.302  27.070  1.00  0.00     0.049 A 
ATOM     39  N   UNL A   1      41.112  28.409  28.637  1.00  0.00    -0.248 NA
ATOM     40  C   UNL A   1      39.225  27.032  28.636  1.00  0.00     0.031 C 
ATOM     41  C   UNL A   1      43.323  25.302  26.304  1.00  0.00     0.029 A 
ATOM     42  N   UNL A   1      43.488  27.300  27.292  1.00  0.00    -0.354 N 
ATOM     43  C   UNL A   1      40.089  29.039  29.330  1.00  0.00     0.074 A 
ATOM     44  C   UNL A   1      38.942  28.156  29.285  1.00  0.00     0.031 C 
ATOM     45  C   UNL A   1      44.581  25.731  26.128  1.00  0.00     0.029 A 
ATOM     46  C   UNL A   1      44.714  27.056  26.724  1.00  0.00     0.049 A 
ATOM     47  H   UNL A   1      43.286  28.113  27.809  1.00  0.00     0.167 HD
ATOM     48  C   UNL A   1      40.114  30.247  29.942  1.00  0.00     0.037 A 
ATOM     49  C   UNL A   1      45.815  27.826  26.662  1.00  0.00     0.037 A 
ATOM     50  C   UNL A   1      41.262  31.118  29.985  1.00  0.00     0.049 A 
ATOM     51  C   UNL A   1      45.796  29.175  27.317  1.00  0.00     0.074 A 
ATOM     52  C   UNL A   1      41.392  32.347  30.607  1.00  0.00     0.029 A 
ATOM     53  N   UNL A   1      42.478  30.852  29.372  1.00  0.00    -0.354 N 
ATOM     54  N   UNL A   1      44.830  29.751  27.989  1.00  0.00    -0.248 NA
ATOM     55  C   UNL A   1      47.017  29.982  27.204  1.00  0.00     0.031 C 
ATOM     56  C   UNL A   1      42.673  32.844  30.338  1.00  0.00     0.029 A 
ATOM     57  C   UNL A   1      43.354  31.906  29.578  1.00  0.00     0.049 A 
ATOM     58  H   UNL A   1      42.689  30.035  28.864  1.00  0.00     0.167 HD
ATOM     59  C   UNL A   1      45.324  30.986  28.380  1.00  0.00     0.074 A 
ATOM     60  C   UNL A   1      46.686  31.064  27.894  1.00  0.00     0.031 C 
ATOM     61  C   UNL A   1      44.702  31.970  29.075  1.00  0.00     0.037 A 
BRANCH  48  62
ATOM     62  C   UNL A   1      38.855  30.719  30.605  1.00  0.00     0.064 A 
ATOM     63  C   UNL A   1      37.815  31.307  29.870  1.00  0.00     0.173 A 
ATOM     64  C   UNL A   1      38.657  30.511  31.978  1.00  0.00     0.173 A 
ATOM     65  F   UNL A   1      37.959  31.529  28.555  1.00  0.00    -0.203 F 
ATOM     66  C   UNL A   1      36.622  31.672  30.489  1.00  0.00     0.198 A 
ATOM     67  C   UNL A   1      37.458  30.865  32.590  1.00  0.00     0.198 A 
ATOM     68  F   UNL A   1      39.621  29.946  32.721  1.00  0.00    -0.203 F 
ATOM     69  F   UNL A   1      35.642  32.239  29.771  1.00  0.00    -0.200 F 
ATOM     70  C   UNL A   1      36.442  31.445  31.846  1.00  0.00     0.200 A 
ATOM     71  F   UNL A   1      37.281  30.632  33.899  1.00  0.00    -0.200 F 
ATOM     72  F   UNL A   1      35.287  31.780  32.436  1.00  0.00    -0.200 F 
ENDBRANCH  48  62
BRANCH  49  73
ATOM     73  C   UNL A   1      47.007  27.343  25.922  1.00  0.00     0.064 A 
ATOM     74  C   UNL A   1      47.160  27.591  24.552  1.00  0.00     0.173 A 
ATOM     75  C   UNL A   1      48.027  26.639  26.580  1.00  0.00     0.173 A 
ATOM     76  F   UNL A   1      46.201  28.243  23.880  1.00  0.00    -0.203 F 
ATOM     77  C   UNL A   1      48.284  27.141  23.865  1.00  0.00     0.198 A 
ATOM     78  C   UNL A   1      49.162  26.213  25.897  1.00  0.00     0.198 A 
ATOM     79  F   UNL A   1      47.927  26.381  27.892  1.00  0.00    -0.203 F 
ATOM     80  F   UNL A   1      48.390  27.358  22.546  1.00  0.00    -0.200 F 
ATOM     81  C   UNL A   1      49.287  26.459  24.537  1.00  0.00     0.200 A 
ATOM     82  F   UNL A   1      50.135  25.568  26.554  1.00  0.00    -0.200 F 
ATOM     83  F   UNL A   1      50.371  26.034  23.876  1.00  0.00    -0.200 F 
ENDBRANCH  49  73
BRANCH  61  84
ATOM     84  C   UNL A   1      45.500  33.210  29.343  1.00  0.00     0.064 A 
ATOM     85  C   UNL A   1      45.530  34.268  28.424  1.00  0.00     0.173 A 
ATOM     86  C   UNL A   1      46.233  33.343  30.531  1.00  0.00     0.173 A 
ATOM     87  F   UNL A   1      44.860  34.176  27.266  1.00  0.00    -0.203 F 
ATOM     88  C   UNL A   1      46.287  35.409  28.674  1.00  0.00     0.198 A 
ATOM     89  C   UNL A   1      46.971  34.495  30.787  1.00  0.00     0.198 A 
ATOM     90  F   UNL A   1      46.234  32.357  31.439  1.00  0.00    -0.203 F 
ATOM     91  F   UNL A   1      46.340  36.389  27.762  1.00  0.00    -0.200 F 
ATOM     92  C   UNL A   1      47.004  35.522  29.857  1.00  0.00     0.200 A 
ATOM     93  F   UNL A   1      47.659  34.606  31.932  1.00  0.00    -0.200 F 
ATOM     94  F   UNL A   1      47.734  36.620  30.095  1.00  0.00    -0.200 F 
ENDBRANCH  61  84
ENDBRANCH  35  36
ENDBRANCH  28  30
ENDBRANCH  27  28
ENDBRANCH  26  27
ENDBRANCH   1  26
TORSDOF 13
ENDMDL
MODEL 3
REMARK VINA RESULT:     -12.2      2.106      3.418
REMARK SMILES Cc1nccnc1N1CCC2(CCC(=O)N([C@@H](C)C(=O)OCCOC(=O)c3ccc(-c4c5nc(c(-c6c(F)c(F)c(F)c(F)c6F)c6ccc([nH]6)c(-c6c(F)c(F)c(F)c(F)c6F)c6nc(c(-c7c(F)c(F)c(F)c(F)c7F)c7ccc4[nH]7)C=C6)C=C5)cc3)C2)CC1
REMARK SMILES IDX 22 1 21 2 19 3 20 4 17 5 18 6 16 7 8 8 9 9 92 10 10 11 91 12
REMARK SMILES IDX 11 13 12 14 90 15 13 16 14 17 15 18 7 19 1 20 2 21 3 22 4 23
REMARK SMILES IDX 6 24 5 25 23 26 24 27 25 28 26 29 27 30 28 31 89 32 29 33
REMARK SMILES IDX 88 34 30 35 31 36 32 37 82 38 33 39 87 40 81 41 83 42 34 43
REMARK SMILES IDX 86 44 80 45 79 46 35 48 67 49 47 50 66 51 48 52 51 53 65 54
REMARK SMILES IDX 84 55 49 56 50 57 64 59 85 60 52 61 36 62 37 63 45 64 38 65
REMARK SMILES IDX 39 66 43 67 46 68 40 69 41 70 44 71 42 72 68 73 69 74 77 75
REMARK SMILES IDX 70 76 71 77 75 78 78 79 72 80 73 81 76 82 74 83 53 84 54 85
REMARK SMILES IDX 62 86 55 87 56 88 60 89 63 90 57 91 58 92 61 93 59 94
REMARK H PARENT 83 47 51 58
REMARK Flexibility Score: inf
ROOT
ATOM      1  C   UNL A   1      31.640  31.439  26.597  1.00  0.00     0.274 C 
ENDROOT
BRANCH   1   2
ATOM      2  O   UNL A   1      32.931  30.831  26.376  1.00  0.00    -0.461 OA
BRANCH   2   3
ATOM      3  C   UNL A   1      33.064  29.512  26.672  1.00  0.00     0.328 C 
ATOM      4  O   UNL A   1      34.056  29.028  27.214  1.00  0.00    -0.250 OA
BRANCH   3   5
ATOM      5  C   UNL A   1      31.823  28.653  26.324  1.00  0.00     0.192 C 
ATOM      6  C   UNL A   1      31.403  27.819  27.535  1.00  0.00     0.044 C 
BRANCH   5   7
ATOM      7  N   UNL A   1      31.824  27.887  25.054  1.00  0.00    -0.329 N 
ATOM      8  N   UNL A   1      32.584  22.832  23.766  1.00  0.00    -0.355 N 
ATOM      9  C   UNL A   1      31.273  23.463  23.756  1.00  0.00     0.119 C 
ATOM     10  C   UNL A   1      33.586  23.537  22.982  1.00  0.00     0.119 C 
ATOM     11  C   UNL A   1      31.428  24.819  24.431  1.00  0.00     0.030 C 
ATOM     12  C   UNL A   1      33.828  24.904  23.637  1.00  0.00     0.030 C 
ATOM     13  C   UNL A   1      32.532  25.741  23.865  1.00  0.00    -0.008 C 
ATOM     14  C   UNL A   1      32.096  26.441  22.569  1.00  0.00     0.019 C 
ATOM     15  C   UNL A   1      32.851  26.857  24.891  1.00  0.00     0.127 C 
ATOM     16  C   UNL A   1      30.959  27.433  22.785  1.00  0.00     0.101 C 
ATOM     17  C   UNL A   1      31.109  28.365  23.973  1.00  0.00     0.223 C 
ATOM     18  O   UNL A   1      30.516  29.443  23.990  1.00  0.00    -0.275 OA
BRANCH   8  19
ATOM     19  C   UNL A   1      32.630  21.462  23.944  1.00  0.00     0.150 A 
ATOM     20  C   UNL A   1      33.390  21.653  26.374  1.00  0.00     0.071 C 
ATOM     21  C   UNL A   1      32.999  20.853  25.166  1.00  0.00     0.080 A 
ATOM     22  N   UNL A   1      32.961  19.500  25.363  1.00  0.00    -0.256 NA
ATOM     23  C   UNL A   1      32.535  18.768  24.317  1.00  0.00     0.131 A 
ATOM     24  N   UNL A   1      32.189  20.683  22.923  1.00  0.00    -0.236 NA
ATOM     25  C   UNL A   1      32.153  19.347  23.126  1.00  0.00     0.133 A 
ENDBRANCH   8  19
ENDBRANCH   5   7
ENDBRANCH   3   5
ENDBRANCH   2   3
ENDBRANCH   1   2
BRANCH   1  26
ATOM     26  C   UNL A   1      31.777  32.948  26.856  1.00  0.00     0.275 C 
BRANCH  26  27
ATOM     27  O   UNL A   1      33.158  33.386  26.865  1.00  0.00    -0.458 OA
BRANCH  27  28
ATOM     28  C   UNL A   1      33.492  34.012  28.010  1.00  0.00     0.338 C 
ATOM     29  O   UNL A   1      32.955  35.004  28.460  1.00  0.00    -0.246 OA
BRANCH  28  30
ATOM     30  C   UNL A   1      34.538  33.350  28.789  1.00  0.00     0.060 A 
ATOM     31  C   UNL A   1      35.798  33.956  28.798  1.00  0.00     0.016 A 
ATOM     32  C   UNL A   1      34.360  32.066  29.301  1.00  0.00     0.016 A 
ATOM     33  C   UNL A   1      36.891  33.280  29.322  1.00  0.00     0.010 A 
ATOM     34  C   UNL A   1      35.456  31.398  29.858  1.00  0.00     0.010 A 
ATOM     35  C   UNL A   1      36.724  32.002  29.872  1.00  0.00    -0.014 A 
BRANCH  35  36
ATOM     36  C   UNL A   1      37.875  31.363  30.549  1.00  0.00     0.031 A 
ATOM     37  C   UNL A   1      38.750  30.371  29.843  1.00  0.00     0.074 A 
ATOM     38  C   UNL A   1      38.134  31.722  31.821  1.00  0.00     0.049 A 
ATOM     39  N   UNL A   1      39.783  29.715  30.308  1.00  0.00    -0.248 NA
ATOM     40  C   UNL A   1      38.428  30.078  28.440  1.00  0.00     0.031 C 
ATOM     41  C   UNL A   1      37.352  32.691  32.592  1.00  0.00     0.029 A 
ATOM     42  N   UNL A   1      39.118  31.322  32.686  1.00  0.00    -0.354 N 
ATOM     43  C   UNL A   1      40.230  28.923  29.260  1.00  0.00     0.074 A 
ATOM     44  C   UNL A   1      39.350  29.171  28.137  1.00  0.00     0.031 C 
ATOM     45  C   UNL A   1      37.892  32.819  33.812  1.00  0.00     0.029 A 
ATOM     46  C   UNL A   1      39.024  31.905  33.925  1.00  0.00     0.049 A 
ATOM     47  H   UNL A   1      39.824  30.681  32.444  1.00  0.00     0.167 HD
ATOM     48  C   UNL A   1      41.280  28.068  29.247  1.00  0.00     0.037 A 
ATOM     49  C   UNL A   1      39.749  31.705  35.040  1.00  0.00     0.037 A 
ATOM     50  C   UNL A   1      42.154  27.829  30.370  1.00  0.00     0.049 A 
ATOM     51  C   UNL A   1      40.881  30.722  35.003  1.00  0.00     0.074 A 
ATOM     52  C   UNL A   1      43.262  27.004  30.443  1.00  0.00     0.029 A 
ATOM     53  N   UNL A   1      42.011  28.415  31.620  1.00  0.00    -0.354 N 
ATOM     54  N   UNL A   1      41.309  29.994  34.000  1.00  0.00    -0.248 NA
ATOM     55  C   UNL A   1      41.628  30.527  36.252  1.00  0.00     0.031 C 
ATOM     56  C   UNL A   1      43.766  27.059  31.748  1.00  0.00     0.029 A 
ATOM     57  C   UNL A   1      42.994  27.947  32.478  1.00  0.00     0.049 A 
ATOM     58  H   UNL A   1      41.313  29.066  31.863  1.00  0.00     0.167 HD
ATOM     59  C   UNL A   1      42.375  29.258  34.493  1.00  0.00     0.074 A 
ATOM     60  C   UNL A   1      42.546  29.646  35.879  1.00  0.00     0.031 C 
ATOM     61  C   UNL A   1      43.139  28.337  33.857  1.00  0.00     0.037 A 
BRANCH  48  62
ATOM     62  C   UNL A   1      41.541  27.301  27.987  1.00  0.00     0.064 A 
ATOM     63  C   UNL A   1      42.340  27.824  26.961  1.00  0.00     0.173 A 
ATOM     64  C   UNL A   1      41.047  25.996  27.838  1.00  0.00     0.173 A 
ATOM     65  F   UNL A   1      42.832  29.068  27.056  1.00  0.00    -0.203 F 
ATOM     66  C   UNL A   1      42.633  27.068  25.828  1.00  0.00     0.198 A 
ATOM     67  C   UNL A   1      41.354  25.239  26.711  1.00  0.00     0.198 A 
ATOM     68  F   UNL A   1      40.283  25.449  28.796  1.00  0.00    -0.203 F 
ATOM     69  F   UNL A   1      43.393  27.589  24.855  1.00  0.00    -0.200 F 
ATOM     70  C   UNL A   1      42.146  25.775  25.707  1.00  0.00     0.200 A 
ATOM     71  F   UNL A   1      40.893  23.984  26.602  1.00  0.00    -0.200 F 
ATOM     72  F   UNL A   1      42.444  25.042  24.626  1.00  0.00    -0.200 F 
ENDBRANCH  48  62
BRANCH  49  73
ATOM     73  C   UNL A   1      39.397  32.430  36.285  1.00  0.00     0.064 A 
ATOM     74  C   UNL A   1      40.024  33.636  36.625  1.00  0.00     0.173 A 
ATOM     75  C   UNL A   1      38.410  31.936  37.151  1.00  0.00     0.173 A 
ATOM     76  F   UNL A   1      40.986  34.134  35.837  1.00  0.00    -0.203 F 
ATOM     77  C   UNL A   1      39.684  34.315  37.793  1.00  0.00     0.198 A 
ATOM     78  C   UNL A   1      38.053  32.630  38.304  1.00  0.00     0.198 A 
ATOM     79  F   UNL A   1      37.778  30.788  36.867  1.00  0.00    -0.203 F 
ATOM     80  F   UNL A   1      40.324  35.447  38.116  1.00  0.00    -0.200 F 
ATOM     81  C   UNL A   1      38.695  33.816  38.627  1.00  0.00     0.200 A 
ATOM     82  F   UNL A   1      37.086  32.152  39.100  1.00  0.00    -0.200 F 
ATOM     83  F   UNL A   1      38.364  34.474  39.746  1.00  0.00    -0.200 F 
ENDBRANCH  49  73
BRANCH  61  84
ATOM     84  C   UNL A   1      44.226  27.694  34.664  1.00  0.00     0.064 A 
ATOM     85  C   UNL A   1      45.500  28.272  34.756  1.00  0.00     0.173 A 
ATOM     86  C   UNL A   1      43.990  26.498  35.355  1.00  0.00     0.173 A 
ATOM     87  F   UNL A   1      45.778  29.405  34.095  1.00  0.00    -0.203 F 
ATOM     88  C   UNL A   1      46.509  27.659  35.493  1.00  0.00     0.198 A 
ATOM     89  C   UNL A   1      44.995  25.900  36.110  1.00  0.00     0.198 A 
ATOM     90  F   UNL A   1      42.787  25.909  35.296  1.00  0.00    -0.203 F 
ATOM     91  F   UNL A   1      47.734  28.202  35.530  1.00  0.00    -0.200 F 
ATOM     92  C   UNL A   1      46.254  26.476  36.172  1.00  0.00     0.200 A 
ATOM     93  F   UNL A   1      44.747  24.760  36.769  1.00  0.00    -0.200 F 
ATOM     94  F   UNL A   1      47.228  25.886  36.880  1.00  0.00    -0.200 F 
ENDBRANCH  61  84
ENDBRANCH  35  36
ENDBRANCH  28  30
ENDBRANCH  27  28
ENDBRANCH  26  27
ENDBRANCH   1  26
TORSDOF 13
ENDMDL
