MODEL 1
REMARK VINA RESULT:     -11.5      0.000      0.000
REMARK SMILES C=Cc1cncc(-c2ccc([C@@H](C)C(=O)OCCOC(=O)c3ccc(-c4c5nc(c(-c6c(F)c(F)c(F)c(F)c6F)c6ccc([nH]6)c(-c6c(F)c(F)c(F)c(F)c6F)c6nc(c(-c7c(F)c(F)c(F)c(F)c7F)c7ccc4[nH]7)C=C6)C=C5)cc3)cc2)c1
REMARK SMILES IDX 17 1 16 2 14 3 15 4 12 5 13 6 11 7 8 8 9 9 86 10 10 11 85 12
REMARK SMILES IDX 7 13 3 14 4 15 87 16 5 17 6 18 2 19 1 20 18 21 19 22 20 23
REMARK SMILES IDX 21 24 22 25 23 26 84 27 24 28 83 29 25 30 26 31 27 32 77 33
REMARK SMILES IDX 28 34 82 35 76 36 78 37 29 38 81 39 75 40 74 41 30 43 62 44
REMARK SMILES IDX 42 45 61 46 43 47 46 48 60 49 79 50 44 51 45 52 59 54 80 55
REMARK SMILES IDX 47 56 31 57 32 58 40 59 33 60 34 61 38 62 41 63 35 64 36 65
REMARK SMILES IDX 39 66 37 67 63 68 64 69 72 70 65 71 66 72 70 73 73 74 67 75
REMARK SMILES IDX 68 76 71 77 69 78 48 79 49 80 57 81 50 82 51 83 55 84 58 85
REMARK SMILES IDX 52 86 53 87 56 88 54 89
REMARK H PARENT 78 42 46 53
REMARK Flexibility Score: inf
ROOT
ATOM      1  C   UNL A   1      42.647  18.406  26.500  1.00  0.00     0.274 C 
ENDROOT
BRANCH   1   2
ATOM      2  O   UNL A   1      42.034  19.675  26.204  1.00  0.00    -0.462 OA
BRANCH   2   3
ATOM      3  C   UNL A   1      41.329  20.263  27.205  1.00  0.00     0.313 C 
ATOM      4  O   UNL A   1      40.804  19.653  28.133  1.00  0.00    -0.252 OA
BRANCH   3   5
ATOM      5  C   UNL A   1      41.191  21.773  27.054  1.00  0.00     0.126 C 
ATOM      6  C   UNL A   1      41.630  22.464  28.343  1.00  0.00     0.025 C 
BRANCH   5   7
ATOM      7  C   UNL A   1      39.845  22.271  26.551  1.00  0.00    -0.034 A 
ATOM      8  C   UNL A   1      37.366  23.195  25.503  1.00  0.00    -0.017 A 
ATOM      9  C   UNL A   1      38.179  24.025  26.290  1.00  0.00     0.009 A 
ATOM     10  C   UNL A   1      37.800  21.882  25.276  1.00  0.00     0.009 A 
ATOM     11  C   UNL A   1      39.397  23.574  26.805  1.00  0.00     0.005 A 
ATOM     12  C   UNL A   1      39.021  21.428  25.789  1.00  0.00     0.005 A 
BRANCH   8  13
ATOM     13  C   UNL A   1      36.131  23.710  24.895  1.00  0.00     0.001 A 
ATOM     14  C   UNL A   1      34.047  24.966  24.979  1.00  0.00    -0.007 A 
ATOM     15  C   UNL A   1      33.837  24.586  23.655  1.00  0.00     0.119 A 
ATOM     16  C   UNL A   1      35.214  24.502  25.601  1.00  0.00     0.020 A 
ATOM     17  N   UNL A   1      34.687  23.824  22.933  1.00  0.00    -0.263 NA
ATOM     18  C   UNL A   1      35.807  23.409  23.571  1.00  0.00     0.119 A 
BRANCH  14  19
ATOM     19  C   UNL A   1      33.035  25.773  25.669  1.00  0.00     0.002 C 
ATOM     20  C   UNL A   1      32.030  26.405  25.053  1.00  0.00     0.009 C 
ENDBRANCH  14  19
ENDBRANCH   8  13
ENDBRANCH   5   7
ENDBRANCH   3   5
ENDBRANCH   2   3
ENDBRANCH   1   2
BRANCH   1  21
ATOM     21  C   UNL A   1      43.868  18.154  25.611  1.00  0.00     0.275 C 
BRANCH  21  22
ATOM     22  O   UNL A   1      43.851  19.004  24.450  1.00  0.00    -0.458 OA
BRANCH  22  23
ATOM     23  C   UNL A   1      45.003  19.669  24.209  1.00  0.00     0.338 C 
ATOM     24  O   UNL A   1      45.960  19.291  23.556  1.00  0.00    -0.246 OA
BRANCH  23  25
ATOM     25  C   UNL A   1      44.918  21.021  24.774  1.00  0.00     0.060 A 
ATOM     26  C   UNL A   1      44.637  22.079  23.907  1.00  0.00     0.016 A 
ATOM     27  C   UNL A   1      45.220  21.262  26.115  1.00  0.00     0.016 A 
ATOM     28  C   UNL A   1      44.679  23.392  24.368  1.00  0.00     0.010 A 
ATOM     29  C   UNL A   1      45.257  22.579  26.580  1.00  0.00     0.010 A 
ATOM     30  C   UNL A   1      45.009  23.650  25.703  1.00  0.00    -0.014 A 
BRANCH  30  31
ATOM     31  C   UNL A   1      45.178  25.051  26.154  1.00  0.00     0.031 A 
ATOM     32  C   UNL A   1      46.527  25.703  26.054  1.00  0.00     0.074 A 
ATOM     33  C   UNL A   1      44.122  25.744  26.617  1.00  0.00     0.049 A 
ATOM     34  N   UNL A   1      46.906  26.891  26.450  1.00  0.00    -0.248 NA
ATOM     35  C   UNL A   1      47.592  24.909  25.419  1.00  0.00     0.031 C 
ATOM     36  C   UNL A   1      42.756  25.233  26.714  1.00  0.00     0.029 A 
ATOM     37  N   UNL A   1      44.038  27.026  27.095  1.00  0.00    -0.354 N 
ATOM     38  C   UNL A   1      48.254  26.980  26.133  1.00  0.00     0.074 A 
ATOM     39  C   UNL A   1      48.633  25.724  25.523  1.00  0.00     0.031 C 
ATOM     40  C   UNL A   1      41.967  26.195  27.221  1.00  0.00     0.029 A 
ATOM     41  C   UNL A   1      42.780  27.371  27.519  1.00  0.00     0.049 A 
ATOM     42  H   UNL A   1      44.807  27.642  27.129  1.00  0.00     0.167 HD
ATOM     43  C   UNL A   1      49.098  28.020  26.332  1.00  0.00     0.037 A 
ATOM     44  C   UNL A   1      42.342  28.502  28.105  1.00  0.00     0.037 A 
ATOM     45  C   UNL A   1      48.716  29.275  26.925  1.00  0.00     0.049 A 
ATOM     46  C   UNL A   1      43.311  29.625  28.358  1.00  0.00     0.074 A 
ATOM     47  C   UNL A   1      49.498  30.391  27.169  1.00  0.00     0.029 A 
ATOM     48  N   UNL A   1      47.437  29.578  27.367  1.00  0.00    -0.354 N 
ATOM     49  N   UNL A   1      44.587  29.698  28.068  1.00  0.00    -0.248 NA
ATOM     50  C   UNL A   1      42.778  30.822  29.025  1.00  0.00     0.031 C 
ATOM     51  C   UNL A   1      48.698  31.359  27.786  1.00  0.00     0.029 A 
ATOM     52  C   UNL A   1      47.410  30.860  27.893  1.00  0.00     0.049 A 
ATOM     53  H   UNL A   1      46.662  28.973  27.314  1.00  0.00     0.167 HD
ATOM     54  C   UNL A   1      45.006  30.949  28.498  1.00  0.00     0.074 A 
ATOM     55  C   UNL A   1      43.844  31.609  29.057  1.00  0.00     0.031 C 
ATOM     56  C   UNL A   1      46.242  31.501  28.437  1.00  0.00     0.037 A 
BRANCH  43  57
ATOM     57  C   UNL A   1      50.529  27.834  25.929  1.00  0.00     0.064 A 
ATOM     58  C   UNL A   1      50.946  27.994  24.600  1.00  0.00     0.173 A 
ATOM     59  C   UNL A   1      51.500  27.518  26.891  1.00  0.00     0.173 A 
ATOM     60  F   UNL A   1      50.052  28.279  23.642  1.00  0.00    -0.203 F 
ATOM     61  C   UNL A   1      52.282  27.825  24.244  1.00  0.00     0.198 A 
ATOM     62  C   UNL A   1      52.838  27.371  26.536  1.00  0.00     0.198 A 
ATOM     63  F   UNL A   1      51.152  27.356  28.176  1.00  0.00    -0.203 F 
ATOM     64  F   UNL A   1      52.653  27.943  22.962  1.00  0.00    -0.200 F 
ATOM     65  C   UNL A   1      53.227  27.519  25.213  1.00  0.00     0.200 A 
ATOM     66  F   UNL A   1      53.752  27.084  27.473  1.00  0.00    -0.200 F 
ATOM     67  F   UNL A   1      54.512  27.360  24.869  1.00  0.00    -0.200 F 
ENDBRANCH  43  57
BRANCH  44  68
ATOM     68  C   UNL A   1      40.918  28.621  28.506  1.00  0.00     0.064 A 
ATOM     69  C   UNL A   1      39.948  29.076  27.603  1.00  0.00     0.173 A 
ATOM     70  C   UNL A   1      40.499  28.289  29.803  1.00  0.00     0.173 A 
ATOM     71  F   UNL A   1      40.307  29.430  26.360  1.00  0.00    -0.203 F 
ATOM     72  C   UNL A   1      38.615  29.205  27.985  1.00  0.00     0.198 A 
ATOM     73  C   UNL A   1      39.162  28.395  30.177  1.00  0.00     0.198 A 
ATOM     74  F   UNL A   1      41.390  27.853  30.705  1.00  0.00    -0.203 F 
ATOM     75  F   UNL A   1      37.714  29.680  27.113  1.00  0.00    -0.200 F 
ATOM     76  C   UNL A   1      38.222  28.859  29.269  1.00  0.00     0.200 A 
ATOM     77  F   UNL A   1      38.784  28.052  31.415  1.00  0.00    -0.200 F 
ATOM     78  F   UNL A   1      36.939  28.981  29.634  1.00  0.00    -0.200 F 
ENDBRANCH  44  68
BRANCH  56  79
ATOM     79  C   UNL A   1      46.394  32.898  28.961  1.00  0.00     0.064 A 
ATOM     80  C   UNL A   1      46.747  33.143  30.295  1.00  0.00     0.173 A 
ATOM     81  C   UNL A   1      46.224  33.999  28.109  1.00  0.00     0.173 A 
ATOM     82  F   UNL A   1      46.903  32.122  31.151  1.00  0.00    -0.203 F 
ATOM     83  C   UNL A   1      46.904  34.445  30.763  1.00  0.00     0.198 A 
ATOM     84  C   UNL A   1      46.406  35.298  28.573  1.00  0.00     0.198 A 
ATOM     85  F   UNL A   1      45.893  33.813  26.822  1.00  0.00    -0.203 F 
ATOM     86  F   UNL A   1      47.204  34.661  32.052  1.00  0.00    -0.200 F 
ATOM     87  C   UNL A   1      46.741  35.520  29.901  1.00  0.00     0.200 A 
ATOM     88  F   UNL A   1      46.256  36.334  27.738  1.00  0.00    -0.200 F 
ATOM     89  F   UNL A   1      46.898  36.772  30.353  1.00  0.00    -0.200 F 
ENDBRANCH  56  79
ENDBRANCH  30  31
ENDBRANCH  23  25
ENDBRANCH  22  23
ENDBRANCH  21  22
ENDBRANCH   1  21
TORSDOF 14
ENDMDL
MODEL 2
REMARK VINA RESULT:     -11.5      4.999      7.639
REMARK SMILES C=Cc1cncc(-c2ccc([C@@H](C)C(=O)OCCOC(=O)c3ccc(-c4c5nc(c(-c6c(F)c(F)c(F)c(F)c6F)c6ccc([nH]6)c(-c6c(F)c(F)c(F)c(F)c6F)c6nc(c(-c7c(F)c(F)c(F)c(F)c7F)c7ccc4[nH]7)C=C6)C=C5)cc3)cc2)c1
REMARK SMILES IDX 17 1 16 2 14 3 15 4 12 5 13 6 11 7 8 8 9 9 86 10 10 11 85 12
REMARK SMILES IDX 7 13 3 14 4 15 87 16 5 17 6 18 2 19 1 20 18 21 19 22 20 23
REMARK SMILES IDX 21 24 22 25 23 26 84 27 24 28 83 29 25 30 26 31 27 32 77 33
REMARK SMILES IDX 28 34 82 35 76 36 78 37 29 38 81 39 75 40 74 41 30 43 62 44
REMARK SMILES IDX 42 45 61 46 43 47 46 48 60 49 79 50 44 51 45 52 59 54 80 55
REMARK SMILES IDX 47 56 31 57 32 58 40 59 33 60 34 61 38 62 41 63 35 64 36 65
REMARK SMILES IDX 39 66 37 67 63 68 64 69 72 70 65 71 66 72 70 73 73 74 67 75
REMARK SMILES IDX 68 76 71 77 69 78 48 79 49 80 57 81 50 82 51 83 55 84 58 85
REMARK SMILES IDX 52 86 53 87 56 88 54 89
REMARK H PARENT 78 42 46 53
REMARK Flexibility Score: inf
ROOT
ATOM      1  C   UNL A   1      43.838  21.566  25.577  1.00  0.00     0.274 C 
ENDROOT
BRANCH   1   2
ATOM      2  O   UNL A   1      42.593  20.874  25.358  1.00  0.00    -0.462 OA
BRANCH   2   3
ATOM      3  C   UNL A   1      41.801  20.681  26.444  1.00  0.00     0.313 C 
ATOM      4  O   UNL A   1      41.550  19.583  26.931  1.00  0.00    -0.252 OA
BRANCH   3   5
ATOM      5  C   UNL A   1      41.187  21.964  26.990  1.00  0.00     0.126 C 
ATOM      6  C   UNL A   1      41.209  21.939  28.517  1.00  0.00     0.025 C 
BRANCH   5   7
ATOM      7  C   UNL A   1      39.824  22.342  26.431  1.00  0.00    -0.034 A 
ATOM      8  C   UNL A   1      37.235  23.059  25.494  1.00  0.00    -0.017 A 
ATOM      9  C   UNL A   1      37.763  21.779  25.266  1.00  0.00     0.009 A 
ATOM     10  C   UNL A   1      38.039  23.986  26.172  1.00  0.00     0.009 A 
ATOM     11  C   UNL A   1      39.034  21.425  25.727  1.00  0.00     0.005 A 
ATOM     12  C   UNL A   1      39.311  23.632  26.636  1.00  0.00     0.005 A 
BRANCH   8  13
ATOM     13  C   UNL A   1      35.864  23.391  25.082  1.00  0.00     0.001 A 
ATOM     14  C   UNL A   1      33.892  24.819  25.098  1.00  0.00    -0.007 A 
ATOM     15  C   UNL A   1      33.284  23.883  24.264  1.00  0.00     0.119 A 
ATOM     16  C   UNL A   1      35.202  24.548  25.516  1.00  0.00     0.020 A 
ATOM     17  N   UNL A   1      33.876  22.754  23.820  1.00  0.00    -0.263 NA
ATOM     18  C   UNL A   1      35.145  22.540  24.239  1.00  0.00     0.119 A 
BRANCH  14  19
ATOM     19  C   UNL A   1      33.135  25.995  25.539  1.00  0.00     0.002 C 
ATOM     20  C   UNL A   1      33.695  27.132  25.968  1.00  0.00     0.009 C 
ENDBRANCH  14  19
ENDBRANCH   8  13
ENDBRANCH   5   7
ENDBRANCH   3   5
ENDBRANCH   2   3
ENDBRANCH   1   2
BRANCH   1  21
ATOM     21  C   UNL A   1      44.140  22.547  24.441  1.00  0.00     0.275 C 
BRANCH  21  22
ATOM     22  O   UNL A   1      43.460  23.800  24.641  1.00  0.00    -0.458 OA
BRANCH  22  23
ATOM     23  C   UNL A   1      44.248  24.819  25.054  1.00  0.00     0.338 C 
ATOM     24  O   UNL A   1      45.351  25.124  24.639  1.00  0.00    -0.246 OA
BRANCH  23  25
ATOM     25  C   UNL A   1      43.528  25.623  26.050  1.00  0.00     0.060 A 
ATOM     26  C   UNL A   1      43.885  26.966  26.191  1.00  0.00     0.016 A 
ATOM     27  C   UNL A   1      42.597  25.041  26.909  1.00  0.00     0.016 A 
ATOM     28  C   UNL A   1      43.330  27.734  27.210  1.00  0.00     0.010 A 
ATOM     29  C   UNL A   1      42.034  25.813  27.930  1.00  0.00     0.010 A 
ATOM     30  C   UNL A   1      42.416  27.156  28.098  1.00  0.00    -0.014 A 
BRANCH  30  31
ATOM     31  C   UNL A   1      41.927  27.940  29.256  1.00  0.00     0.031 A 
ATOM     32  C   UNL A   1      42.690  27.903  30.549  1.00  0.00     0.074 A 
ATOM     33  C   UNL A   1      40.829  28.707  29.138  1.00  0.00     0.049 A 
ATOM     34  N   UNL A   1      42.403  28.460  31.698  1.00  0.00    -0.248 NA
ATOM     35  C   UNL A   1      43.947  27.138  30.546  1.00  0.00     0.031 C 
ATOM     36  C   UNL A   1      40.036  28.861  27.919  1.00  0.00     0.029 A 
ATOM     37  N   UNL A   1      40.191  29.498  30.058  1.00  0.00    -0.354 N 
ATOM     38  C   UNL A   1      43.429  28.096  32.558  1.00  0.00     0.074 A 
ATOM     39  C   UNL A   1      44.340  27.261  31.806  1.00  0.00     0.031 C 
ATOM     40  C   UNL A   1      39.015  29.697  28.168  1.00  0.00     0.029 A 
ATOM     41  C   UNL A   1      39.062  30.105  29.570  1.00  0.00     0.049 A 
ATOM     42  H   UNL A   1      40.514  29.620  30.981  1.00  0.00     0.167 HD
ATOM     43  C   UNL A   1      43.595  28.433  33.860  1.00  0.00     0.037 A 
ATOM     44  C   UNL A   1      38.155  30.881  30.194  1.00  0.00     0.037 A 
ATOM     45  C   UNL A   1      42.696  29.277  34.602  1.00  0.00     0.049 A 
ATOM     46  C   UNL A   1      38.338  31.201  31.653  1.00  0.00     0.074 A 
ATOM     47  C   UNL A   1      42.778  29.677  35.924  1.00  0.00     0.029 A 
ATOM     48  N   UNL A   1      41.547  29.852  34.080  1.00  0.00    -0.354 N 
ATOM     49  N   UNL A   1      39.303  30.843  32.464  1.00  0.00    -0.248 NA
ATOM     50  C   UNL A   1      37.301  32.031  32.284  1.00  0.00     0.031 C 
ATOM     51  C   UNL A   1      41.662  30.471  36.210  1.00  0.00     0.029 A 
ATOM     52  C   UNL A   1      40.905  30.595  35.057  1.00  0.00     0.049 A 
ATOM     53  H   UNL A   1      41.235  29.749  33.152  1.00  0.00     0.167 HD
ATOM     54  C   UNL A   1      39.003  31.415  33.692  1.00  0.00     0.074 A 
ATOM     55  C   UNL A   1      37.771  32.158  33.517  1.00  0.00     0.031 C 
ATOM     56  C   UNL A   1      39.684  31.333  34.860  1.00  0.00     0.037 A 
BRANCH  43  57
ATOM     57  C   UNL A   1      44.783  27.863  34.573  1.00  0.00     0.064 A 
ATOM     58  C   UNL A   1      46.005  28.548  34.631  1.00  0.00     0.173 A 
ATOM     59  C   UNL A   1      44.688  26.627  35.229  1.00  0.00     0.173 A 
ATOM     60  F   UNL A   1      46.149  29.725  34.005  1.00  0.00    -0.203 F 
ATOM     61  C   UNL A   1      47.096  28.007  35.306  1.00  0.00     0.198 A 
ATOM     62  C   UNL A   1      45.775  26.099  35.921  1.00  0.00     0.198 A 
ATOM     63  F   UNL A   1      43.541  25.933  35.203  1.00  0.00    -0.203 F 
ATOM     64  F   UNL A   1      48.267  28.660  35.317  1.00  0.00    -0.200 F 
ATOM     65  C   UNL A   1      46.979  26.786  35.955  1.00  0.00     0.200 A 
ATOM     66  F   UNL A   1      45.659  24.923  36.554  1.00  0.00    -0.200 F 
ATOM     67  F   UNL A   1      48.030  26.269  36.606  1.00  0.00    -0.200 F 
ENDBRANCH  43  57
BRANCH  44  68
ATOM     68  C   UNL A   1      36.984  31.397  29.443  1.00  0.00     0.064 A 
ATOM     69  C   UNL A   1      35.922  30.554  29.090  1.00  0.00     0.173 A 
ATOM     70  C   UNL A   1      36.905  32.744  29.056  1.00  0.00     0.173 A 
ATOM     71  F   UNL A   1      35.966  29.253  29.415  1.00  0.00    -0.203 F 
ATOM     72  C   UNL A   1      34.831  31.035  28.370  1.00  0.00     0.198 A 
ATOM     73  C   UNL A   1      35.804  33.229  28.358  1.00  0.00     0.198 A 
ATOM     74  F   UNL A   1      37.899  33.589  29.367  1.00  0.00    -0.203 F 
ATOM     75  F   UNL A   1      33.848  30.198  28.011  1.00  0.00    -0.200 F 
ATOM     76  C   UNL A   1      34.770  32.372  28.009  1.00  0.00     0.200 A 
ATOM     77  F   UNL A   1      35.744  34.523  28.019  1.00  0.00    -0.200 F 
ATOM     78  F   UNL A   1      33.719  32.834  27.319  1.00  0.00    -0.200 F 
ENDBRANCH  44  68
BRANCH  56  79
ATOM     79  C   UNL A   1      39.129  32.086  36.031  1.00  0.00     0.064 A 
ATOM     80  C   UNL A   1      39.459  33.430  36.259  1.00  0.00     0.173 A 
ATOM     81  C   UNL A   1      38.228  31.469  36.911  1.00  0.00     0.173 A 
ATOM     82  F   UNL A   1      40.329  34.057  35.453  1.00  0.00    -0.203 F 
ATOM     83  C   UNL A   1      38.920  34.123  37.339  1.00  0.00     0.198 A 
ATOM     84  C   UNL A   1      37.673  32.172  37.976  1.00  0.00     0.198 A 
ATOM     85  F   UNL A   1      37.878  30.186  36.731  1.00  0.00    -0.203 F 
ATOM     86  F   UNL A   1      39.277  35.396  37.561  1.00  0.00    -0.200 F 
ATOM     87  C   UNL A   1      38.023  33.497  38.192  1.00  0.00     0.200 A 
ATOM     88  F   UNL A   1      36.801  31.568  38.794  1.00  0.00    -0.200 F 
ATOM     89  F   UNL A   1      37.502  34.168  39.228  1.00  0.00    -0.200 F 
ENDBRANCH  56  79
ENDBRANCH  30  31
ENDBRANCH  23  25
ENDBRANCH  22  23
ENDBRANCH  21  22
ENDBRANCH   1  21
TORSDOF 14
ENDMDL
MODEL 3
REMARK VINA RESULT:     -11.4      5.101      9.679
REMARK SMILES C=Cc1cncc(-c2ccc([C@@H](C)C(=O)OCCOC(=O)c3ccc(-c4c5nc(c(-c6c(F)c(F)c(F)c(F)c6F)c6ccc([nH]6)c(-c6c(F)c(F)c(F)c(F)c6F)c6nc(c(-c7c(F)c(F)c(F)c(F)c7F)c7ccc4[nH]7)C=C6)C=C5)cc3)cc2)c1
REMARK SMILES IDX 17 1 16 2 14 3 15 4 12 5 13 6 11 7 8 8 9 9 86 10 10 11 85 12
REMARK SMILES IDX 7 13 3 14 4 15 87 16 5 17 6 18 2 19 1 20 18 21 19 22 20 23
REMARK SMILES IDX 21 24 22 25 23 26 84 27 24 28 83 29 25 30 26 31 27 32 77 33
REMARK SMILES IDX 28 34 82 35 76 36 78 37 29 38 81 39 75 40 74 41 30 43 62 44
REMARK SMILES IDX 42 45 61 46 43 47 46 48 60 49 79 50 44 51 45 52 59 54 80 55
REMARK SMILES IDX 47 56 31 57 32 58 40 59 33 60 34 61 38 62 41 63 35 64 36 65
REMARK SMILES IDX 39 66 37 67 63 68 64 69 72 70 65 71 66 72 70 73 73 74 67 75
REMARK SMILES IDX 68 76 71 77 69 78 48 79 49 80 57 81 50 82 51 83 55 84 58 85
REMARK SMILES IDX 52 86 53 87 56 88 54 89
REMARK H PARENT 78 42 46 53
REMARK Flexibility Score: inf
ROOT
ATOM      1  C   UNL A   1      44.346  21.747  25.033  1.00  0.00     0.274 C 
ENDROOT
BRANCH   1   2
ATOM      2  O   UNL A   1      43.367  21.903  26.077  1.00  0.00    -0.462 OA
BRANCH   2   3
ATOM      3  C   UNL A   1      42.342  21.012  26.093  1.00  0.00     0.313 C 
ATOM      4  O   UNL A   1      42.250  20.050  25.336  1.00  0.00    -0.252 OA
BRANCH   3   5
ATOM      5  C   UNL A   1      41.260  21.340  27.114  1.00  0.00     0.126 C 
ATOM      6  C   UNL A   1      41.058  20.154  28.054  1.00  0.00     0.025 C 
BRANCH   5   7
ATOM      7  C   UNL A   1      39.950  21.869  26.551  1.00  0.00    -0.034 A 
ATOM      8  C   UNL A   1      37.544  22.849  25.389  1.00  0.00    -0.017 A 
ATOM      9  C   UNL A   1      38.338  23.661  26.214  1.00  0.00     0.009 A 
ATOM     10  C   UNL A   1      37.958  21.526  25.182  1.00  0.00     0.009 A 
ATOM     11  C   UNL A   1      39.521  23.182  26.784  1.00  0.00     0.005 A 
ATOM     12  C   UNL A   1      39.143  21.045  25.751  1.00  0.00     0.005 A 
BRANCH   8  13
ATOM     13  C   UNL A   1      36.350  23.391  24.726  1.00  0.00     0.001 A 
ATOM     14  C   UNL A   1      34.390  24.833  24.654  1.00  0.00    -0.007 A 
ATOM     15  C   UNL A   1      34.123  24.305  23.393  1.00  0.00     0.119 A 
ATOM     16  C   UNL A   1      35.521  24.350  25.326  1.00  0.00     0.020 A 
ATOM     17  N   UNL A   1      34.889  23.380  22.773  1.00  0.00    -0.263 NA
ATOM     18  C   UNL A   1      35.977  22.951  23.455  1.00  0.00     0.119 A 
BRANCH  14  19
ATOM     19  C   UNL A   1      33.467  25.813  25.237  1.00  0.00     0.002 C 
ATOM     20  C   UNL A   1      33.827  26.751  26.121  1.00  0.00     0.009 C 
ENDBRANCH  14  19
ENDBRANCH   8  13
ENDBRANCH   5   7
ENDBRANCH   3   5
ENDBRANCH   2   3
ENDBRANCH   1   2
BRANCH   1  21
ATOM     21  C   UNL A   1      44.367  22.961  24.099  1.00  0.00     0.275 C 
BRANCH  21  22
ATOM     22  O   UNL A   1      43.589  24.045  24.638  1.00  0.00    -0.458 OA
BRANCH  22  23
ATOM     23  C   UNL A   1      44.306  25.109  25.062  1.00  0.00     0.338 C 
ATOM     24  O   UNL A   1      45.369  25.515  24.626  1.00  0.00    -0.246 OA
BRANCH  23  25
ATOM     25  C   UNL A   1      43.558  25.822  26.106  1.00  0.00     0.060 A 
ATOM     26  C   UNL A   1      43.868  27.165  26.335  1.00  0.00     0.016 A 
ATOM     27  C   UNL A   1      42.646  25.153  26.922  1.00  0.00     0.016 A 
ATOM     28  C   UNL A   1      43.285  27.845  27.400  1.00  0.00     0.010 A 
ATOM     29  C   UNL A   1      42.056  25.837  27.989  1.00  0.00     0.010 A 
ATOM     30  C   UNL A   1      42.390  27.179  28.245  1.00  0.00    -0.014 A 
BRANCH  30  31
ATOM     31  C   UNL A   1      41.874  27.869  29.450  1.00  0.00     0.031 A 
ATOM     32  C   UNL A   1      40.590  28.643  29.366  1.00  0.00     0.074 A 
ATOM     33  C   UNL A   1      42.532  27.771  30.619  1.00  0.00     0.049 A 
ATOM     34  N   UNL A   1      39.998  29.369  30.279  1.00  0.00    -0.248 NA
ATOM     35  C   UNL A   1      39.876  28.589  28.081  1.00  0.00     0.031 C 
ATOM     36  C   UNL A   1      43.760  27.006  30.833  1.00  0.00     0.029 A 
ATOM     37  N   UNL A   1      42.259  28.321  31.844  1.00  0.00    -0.354 N 
ATOM     38  C   UNL A   1      38.856  29.876  29.675  1.00  0.00     0.074 A 
ATOM     39  C   UNL A   1      38.841  29.385  28.314  1.00  0.00     0.031 C 
ATOM     40  C   UNL A   1      44.135  27.137  32.116  1.00  0.00     0.029 A 
ATOM     41  C   UNL A   1      43.196  28.023  32.800  1.00  0.00     0.049 A 
ATOM     42  H   UNL A   1      41.464  28.877  32.022  1.00  0.00     0.167 HD
ATOM     43  C   UNL A   1      37.904  30.676  30.211  1.00  0.00     0.037 A 
ATOM     44  C   UNL A   1      43.297  28.440  34.076  1.00  0.00     0.037 A 
ATOM     45  C   UNL A   1      37.913  31.150  31.570  1.00  0.00     0.049 A 
ATOM     46  C   UNL A   1      42.252  29.367  34.634  1.00  0.00     0.074 A 
ATOM     47  C   UNL A   1      36.993  31.964  32.208  1.00  0.00     0.029 A 
ATOM     48  N   UNL A   1      38.894  30.847  32.503  1.00  0.00    -0.354 N 
ATOM     49  N   UNL A   1      41.182  29.853  34.053  1.00  0.00    -0.248 NA
ATOM     50  C   UNL A   1      42.432  29.809  36.025  1.00  0.00     0.031 C 
ATOM     51  C   UNL A   1      37.435  32.179  33.519  1.00  0.00     0.029 A 
ATOM     52  C   UNL A   1      38.609  31.469  33.708  1.00  0.00     0.049 A 
ATOM     53  H   UNL A   1      39.677  30.275  32.333  1.00  0.00     0.167 HD
ATOM     54  C   UNL A   1      40.552  30.639  35.008  1.00  0.00     0.074 A 
ATOM     55  C   UNL A   1      41.352  30.555  36.212  1.00  0.00     0.031 C 
ATOM     56  C   UNL A   1      39.414  31.366  34.897  1.00  0.00     0.037 A 
BRANCH  43  57
ATOM     57  C   UNL A   1      36.786  31.113  29.315  1.00  0.00     0.064 A 
ATOM     58  C   UNL A   1      35.766  30.233  28.929  1.00  0.00     0.173 A 
ATOM     59  C   UNL A   1      36.721  32.439  28.860  1.00  0.00     0.173 A 
ATOM     60  F   UNL A   1      35.794  28.952  29.325  1.00  0.00    -0.203 F 
ATOM     61  C   UNL A   1      34.729  30.659  28.102  1.00  0.00     0.198 A 
ATOM     62  C   UNL A   1      35.672  32.867  28.051  1.00  0.00     0.198 A 
ATOM     63  F   UNL A   1      37.673  33.319  29.202  1.00  0.00    -0.203 F 
ATOM     64  F   UNL A   1      33.785  29.791  27.712  1.00  0.00    -0.200 F 
ATOM     65  C   UNL A   1      34.680  31.976  27.669  1.00  0.00     0.200 A 
ATOM     66  F   UNL A   1      35.621  34.141  27.639  1.00  0.00    -0.200 F 
ATOM     67  F   UNL A   1      33.680  32.384  26.876  1.00  0.00    -0.200 F 
ENDBRANCH  43  57
BRANCH  44  68
ATOM     68  C   UNL A   1      44.441  27.994  34.910  1.00  0.00     0.064 A 
ATOM     69  C   UNL A   1      45.602  28.772  35.021  1.00  0.00     0.173 A 
ATOM     70  C   UNL A   1      44.400  26.778  35.609  1.00  0.00     0.173 A 
ATOM     71  F   UNL A   1      45.697  29.929  34.350  1.00  0.00    -0.203 F 
ATOM     72  C   UNL A   1      46.682  28.345  35.790  1.00  0.00     0.198 A 
ATOM     73  C   UNL A   1      45.470  26.364  36.396  1.00  0.00     0.198 A 
ATOM     74  F   UNL A   1      43.312  25.997  35.531  1.00  0.00    -0.203 F 
ATOM     75  F   UNL A   1      47.796  29.089  35.847  1.00  0.00    -0.200 F 
ATOM     76  C   UNL A   1      46.613  27.144  36.481  1.00  0.00     0.200 A 
ATOM     77  F   UNL A   1      45.397  25.208  37.070  1.00  0.00    -0.200 F 
ATOM     78  F   UNL A   1      47.652  26.736  37.223  1.00  0.00    -0.200 F 
ENDBRANCH  44  68
BRANCH  56  79
ATOM     79  C   UNL A   1      38.951  32.104  36.117  1.00  0.00     0.064 A 
ATOM     80  C   UNL A   1      38.154  31.483  37.089  1.00  0.00     0.173 A 
ATOM     81  C   UNL A   1      39.343  33.433  36.334  1.00  0.00     0.173 A 
ATOM     82  F   UNL A   1      37.741  30.219  36.916  1.00  0.00    -0.203 F 
ATOM     83  C   UNL A   1      37.749  32.175  38.227  1.00  0.00     0.198 A 
ATOM     84  C   UNL A   1      38.956  34.114  37.484  1.00  0.00     0.198 A 
ATOM     85  F   UNL A   1      40.111  34.068  35.435  1.00  0.00    -0.203 F 
ATOM     86  F   UNL A   1      36.956  31.576  39.126  1.00  0.00    -0.200 F 
ATOM     87  C   UNL A   1      38.155  33.486  38.427  1.00  0.00     0.200 A 
ATOM     88  F   UNL A   1      39.356  35.378  37.680  1.00  0.00    -0.200 F 
ATOM     89  F   UNL A   1      37.768  34.149  39.526  1.00  0.00    -0.200 F 
ENDBRANCH  56  79
ENDBRANCH  30  31
ENDBRANCH  23  25
ENDBRANCH  22  23
ENDBRANCH  21  22
ENDBRANCH   1  21
TORSDOF 14
ENDMDL
