MODEL 1
REMARK VINA RESULT:     -11.0      0.000      0.000
REMARK SMILES N#CNC(=O)[C@H]1C[C@@H]1C(=O)OCCOC(=O)c1ccc(-c2c3nc(c(-c4c(F)c(F)c(F)c(F)c4F)c4ccc([nH]4)c(-c4c(F)c(F)c(F)c(F)c4F)c4nc(c(-c5c(F)c(F)c(F)c(F)c5F)c5ccc2[nH]5)C=C4)C=C3)cc1
REMARK SMILES IDX 12 1 11 2 9 3 10 4 8 5 6 6 7 7 4 8 3 9 5 11 2 12 1 13 13 14
REMARK SMILES IDX 14 15 15 16 16 17 17 18 18 19 79 20 19 21 78 22 20 23 21 24
REMARK SMILES IDX 22 25 72 26 23 27 77 28 71 29 73 30 24 31 76 32 70 33 69 34
REMARK SMILES IDX 25 36 57 37 37 38 56 39 38 40 41 41 55 42 74 43 39 44 40 45
REMARK SMILES IDX 54 47 75 48 42 49 26 50 27 51 35 52 28 53 29 54 33 55 36 56
REMARK SMILES IDX 30 57 31 58 34 59 32 60 58 61 59 62 67 63 60 64 61 65 65 66
REMARK SMILES IDX 68 67 62 68 63 69 66 70 64 71 43 72 44 73 52 74 45 75 46 76
REMARK SMILES IDX 50 77 53 78 47 79 48 80 51 81 49 82
REMARK H PARENT 3 10 73 35 41 46
REMARK Flexibility Score: inf
ROOT
ATOM      1  C   UNL A   1      32.136  29.707  25.057  1.00  0.00     0.274 C 
ENDROOT
BRANCH   1   2
ATOM      2  O   UNL A   1      30.925  29.019  24.678  1.00  0.00    -0.462 OA
BRANCH   2   3
ATOM      3  C   UNL A   1      30.989  28.238  23.570  1.00  0.00     0.309 C 
ATOM      4  O   UNL A   1      31.783  27.325  23.383  1.00  0.00    -0.252 OA
BRANCH   3   5
ATOM      5  C   UNL A   1      29.912  28.556  22.582  1.00  0.00     0.112 C 
ATOM      6  C   UNL A   1      29.086  29.821  22.759  1.00  0.00     0.094 C 
ATOM      7  C   UNL A   1      28.470  28.466  23.018  1.00  0.00     0.030 C 
BRANCH   6   8
ATOM      8  C   UNL A   1      28.490  30.665  21.696  1.00  0.00     0.236 C 
ATOM      9  N   UNL A   1      28.403  32.019  21.799  1.00  0.00    -0.262 N 
ATOM     10  H   UNL A   1      27.924  32.398  21.027  1.00  0.00     0.182 HD
ATOM     11  O   UNL A   1      27.990  30.110  20.721  1.00  0.00    -0.274 OA
BRANCH   9  12
ATOM     12  C   UNL A   1      28.780  32.980  22.645  1.00  0.00     0.183 C 
ATOM     13  N   UNL A   1      29.222  33.852  23.261  1.00  0.00    -0.172 NA
ENDBRANCH   9  12
ENDBRANCH   6   8
ENDBRANCH   3   5
ENDBRANCH   2   3
ENDBRANCH   1   2
BRANCH   1  14
ATOM     14  C   UNL A   1      31.846  30.817  26.077  1.00  0.00     0.275 C 
BRANCH  14  15
ATOM     15  O   UNL A   1      32.692  30.708  27.242  1.00  0.00    -0.458 OA
BRANCH  15  16
ATOM     16  C   UNL A   1      33.445  31.807  27.457  1.00  0.00     0.338 C 
ATOM     17  O   UNL A   1      33.054  32.962  27.454  1.00  0.00    -0.246 OA
BRANCH  16  18
ATOM     18  C   UNL A   1      34.805  31.463  27.898  1.00  0.00     0.060 A 
ATOM     19  C   UNL A   1      35.003  30.164  28.352  1.00  0.00     0.016 A 
ATOM     20  C   UNL A   1      35.792  32.421  28.089  1.00  0.00     0.016 A 
ATOM     21  C   UNL A   1      36.116  29.836  29.111  1.00  0.00     0.010 A 
ATOM     22  C   UNL A   1      36.983  32.053  28.736  1.00  0.00     0.010 A 
ATOM     23  C   UNL A   1      37.144  30.765  29.288  1.00  0.00    -0.014 A 
BRANCH  23  24
ATOM     24  C   UNL A   1      38.374  30.374  30.036  1.00  0.00     0.031 A 
ATOM     25  C   UNL A   1      39.375  29.425  29.434  1.00  0.00     0.074 A 
ATOM     26  C   UNL A   1      38.599  30.875  31.269  1.00  0.00     0.049 A 
ATOM     27  N   UNL A   1      40.422  28.862  29.985  1.00  0.00    -0.248 NA
ATOM     28  C   UNL A   1      39.160  29.045  28.031  1.00  0.00     0.031 C 
ATOM     29  C   UNL A   1      37.739  31.836  31.962  1.00  0.00     0.029 A 
ATOM     30  N   UNL A   1      39.618  30.644  32.162  1.00  0.00    -0.354 N 
ATOM     31  C   UNL A   1      40.960  28.026  29.015  1.00  0.00     0.074 A 
ATOM     32  C   UNL A   1      40.108  28.137  27.849  1.00  0.00     0.031 C 
ATOM     33  C   UNL A   1      38.275  32.132  33.153  1.00  0.00     0.029 A 
ATOM     34  C   UNL A   1      39.458  31.306  33.355  1.00  0.00     0.049 A 
ATOM     35  H   UNL A   1      40.387  30.061  31.967  1.00  0.00     0.167 HD
ATOM     36  C   UNL A   1      42.060  27.235  29.093  1.00  0.00     0.037 A 
ATOM     37  C   UNL A   1      40.146  31.225  34.510  1.00  0.00     0.037 A 
ATOM     38  C   UNL A   1      42.911  27.143  30.254  1.00  0.00     0.049 A 
ATOM     39  C   UNL A   1      41.321  30.295  34.597  1.00  0.00     0.074 A 
ATOM     40  C   UNL A   1      44.066  26.400  30.420  1.00  0.00     0.029 A 
ATOM     41  N   UNL A   1      42.692  27.806  31.455  1.00  0.00    -0.354 N 
ATOM     42  N   UNL A   1      41.819  29.504  33.678  1.00  0.00    -0.248 NA
ATOM     43  C   UNL A   1      42.025  30.240  35.884  1.00  0.00     0.031 C 
ATOM     44  C   UNL A   1      44.497  26.544  31.743  1.00  0.00     0.029 A 
ATOM     45  C   UNL A   1      43.665  27.453  32.379  1.00  0.00     0.049 A 
ATOM     46  H   UNL A   1      41.953  28.435  31.626  1.00  0.00     0.167 HD
ATOM     47  C   UNL A   1      42.910  28.878  34.264  1.00  0.00     0.074 A 
ATOM     48  C   UNL A   1      43.008  29.393  35.614  1.00  0.00     0.031 C 
ATOM     49  C   UNL A   1      43.754  27.962  33.726  1.00  0.00     0.037 A 
BRANCH  36  50
ATOM     50  C   UNL A   1      42.367  26.356  27.909  1.00  0.00     0.064 A 
ATOM     51  C   UNL A   1      43.314  26.707  26.934  1.00  0.00     0.173 A 
ATOM     52  C   UNL A   1      41.691  25.136  27.746  1.00  0.00     0.173 A 
ATOM     53  F   UNL A   1      43.990  27.863  27.033  1.00  0.00    -0.203 F 
ATOM     54  C   UNL A   1      43.527  25.904  25.816  1.00  0.00     0.198 A 
ATOM     55  C   UNL A   1      41.939  24.313  26.650  1.00  0.00     0.198 A 
ATOM     56  F   UNL A   1      40.784  24.736  28.651  1.00  0.00    -0.203 F 
ATOM     57  F   UNL A   1      44.375  26.305  24.857  1.00  0.00    -0.200 F 
ATOM     58  C   UNL A   1      42.843  24.707  25.676  1.00  0.00     0.200 A 
ATOM     59  F   UNL A   1      41.293  23.145  26.530  1.00  0.00    -0.200 F 
ATOM     60  F   UNL A   1      43.045  23.937  24.598  1.00  0.00    -0.200 F 
ENDBRANCH  36  50
BRANCH  37  61
ATOM     61  C   UNL A   1      39.702  32.025  35.682  1.00  0.00     0.064 A 
ATOM     62  C   UNL A   1      40.244  33.289  35.944  1.00  0.00     0.173 A 
ATOM     63  C   UNL A   1      38.697  31.555  36.543  1.00  0.00     0.173 A 
ATOM     64  F   UNL A   1      41.222  33.773  35.165  1.00  0.00    -0.203 F 
ATOM     65  C   UNL A   1      39.802  34.050  37.025  1.00  0.00     0.198 A 
ATOM     66  C   UNL A   1      38.231  32.332  37.600  1.00  0.00     0.198 A 
ATOM     67  F   UNL A   1      38.142  30.352  36.334  1.00  0.00    -0.203 F 
ATOM     68  F   UNL A   1      40.364  35.242  37.276  1.00  0.00    -0.200 F 
ATOM     69  C   UNL A   1      38.789  33.576  37.845  1.00  0.00     0.200 A 
ATOM     70  F   UNL A   1      37.236  31.879  38.374  1.00  0.00    -0.200 F 
ATOM     71  F   UNL A   1      38.351  34.319  38.871  1.00  0.00    -0.200 F 
ENDBRANCH  37  61
BRANCH  49  72
ATOM     72  C   UNL A   1      44.893  27.487  34.586  1.00  0.00     0.064 A 
ATOM     73  C   UNL A   1      44.795  26.340  35.388  1.00  0.00     0.173 A 
ATOM     74  C   UNL A   1      46.115  28.179  34.585  1.00  0.00     0.173 A 
ATOM     75  F   UNL A   1      43.646  25.648  35.441  1.00  0.00    -0.203 F 
ATOM     76  C   UNL A   1      45.863  25.925  36.181  1.00  0.00     0.198 A 
ATOM     77  C   UNL A   1      47.194  27.738  35.345  1.00  0.00     0.198 A 
ATOM     78  F   UNL A   1      46.269  29.279  33.833  1.00  0.00    -0.203 F 
ATOM     79  F   UNL A   1      45.723  24.862  36.986  1.00  0.00    -0.200 F 
ATOM     80  C   UNL A   1      47.064  26.618  36.151  1.00  0.00     0.200 A 
ATOM     81  F   UNL A   1      48.360  28.397  35.298  1.00  0.00    -0.200 F 
ATOM     82  F   UNL A   1      48.093  26.211  36.906  1.00  0.00    -0.200 F 
ENDBRANCH  49  72
ENDBRANCH  23  24
ENDBRANCH  16  18
ENDBRANCH  15  16
ENDBRANCH  14  15
ENDBRANCH   1  14
TORSDOF 13
ENDMDL
MODEL 2
REMARK VINA RESULT:     -10.9      0.962      2.108
REMARK SMILES N#CNC(=O)[C@H]1C[C@@H]1C(=O)OCCOC(=O)c1ccc(-c2c3nc(c(-c4c(F)c(F)c(F)c(F)c4F)c4ccc([nH]4)c(-c4c(F)c(F)c(F)c(F)c4F)c4nc(c(-c5c(F)c(F)c(F)c(F)c5F)c5ccc2[nH]5)C=C4)C=C3)cc1
REMARK SMILES IDX 12 1 11 2 9 3 10 4 8 5 6 6 7 7 4 8 3 9 5 11 2 12 1 13 13 14
REMARK SMILES IDX 14 15 15 16 16 17 17 18 18 19 79 20 19 21 78 22 20 23 21 24
REMARK SMILES IDX 22 25 72 26 23 27 77 28 71 29 73 30 24 31 76 32 70 33 69 34
REMARK SMILES IDX 25 36 57 37 37 38 56 39 38 40 41 41 55 42 74 43 39 44 40 45
REMARK SMILES IDX 54 47 75 48 42 49 26 50 27 51 35 52 28 53 29 54 33 55 36 56
REMARK SMILES IDX 30 57 31 58 34 59 32 60 58 61 59 62 67 63 60 64 61 65 65 66
REMARK SMILES IDX 68 67 62 68 63 69 66 70 64 71 43 72 44 73 52 74 45 75 46 76
REMARK SMILES IDX 50 77 53 78 47 79 48 80 51 81 49 82
REMARK H PARENT 3 10 73 35 41 46
REMARK Flexibility Score: inf
ROOT
ATOM      1  C   UNL A   1      33.179  28.901  25.271  1.00  0.00     0.274 C 
ENDROOT
BRANCH   1   2
ATOM      2  O   UNL A   1      32.960  27.818  26.200  1.00  0.00    -0.462 OA
BRANCH   2   3
ATOM      3  C   UNL A   1      31.731  27.244  26.187  1.00  0.00     0.309 C 
ATOM      4  O   UNL A   1      31.028  27.033  27.167  1.00  0.00    -0.252 OA
BRANCH   3   5
ATOM      5  C   UNL A   1      31.256  26.941  24.801  1.00  0.00     0.112 C 
ATOM      6  C   UNL A   1      30.130  27.768  24.199  1.00  0.00     0.094 C 
ATOM      7  C   UNL A   1      29.885  26.336  24.613  1.00  0.00     0.030 C 
BRANCH   6   8
ATOM      8  C   UNL A   1      29.935  28.123  22.774  1.00  0.00     0.236 C 
ATOM      9  N   UNL A   1      28.952  28.967  22.357  1.00  0.00    -0.262 N 
ATOM     10  H   UNL A   1      28.940  29.032  21.375  1.00  0.00     0.182 HD
ATOM     11  O   UNL A   1      30.643  27.575  21.933  1.00  0.00    -0.274 OA
BRANCH   9  12
ATOM     12  C   UNL A   1      27.998  29.729  22.897  1.00  0.00     0.183 C 
ATOM     13  N   UNL A   1      27.279  30.406  23.497  1.00  0.00    -0.172 NA
ENDBRANCH   9  12
ENDBRANCH   6   8
ENDBRANCH   3   5
ENDBRANCH   2   3
ENDBRANCH   1   2
BRANCH   1  14
ATOM     14  C   UNL A   1      32.405  30.158  25.694  1.00  0.00     0.275 C 
BRANCH  14  15
ATOM     15  O   UNL A   1      32.598  30.460  27.092  1.00  0.00    -0.458 OA
BRANCH  15  16
ATOM     16  C   UNL A   1      33.322  31.581  27.300  1.00  0.00     0.338 C 
ATOM     17  O   UNL A   1      32.904  32.725  27.265  1.00  0.00    -0.246 OA
BRANCH  16  18
ATOM     18  C   UNL A   1      34.679  31.278  27.776  1.00  0.00     0.060 A 
ATOM     19  C   UNL A   1      34.906  29.983  28.227  1.00  0.00     0.016 A 
ATOM     20  C   UNL A   1      35.629  32.265  28.000  1.00  0.00     0.016 A 
ATOM     21  C   UNL A   1      36.009  29.685  29.014  1.00  0.00     0.010 A 
ATOM     22  C   UNL A   1      36.813  31.931  28.677  1.00  0.00     0.010 A 
ATOM     23  C   UNL A   1      37.001  30.645  29.225  1.00  0.00    -0.014 A 
BRANCH  23  24
ATOM     24  C   UNL A   1      38.222  30.289  30.004  1.00  0.00     0.031 A 
ATOM     25  C   UNL A   1      39.257  29.357  29.434  1.00  0.00     0.074 A 
ATOM     26  C   UNL A   1      38.409  30.807  31.237  1.00  0.00     0.049 A 
ATOM     27  N   UNL A   1      40.304  28.823  30.014  1.00  0.00    -0.248 NA
ATOM     28  C   UNL A   1      39.082  28.959  28.030  1.00  0.00     0.031 C 
ATOM     29  C   UNL A   1      37.512  31.755  31.901  1.00  0.00     0.029 A 
ATOM     30  N   UNL A   1      39.412  30.607  32.154  1.00  0.00    -0.354 N 
ATOM     31  C   UNL A   1      40.882  27.989  29.064  1.00  0.00     0.074 A 
ATOM     32  C   UNL A   1      40.053  28.071  27.879  1.00  0.00     0.031 C 
ATOM     33  C   UNL A   1      38.015  32.074  33.101  1.00  0.00     0.029 A 
ATOM     34  C   UNL A   1      39.211  31.277  33.337  1.00  0.00     0.049 A 
ATOM     35  H   UNL A   1      40.197  30.040  31.982  1.00  0.00     0.167 HD
ATOM     36  C   UNL A   1      41.997  27.224  29.175  1.00  0.00     0.037 A 
ATOM     37  C   UNL A   1      39.875  31.221  34.507  1.00  0.00     0.037 A 
ATOM     38  C   UNL A   1      42.823  27.162  30.355  1.00  0.00     0.049 A 
ATOM     39  C   UNL A   1      41.067  30.319  34.630  1.00  0.00     0.074 A 
ATOM     40  C   UNL A   1      43.991  26.446  30.554  1.00  0.00     0.029 A 
ATOM     41  N   UNL A   1      42.563  27.832  31.544  1.00  0.00    -0.354 N 
ATOM     42  N   UNL A   1      41.603  29.531  33.730  1.00  0.00    -0.248 NA
ATOM     43  C   UNL A   1      41.743  30.292  35.933  1.00  0.00     0.031 C 
ATOM     44  C   UNL A   1      44.388  26.613  31.885  1.00  0.00     0.029 A 
ATOM     45  C   UNL A   1      43.523  27.509  32.493  1.00  0.00     0.049 A 
ATOM     46  H   UNL A   1      41.807  28.445  31.692  1.00  0.00     0.167 HD
ATOM     47  C   UNL A   1      42.694  28.935  34.347  1.00  0.00     0.074 A 
ATOM     48  C   UNL A   1      42.750  29.464  35.693  1.00  0.00     0.031 C 
ATOM     49  C   UNL A   1      43.570  28.033  33.837  1.00  0.00     0.037 A 
BRANCH  36  50
ATOM     50  C   UNL A   1      42.349  26.341  28.006  1.00  0.00     0.064 A 
ATOM     51  C   UNL A   1      43.295  26.713  27.038  1.00  0.00     0.173 A 
ATOM     52  C   UNL A   1      41.720  25.095  27.853  1.00  0.00     0.173 A 
ATOM     53  F   UNL A   1      43.927  27.894  27.129  1.00  0.00    -0.203 F 
ATOM     54  C   UNL A   1      43.550  25.903  25.933  1.00  0.00     0.198 A 
ATOM     55  C   UNL A   1      42.010  24.267  26.771  1.00  0.00     0.198 A 
ATOM     56  F   UNL A   1      40.817  24.675  28.752  1.00  0.00    -0.203 F 
ATOM     57  F   UNL A   1      44.395  26.321  24.979  1.00  0.00    -0.200 F 
ATOM     58  C   UNL A   1      42.911  24.680  25.802  1.00  0.00     0.200 A 
ATOM     59  F   UNL A   1      41.408  23.075  26.660  1.00  0.00    -0.200 F 
ATOM     60  F   UNL A   1      43.154  23.904  24.737  1.00  0.00    -0.200 F 
ENDBRANCH  36  50
BRANCH  37  61
ATOM     61  C   UNL A   1      39.386  32.023  35.661  1.00  0.00     0.064 A 
ATOM     62  C   UNL A   1      38.434  31.509  36.550  1.00  0.00     0.173 A 
ATOM     63  C   UNL A   1      39.891  33.309  35.918  1.00  0.00     0.173 A 
ATOM     64  F   UNL A   1      37.905  30.296  36.335  1.00  0.00    -0.203 F 
ATOM     65  C   UNL A   1      38.002  32.250  37.648  1.00  0.00     0.198 A 
ATOM     66  C   UNL A   1      39.486  34.032  37.036  1.00  0.00     0.198 A 
ATOM     67  F   UNL A   1      40.808  33.846  35.100  1.00  0.00    -0.203 F 
ATOM     68  F   UNL A   1      37.062  31.750  38.463  1.00  0.00    -0.200 F 
ATOM     69  C   UNL A   1      38.536  33.506  37.896  1.00  0.00     0.200 A 
ATOM     70  F   UNL A   1      40.022  35.235  37.283  1.00  0.00    -0.200 F 
ATOM     71  F   UNL A   1      38.134  34.209  38.964  1.00  0.00    -0.200 F 
ENDBRANCH  37  61
BRANCH  49  72
ATOM     72  C   UNL A   1      44.700  27.591  34.727  1.00  0.00     0.064 A 
ATOM     73  C   UNL A   1      45.914  28.292  34.796  1.00  0.00     0.173 A 
ATOM     74  C   UNL A   1      44.552  26.461  35.546  1.00  0.00     0.173 A 
ATOM     75  F   UNL A   1      46.116  29.371  34.024  1.00  0.00    -0.203 F 
ATOM     76  C   UNL A   1      46.946  27.859  35.624  1.00  0.00     0.198 A 
ATOM     77  C   UNL A   1      45.570  26.055  36.404  1.00  0.00     0.198 A 
ATOM     78  F   UNL A   1      43.412  25.755  35.527  1.00  0.00    -0.203 F 
ATOM     79  F   UNL A   1      48.119  28.509  35.625  1.00  0.00    -0.200 F 
ATOM     80  C   UNL A   1      46.770  26.747  36.434  1.00  0.00     0.200 A 
ATOM     81  F   UNL A   1      45.390  24.993  37.201  1.00  0.00    -0.200 F 
ATOM     82  F   UNL A   1      47.761  26.337  37.237  1.00  0.00    -0.200 F 
ENDBRANCH  49  72
ENDBRANCH  23  24
ENDBRANCH  16  18
ENDBRANCH  15  16
ENDBRANCH  14  15
ENDBRANCH   1  14
TORSDOF 13
ENDMDL
MODEL 3
REMARK VINA RESULT:     -10.9      0.959      1.732
REMARK SMILES N#CNC(=O)[C@H]1C[C@@H]1C(=O)OCCOC(=O)c1ccc(-c2c3nc(c(-c4c(F)c(F)c(F)c(F)c4F)c4ccc([nH]4)c(-c4c(F)c(F)c(F)c(F)c4F)c4nc(c(-c5c(F)c(F)c(F)c(F)c5F)c5ccc2[nH]5)C=C4)C=C3)cc1
REMARK SMILES IDX 12 1 11 2 9 3 10 4 8 5 6 6 7 7 4 8 3 9 5 11 2 12 1 13 13 14
REMARK SMILES IDX 14 15 15 16 16 17 17 18 18 19 79 20 19 21 78 22 20 23 21 24
REMARK SMILES IDX 22 25 72 26 23 27 77 28 71 29 73 30 24 31 76 32 70 33 69 34
REMARK SMILES IDX 25 36 57 37 37 38 56 39 38 40 41 41 55 42 74 43 39 44 40 45
REMARK SMILES IDX 54 47 75 48 42 49 26 50 27 51 35 52 28 53 29 54 33 55 36 56
REMARK SMILES IDX 30 57 31 58 34 59 32 60 58 61 59 62 67 63 60 64 61 65 65 66
REMARK SMILES IDX 68 67 62 68 63 69 66 70 64 71 43 72 44 73 52 74 45 75 46 76
REMARK SMILES IDX 50 77 53 78 47 79 48 80 51 81 49 82
REMARK H PARENT 3 10 73 35 41 46
REMARK Flexibility Score: inf
ROOT
ATOM      1  C   UNL A   1      33.250  28.786  25.204  1.00  0.00     0.274 C 
ENDROOT
BRANCH   1   2
ATOM      2  O   UNL A   1      33.026  27.678  26.103  1.00  0.00    -0.462 OA
BRANCH   2   3
ATOM      3  C   UNL A   1      31.784  27.131  26.097  1.00  0.00     0.309 C 
ATOM      4  O   UNL A   1      31.094  26.911  27.083  1.00  0.00    -0.252 OA
BRANCH   3   5
ATOM      5  C   UNL A   1      31.280  26.873  24.712  1.00  0.00     0.112 C 
ATOM      6  C   UNL A   1      30.168  27.744  24.147  1.00  0.00     0.094 C 
ATOM      7  C   UNL A   1      29.890  26.310  24.533  1.00  0.00     0.030 C 
BRANCH   6   8
ATOM      8  C   UNL A   1      29.961  28.136  22.733  1.00  0.00     0.236 C 
ATOM      9  N   UNL A   1      28.997  29.017  22.351  1.00  0.00    -0.262 N 
ATOM     10  H   UNL A   1      28.971  29.105  21.371  1.00  0.00     0.182 HD
ATOM     11  O   UNL A   1      30.639  27.587  21.869  1.00  0.00    -0.274 OA
BRANCH   9  12
ATOM     12  C   UNL A   1      28.075  29.795  22.924  1.00  0.00     0.183 C 
ATOM     13  N   UNL A   1      27.182  30.327  23.429  1.00  0.00    -0.172 NA
ENDBRANCH   9  12
ENDBRANCH   6   8
ENDBRANCH   3   5
ENDBRANCH   2   3
ENDBRANCH   1   2
BRANCH   1  14
ATOM     14  C   UNL A   1      32.481  30.034  25.662  1.00  0.00     0.275 C 
BRANCH  14  15
ATOM     15  O   UNL A   1      32.691  30.309  27.064  1.00  0.00    -0.458 OA
BRANCH  15  16
ATOM     16  C   UNL A   1      33.395  31.439  27.285  1.00  0.00     0.338 C 
ATOM     17  O   UNL A   1      32.955  32.576  27.275  1.00  0.00    -0.246 OA
BRANCH  16  18
ATOM     18  C   UNL A   1      34.762  31.153  27.743  1.00  0.00     0.060 A 
ATOM     19  C   UNL A   1      35.010  29.863  28.197  1.00  0.00     0.016 A 
ATOM     20  C   UNL A   1      35.704  32.152  27.948  1.00  0.00     0.016 A 
ATOM     21  C   UNL A   1      36.127  29.581  28.969  1.00  0.00     0.010 A 
ATOM     22  C   UNL A   1      36.902  31.835  28.610  1.00  0.00     0.010 A 
ATOM     23  C   UNL A   1      37.112  30.554  29.161  1.00  0.00    -0.014 A 
BRANCH  23  24
ATOM     24  C   UNL A   1      38.348  30.215  29.925  1.00  0.00     0.031 A 
ATOM     25  C   UNL A   1      39.384  29.291  29.344  1.00  0.00     0.074 A 
ATOM     26  C   UNL A   1      38.546  30.741  31.152  1.00  0.00     0.049 A 
ATOM     27  N   UNL A   1      40.446  28.772  29.911  1.00  0.00    -0.248 NA
ATOM     28  C   UNL A   1      39.194  28.885  27.945  1.00  0.00     0.031 C 
ATOM     29  C   UNL A   1      37.649  31.682  31.825  1.00  0.00     0.029 A 
ATOM     30  N   UNL A   1      39.565  30.556  32.055  1.00  0.00    -0.354 N 
ATOM     31  C   UNL A   1      41.019  27.940  28.957  1.00  0.00     0.074 A 
ATOM     32  C   UNL A   1      40.173  28.007  27.783  1.00  0.00     0.031 C 
ATOM     33  C   UNL A   1      38.165  32.013  33.015  1.00  0.00     0.029 A 
ATOM     34  C   UNL A   1      39.373  31.230  33.237  1.00  0.00     0.049 A 
ATOM     35  H   UNL A   1      40.354  29.997  31.875  1.00  0.00     0.167 HD
ATOM     36  C   UNL A   1      42.144  27.188  29.055  1.00  0.00     0.037 A 
ATOM     37  C   UNL A   1      40.054  31.187  34.399  1.00  0.00     0.037 A 
ATOM     38  C   UNL A   1      42.988  27.141  30.224  1.00  0.00     0.049 A 
ATOM     39  C   UNL A   1      41.258  30.299  34.509  1.00  0.00     0.074 A 
ATOM     40  C   UNL A   1      44.166  26.439  30.409  1.00  0.00     0.029 A 
ATOM     41  N   UNL A   1      42.737  27.813  31.413  1.00  0.00    -0.354 N 
ATOM     42  N   UNL A   1      41.790  29.512  33.605  1.00  0.00    -0.248 NA
ATOM     43  C   UNL A   1      41.953  30.286  35.802  1.00  0.00     0.031 C 
ATOM     44  C   UNL A   1      44.580  26.617  31.734  1.00  0.00     0.029 A 
ATOM     45  C   UNL A   1      43.714  27.506  32.350  1.00  0.00     0.049 A 
ATOM     46  H   UNL A   1      41.977  28.419  31.569  1.00  0.00     0.167 HD
ATOM     47  C   UNL A   1      42.897  28.932  34.209  1.00  0.00     0.074 A 
ATOM     48  C   UNL A   1      42.966  29.468  35.551  1.00  0.00     0.031 C 
ATOM     49  C   UNL A   1      43.775  28.037  33.690  1.00  0.00     0.037 A 
BRANCH  36  50
ATOM     50  C   UNL A   1      42.489  26.303  27.886  1.00  0.00     0.064 A 
ATOM     51  C   UNL A   1      43.411  26.684  26.898  1.00  0.00     0.173 A 
ATOM     52  C   UNL A   1      41.878  25.046  27.752  1.00  0.00     0.173 A 
ATOM     53  F   UNL A   1      44.025  27.876  26.969  1.00  0.00    -0.203 F 
ATOM     54  C   UNL A   1      43.659  25.872  25.794  1.00  0.00     0.198 A 
ATOM     55  C   UNL A   1      42.163  24.216  26.670  1.00  0.00     0.198 A 
ATOM     56  F   UNL A   1      41.000  24.617  28.671  1.00  0.00    -0.203 F 
ATOM     57  F   UNL A   1      44.479  26.297  24.822  1.00  0.00    -0.200 F 
ATOM     58  C   UNL A   1      43.038  24.637  25.682  1.00  0.00     0.200 A 
ATOM     59  F   UNL A   1      41.578  23.013  26.578  1.00  0.00    -0.200 F 
ATOM     60  F   UNL A   1      43.275  23.858  24.618  1.00  0.00    -0.200 F 
ENDBRANCH  36  50
BRANCH  37  61
ATOM     61  C   UNL A   1      39.573  31.989  35.556  1.00  0.00     0.064 A 
ATOM     62  C   UNL A   1      40.024  33.297  35.768  1.00  0.00     0.173 A 
ATOM     63  C   UNL A   1      38.624  31.473  36.453  1.00  0.00     0.173 A 
ATOM     64  F   UNL A   1      40.948  33.828  34.954  1.00  0.00    -0.203 F 
ATOM     65  C   UNL A   1      39.548  34.058  36.835  1.00  0.00     0.198 A 
ATOM     66  C   UNL A   1      38.121  32.246  37.495  1.00  0.00     0.198 A 
ATOM     67  F   UNL A   1      38.156  30.226  36.291  1.00  0.00    -0.203 F 
ATOM     68  F   UNL A   1      40.023  35.294  37.039  1.00  0.00    -0.200 F 
ATOM     69  C   UNL A   1      38.589  33.535  37.690  1.00  0.00     0.200 A 
ATOM     70  F   UNL A   1      37.178  31.745  38.304  1.00  0.00    -0.200 F 
ATOM     71  F   UNL A   1      38.117  34.275  38.703  1.00  0.00    -0.200 F 
ENDBRANCH  37  61
BRANCH  49  72
ATOM     72  C   UNL A   1      44.922  27.613  34.566  1.00  0.00     0.064 A 
ATOM     73  C   UNL A   1      46.128  28.329  34.616  1.00  0.00     0.173 A 
ATOM     74  C   UNL A   1      44.800  26.483  35.391  1.00  0.00     0.173 A 
ATOM     75  F   UNL A   1      46.307  29.407  33.838  1.00  0.00    -0.203 F 
ATOM     76  C   UNL A   1      47.177  27.910  35.431  1.00  0.00     0.198 A 
ATOM     77  C   UNL A   1      45.834  26.093  36.236  1.00  0.00     0.198 A 
ATOM     78  F   UNL A   1      43.668  25.763  35.390  1.00  0.00    -0.203 F 
ATOM     79  F   UNL A   1      48.342  28.575  35.414  1.00  0.00    -0.200 F 
ATOM     80  C   UNL A   1      47.026  26.800  36.247  1.00  0.00     0.200 A 
ATOM     81  F   UNL A   1      45.678  25.031  37.039  1.00  0.00    -0.200 F 
ATOM     82  F   UNL A   1      48.033  26.405  37.038  1.00  0.00    -0.200 F 
ENDBRANCH  49  72
ENDBRANCH  23  24
ENDBRANCH  16  18
ENDBRANCH  15  16
ENDBRANCH  14  15
ENDBRANCH   1  14
TORSDOF 13
ENDMDL
