MODEL 1
REMARK VINA RESULT:     -10.6      0.000      0.000
REMARK SMILES C[C@H]1CC[C@@](CCOCCO)(C(=O)OCCOC(=O)c2ccc(-c3c4nc(c(-c5c(F)c(F)c(F)c(F)c5F)c5ccc([nH]5)c(-c5c(F)c(F)c(F)c(F)c5F)c5nc(c(-c6c(F)c(F)c(F)c(F)c6F)c6ccc3[nH]6)C=C5)C=C4)cc2)C1
REMARK SMILES IDX 12 1 13 2 5 3 1 4 2 5 3 6 83 7 4 8 6 9 7 10 8 11 9 12 10 13
REMARK SMILES IDX 11 14 14 16 15 17 16 18 17 19 18 20 19 21 20 22 21 23 82 24
REMARK SMILES IDX 22 25 81 26 23 27 24 28 25 29 75 30 26 31 80 32 74 33 76 34
REMARK SMILES IDX 27 35 79 36 73 37 72 38 28 40 60 41 40 42 59 43 41 44 44 45
REMARK SMILES IDX 58 46 77 47 42 48 43 49 57 51 78 52 45 53 29 54 30 55 38 56
REMARK SMILES IDX 31 57 32 58 36 59 39 60 33 61 34 62 37 63 35 64 61 65 62 66
REMARK SMILES IDX 70 67 63 68 64 69 68 70 71 71 65 72 66 73 69 74 67 75 46 76
REMARK SMILES IDX 47 77 55 78 48 79 49 80 53 81 56 82 50 83 51 84 54 85 52 86
REMARK H PARENT 11 15 76 39 44 50
REMARK Flexibility Score: inf
ROOT
ATOM      1  C   UNL A   1      34.295  22.951  23.385  1.00  0.00     0.312 C 
ATOM      2  O   UNL A   1      34.448  23.482  22.290  1.00  0.00    -0.252 OA
ENDROOT
BRANCH   1   3
ATOM      3  C   UNL A   1      32.939  22.400  23.865  1.00  0.00     0.070 C 
ATOM      4  C   UNL A   1      30.669  24.160  26.413  1.00  0.00     0.007 C 
ATOM      5  C   UNL A   1      31.134  23.195  25.335  1.00  0.00    -0.013 C 
ATOM      6  C   UNL A   1      30.824  23.704  23.940  1.00  0.00     0.004 C 
ATOM      7  C   UNL A   1      32.649  22.995  25.282  1.00  0.00     0.022 C 
ATOM      8  C   UNL A   1      31.704  22.853  23.037  1.00  0.00     0.019 C 
BRANCH   3   9
ATOM      9  C   UNL A   1      33.096  20.858  23.996  1.00  0.00     0.047 C 
BRANCH   9  10
ATOM     10  C   UNL A   1      32.535  20.152  25.235  1.00  0.00     0.161 C 
BRANCH  10  11
ATOM     11  O   UNL A   1      32.225  18.781  25.040  1.00  0.00    -0.379 OA
BRANCH  11  12
ATOM     12  C   UNL A   1      32.652  18.199  23.806  1.00  0.00     0.188 C 
BRANCH  12  13
ATOM     13  C   UNL A   1      33.279  16.809  23.913  1.00  0.00     0.184 C 
BRANCH  13  14
ATOM     14  O   UNL A   1      34.029  16.466  22.751  1.00  0.00    -0.394 OA
ATOM     15  H   UNL A   1      34.540  17.236  22.457  1.00  0.00     0.210 HD
ENDBRANCH  13  14
ENDBRANCH  12  13
ENDBRANCH  11  12
ENDBRANCH  10  11
ENDBRANCH   9  10
ENDBRANCH   3   9
ENDBRANCH   1   3
BRANCH   1  16
ATOM     16  O   UNL A   1      35.285  22.803  24.301  1.00  0.00    -0.462 OA
BRANCH  16  17
ATOM     17  C   UNL A   1      36.591  22.429  23.814  1.00  0.00     0.274 C 
BRANCH  17  18
ATOM     18  C   UNL A   1      37.110  21.243  24.626  1.00  0.00     0.275 C 
BRANCH  18  19
ATOM     19  O   UNL A   1      37.656  21.756  25.853  1.00  0.00    -0.458 OA
BRANCH  19  20
ATOM     20  C   UNL A   1      38.922  21.387  26.138  1.00  0.00     0.338 C 
ATOM     21  O   UNL A   1      39.480  20.330  25.898  1.00  0.00    -0.246 OA
BRANCH  20  22
ATOM     22  C   UNL A   1      39.611  22.581  26.638  1.00  0.00     0.060 A 
ATOM     23  C   UNL A   1      39.187  23.816  26.148  1.00  0.00     0.016 A 
ATOM     24  C   UNL A   1      40.680  22.496  27.525  1.00  0.00     0.016 A 
ATOM     25  C   UNL A   1      39.859  24.978  26.501  1.00  0.00     0.010 A 
ATOM     26  C   UNL A   1      41.318  23.674  27.926  1.00  0.00     0.010 A 
ATOM     27  C   UNL A   1      40.929  24.924  27.401  1.00  0.00    -0.014 A 
BRANCH  27  28
ATOM     28  C   UNL A   1      41.686  26.158  27.732  1.00  0.00     0.031 A 
ATOM     29  C   UNL A   1      41.041  27.209  28.589  1.00  0.00     0.074 A 
ATOM     30  C   UNL A   1      42.951  26.333  27.303  1.00  0.00     0.049 A 
ATOM     31  N   UNL A   1      41.409  28.444  28.808  1.00  0.00    -0.248 NA
ATOM     32  C   UNL A   1      39.803  26.817  29.281  1.00  0.00     0.031 C 
ATOM     33  C   UNL A   1      43.729  25.361  26.535  1.00  0.00     0.029 A 
ATOM     34  N   UNL A   1      43.808  27.395  27.459  1.00  0.00    -0.354 N 
ATOM     35  C   UNL A   1      40.412  28.999  29.599  1.00  0.00     0.074 A 
ATOM     36  C   UNL A   1      39.433  27.961  29.839  1.00  0.00     0.031 C 
ATOM     37  C   UNL A   1      44.956  25.858  26.312  1.00  0.00     0.029 A 
ATOM     38  C   UNL A   1      45.022  27.215  26.844  1.00  0.00     0.049 A 
ATOM     39  H   UNL A   1      43.572  28.207  27.963  1.00  0.00     0.167 HD
ATOM     40  C   UNL A   1      40.322  30.266  30.068  1.00  0.00     0.037 A 
ATOM     41  C   UNL A   1      46.054  28.065  26.687  1.00  0.00     0.037 A 
ATOM     42  C   UNL A   1      41.334  31.271  29.875  1.00  0.00     0.049 A 
ATOM     43  C   UNL A   1      45.935  29.467  27.218  1.00  0.00     0.074 A 
ATOM     44  C   UNL A   1      41.332  32.593  30.286  1.00  0.00     0.029 A 
ATOM     45  N   UNL A   1      42.547  31.051  29.240  1.00  0.00    -0.354 N 
ATOM     46  N   UNL A   1      44.939  30.025  27.863  1.00  0.00    -0.248 NA
ATOM     47  C   UNL A   1      47.071  30.367  26.974  1.00  0.00     0.031 C 
ATOM     48  C   UNL A   1      42.539  33.178  29.883  1.00  0.00     0.029 A 
ATOM     49  C   UNL A   1      43.304  32.211  29.251  1.00  0.00     0.049 A 
ATOM     50  H   UNL A   1      42.828  30.197  28.838  1.00  0.00     0.167 HD
ATOM     51  C   UNL A   1      45.324  31.335  28.101  1.00  0.00     0.074 A 
ATOM     52  C   UNL A   1      46.658  31.485  27.556  1.00  0.00     0.031 C 
ATOM     53  C   UNL A   1      44.631  32.333  28.703  1.00  0.00     0.037 A 
BRANCH  40  54
ATOM     54  C   UNL A   1      39.063  30.646  30.788  1.00  0.00     0.064 A 
ATOM     55  C   UNL A   1      37.941  31.144  30.114  1.00  0.00     0.173 A 
ATOM     56  C   UNL A   1      38.982  30.497  32.181  1.00  0.00     0.173 A 
ATOM     57  F   UNL A   1      37.977  31.325  28.785  1.00  0.00    -0.203 F 
ATOM     58  C   UNL A   1      36.789  31.503  30.811  1.00  0.00     0.198 A 
ATOM     59  C   UNL A   1      37.820  30.833  32.872  1.00  0.00     0.198 A 
ATOM     60  F   UNL A   1      40.029  30.024  32.874  1.00  0.00    -0.203 F 
ATOM     61  F   UNL A   1      35.744  32.022  30.153  1.00  0.00    -0.200 F 
ATOM     62  C   UNL A   1      36.728  31.341  32.187  1.00  0.00     0.200 A 
ATOM     63  F   UNL A   1      37.761  30.667  34.201  1.00  0.00    -0.200 F 
ATOM     64  F   UNL A   1      35.619  31.685  32.856  1.00  0.00    -0.200 F 
ENDBRANCH  40  54
BRANCH  41  65
ATOM     65  C   UNL A   1      47.268  27.626  25.952  1.00  0.00     0.064 A 
ATOM     66  C   UNL A   1      48.381  27.117  26.635  1.00  0.00     0.173 A 
ATOM     67  C   UNL A   1      47.336  27.692  24.552  1.00  0.00     0.173 A 
ATOM     68  F   UNL A   1      48.375  27.062  27.975  1.00  0.00    -0.203 F 
ATOM     69  C   UNL A   1      49.517  26.695  25.946  1.00  0.00     0.198 A 
ATOM     70  C   UNL A   1      48.461  27.242  23.863  1.00  0.00     0.198 A 
ATOM     71  F   UNL A   1      46.299  28.175  23.851  1.00  0.00    -0.203 F 
ATOM     72  F   UNL A   1      50.581  26.246  26.626  1.00  0.00    -0.200 F 
ATOM     73  C   UNL A   1      49.552  26.749  24.560  1.00  0.00     0.200 A 
ATOM     74  F   UNL A   1      48.484  27.284  22.524  1.00  0.00    -0.200 F 
ATOM     75  F   UNL A   1      50.639  26.331  23.899  1.00  0.00    -0.200 F 
ENDBRANCH  41  65
BRANCH  53  76
ATOM     76  C   UNL A   1      45.311  33.662  28.816  1.00  0.00     0.064 A 
ATOM     77  C   UNL A   1      46.141  33.966  29.905  1.00  0.00     0.173 A 
ATOM     78  C   UNL A   1      45.157  34.628  27.811  1.00  0.00     0.173 A 
ATOM     79  F   UNL A   1      46.304  33.078  30.897  1.00  0.00    -0.203 F 
ATOM     80  C   UNL A   1      46.777  35.200  29.993  1.00  0.00     0.198 A 
ATOM     81  C   UNL A   1      45.812  35.853  27.893  1.00  0.00     0.198 A 
ATOM     82  F   UNL A   1      44.375  34.381  26.750  1.00  0.00    -0.203 F 
ATOM     83  F   UNL A   1      47.537  35.486  31.059  1.00  0.00    -0.200 F 
ATOM     84  C   UNL A   1      46.617  36.140  28.985  1.00  0.00     0.200 A 
ATOM     85  F   UNL A   1      45.662  36.758  26.915  1.00  0.00    -0.200 F 
ATOM     86  F   UNL A   1      47.233  37.328  29.071  1.00  0.00    -0.200 F 
ENDBRANCH  53  76
ENDBRANCH  27  28
ENDBRANCH  20  22
ENDBRANCH  19  20
ENDBRANCH  18  19
ENDBRANCH  17  18
ENDBRANCH  16  17
ENDBRANCH   1  16
TORSDOF 17
ENDMDL
MODEL 2
REMARK VINA RESULT:     -10.6      4.655      9.807
REMARK SMILES C[C@H]1CC[C@@](CCOCCO)(C(=O)OCCOC(=O)c2ccc(-c3c4nc(c(-c5c(F)c(F)c(F)c(F)c5F)c5ccc([nH]5)c(-c5c(F)c(F)c(F)c(F)c5F)c5nc(c(-c6c(F)c(F)c(F)c(F)c6F)c6ccc3[nH]6)C=C5)C=C4)cc2)C1
REMARK SMILES IDX 12 1 13 2 5 3 1 4 2 5 3 6 83 7 4 8 6 9 7 10 8 11 9 12 10 13
REMARK SMILES IDX 11 14 14 16 15 17 16 18 17 19 18 20 19 21 20 22 21 23 82 24
REMARK SMILES IDX 22 25 81 26 23 27 24 28 25 29 75 30 26 31 80 32 74 33 76 34
REMARK SMILES IDX 27 35 79 36 73 37 72 38 28 40 60 41 40 42 59 43 41 44 44 45
REMARK SMILES IDX 58 46 77 47 42 48 43 49 57 51 78 52 45 53 29 54 30 55 38 56
REMARK SMILES IDX 31 57 32 58 36 59 39 60 33 61 34 62 37 63 35 64 61 65 62 66
REMARK SMILES IDX 70 67 63 68 64 69 68 70 71 71 65 72 66 73 69 74 67 75 46 76
REMARK SMILES IDX 47 77 55 78 48 79 49 80 53 81 56 82 50 83 51 84 54 85 52 86
REMARK H PARENT 11 15 76 39 44 50
REMARK Flexibility Score: inf
ROOT
ATOM      1  C   UNL A   1      33.425  27.103  23.266  1.00  0.00     0.312 C 
ATOM      2  O   UNL A   1      33.631  27.042  22.058  1.00  0.00    -0.252 OA
ENDROOT
BRANCH   1   3
ATOM      3  C   UNL A   1      33.136  25.861  24.129  1.00  0.00     0.070 C 
ATOM      4  C   UNL A   1      35.119  22.578  23.927  1.00  0.00     0.007 C 
ATOM      5  C   UNL A   1      34.172  23.650  24.439  1.00  0.00    -0.013 C 
ATOM      6  C   UNL A   1      34.850  24.595  25.411  1.00  0.00     0.004 C 
ATOM      7  C   UNL A   1      33.658  24.604  23.359  1.00  0.00     0.022 C 
ATOM      8  C   UNL A   1      33.910  25.791  25.476  1.00  0.00     0.019 C 
BRANCH   3   9
ATOM      9  C   UNL A   1      31.591  25.753  24.269  1.00  0.00     0.047 C 
BRANCH   9  10
ATOM     10  C   UNL A   1      30.931  26.140  25.597  1.00  0.00     0.161 C 
BRANCH  10  11
ATOM     11  O   UNL A   1      30.554  25.039  26.408  1.00  0.00    -0.379 OA
BRANCH  11  12
ATOM     12  C   UNL A   1      30.570  23.752  25.787  1.00  0.00     0.188 C 
BRANCH  12  13
ATOM     13  C   UNL A   1      30.608  22.557  26.740  1.00  0.00     0.184 C 
BRANCH  13  14
ATOM     14  O   UNL A   1      29.725  22.723  27.846  1.00  0.00    -0.394 OA
ATOM     15  H   UNL A   1      28.876  22.296  27.649  1.00  0.00     0.210 HD
ENDBRANCH  13  14
ENDBRANCH  12  13
ENDBRANCH  11  12
ENDBRANCH  10  11
ENDBRANCH   9  10
ENDBRANCH   3   9
ENDBRANCH   1   3
BRANCH   1  16
ATOM     16  O   UNL A   1      33.410  28.260  23.974  1.00  0.00    -0.462 OA
BRANCH  16  17
ATOM     17  C   UNL A   1      32.206  29.054  23.928  1.00  0.00     0.274 C 
BRANCH  17  18
ATOM     18  C   UNL A   1      32.014  29.758  25.271  1.00  0.00     0.275 C 
BRANCH  18  19
ATOM     19  O   UNL A   1      33.309  30.176  25.735  1.00  0.00    -0.458 OA
BRANCH  19  20
ATOM     20  C   UNL A   1      33.317  31.001  26.804  1.00  0.00     0.338 C 
ATOM     21  O   UNL A   1      32.403  31.664  27.261  1.00  0.00    -0.246 OA
BRANCH  20  22
ATOM     22  C   UNL A   1      34.611  30.821  27.470  1.00  0.00     0.060 A 
ATOM     23  C   UNL A   1      34.966  29.523  27.838  1.00  0.00     0.016 A 
ATOM     24  C   UNL A   1      35.436  31.897  27.776  1.00  0.00     0.016 A 
ATOM     25  C   UNL A   1      36.128  29.292  28.561  1.00  0.00     0.010 A 
ATOM     26  C   UNL A   1      36.636  31.656  28.452  1.00  0.00     0.010 A 
ATOM     27  C   UNL A   1      36.983  30.355  28.871  1.00  0.00    -0.014 A 
BRANCH  27  28
ATOM     28  C   UNL A   1      38.196  30.118  29.696  1.00  0.00     0.031 A 
ATOM     29  C   UNL A   1      39.322  29.302  29.130  1.00  0.00     0.074 A 
ATOM     30  C   UNL A   1      38.312  30.649  30.928  1.00  0.00     0.049 A 
ATOM     31  N   UNL A   1      40.354  28.776  29.736  1.00  0.00    -0.248 NA
ATOM     32  C   UNL A   1      39.269  29.031  27.685  1.00  0.00     0.031 C 
ATOM     33  C   UNL A   1      37.334  31.528  31.570  1.00  0.00     0.029 A 
ATOM     34  N   UNL A   1      39.313  30.529  31.861  1.00  0.00    -0.354 N 
ATOM     35  C   UNL A   1      41.030  28.050  28.765  1.00  0.00     0.074 A 
ATOM     36  C   UNL A   1      40.304  28.219  27.525  1.00  0.00     0.031 C 
ATOM     37  C   UNL A   1      37.796  31.891  32.777  1.00  0.00     0.029 A 
ATOM     38  C   UNL A   1      39.057  31.202  33.030  1.00  0.00     0.049 A 
ATOM     39  H   UNL A   1      40.134  30.009  31.706  1.00  0.00     0.167 HD
ATOM     40  C   UNL A   1      42.150  27.300  28.906  1.00  0.00     0.037 A 
ATOM     41  C   UNL A   1      39.739  31.225  34.191  1.00  0.00     0.037 A 
ATOM     42  C   UNL A   1      42.898  27.192  30.131  1.00  0.00     0.049 A 
ATOM     43  C   UNL A   1      40.981  30.388  34.326  1.00  0.00     0.074 A 
ATOM     44  C   UNL A   1      44.031  26.440  30.390  1.00  0.00     0.029 A 
ATOM     45  N   UNL A   1      42.601  27.884  31.296  1.00  0.00    -0.354 N 
ATOM     46  N   UNL A   1      41.552  29.607  33.440  1.00  0.00    -0.248 NA
ATOM     47  C   UNL A   1      41.657  30.411  35.631  1.00  0.00     0.031 C 
ATOM     48  C   UNL A   1      44.410  26.665  31.719  1.00  0.00     0.029 A 
ATOM     49  C   UNL A   1      43.532  27.582  32.276  1.00  0.00     0.049 A 
ATOM     50  H   UNL A   1      41.840  28.499  31.410  1.00  0.00     0.167 HD
ATOM     51  C   UNL A   1      42.649  29.047  34.077  1.00  0.00     0.074 A 
ATOM     52  C   UNL A   1      42.683  29.598  35.416  1.00  0.00     0.031 C 
ATOM     53  C   UNL A   1      43.543  28.145  33.601  1.00  0.00     0.037 A 
BRANCH  40  54
ATOM     54  C   UNL A   1      42.598  26.501  27.720  1.00  0.00     0.064 A 
ATOM     55  C   UNL A   1      42.070  25.235  27.432  1.00  0.00     0.173 A 
ATOM     56  C   UNL A   1      43.569  27.022  26.851  1.00  0.00     0.173 A 
ATOM     57  F   UNL A   1      41.155  24.685  28.244  1.00  0.00    -0.203 F 
ATOM     58  C   UNL A   1      42.516  24.509  26.330  1.00  0.00     0.198 A 
ATOM     59  C   UNL A   1      43.994  26.304  25.736  1.00  0.00     0.198 A 
ATOM     60  F   UNL A   1      44.106  28.230  27.082  1.00  0.00    -0.203 F 
ATOM     61  F   UNL A   1      42.033  23.280  26.100  1.00  0.00    -0.200 F 
ATOM     62  C   UNL A   1      43.472  25.045  25.481  1.00  0.00     0.200 A 
ATOM     63  F   UNL A   1      44.912  26.829  24.912  1.00  0.00    -0.200 F 
ATOM     64  F   UNL A   1      43.898  24.346  24.421  1.00  0.00    -0.200 F 
ENDBRANCH  40  54
BRANCH  41  65
ATOM     65  C   UNL A   1      39.231  32.031  35.330  1.00  0.00     0.064 A 
ATOM     66  C   UNL A   1      38.453  31.446  36.338  1.00  0.00     0.173 A 
ATOM     67  C   UNL A   1      39.524  33.399  35.442  1.00  0.00     0.173 A 
ATOM     68  F   UNL A   1      38.122  30.149  36.260  1.00  0.00    -0.203 F 
ATOM     69  C   UNL A   1      37.984  32.200  37.413  1.00  0.00     0.198 A 
ATOM     70  C   UNL A   1      39.079  34.144  36.532  1.00  0.00     0.198 A 
ATOM     71  F   UNL A   1      40.261  34.007  34.501  1.00  0.00    -0.203 F 
ATOM     72  F   UNL A   1      37.213  31.624  38.346  1.00  0.00    -0.200 F 
ATOM     73  C   UNL A   1      38.305  33.546  37.514  1.00  0.00     0.200 A 
ATOM     74  F   UNL A   1      39.403  35.441  36.631  1.00  0.00    -0.200 F 
ATOM     75  F   UNL A   1      37.864  34.266  38.554  1.00  0.00    -0.200 F 
ENDBRANCH  41  65
BRANCH  53  76
ATOM     76  C   UNL A   1      44.636  27.715  34.531  1.00  0.00     0.064 A 
ATOM     77  C   UNL A   1      45.840  28.428  34.619  1.00  0.00     0.173 A 
ATOM     78  C   UNL A   1      44.464  26.600  35.363  1.00  0.00     0.173 A 
ATOM     79  F   UNL A   1      46.054  29.493  33.831  1.00  0.00    -0.203 F 
ATOM     80  C   UNL A   1      46.843  28.027  35.496  1.00  0.00     0.198 A 
ATOM     81  C   UNL A   1      45.462  26.214  36.253  1.00  0.00     0.198 A 
ATOM     82  F   UNL A   1      43.328  25.889  35.314  1.00  0.00    -0.203 F 
ATOM     83  F   UNL A   1      48.002  28.699  35.539  1.00  0.00    -0.200 F 
ATOM     84  C   UNL A   1      46.652  26.923  36.315  1.00  0.00     0.200 A 
ATOM     85  F   UNL A   1      45.273  25.152  37.049  1.00  0.00    -0.200 F 
ATOM     86  F   UNL A   1      47.619  26.539  37.160  1.00  0.00    -0.200 F 
ENDBRANCH  53  76
ENDBRANCH  27  28
ENDBRANCH  20  22
ENDBRANCH  19  20
ENDBRANCH  18  19
ENDBRANCH  17  18
ENDBRANCH  16  17
ENDBRANCH   1  16
TORSDOF 17
ENDMDL
MODEL 3
REMARK VINA RESULT:     -10.6      4.632      9.773
REMARK SMILES C[C@H]1CC[C@@](CCOCCO)(C(=O)OCCOC(=O)c2ccc(-c3c4nc(c(-c5c(F)c(F)c(F)c(F)c5F)c5ccc([nH]5)c(-c5c(F)c(F)c(F)c(F)c5F)c5nc(c(-c6c(F)c(F)c(F)c(F)c6F)c6ccc3[nH]6)C=C5)C=C4)cc2)C1
REMARK SMILES IDX 12 1 13 2 5 3 1 4 2 5 3 6 83 7 4 8 6 9 7 10 8 11 9 12 10 13
REMARK SMILES IDX 11 14 14 16 15 17 16 18 17 19 18 20 19 21 20 22 21 23 82 24
REMARK SMILES IDX 22 25 81 26 23 27 24 28 25 29 75 30 26 31 80 32 74 33 76 34
REMARK SMILES IDX 27 35 79 36 73 37 72 38 28 40 60 41 40 42 59 43 41 44 44 45
REMARK SMILES IDX 58 46 77 47 42 48 43 49 57 51 78 52 45 53 29 54 30 55 38 56
REMARK SMILES IDX 31 57 32 58 36 59 39 60 33 61 34 62 37 63 35 64 61 65 62 66
REMARK SMILES IDX 70 67 63 68 64 69 68 70 71 71 65 72 66 73 69 74 67 75 46 76
REMARK SMILES IDX 47 77 55 78 48 79 49 80 53 81 56 82 50 83 51 84 54 85 52 86
REMARK H PARENT 11 15 76 39 44 50
REMARK Flexibility Score: inf
ROOT
ATOM      1  C   UNL A   1      33.476  27.307  22.968  1.00  0.00     0.312 C 
ATOM      2  O   UNL A   1      33.692  27.324  21.761  1.00  0.00    -0.252 OA
ENDROOT
BRANCH   1   3
ATOM      3  C   UNL A   1      33.206  26.010  23.752  1.00  0.00     0.070 C 
ATOM      4  C   UNL A   1      35.581  22.993  23.827  1.00  0.00     0.007 C 
ATOM      5  C   UNL A   1      34.440  23.927  24.193  1.00  0.00    -0.013 C 
ATOM      6  C   UNL A   1      34.831  24.910  25.279  1.00  0.00     0.004 C 
ATOM      7  C   UNL A   1      33.995  24.851  23.059  1.00  0.00     0.022 C 
ATOM      8  C   UNL A   1      33.754  25.983  25.207  1.00  0.00     0.019 C 
BRANCH   3   9
ATOM      9  C   UNL A   1      31.683  25.715  23.633  1.00  0.00     0.047 C 
BRANCH   9  10
ATOM     10  C   UNL A   1      30.750  26.124  24.778  1.00  0.00     0.161 C 
BRANCH  10  11
ATOM     11  O   UNL A   1      30.055  25.046  25.384  1.00  0.00    -0.379 OA
BRANCH  11  12
ATOM     12  C   UNL A   1      30.807  23.853  25.622  1.00  0.00     0.188 C 
BRANCH  12  13
ATOM     13  C   UNL A   1      30.324  22.987  26.785  1.00  0.00     0.184 C 
BRANCH  13  14
ATOM     14  O   UNL A   1      31.394  22.583  27.635  1.00  0.00    -0.394 OA
ATOM     15  H   UNL A   1      31.757  21.740  27.319  1.00  0.00     0.210 HD
ENDBRANCH  13  14
ENDBRANCH  12  13
ENDBRANCH  11  12
ENDBRANCH  10  11
ENDBRANCH   9  10
ENDBRANCH   3   9
ENDBRANCH   1   3
BRANCH   1  16
ATOM     16  O   UNL A   1      33.433  28.419  23.746  1.00  0.00    -0.462 OA
BRANCH  16  17
ATOM     17  C   UNL A   1      32.182  29.133  23.817  1.00  0.00     0.274 C 
BRANCH  17  18
ATOM     18  C   UNL A   1      31.995  29.683  25.231  1.00  0.00     0.275 C 
BRANCH  18  19
ATOM     19  O   UNL A   1      33.295  30.012  25.748  1.00  0.00    -0.458 OA
BRANCH  19  20
ATOM     20  C   UNL A   1      33.319  30.872  26.788  1.00  0.00     0.338 C 
ATOM     21  O   UNL A   1      32.413  31.559  27.229  1.00  0.00    -0.246 OA
BRANCH  20  22
ATOM     22  C   UNL A   1      34.616  30.704  27.450  1.00  0.00     0.060 A 
ATOM     23  C   UNL A   1      35.002  29.405  27.779  1.00  0.00     0.016 A 
ATOM     24  C   UNL A   1      35.415  31.791  27.790  1.00  0.00     0.016 A 
ATOM     25  C   UNL A   1      36.168  29.180  28.497  1.00  0.00     0.010 A 
ATOM     26  C   UNL A   1      36.620  31.558  28.460  1.00  0.00     0.010 A 
ATOM     27  C   UNL A   1      36.997  30.253  28.840  1.00  0.00    -0.014 A 
BRANCH  27  28
ATOM     28  C   UNL A   1      38.215  30.021  29.659  1.00  0.00     0.031 A 
ATOM     29  C   UNL A   1      39.337  29.202  29.091  1.00  0.00     0.074 A 
ATOM     30  C   UNL A   1      38.339  30.560  30.887  1.00  0.00     0.049 A 
ATOM     31  N   UNL A   1      40.373  28.679  29.695  1.00  0.00    -0.248 NA
ATOM     32  C   UNL A   1      39.276  28.921  27.648  1.00  0.00     0.031 C 
ATOM     33  C   UNL A   1      37.365  31.444  31.529  1.00  0.00     0.029 A 
ATOM     34  N   UNL A   1      39.345  30.446  31.815  1.00  0.00    -0.354 N 
ATOM     35  C   UNL A   1      41.043  27.946  28.725  1.00  0.00     0.074 A 
ATOM     36  C   UNL A   1      40.310  28.108  27.488  1.00  0.00     0.031 C 
ATOM     37  C   UNL A   1      37.834  31.815  32.731  1.00  0.00     0.029 A 
ATOM     38  C   UNL A   1      39.097  31.127  32.981  1.00  0.00     0.049 A 
ATOM     39  H   UNL A   1      40.166  29.925  31.658  1.00  0.00     0.167 HD
ATOM     40  C   UNL A   1      42.163  27.197  28.864  1.00  0.00     0.037 A 
ATOM     41  C   UNL A   1      39.786  31.156  34.138  1.00  0.00     0.037 A 
ATOM     42  C   UNL A   1      42.918  27.096  30.085  1.00  0.00     0.049 A 
ATOM     43  C   UNL A   1      41.028  30.320  34.271  1.00  0.00     0.074 A 
ATOM     44  C   UNL A   1      44.053  26.345  30.342  1.00  0.00     0.029 A 
ATOM     45  N   UNL A   1      42.629  27.796  31.247  1.00  0.00    -0.354 N 
ATOM     46  N   UNL A   1      41.593  29.534  33.387  1.00  0.00    -0.248 NA
ATOM     47  C   UNL A   1      41.712  30.351  35.571  1.00  0.00     0.031 C 
ATOM     48  C   UNL A   1      44.440  26.579  31.668  1.00  0.00     0.029 A 
ATOM     49  C   UNL A   1      43.565  27.499  32.224  1.00  0.00     0.049 A 
ATOM     50  H   UNL A   1      41.869  28.412  31.362  1.00  0.00     0.167 HD
ATOM     51  C   UNL A   1      42.694  28.977  34.020  1.00  0.00     0.074 A 
ATOM     52  C   UNL A   1      42.736  29.536  35.355  1.00  0.00     0.031 C 
ATOM     53  C   UNL A   1      43.585  28.071  33.545  1.00  0.00     0.037 A 
BRANCH  40  54
ATOM     54  C   UNL A   1      42.603  26.389  27.680  1.00  0.00     0.064 A 
ATOM     55  C   UNL A   1      43.575  26.852  26.783  1.00  0.00     0.173 A 
ATOM     56  C   UNL A   1      42.045  25.122  27.451  1.00  0.00     0.173 A 
ATOM     57  F   UNL A   1      44.122  28.065  26.947  1.00  0.00    -0.203 F 
ATOM     58  C   UNL A   1      43.954  26.085  25.683  1.00  0.00     0.198 A 
ATOM     59  C   UNL A   1      42.445  24.348  26.365  1.00  0.00     0.198 A 
ATOM     60  F   UNL A   1      41.111  24.633  28.281  1.00  0.00    -0.203 F 
ATOM     61  F   UNL A   1      44.850  26.567  24.810  1.00  0.00    -0.200 F 
ATOM     62  C   UNL A   1      43.394  24.833  25.479  1.00  0.00     0.200 A 
ATOM     63  F   UNL A   1      41.909  23.134  26.175  1.00  0.00    -0.200 F 
ATOM     64  F   UNL A   1      43.762  24.097  24.421  1.00  0.00    -0.200 F 
ENDBRANCH  40  54
BRANCH  41  65
ATOM     65  C   UNL A   1      39.285  31.970  35.275  1.00  0.00     0.064 A 
ATOM     66  C   UNL A   1      39.588  33.335  35.374  1.00  0.00     0.173 A 
ATOM     67  C   UNL A   1      38.483  31.405  36.278  1.00  0.00     0.173 A 
ATOM     68  F   UNL A   1      40.375  33.914  34.457  1.00  0.00    -0.203 F 
ATOM     69  C   UNL A   1      39.111  34.102  36.436  1.00  0.00     0.198 A 
ATOM     70  C   UNL A   1      37.982  32.179  37.323  1.00  0.00     0.198 A 
ATOM     71  F   UNL A   1      38.168  30.102  36.231  1.00  0.00    -0.203 F 
ATOM     72  F   UNL A   1      39.444  35.397  36.527  1.00  0.00    -0.200 F 
ATOM     73  C   UNL A   1      38.300  33.526  37.404  1.00  0.00     0.200 A 
ATOM     74  F   UNL A   1      37.190  31.620  38.247  1.00  0.00    -0.200 F 
ATOM     75  F   UNL A   1      37.832  34.267  38.417  1.00  0.00    -0.200 F 
ENDBRANCH  41  65
BRANCH  53  76
ATOM     76  C   UNL A   1      44.683  27.647  34.471  1.00  0.00     0.064 A 
ATOM     77  C   UNL A   1      44.550  26.516  35.290  1.00  0.00     0.173 A 
ATOM     78  C   UNL A   1      45.890  28.358  34.515  1.00  0.00     0.173 A 
ATOM     79  F   UNL A   1      43.406  25.815  35.292  1.00  0.00    -0.203 F 
ATOM     80  C   UNL A   1      45.582  26.124  36.136  1.00  0.00     0.198 A 
ATOM     81  C   UNL A   1      46.928  27.951  35.348  1.00  0.00     0.198 A 
ATOM     82  F   UNL A   1      46.064  29.445  33.748  1.00  0.00    -0.203 F 
ATOM     83  F   UNL A   1      45.422  25.063  36.939  1.00  0.00    -0.200 F 
ATOM     84  C   UNL A   1      46.771  26.838  36.162  1.00  0.00     0.200 A 
ATOM     85  F   UNL A   1      48.079  28.637  35.367  1.00  0.00    -0.200 F 
ATOM     86  F   UNL A   1      47.765  26.458  36.977  1.00  0.00    -0.200 F 
ENDBRANCH  53  76
ENDBRANCH  27  28
ENDBRANCH  20  22
ENDBRANCH  19  20
ENDBRANCH  18  19
ENDBRANCH  17  18
ENDBRANCH  16  17
ENDBRANCH   1  16
TORSDOF 17
ENDMDL
