MODEL 1
REMARK VINA RESULT:     -11.8      0.000      0.000
REMARK SMILES CC[C@](C)(NS(=O)(=O)c1ccc(C(=O)OC)cc1)C(=O)OCCOC(=O)c1ccc(-c2c3nc(c(-c4c(F)c(F)c(F)c(F)c4F)c4ccc([nH]4)c(-c4c(F)c(F)c(F)c(F)c4F)c4nc(c(-c5c(F)c(F)c(F)c(F)c5F)c5ccc2[nH]5)C=C4)C=C3)cc1
REMARK SMILES IDX 21 1 19 2 20 3 3 4 4 5 2 6 1 7 5 8 6 10 7 11 8 12 9 13 10 14
REMARK SMILES IDX 18 15 11 16 17 17 12 18 13 19 14 20 15 21 16 22 22 23 23 24
REMARK SMILES IDX 24 25 25 26 26 27 27 28 28 29 89 30 29 31 88 32 30 33 31 34
REMARK SMILES IDX 32 35 82 36 33 37 87 38 81 39 83 40 34 41 86 42 80 43 79 44
REMARK SMILES IDX 35 46 67 47 47 48 66 49 48 50 51 51 65 52 84 53 49 54 50 55
REMARK SMILES IDX 64 57 85 58 52 59 36 60 37 61 45 62 38 63 39 64 43 65 46 66
REMARK SMILES IDX 40 67 41 68 44 69 42 70 68 71 69 72 77 73 70 74 71 75 75 76
REMARK SMILES IDX 78 77 72 78 73 79 76 80 74 81 53 82 54 83 62 84 55 85 56 86
REMARK SMILES IDX 60 87 63 88 57 89 58 90 61 91 59 92
REMARK H PARENT 5 9 83 45 51 56
REMARK Flexibility Score: inf
ROOT
ATOM      1  O   UNL A   1      32.444  27.595  26.701  1.00  0.00    -0.461 OA
ENDROOT
BRANCH   1   2
ATOM      2  C   UNL A   1      31.753  26.552  26.174  1.00  0.00     0.327 C 
ATOM      3  O   UNL A   1      30.701  26.131  26.647  1.00  0.00    -0.250 OA
BRANCH   2   4
ATOM      4  C   UNL A   1      32.381  25.978  24.887  1.00  0.00     0.127 C 
ATOM      5  C   UNL A   1      33.585  26.887  24.540  1.00  0.00     0.042 C 
BRANCH   4   6
ATOM      6  C   UNL A   1      31.312  26.029  23.758  1.00  0.00     0.032 C 
ATOM      7  C   UNL A   1      30.613  27.371  23.536  1.00  0.00     0.006 C 
ENDBRANCH   4   6
BRANCH   4   8
ATOM      8  N   UNL A   1      32.990  24.621  24.995  1.00  0.00    -0.194 NA
ATOM      9  H   UNL A   1      32.204  23.976  24.928  1.00  0.00     0.142 HD
BRANCH   8  10
ATOM     10  S   UNL A   1      34.168  23.964  24.018  1.00  0.00     0.241 S 
ATOM     11  O   UNL A   1      33.937  24.371  22.652  1.00  0.00    -0.207 OA
ATOM     12  O   UNL A   1      35.419  24.243  24.688  1.00  0.00    -0.207 OA
BRANCH  10  13
ATOM     13  C   UNL A   1      33.929  22.213  24.116  1.00  0.00     0.082 A 
ATOM     14  C   UNL A   1      34.914  21.409  24.695  1.00  0.00     0.022 A 
ATOM     15  C   UNL A   1      32.748  21.655  23.620  1.00  0.00     0.022 A 
ATOM     16  C   UNL A   1      34.676  20.039  24.848  1.00  0.00     0.017 A 
ATOM     17  C   UNL A   1      32.511  20.290  23.782  1.00  0.00     0.017 A 
ATOM     18  C   UNL A   1      33.455  19.483  24.435  1.00  0.00     0.060 A 
BRANCH  18  19
ATOM     19  C   UNL A   1      33.151  18.078  24.822  1.00  0.00     0.337 C 
ATOM     20  O   UNL A   1      32.095  17.723  25.319  1.00  0.00    -0.246 OA
BRANCH  19  21
ATOM     21  O   UNL A   1      34.161  17.261  24.430  1.00  0.00    -0.465 OA
ATOM     22  C   UNL A   1      33.991  16.689  23.133  1.00  0.00     0.282 C 
ENDBRANCH  19  21
ENDBRANCH  18  19
ENDBRANCH  10  13
ENDBRANCH   8  10
ENDBRANCH   4   8
ENDBRANCH   2   4
ENDBRANCH   1   2
BRANCH   1  23
ATOM     23  C   UNL A   1      31.693  28.687  27.277  1.00  0.00     0.274 C 
BRANCH  23  24
ATOM     24  C   UNL A   1      31.784  29.926  26.387  1.00  0.00     0.275 C 
BRANCH  24  25
ATOM     25  O   UNL A   1      33.141  30.381  26.341  1.00  0.00    -0.458 OA
BRANCH  25  26
ATOM     26  C   UNL A   1      33.411  31.460  27.105  1.00  0.00     0.338 C 
ATOM     27  O   UNL A   1      32.737  32.453  27.306  1.00  0.00    -0.246 OA
BRANCH  26  28
ATOM     28  C   UNL A   1      34.673  31.184  27.785  1.00  0.00     0.060 A 
ATOM     29  C   UNL A   1      35.545  32.249  28.014  1.00  0.00     0.016 A 
ATOM     30  C   UNL A   1      34.992  29.888  28.170  1.00  0.00     0.016 A 
ATOM     31  C   UNL A   1      36.791  32.011  28.567  1.00  0.00     0.010 A 
ATOM     32  C   UNL A   1      36.196  29.672  28.832  1.00  0.00     0.010 A 
ATOM     33  C   UNL A   1      37.107  30.729  29.026  1.00  0.00    -0.014 A 
BRANCH  33  34
ATOM     34  C   UNL A   1      38.370  30.480  29.756  1.00  0.00     0.031 A 
ATOM     35  C   UNL A   1      39.383  29.548  29.171  1.00  0.00     0.074 A 
ATOM     36  C   UNL A   1      38.545  31.023  30.975  1.00  0.00     0.049 A 
ATOM     37  N   UNL A   1      40.387  28.947  29.750  1.00  0.00    -0.248 NA
ATOM     38  C   UNL A   1      39.222  29.224  27.746  1.00  0.00     0.031 C 
ATOM     39  C   UNL A   1      37.632  31.969  31.621  1.00  0.00     0.029 A 
ATOM     40  N   UNL A   1      39.537  30.832  31.902  1.00  0.00    -0.354 N 
ATOM     41  C   UNL A   1      40.933  28.116  28.781  1.00  0.00     0.074 A 
ATOM     42  C   UNL A   1      40.152  28.296  27.576  1.00  0.00     0.031 C 
ATOM     43  C   UNL A   1      38.102  32.273  32.839  1.00  0.00     0.029 A 
ATOM     44  C   UNL A   1      39.291  31.471  33.093  1.00  0.00     0.049 A 
ATOM     45  H   UNL A   1      40.342  30.292  31.732  1.00  0.00     0.167 HD
ATOM     46  C   UNL A   1      41.983  27.271  28.908  1.00  0.00     0.037 A 
ATOM     47  C   UNL A   1      39.912  31.367  34.281  1.00  0.00     0.037 A 
ATOM     48  C   UNL A   1      42.761  27.149  30.113  1.00  0.00     0.049 A 
ATOM     49  C   UNL A   1      41.074  30.427  34.401  1.00  0.00     0.074 A 
ATOM     50  C   UNL A   1      43.872  26.361  30.353  1.00  0.00     0.029 A 
ATOM     51  N   UNL A   1      42.503  27.847  31.289  1.00  0.00    -0.354 N 
ATOM     52  N   UNL A   1      41.576  29.621  33.496  1.00  0.00    -0.248 NA
ATOM     53  C   UNL A   1      41.748  30.370  35.701  1.00  0.00     0.031 C 
ATOM     54  C   UNL A   1      44.260  26.551  31.684  1.00  0.00     0.029 A 
ATOM     55  C   UNL A   1      43.424  27.496  32.260  1.00  0.00     0.049 A 
ATOM     56  H   UNL A   1      41.773  28.496  31.410  1.00  0.00     0.167 HD
ATOM     57  C   UNL A   1      42.634  28.970  34.108  1.00  0.00     0.074 A 
ATOM     58  C   UNL A   1      42.707  29.485  35.463  1.00  0.00     0.031 C 
ATOM     59  C   UNL A   1      43.471  28.033  33.598  1.00  0.00     0.037 A 
BRANCH  46  60
ATOM     60  C   UNL A   1      42.303  26.383  27.738  1.00  0.00     0.064 A 
ATOM     61  C   UNL A   1      41.644  25.164  27.519  1.00  0.00     0.173 A 
ATOM     62  C   UNL A   1      43.302  26.758  26.826  1.00  0.00     0.173 A 
ATOM     63  F   UNL A   1      40.692  24.749  28.369  1.00  0.00    -0.203 F 
ATOM     64  C   UNL A   1      42.005  24.333  26.460  1.00  0.00     0.198 A 
ATOM     65  C   UNL A   1      43.637  25.940  25.749  1.00  0.00     0.198 A 
ATOM     66  F   UNL A   1      43.964  27.914  26.983  1.00  0.00    -0.203 F 
ATOM     67  F   UNL A   1      41.410  23.141  26.314  1.00  0.00    -0.200 F 
ATOM     68  C   UNL A   1      42.998  24.723  25.575  1.00  0.00     0.200 A 
ATOM     69  F   UNL A   1      44.590  26.326  24.888  1.00  0.00    -0.200 F 
ATOM     70  F   UNL A   1      43.348  23.920  24.561  1.00  0.00    -0.200 F 
ENDBRANCH  46  60
BRANCH  47  71
ATOM     71  C   UNL A   1      39.401  32.149  35.436  1.00  0.00     0.064 A 
ATOM     72  C   UNL A   1      38.521  31.575  36.362  1.00  0.00     0.173 A 
ATOM     73  C   UNL A   1      39.847  33.457  35.682  1.00  0.00     0.173 A 
ATOM     74  F   UNL A   1      38.056  30.334  36.161  1.00  0.00    -0.203 F 
ATOM     75  C   UNL A   1      38.111  32.278  37.493  1.00  0.00     0.198 A 
ATOM     76  C   UNL A   1      39.459  34.148  36.828  1.00  0.00     0.198 A 
ATOM     77  F   UNL A   1      40.700  34.048  34.832  1.00  0.00    -0.203 F 
ATOM     78  F   UNL A   1      37.257  31.712  38.357  1.00  0.00    -0.200 F 
ATOM     79  C   UNL A   1      38.590  33.557  37.733  1.00  0.00     0.200 A 
ATOM     80  F   UNL A   1      39.944  35.374  37.066  1.00  0.00    -0.200 F 
ATOM     81  F   UNL A   1      38.217  34.220  38.836  1.00  0.00    -0.200 F 
ENDBRANCH  47  71
BRANCH  59  82
ATOM     82  C   UNL A   1      44.561  27.535  34.498  1.00  0.00     0.064 A 
ATOM     83  C   UNL A   1      45.792  28.197  34.596  1.00  0.00     0.173 A 
ATOM     84  C   UNL A   1      44.343  26.415  35.313  1.00  0.00     0.173 A 
ATOM     85  F   UNL A   1      46.051  29.261  33.821  1.00  0.00    -0.203 F 
ATOM     86  C   UNL A   1      46.775  27.746  35.472  1.00  0.00     0.198 A 
ATOM     87  C   UNL A   1      45.317  25.983  36.207  1.00  0.00     0.198 A 
ATOM     88  F   UNL A   1      43.178  25.752  35.254  1.00  0.00    -0.203 F 
ATOM     89  F   UNL A   1      47.959  28.371  35.527  1.00  0.00    -0.200 F 
ATOM     90  C   UNL A   1      46.532  26.646  36.283  1.00  0.00     0.200 A 
ATOM     91  F   UNL A   1      45.077  24.928  36.997  1.00  0.00    -0.200 F 
ATOM     92  F   UNL A   1      47.475  26.222  37.136  1.00  0.00    -0.200 F 
ENDBRANCH  59  82
ENDBRANCH  33  34
ENDBRANCH  26  28
ENDBRANCH  25  26
ENDBRANCH  24  25
ENDBRANCH  23  24
ENDBRANCH   1  23
TORSDOF 17
ENDMDL
MODEL 2
REMARK VINA RESULT:     -11.4      4.243     10.000
REMARK SMILES CC[C@](C)(NS(=O)(=O)c1ccc(C(=O)OC)cc1)C(=O)OCCOC(=O)c1ccc(-c2c3nc(c(-c4c(F)c(F)c(F)c(F)c4F)c4ccc([nH]4)c(-c4c(F)c(F)c(F)c(F)c4F)c4nc(c(-c5c(F)c(F)c(F)c(F)c5F)c5ccc2[nH]5)C=C4)C=C3)cc1
REMARK SMILES IDX 21 1 19 2 20 3 3 4 4 5 2 6 1 7 5 8 6 10 7 11 8 12 9 13 10 14
REMARK SMILES IDX 18 15 11 16 17 17 12 18 13 19 14 20 15 21 16 22 22 23 23 24
REMARK SMILES IDX 24 25 25 26 26 27 27 28 28 29 89 30 29 31 88 32 30 33 31 34
REMARK SMILES IDX 32 35 82 36 33 37 87 38 81 39 83 40 34 41 86 42 80 43 79 44
REMARK SMILES IDX 35 46 67 47 47 48 66 49 48 50 51 51 65 52 84 53 49 54 50 55
REMARK SMILES IDX 64 57 85 58 52 59 36 60 37 61 45 62 38 63 39 64 43 65 46 66
REMARK SMILES IDX 40 67 41 68 44 69 42 70 68 71 69 72 77 73 70 74 71 75 75 76
REMARK SMILES IDX 78 77 72 78 73 79 76 80 74 81 53 82 54 83 62 84 55 85 56 86
REMARK SMILES IDX 60 87 63 88 57 89 58 90 61 91 59 92
REMARK H PARENT 5 9 83 45 51 56
REMARK Flexibility Score: inf
ROOT
ATOM      1  O   UNL A   1      34.322  22.407  25.123  1.00  0.00    -0.461 OA
ENDROOT
BRANCH   1   2
ATOM      2  C   UNL A   1      33.025  22.608  25.467  1.00  0.00     0.327 C 
ATOM      3  O   UNL A   1      32.541  22.229  26.530  1.00  0.00    -0.250 OA
BRANCH   2   4
ATOM      4  C   UNL A   1      32.223  23.411  24.421  1.00  0.00     0.127 C 
ATOM      5  C   UNL A   1      31.817  22.410  23.312  1.00  0.00     0.042 C 
BRANCH   4   6
ATOM      6  C   UNL A   1      33.148  24.521  23.845  1.00  0.00     0.032 C 
ATOM      7  C   UNL A   1      32.770  25.088  22.476  1.00  0.00     0.006 C 
ENDBRANCH   4   6
BRANCH   4   8
ATOM      8  N   UNL A   1      30.920  23.974  24.876  1.00  0.00    -0.194 NA
ATOM      9  H   UNL A   1      30.449  23.200  25.344  1.00  0.00     0.142 HD
BRANCH   8  10
ATOM     10  S   UNL A   1      30.681  25.286  25.874  1.00  0.00     0.241 S 
ATOM     11  O   UNL A   1      29.500  25.066  26.676  1.00  0.00    -0.207 OA
ATOM     12  O   UNL A   1      31.968  25.543  26.481  1.00  0.00    -0.207 OA
BRANCH  10  13
ATOM     13  C   UNL A   1      30.361  26.645  24.787  1.00  0.00     0.082 A 
ATOM     14  C   UNL A   1      29.231  26.626  23.965  1.00  0.00     0.022 A 
ATOM     15  C   UNL A   1      31.240  27.730  24.771  1.00  0.00     0.022 A 
ATOM     16  C   UNL A   1      28.939  27.743  23.177  1.00  0.00     0.017 A 
ATOM     17  C   UNL A   1      30.941  28.847  23.991  1.00  0.00     0.017 A 
ATOM     18  C   UNL A   1      29.768  28.876  23.222  1.00  0.00     0.060 A 
BRANCH  18  19
ATOM     19  C   UNL A   1      29.301  30.121  22.551  1.00  0.00     0.337 C 
ATOM     20  O   UNL A   1      29.130  30.220  21.347  1.00  0.00    -0.246 OA
BRANCH  19  21
ATOM     21  O   UNL A   1      28.989  31.058  23.480  1.00  0.00    -0.465 OA
ATOM     22  C   UNL A   1      27.703  31.656  23.310  1.00  0.00     0.282 C 
ENDBRANCH  19  21
ENDBRANCH  18  19
ENDBRANCH  10  13
ENDBRANCH   8  10
ENDBRANCH   4   8
ENDBRANCH   2   4
ENDBRANCH   1   2
BRANCH   1  23
ATOM     23  C   UNL A   1      34.983  21.222  25.622  1.00  0.00     0.274 C 
BRANCH  23  24
ATOM     24  C   UNL A   1      36.414  21.146  25.093  1.00  0.00     0.275 C 
BRANCH  24  25
ATOM     25  O   UNL A   1      37.264  21.972  25.896  1.00  0.00    -0.458 OA
BRANCH  25  26
ATOM     26  C   UNL A   1      38.528  21.523  26.045  1.00  0.00     0.338 C 
ATOM     27  O   UNL A   1      38.998  20.434  25.774  1.00  0.00    -0.246 OA
BRANCH  26  28
ATOM     28  C   UNL A   1      39.322  22.657  26.509  1.00  0.00     0.060 A 
ATOM     29  C   UNL A   1      38.953  23.935  26.088  1.00  0.00     0.016 A 
ATOM     30  C   UNL A   1      40.423  22.452  27.330  1.00  0.00     0.016 A 
ATOM     31  C   UNL A   1      39.737  25.024  26.427  1.00  0.00     0.010 A 
ATOM     32  C   UNL A   1      41.140  23.562  27.764  1.00  0.00     0.010 A 
ATOM     33  C   UNL A   1      40.808  24.853  27.309  1.00  0.00    -0.014 A 
BRANCH  33  34
ATOM     34  C   UNL A   1      41.570  26.021  27.804  1.00  0.00     0.031 A 
ATOM     35  C   UNL A   1      40.866  27.070  28.605  1.00  0.00     0.074 A 
ATOM     36  C   UNL A   1      42.860  26.165  27.449  1.00  0.00     0.049 A 
ATOM     37  N   UNL A   1      41.231  28.295  28.867  1.00  0.00    -0.248 NA
ATOM     38  C   UNL A   1      39.554  26.696  29.154  1.00  0.00     0.031 C 
ATOM     39  C   UNL A   1      43.648  25.186  26.697  1.00  0.00     0.029 A 
ATOM     40  N   UNL A   1      43.728  27.208  27.645  1.00  0.00    -0.354 N 
ATOM     41  C   UNL A   1      40.164  28.864  29.550  1.00  0.00     0.074 A 
ATOM     42  C   UNL A   1      39.141  27.847  29.665  1.00  0.00     0.031 C 
ATOM     43  C   UNL A   1      44.879  25.672  26.491  1.00  0.00     0.029 A 
ATOM     44  C   UNL A   1      44.933  27.033  27.010  1.00  0.00     0.049 A 
ATOM     45  H   UNL A   1      43.509  28.002  28.184  1.00  0.00     0.167 HD
ATOM     46  C   UNL A   1      40.058  30.131  30.018  1.00  0.00     0.037 A 
ATOM     47  C   UNL A   1      45.944  27.896  26.806  1.00  0.00     0.037 A 
ATOM     48  C   UNL A   1      41.116  31.102  29.919  1.00  0.00     0.049 A 
ATOM     49  C   UNL A   1      45.808  29.293  27.333  1.00  0.00     0.074 A 
ATOM     50  C   UNL A   1      41.145  32.402  30.390  1.00  0.00     0.029 A 
ATOM     51  N   UNL A   1      42.341  30.871  29.303  1.00  0.00    -0.354 N 
ATOM     52  N   UNL A   1      44.791  29.842  27.955  1.00  0.00    -0.248 NA
ATOM     53  C   UNL A   1      46.946  30.194  27.124  1.00  0.00     0.031 C 
ATOM     54  C   UNL A   1      42.371  32.969  30.024  1.00  0.00     0.029 A 
ATOM     55  C   UNL A   1      43.127  32.008  29.369  1.00  0.00     0.049 A 
ATOM     56  H   UNL A   1      42.609  30.022  28.883  1.00  0.00     0.167 HD
ATOM     57  C   UNL A   1      45.168  31.147  28.225  1.00  0.00     0.074 A 
ATOM     58  C   UNL A   1      46.515  31.304  27.708  1.00  0.00     0.031 C 
ATOM     59  C   UNL A   1      44.467  32.127  28.847  1.00  0.00     0.037 A 
BRANCH  46  60
ATOM     60  C   UNL A   1      38.742  30.539  30.616  1.00  0.00     0.064 A 
ATOM     61  C   UNL A   1      37.670  30.993  29.834  1.00  0.00     0.173 A 
ATOM     62  C   UNL A   1      38.559  30.488  32.008  1.00  0.00     0.173 A 
ATOM     63  F   UNL A   1      37.796  31.077  28.501  1.00  0.00    -0.203 F 
ATOM     64  C   UNL A   1      36.483  31.423  30.423  1.00  0.00     0.198 A 
ATOM     65  C   UNL A   1      37.358  30.888  32.590  1.00  0.00     0.198 A 
ATOM     66  F   UNL A   1      39.548  30.060  32.806  1.00  0.00    -0.203 F 
ATOM     67  F   UNL A   1      35.499  31.919  29.659  1.00  0.00    -0.200 F 
ATOM     68  C   UNL A   1      36.327  31.367  31.800  1.00  0.00     0.200 A 
ATOM     69  F   UNL A   1      37.207  30.822  33.921  1.00  0.00    -0.200 F 
ATOM     70  F   UNL A   1      35.187  31.787  32.365  1.00  0.00    -0.200 F 
ENDBRANCH  46  60
BRANCH  47  71
ATOM     71  C   UNL A   1      47.131  27.451  26.033  1.00  0.00     0.064 A 
ATOM     72  C   UNL A   1      47.185  27.604  24.643  1.00  0.00     0.173 A 
ATOM     73  C   UNL A   1      48.269  26.941  26.679  1.00  0.00     0.173 A 
ATOM     74  F   UNL A   1      46.117  28.074  23.980  1.00  0.00    -0.203 F 
ATOM     75  C   UNL A   1      48.333  27.270  23.927  1.00  0.00     0.198 A 
ATOM     76  C   UNL A   1      49.426  26.634  25.966  1.00  0.00     0.198 A 
ATOM     77  F   UNL A   1      48.273  26.786  28.012  1.00  0.00    -0.203 F 
ATOM     78  F   UNL A   1      48.354  27.412  22.595  1.00  0.00    -0.200 F 
ATOM     79  C   UNL A   1      49.456  26.798  24.589  1.00  0.00     0.200 A 
ATOM     80  F   UNL A   1      50.515  26.201  26.614  1.00  0.00    -0.200 F 
ATOM     81  F   UNL A   1      50.569  26.504  23.903  1.00  0.00    -0.200 F 
ENDBRANCH  47  71
BRANCH  59  82
ATOM     82  C   UNL A   1      45.160  33.443  29.035  1.00  0.00     0.064 A 
ATOM     83  C   UNL A   1      45.993  33.683  30.135  1.00  0.00     0.173 A 
ATOM     84  C   UNL A   1      45.030  34.450  28.069  1.00  0.00     0.173 A 
ATOM     85  F   UNL A   1      46.132  32.755  31.094  1.00  0.00    -0.203 F 
ATOM     86  C   UNL A   1      46.666  34.895  30.267  1.00  0.00     0.198 A 
ATOM     87  C   UNL A   1      45.723  35.649  28.190  1.00  0.00     0.198 A 
ATOM     88  F   UNL A   1      44.245  34.262  26.997  1.00  0.00    -0.203 F 
ATOM     89  F   UNL A   1      47.432  35.120  31.343  1.00  0.00    -0.200 F 
ATOM     90  C   UNL A   1      46.537  35.872  29.291  1.00  0.00     0.200 A 
ATOM     91  F   UNL A   1      45.609  36.587  27.240  1.00  0.00    -0.200 F 
ATOM     92  F   UNL A   1      47.196  37.032  29.413  1.00  0.00    -0.200 F 
ENDBRANCH  59  82
ENDBRANCH  33  34
ENDBRANCH  26  28
ENDBRANCH  25  26
ENDBRANCH  24  25
ENDBRANCH  23  24
ENDBRANCH   1  23
TORSDOF 17
ENDMDL
MODEL 3
REMARK VINA RESULT:     -11.4      1.473      2.261
REMARK SMILES CC[C@](C)(NS(=O)(=O)c1ccc(C(=O)OC)cc1)C(=O)OCCOC(=O)c1ccc(-c2c3nc(c(-c4c(F)c(F)c(F)c(F)c4F)c4ccc([nH]4)c(-c4c(F)c(F)c(F)c(F)c4F)c4nc(c(-c5c(F)c(F)c(F)c(F)c5F)c5ccc2[nH]5)C=C4)C=C3)cc1
REMARK SMILES IDX 21 1 19 2 20 3 3 4 4 5 2 6 1 7 5 8 6 10 7 11 8 12 9 13 10 14
REMARK SMILES IDX 18 15 11 16 17 17 12 18 13 19 14 20 15 21 16 22 22 23 23 24
REMARK SMILES IDX 24 25 25 26 26 27 27 28 28 29 89 30 29 31 88 32 30 33 31 34
REMARK SMILES IDX 32 35 82 36 33 37 87 38 81 39 83 40 34 41 86 42 80 43 79 44
REMARK SMILES IDX 35 46 67 47 47 48 66 49 48 50 51 51 65 52 84 53 49 54 50 55
REMARK SMILES IDX 64 57 85 58 52 59 36 60 37 61 45 62 38 63 39 64 43 65 46 66
REMARK SMILES IDX 40 67 41 68 44 69 42 70 68 71 69 72 77 73 70 74 71 75 75 76
REMARK SMILES IDX 78 77 72 78 73 79 76 80 74 81 53 82 54 83 62 84 55 85 56 86
REMARK SMILES IDX 60 87 63 88 57 89 58 90 61 91 59 92
REMARK H PARENT 5 9 83 45 51 56
REMARK Flexibility Score: inf
ROOT
ATOM      1  O   UNL A   1      32.221  26.587  25.927  1.00  0.00    -0.461 OA
ENDROOT
BRANCH   1   2
ATOM      2  C   UNL A   1      31.285  25.603  25.929  1.00  0.00     0.327 C 
ATOM      3  O   UNL A   1      30.206  25.699  26.507  1.00  0.00    -0.250 OA
BRANCH   2   4
ATOM      4  C   UNL A   1      31.678  24.372  25.086  1.00  0.00     0.127 C 
ATOM      5  C   UNL A   1      30.645  24.275  23.937  1.00  0.00     0.042 C 
BRANCH   4   6
ATOM      6  C   UNL A   1      31.602  23.113  25.997  1.00  0.00     0.032 C 
ATOM      7  C   UNL A   1      32.584  23.052  27.168  1.00  0.00     0.006 C 
ENDBRANCH   4   6
BRANCH   4   8
ATOM      8  N   UNL A   1      32.985  24.447  24.374  1.00  0.00    -0.194 NA
ATOM      9  H   UNL A   1      33.653  24.747  25.083  1.00  0.00     0.142 HD
BRANCH   8  10
ATOM     10  S   UNL A   1      33.757  23.222  23.551  1.00  0.00     0.241 S 
ATOM     11  O   UNL A   1      32.934  22.034  23.582  1.00  0.00    -0.207 OA
ATOM     12  O   UNL A   1      34.184  23.811  22.301  1.00  0.00    -0.207 OA
BRANCH  10  13
ATOM     13  C   UNL A   1      35.228  22.894  24.477  1.00  0.00     0.082 A 
ATOM     14  C   UNL A   1      35.684  21.581  24.616  1.00  0.00     0.022 A 
ATOM     15  C   UNL A   1      35.926  23.959  25.052  1.00  0.00     0.022 A 
ATOM     16  C   UNL A   1      36.895  21.342  25.273  1.00  0.00     0.017 A 
ATOM     17  C   UNL A   1      37.139  23.719  25.699  1.00  0.00     0.017 A 
ATOM     18  C   UNL A   1      37.650  22.415  25.776  1.00  0.00     0.060 A 
BRANCH  18  19
ATOM     19  C   UNL A   1      39.031  22.142  26.260  1.00  0.00     0.337 C 
ATOM     20  O   UNL A   1      39.609  22.826  27.088  1.00  0.00    -0.246 OA
BRANCH  19  21
ATOM     21  O   UNL A   1      39.482  20.974  25.736  1.00  0.00    -0.465 OA
ATOM     22  C   UNL A   1      40.507  20.339  26.502  1.00  0.00     0.282 C 
ENDBRANCH  19  21
ENDBRANCH  18  19
ENDBRANCH  10  13
ENDBRANCH   8  10
ENDBRANCH   4   8
ENDBRANCH   2   4
ENDBRANCH   1   2
BRANCH   1  23
ATOM     23  C   UNL A   1      32.050  27.690  26.845  1.00  0.00     0.274 C 
BRANCH  23  24
ATOM     24  C   UNL A   1      31.985  29.013  26.083  1.00  0.00     0.275 C 
BRANCH  24  25
ATOM     25  O   UNL A   1      33.275  29.633  26.093  1.00  0.00    -0.458 OA
BRANCH  25  26
ATOM     26  C   UNL A   1      33.390  30.709  26.901  1.00  0.00     0.338 C 
ATOM     27  O   UNL A   1      32.587  31.594  27.127  1.00  0.00    -0.246 OA
BRANCH  26  28
ATOM     28  C   UNL A   1      34.668  30.576  27.593  1.00  0.00     0.060 A 
ATOM     29  C   UNL A   1      35.448  31.720  27.762  1.00  0.00     0.016 A 
ATOM     30  C   UNL A   1      35.092  29.334  28.049  1.00  0.00     0.016 A 
ATOM     31  C   UNL A   1      36.708  31.617  28.325  1.00  0.00     0.010 A 
ATOM     32  C   UNL A   1      36.308  29.255  28.720  1.00  0.00     0.010 A 
ATOM     33  C   UNL A   1      37.127  30.393  28.854  1.00  0.00    -0.014 A 
BRANCH  33  34
ATOM     34  C   UNL A   1      38.405  30.289  29.594  1.00  0.00     0.031 A 
ATOM     35  C   UNL A   1      39.522  29.479  29.018  1.00  0.00     0.074 A 
ATOM     36  C   UNL A   1      38.508  30.850  30.813  1.00  0.00     0.049 A 
ATOM     37  N   UNL A   1      40.583  28.996  29.607  1.00  0.00    -0.248 NA
ATOM     38  C   UNL A   1      39.410  29.137  27.592  1.00  0.00     0.031 C 
ATOM     39  C   UNL A   1      37.488  31.686  31.451  1.00  0.00     0.029 A 
ATOM     40  N   UNL A   1      39.507  30.774  31.748  1.00  0.00    -0.354 N 
ATOM     41  C   UNL A   1      41.228  28.232  28.643  1.00  0.00     0.074 A 
ATOM     42  C   UNL A   1      40.441  28.320  27.431  1.00  0.00     0.031 C 
ATOM     43  C   UNL A   1      37.910  32.043  32.671  1.00  0.00     0.029 A 
ATOM     44  C   UNL A   1      39.180  31.381  32.936  1.00  0.00     0.049 A 
ATOM     45  H   UNL A   1      40.370  30.329  31.586  1.00  0.00     0.167 HD
ATOM     46  C   UNL A   1      42.367  27.512  28.780  1.00  0.00     0.037 A 
ATOM     47  C   UNL A   1      39.799  31.350  34.129  1.00  0.00     0.037 A 
ATOM     48  C   UNL A   1      43.143  27.480  29.992  1.00  0.00     0.049 A 
ATOM     49  C   UNL A   1      41.060  30.549  34.260  1.00  0.00     0.074 A 
ATOM     50  C   UNL A   1      44.335  26.824  30.241  1.00  0.00     0.029 A 
ATOM     51  N   UNL A   1      42.799  28.145  31.164  1.00  0.00    -0.354 N 
ATOM     52  N   UNL A   1      41.657  29.805  33.360  1.00  0.00    -0.248 NA
ATOM     53  C   UNL A   1      41.726  30.570  35.566  1.00  0.00     0.031 C 
ATOM     54  C   UNL A   1      44.688  27.058  31.575  1.00  0.00     0.029 A 
ATOM     55  C   UNL A   1      43.746  27.902  32.143  1.00  0.00     0.049 A 
ATOM     56  H   UNL A   1      41.998  28.707  31.279  1.00  0.00     0.167 HD
ATOM     57  C   UNL A   1      42.778  29.278  33.982  1.00  0.00     0.074 A 
ATOM     58  C   UNL A   1      42.781  29.799  35.337  1.00  0.00     0.031 C 
ATOM     59  C   UNL A   1      43.720  28.442  33.481  1.00  0.00     0.037 A 
BRANCH  46  60
ATOM     60  C   UNL A   1      42.794  26.666  27.614  1.00  0.00     0.064 A 
ATOM     61  C   UNL A   1      42.392  25.330  27.469  1.00  0.00     0.173 A 
ATOM     62  C   UNL A   1      43.640  27.203  26.630  1.00  0.00     0.173 A 
ATOM     63  F   UNL A   1      41.598  24.760  28.388  1.00  0.00    -0.203 F 
ATOM     64  C   UNL A   1      42.854  24.551  26.410  1.00  0.00     0.198 A 
ATOM     65  C   UNL A   1      44.073  26.431  25.555  1.00  0.00     0.198 A 
ATOM     66  F   UNL A   1      44.055  28.475  26.716  1.00  0.00    -0.203 F 
ATOM     67  F   UNL A   1      42.512  23.258  26.332  1.00  0.00    -0.200 F 
ATOM     68  C   UNL A   1      43.692  25.103  25.452  1.00  0.00     0.200 A 
ATOM     69  F   UNL A   1      44.874  26.972  24.624  1.00  0.00    -0.200 F 
ATOM     70  F   UNL A   1      44.141  24.352  24.438  1.00  0.00    -0.200 F 
ENDBRANCH  46  60
BRANCH  47  71
ATOM     71  C   UNL A   1      39.193  32.070  35.279  1.00  0.00     0.064 A 
ATOM     72  C   UNL A   1      38.419  31.391  36.227  1.00  0.00     0.173 A 
ATOM     73  C   UNL A   1      39.446  33.434  35.497  1.00  0.00     0.173 A 
ATOM     74  F   UNL A   1      38.138  30.091  36.053  1.00  0.00    -0.203 F 
ATOM     75  C   UNL A   1      37.924  32.046  37.353  1.00  0.00     0.198 A 
ATOM     76  C   UNL A   1      38.975  34.081  36.637  1.00  0.00     0.198 A 
ATOM     77  F   UNL A   1      40.193  34.127  34.625  1.00  0.00    -0.203 F 
ATOM     78  F   UNL A   1      37.173  31.377  38.238  1.00  0.00    -0.200 F 
ATOM     79  C   UNL A   1      38.213  33.386  37.564  1.00  0.00     0.200 A 
ATOM     80  F   UNL A   1      39.278  35.369  36.848  1.00  0.00    -0.200 F 
ATOM     81  F   UNL A   1      37.760  34.007  38.662  1.00  0.00    -0.200 F 
ENDBRANCH  47  71
BRANCH  59  82
ATOM     82  C   UNL A   1      44.852  28.072  34.390  1.00  0.00     0.064 A 
ATOM     83  C   UNL A   1      46.001  28.868  34.493  1.00  0.00     0.173 A 
ATOM     84  C   UNL A   1      44.756  26.938  35.207  1.00  0.00     0.173 A 
ATOM     85  F   UNL A   1      46.145  29.952  33.716  1.00  0.00    -0.203 F 
ATOM     86  C   UNL A   1      47.022  28.533  35.378  1.00  0.00     0.198 A 
ATOM     87  C   UNL A   1      45.765  26.620  36.110  1.00  0.00     0.198 A 
ATOM     88  F   UNL A   1      43.672  26.149  35.144  1.00  0.00    -0.203 F 
ATOM     89  F   UNL A   1      48.128  29.286  35.439  1.00  0.00    -0.200 F 
ATOM     90  C   UNL A   1      46.898  27.415  36.192  1.00  0.00     0.200 A 
ATOM     91  F   UNL A   1      45.639  25.548  36.903  1.00  0.00    -0.200 F 
ATOM     92  F   UNL A   1      47.876  27.102  37.053  1.00  0.00    -0.200 F 
ENDBRANCH  59  82
ENDBRANCH  33  34
ENDBRANCH  26  28
ENDBRANCH  25  26
ENDBRANCH  24  25
ENDBRANCH  23  24
ENDBRANCH   1  23
TORSDOF 17
ENDMDL
