MODEL 1
REMARK VINA RESULT:     -11.8      0.000      0.000
REMARK SMILES CC(C)[C@@H]1CCCN1C(=O)N1CCO[C@H](CC(=O)OCCOC(=O)c2ccc(-c3c4nc(c(-c5c(F)c(F)c(F)c(F)c5F)c5ccc([nH]5)c(-c5c(F)c(F)c(F)c(F)c5F)c5nc(c(-c6c(F)c(F)c(F)c(F)c6F)c6ccc3[nH]6)C=C5)C=C4)cc2)C1
REMARK SMILES IDX 20 1 19 2 17 3 18 4 16 5 15 6 11 7 12 8 88 9 13 10 14 11
REMARK SMILES IDX 9 12 10 13 8 14 4 15 5 16 6 17 7 18 2 19 1 20 3 21 21 22
REMARK SMILES IDX 22 23 23 24 24 25 25 26 26 27 87 28 27 29 86 30 28 31 29 32
REMARK SMILES IDX 30 33 80 34 31 35 85 36 79 37 81 38 32 39 84 40 78 41 77 42
REMARK SMILES IDX 33 44 65 45 45 46 64 47 46 48 49 49 63 50 82 51 47 52 48 53
REMARK SMILES IDX 62 55 83 56 50 57 34 58 35 59 43 60 36 61 37 62 41 63 44 64
REMARK SMILES IDX 38 65 39 66 42 67 40 68 66 69 67 70 75 71 68 72 69 73 73 74
REMARK SMILES IDX 76 75 70 76 71 77 74 78 72 79 51 80 52 81 60 82 53 83 54 84
REMARK SMILES IDX 58 85 61 86 55 87 56 88 59 89 57 90
REMARK H PARENT 81 43 49 54
REMARK Flexibility Score: inf
ROOT
ATOM      1  C   UNL A   1      31.403  29.318  25.191  1.00  0.00     0.274 C 
ENDROOT
BRANCH   1   2
ATOM      2  O   UNL A   1      32.151  28.130  25.497  1.00  0.00    -0.462 OA
BRANCH   2   3
ATOM      3  C   UNL A   1      31.441  27.139  26.080  1.00  0.00     0.308 C 
ATOM      4  O   UNL A   1      31.021  27.169  27.235  1.00  0.00    -0.252 OA
BRANCH   3   5
ATOM      5  C   UNL A   1      31.355  25.894  25.264  1.00  0.00     0.156 C 
BRANCH   5   6
ATOM      6  C   UNL A   1      30.359  25.683  24.117  1.00  0.00     0.149 C 
ATOM      7  N   UNL A   1      32.138  24.994  22.654  1.00  0.00    -0.320 N 
ATOM      8  C   UNL A   1      31.828  26.003  21.655  1.00  0.00     0.150 C 
ATOM      9  C   UNL A   1      30.915  24.510  23.292  1.00  0.00     0.154 C 
ATOM     10  C   UNL A   1      31.046  27.166  22.291  1.00  0.00     0.182 C 
ATOM     11  O   UNL A   1      30.050  26.782  23.249  1.00  0.00    -0.374 OA
BRANCH   7  12
ATOM     12  C   UNL A   1      33.200  24.138  22.551  1.00  0.00     0.320 C 
ATOM     13  O   UNL A   1      33.471  23.625  21.465  1.00  0.00    -0.248 OA
BRANCH  12  14
ATOM     14  N   UNL A   1      33.823  23.740  23.725  1.00  0.00    -0.321 N 
ATOM     15  C   UNL A   1      34.173  22.416  24.300  1.00  0.00     0.089 C 
ATOM     16  C   UNL A   1      34.776  22.761  25.670  1.00  0.00     0.027 C 
ATOM     17  C   UNL A   1      35.501  24.059  25.382  1.00  0.00     0.024 C 
ATOM     18  C   UNL A   1      34.531  24.784  24.461  1.00  0.00     0.122 C 
BRANCH  15  19
ATOM     19  C   UNL A   1      33.084  21.335  24.385  1.00  0.00     0.005 C 
ATOM     20  C   UNL A   1      33.663  19.946  24.686  1.00  0.00     0.009 C 
ATOM     21  C   UNL A   1      31.962  21.651  25.371  1.00  0.00     0.009 C 
ENDBRANCH  15  19
ENDBRANCH  12  14
ENDBRANCH   7  12
ENDBRANCH   5   6
ENDBRANCH   3   5
ENDBRANCH   2   3
ENDBRANCH   1   2
BRANCH   1  22
ATOM     22  C   UNL A   1      31.776  30.481  26.114  1.00  0.00     0.275 C 
BRANCH  22  23
ATOM     23  O   UNL A   1      33.169  30.459  26.483  1.00  0.00    -0.458 OA
BRANCH  23  24
ATOM     24  C   UNL A   1      33.582  31.500  27.241  1.00  0.00     0.338 C 
ATOM     25  O   UNL A   1      32.957  32.514  27.519  1.00  0.00    -0.246 OA
BRANCH  24  26
ATOM     26  C   UNL A   1      34.887  31.194  27.837  1.00  0.00     0.060 A 
ATOM     27  C   UNL A   1      35.116  29.902  28.327  1.00  0.00     0.016 A 
ATOM     28  C   UNL A   1      35.846  32.192  27.987  1.00  0.00     0.016 A 
ATOM     29  C   UNL A   1      36.314  29.590  28.955  1.00  0.00     0.010 A 
ATOM     30  C   UNL A   1      37.042  31.886  28.636  1.00  0.00     0.010 A 
ATOM     31  C   UNL A   1      37.276  30.588  29.126  1.00  0.00    -0.014 A 
BRANCH  31  32
ATOM     32  C   UNL A   1      38.498  30.313  29.906  1.00  0.00     0.031 A 
ATOM     33  C   UNL A   1      39.534  29.406  29.321  1.00  0.00     0.074 A 
ATOM     34  C   UNL A   1      38.655  30.853  31.125  1.00  0.00     0.049 A 
ATOM     35  N   UNL A   1      40.563  28.842  29.895  1.00  0.00    -0.248 NA
ATOM     36  C   UNL A   1      39.384  29.085  27.893  1.00  0.00     0.031 C 
ATOM     37  C   UNL A   1      37.750  31.821  31.743  1.00  0.00     0.029 A 
ATOM     38  N   UNL A   1      39.624  30.643  32.069  1.00  0.00    -0.354 N 
ATOM     39  C   UNL A   1      41.162  28.071  28.910  1.00  0.00     0.074 A 
ATOM     40  C   UNL A   1      40.383  28.236  27.702  1.00  0.00     0.031 C 
ATOM     41  C   UNL A   1      38.198  32.109  32.976  1.00  0.00     0.029 A 
ATOM     42  C   UNL A   1      39.380  31.296  33.252  1.00  0.00     0.049 A 
ATOM     43  H   UNL A   1      40.418  30.081  31.916  1.00  0.00     0.167 HD
ATOM     44  C   UNL A   1      42.261  27.287  29.018  1.00  0.00     0.037 A 
ATOM     45  C   UNL A   1      40.013  31.200  34.436  1.00  0.00     0.037 A 
ATOM     46  C   UNL A   1      43.022  27.147  30.230  1.00  0.00     0.049 A 
ATOM     47  C   UNL A   1      41.172  30.248  34.561  1.00  0.00     0.074 A 
ATOM     48  C   UNL A   1      44.148  26.379  30.463  1.00  0.00     0.029 A 
ATOM     49  N   UNL A   1      42.727  27.798  31.422  1.00  0.00    -0.354 N 
ATOM     50  N   UNL A   1      41.718  29.483  33.645  1.00  0.00    -0.248 NA
ATOM     51  C   UNL A   1      41.791  30.129  35.887  1.00  0.00     0.031 C 
ATOM     52  C   UNL A   1      44.509  26.534  31.806  1.00  0.00     0.029 A 
ATOM     53  C   UNL A   1      43.637  27.435  32.398  1.00  0.00     0.049 A 
ATOM     54  H   UNL A   1      41.979  28.427  31.551  1.00  0.00     0.167 HD
ATOM     55  C   UNL A   1      42.761  28.818  34.272  1.00  0.00     0.074 A 
ATOM     56  C   UNL A   1      42.773  29.268  35.650  1.00  0.00     0.031 C 
ATOM     57  C   UNL A   1      43.634  27.919  33.756  1.00  0.00     0.037 A 
BRANCH  44  58
ATOM     58  C   UNL A   1      42.662  26.492  27.812  1.00  0.00     0.064 A 
ATOM     59  C   UNL A   1      42.149  25.211  27.563  1.00  0.00     0.173 A 
ATOM     60  C   UNL A   1      43.578  27.022  26.891  1.00  0.00     0.173 A 
ATOM     61  F   UNL A   1      41.284  24.651  28.423  1.00  0.00    -0.203 F 
ATOM     62  C   UNL A   1      42.561  24.477  26.453  1.00  0.00     0.198 A 
ATOM     63  C   UNL A   1      43.967  26.298  25.768  1.00  0.00     0.198 A 
ATOM     64  F   UNL A   1      44.100  28.244  27.081  1.00  0.00    -0.203 F 
ATOM     65  F   UNL A   1      42.098  23.234  26.264  1.00  0.00    -0.200 F 
ATOM     66  C   UNL A   1      43.466  25.023  25.554  1.00  0.00     0.200 A 
ATOM     67  F   UNL A   1      44.835  26.830  24.896  1.00  0.00    -0.200 F 
ATOM     68  F   UNL A   1      43.864  24.314  24.488  1.00  0.00    -0.200 F 
ENDBRANCH  44  58
BRANCH  45  69
ATOM     69  C   UNL A   1      39.545  32.002  35.594  1.00  0.00     0.064 A 
ATOM     70  C   UNL A   1      38.558  31.504  36.456  1.00  0.00     0.173 A 
ATOM     71  C   UNL A   1      40.077  33.270  35.873  1.00  0.00     0.173 A 
ATOM     72  F   UNL A   1      38.001  30.308  36.217  1.00  0.00    -0.203 F 
ATOM     73  C   UNL A   1      38.116  32.248  37.549  1.00  0.00     0.198 A 
ATOM     74  C   UNL A   1      39.654  34.001  36.981  1.00  0.00     0.198 A 
ATOM     75  F   UNL A   1      41.022  33.792  35.078  1.00  0.00    -0.203 F 
ATOM     76  F   UNL A   1      37.147  31.763  38.337  1.00  0.00    -0.200 F 
ATOM     77  C   UNL A   1      38.670  33.491  37.815  1.00  0.00     0.200 A 
ATOM     78  F   UNL A   1      40.200  35.196  37.241  1.00  0.00    -0.200 F 
ATOM     79  F   UNL A   1      38.252  34.201  38.872  1.00  0.00    -0.200 F 
ENDBRANCH  45  69
BRANCH  57  80
ATOM     80  C   UNL A   1      44.709  27.406  34.665  1.00  0.00     0.064 A 
ATOM     81  C   UNL A   1      45.920  28.091  34.834  1.00  0.00     0.173 A 
ATOM     82  C   UNL A   1      44.492  26.249  35.429  1.00  0.00     0.173 A 
ATOM     83  F   UNL A   1      46.178  29.193  34.113  1.00  0.00    -0.203 F 
ATOM     84  C   UNL A   1      46.881  27.629  35.728  1.00  0.00     0.198 A 
ATOM     85  C   UNL A   1      45.444  25.805  36.340  1.00  0.00     0.198 A 
ATOM     86  F   UNL A   1      43.345  25.563  35.304  1.00  0.00    -0.203 F 
ATOM     87  F   UNL A   1      48.046  28.281  35.853  1.00  0.00    -0.200 F 
ATOM     88  C   UNL A   1      46.638  26.493  36.487  1.00  0.00     0.200 A 
ATOM     89  F   UNL A   1      45.203  24.714  37.081  1.00  0.00    -0.200 F 
ATOM     90  F   UNL A   1      47.559  26.059  37.358  1.00  0.00    -0.200 F 
ENDBRANCH  57  80
ENDBRANCH  31  32
ENDBRANCH  24  26
ENDBRANCH  23  24
ENDBRANCH  22  23
ENDBRANCH   1  22
TORSDOF 15
ENDMDL
MODEL 2
REMARK VINA RESULT:     -11.7      0.176      1.611
REMARK SMILES CC(C)[C@@H]1CCCN1C(=O)N1CCO[C@H](CC(=O)OCCOC(=O)c2ccc(-c3c4nc(c(-c5c(F)c(F)c(F)c(F)c5F)c5ccc([nH]5)c(-c5c(F)c(F)c(F)c(F)c5F)c5nc(c(-c6c(F)c(F)c(F)c(F)c6F)c6ccc3[nH]6)C=C5)C=C4)cc2)C1
REMARK SMILES IDX 20 1 19 2 17 3 18 4 16 5 15 6 11 7 12 8 88 9 13 10 14 11
REMARK SMILES IDX 9 12 10 13 8 14 4 15 5 16 6 17 7 18 2 19 1 20 3 21 21 22
REMARK SMILES IDX 22 23 23 24 24 25 25 26 26 27 87 28 27 29 86 30 28 31 29 32
REMARK SMILES IDX 30 33 80 34 31 35 85 36 79 37 81 38 32 39 84 40 78 41 77 42
REMARK SMILES IDX 33 44 65 45 45 46 64 47 46 48 49 49 63 50 82 51 47 52 48 53
REMARK SMILES IDX 62 55 83 56 50 57 34 58 35 59 43 60 36 61 37 62 41 63 44 64
REMARK SMILES IDX 38 65 39 66 42 67 40 68 66 69 67 70 75 71 68 72 69 73 73 74
REMARK SMILES IDX 76 75 70 76 71 77 74 78 72 79 51 80 52 81 60 82 53 83 54 84
REMARK SMILES IDX 58 85 61 86 55 87 56 88 59 89 57 90
REMARK H PARENT 81 43 49 54
REMARK Flexibility Score: inf
ROOT
ATOM      1  C   UNL A   1      31.397  29.491  25.241  1.00  0.00     0.274 C 
ENDROOT
BRANCH   1   2
ATOM      2  O   UNL A   1      32.134  28.298  25.556  1.00  0.00    -0.462 OA
BRANCH   2   3
ATOM      3  C   UNL A   1      31.416  27.320  26.152  1.00  0.00     0.308 C 
ATOM      4  O   UNL A   1      30.999  27.365  27.306  1.00  0.00    -0.252 OA
BRANCH   3   5
ATOM      5  C   UNL A   1      31.317  26.067  25.349  1.00  0.00     0.156 C 
BRANCH   5   6
ATOM      6  C   UNL A   1      30.278  25.829  24.246  1.00  0.00     0.149 C 
ATOM      7  N   UNL A   1      32.007  25.182  22.708  1.00  0.00    -0.320 N 
ATOM      8  C   UNL A   1      31.630  26.181  21.722  1.00  0.00     0.150 C 
ATOM      9  C   UNL A   1      30.826  24.669  23.399  1.00  0.00     0.154 C 
ATOM     10  C   UNL A   1      30.848  27.325  22.391  1.00  0.00     0.182 C 
ATOM     11  O   UNL A   1      29.905  26.919  23.392  1.00  0.00    -0.374 OA
BRANCH   7  12
ATOM     12  C   UNL A   1      33.084  24.352  22.559  1.00  0.00     0.320 C 
ATOM     13  O   UNL A   1      33.387  23.935  21.440  1.00  0.00    -0.248 OA
BRANCH  12  14
ATOM     14  N   UNL A   1      33.687  23.866  23.710  1.00  0.00    -0.321 N 
ATOM     15  C   UNL A   1      33.920  22.500  24.246  1.00  0.00     0.089 C 
ATOM     16  C   UNL A   1      34.577  22.750  25.611  1.00  0.00     0.027 C 
ATOM     17  C   UNL A   1      35.417  23.981  25.340  1.00  0.00     0.024 C 
ATOM     18  C   UNL A   1      34.504  24.818  24.457  1.00  0.00     0.122 C 
BRANCH  15  19
ATOM     19  C   UNL A   1      32.735  21.525  24.326  1.00  0.00     0.005 C 
ATOM     20  C   UNL A   1      33.188  20.062  24.412  1.00  0.00     0.009 C 
ATOM     21  C   UNL A   1      31.749  21.827  25.452  1.00  0.00     0.009 C 
ENDBRANCH  15  19
ENDBRANCH  12  14
ENDBRANCH   7  12
ENDBRANCH   5   6
ENDBRANCH   3   5
ENDBRANCH   2   3
ENDBRANCH   1   2
BRANCH   1  22
ATOM     22  C   UNL A   1      31.785  30.658  26.153  1.00  0.00     0.275 C 
BRANCH  22  23
ATOM     23  O   UNL A   1      33.183  30.637  26.501  1.00  0.00    -0.458 OA
BRANCH  23  24
ATOM     24  C   UNL A   1      33.598  31.657  27.286  1.00  0.00     0.338 C 
ATOM     25  O   UNL A   1      32.980  32.670  27.582  1.00  0.00    -0.246 OA
BRANCH  24  26
ATOM     26  C   UNL A   1      34.896  31.327  27.886  1.00  0.00     0.060 A 
ATOM     27  C   UNL A   1      35.098  30.031  28.379  1.00  0.00     0.016 A 
ATOM     28  C   UNL A   1      35.873  32.306  28.038  1.00  0.00     0.016 A 
ATOM     29  C   UNL A   1      36.288  29.697  29.010  1.00  0.00     0.010 A 
ATOM     30  C   UNL A   1      37.061  31.977  28.690  1.00  0.00     0.010 A 
ATOM     31  C   UNL A   1      37.268  30.676  29.182  1.00  0.00    -0.014 A 
BRANCH  31  32
ATOM     32  C   UNL A   1      38.482  30.378  29.966  1.00  0.00     0.031 A 
ATOM     33  C   UNL A   1      39.508  29.461  29.380  1.00  0.00     0.074 A 
ATOM     34  C   UNL A   1      38.641  30.908  31.190  1.00  0.00     0.049 A 
ATOM     35  N   UNL A   1      40.527  28.878  29.956  1.00  0.00    -0.248 NA
ATOM     36  C   UNL A   1      39.360  29.152  27.949  1.00  0.00     0.031 C 
ATOM     37  C   UNL A   1      37.747  31.885  31.810  1.00  0.00     0.029 A 
ATOM     38  N   UNL A   1      39.603  30.678  32.138  1.00  0.00    -0.354 N 
ATOM     39  C   UNL A   1      41.119  28.105  28.968  1.00  0.00     0.074 A 
ATOM     40  C   UNL A   1      40.348  28.290  27.757  1.00  0.00     0.031 C 
ATOM     41  C   UNL A   1      38.194  32.158  33.047  1.00  0.00     0.029 A 
ATOM     42  C   UNL A   1      39.362  31.327  33.323  1.00  0.00     0.049 A 
ATOM     43  H   UNL A   1      40.389  30.105  31.984  1.00  0.00     0.167 HD
ATOM     44  C   UNL A   1      42.206  27.306  29.076  1.00  0.00     0.037 A 
ATOM     45  C   UNL A   1      39.988  31.214  34.509  1.00  0.00     0.037 A 
ATOM     46  C   UNL A   1      42.960  27.146  30.291  1.00  0.00     0.049 A 
ATOM     47  C   UNL A   1      41.133  30.244  34.634  1.00  0.00     0.074 A 
ATOM     48  C   UNL A   1      44.073  26.360  30.523  1.00  0.00     0.029 A 
ATOM     49  N   UNL A   1      42.668  27.794  31.485  1.00  0.00    -0.354 N 
ATOM     50  N   UNL A   1      41.672  29.478  33.715  1.00  0.00    -0.248 NA
ATOM     51  C   UNL A   1      41.744  30.108  35.962  1.00  0.00     0.031 C 
ATOM     52  C   UNL A   1      44.430  26.502  31.869  1.00  0.00     0.029 A 
ATOM     53  C   UNL A   1      43.568  27.411  32.464  1.00  0.00     0.049 A 
ATOM     54  H   UNL A   1      41.929  28.432  31.615  1.00  0.00     0.167 HD
ATOM     55  C   UNL A   1      42.703  28.794  34.342  1.00  0.00     0.074 A 
ATOM     56  C   UNL A   1      42.714  29.235  35.723  1.00  0.00     0.031 C 
ATOM     57  C   UNL A   1      43.566  27.886  33.824  1.00  0.00     0.037 A 
BRANCH  44  58
ATOM     58  C   UNL A   1      42.602  26.513  27.866  1.00  0.00     0.064 A 
ATOM     59  C   UNL A   1      43.539  26.992  26.939  1.00  0.00     0.173 A 
ATOM     60  C   UNL A   1      42.031  25.254  27.631  1.00  0.00     0.173 A 
ATOM     61  F   UNL A   1      44.099  28.199  27.108  1.00  0.00    -0.203 F 
ATOM     62  C   UNL A   1      43.866  26.253  25.805  1.00  0.00     0.198 A 
ATOM     63  C   UNL A   1      42.381  24.504  26.511  1.00  0.00     0.198 A 
ATOM     64  F   UNL A   1      41.129  24.748  28.487  1.00  0.00    -0.203 F 
ATOM     65  F   UNL A   1      44.723  26.754  24.904  1.00  0.00    -0.200 F 
ATOM     66  C   UNL A   1      43.291  25.008  25.594  1.00  0.00     0.200 A 
ATOM     67  F   UNL A   1      41.830  23.298  26.314  1.00  0.00    -0.200 F 
ATOM     68  F   UNL A   1      43.605  24.299  24.501  1.00  0.00    -0.200 F 
ENDBRANCH  44  58
BRANCH  45  69
ATOM     69  C   UNL A   1      39.526  32.014  35.671  1.00  0.00     0.064 A 
ATOM     70  C   UNL A   1      38.522  31.528  36.520  1.00  0.00     0.173 A 
ATOM     71  C   UNL A   1      40.080  33.270  35.965  1.00  0.00     0.173 A 
ATOM     72  F   UNL A   1      37.945  30.345  36.266  1.00  0.00    -0.203 F 
ATOM     73  C   UNL A   1      38.086  32.271  37.616  1.00  0.00     0.198 A 
ATOM     74  C   UNL A   1      39.662  33.999  37.077  1.00  0.00     0.198 A 
ATOM     75  F   UNL A   1      41.041  33.780  35.182  1.00  0.00    -0.203 F 
ATOM     76  F   UNL A   1      37.102  31.798  38.393  1.00  0.00    -0.200 F 
ATOM     77  C   UNL A   1      38.661  33.501  37.898  1.00  0.00     0.200 A 
ATOM     78  F   UNL A   1      40.228  35.182  37.351  1.00  0.00    -0.200 F 
ATOM     79  F   UNL A   1      38.248  34.210  38.958  1.00  0.00    -0.200 F 
ENDBRANCH  45  69
BRANCH  57  80
ATOM     80  C   UNL A   1      44.628  27.352  34.736  1.00  0.00     0.064 A 
ATOM     81  C   UNL A   1      44.452  26.161  35.454  1.00  0.00     0.173 A 
ATOM     82  C   UNL A   1      45.865  28.007  34.836  1.00  0.00     0.173 A 
ATOM     83  F   UNL A   1      43.280  25.509  35.402  1.00  0.00    -0.203 F 
ATOM     84  C   UNL A   1      45.473  25.650  36.249  1.00  0.00     0.198 A 
ATOM     85  C   UNL A   1      46.893  27.480  35.611  1.00  0.00     0.198 A 
ATOM     86  F   UNL A   1      46.081  29.147  34.162  1.00  0.00    -0.203 F 
ATOM     87  F   UNL A   1      45.275  24.527  36.953  1.00  0.00    -0.200 F 
ATOM     88  C   UNL A   1      46.695  26.305  36.319  1.00  0.00     0.200 A 
ATOM     89  F   UNL A   1      48.076  28.107  35.668  1.00  0.00    -0.200 F 
ATOM     90  F   UNL A   1      47.683  25.803  37.073  1.00  0.00    -0.200 F 
ENDBRANCH  57  80
ENDBRANCH  31  32
ENDBRANCH  24  26
ENDBRANCH  23  24
ENDBRANCH  22  23
ENDBRANCH   1  22
TORSDOF 15
ENDMDL
MODEL 3
REMARK VINA RESULT:     -11.7      1.002      2.263
REMARK SMILES CC(C)[C@@H]1CCCN1C(=O)N1CCO[C@H](CC(=O)OCCOC(=O)c2ccc(-c3c4nc(c(-c5c(F)c(F)c(F)c(F)c5F)c5ccc([nH]5)c(-c5c(F)c(F)c(F)c(F)c5F)c5nc(c(-c6c(F)c(F)c(F)c(F)c6F)c6ccc3[nH]6)C=C5)C=C4)cc2)C1
REMARK SMILES IDX 20 1 19 2 17 3 18 4 16 5 15 6 11 7 12 8 88 9 13 10 14 11
REMARK SMILES IDX 9 12 10 13 8 14 4 15 5 16 6 17 7 18 2 19 1 20 3 21 21 22
REMARK SMILES IDX 22 23 23 24 24 25 25 26 26 27 87 28 27 29 86 30 28 31 29 32
REMARK SMILES IDX 30 33 80 34 31 35 85 36 79 37 81 38 32 39 84 40 78 41 77 42
REMARK SMILES IDX 33 44 65 45 45 46 64 47 46 48 49 49 63 50 82 51 47 52 48 53
REMARK SMILES IDX 62 55 83 56 50 57 34 58 35 59 43 60 36 61 37 62 41 63 44 64
REMARK SMILES IDX 38 65 39 66 42 67 40 68 66 69 67 70 75 71 68 72 69 73 73 74
REMARK SMILES IDX 76 75 70 76 71 77 74 78 72 79 51 80 52 81 60 82 53 83 54 84
REMARK SMILES IDX 58 85 61 86 55 87 56 88 59 89 57 90
REMARK H PARENT 81 43 49 54
REMARK Flexibility Score: inf
ROOT
ATOM      1  C   UNL A   1      31.451  29.294  24.876  1.00  0.00     0.274 C 
ENDROOT
BRANCH   1   2
ATOM      2  O   UNL A   1      30.500  29.689  23.874  1.00  0.00    -0.462 OA
BRANCH   2   3
ATOM      3  C   UNL A   1      29.956  28.675  23.166  1.00  0.00     0.308 C 
ATOM      4  O   UNL A   1      29.131  28.816  22.267  1.00  0.00    -0.252 OA
BRANCH   3   5
ATOM      5  C   UNL A   1      30.300  27.320  23.686  1.00  0.00     0.156 C 
BRANCH   5   6
ATOM      6  C   UNL A   1      30.911  26.200  22.837  1.00  0.00     0.149 C 
ATOM      7  N   UNL A   1      32.697  25.925  24.422  1.00  0.00    -0.320 N 
ATOM      8  C   UNL A   1      33.734  26.138  23.426  1.00  0.00     0.150 C 
ATOM      9  C   UNL A   1      31.557  25.224  23.834  1.00  0.00     0.154 C 
ATOM     10  C   UNL A   1      33.172  26.918  22.224  1.00  0.00     0.182 C 
ATOM     11  O   UNL A   1      31.853  26.537  21.809  1.00  0.00    -0.374 OA
BRANCH   7  12
ATOM     12  C   UNL A   1      32.961  25.737  25.750  1.00  0.00     0.320 C 
ATOM     13  O   UNL A   1      33.046  26.709  26.502  1.00  0.00    -0.248 OA
BRANCH  12  14
ATOM     14  N   UNL A   1      33.304  24.458  26.165  1.00  0.00    -0.321 N 
ATOM     15  C   UNL A   1      34.596  23.738  26.299  1.00  0.00     0.089 C 
ATOM     16  C   UNL A   1      34.183  22.327  26.741  1.00  0.00     0.027 C 
ATOM     17  C   UNL A   1      32.986  22.607  27.625  1.00  0.00     0.024 C 
ATOM     18  C   UNL A   1      32.264  23.711  26.867  1.00  0.00     0.122 C 
BRANCH  15  19
ATOM     19  C   UNL A   1      35.565  23.728  25.107  1.00  0.00     0.005 C 
ATOM     20  C   UNL A   1      37.017  23.477  25.536  1.00  0.00     0.009 C 
ATOM     21  C   UNL A   1      35.181  22.755  23.995  1.00  0.00     0.009 C 
ENDBRANCH  15  19
ENDBRANCH  12  14
ENDBRANCH   7  12
ENDBRANCH   5   6
ENDBRANCH   3   5
ENDBRANCH   2   3
ENDBRANCH   1   2
BRANCH   1  22
ATOM     22  C   UNL A   1      31.775  30.440  25.838  1.00  0.00     0.275 C 
BRANCH  22  23
ATOM     23  O   UNL A   1      33.134  30.385  26.313  1.00  0.00    -0.458 OA
BRANCH  23  24
ATOM     24  C   UNL A   1      33.487  31.371  27.169  1.00  0.00     0.338 C 
ATOM     25  O   UNL A   1      32.815  32.332  27.517  1.00  0.00    -0.246 OA
BRANCH  24  26
ATOM     26  C   UNL A   1      34.789  31.064  27.771  1.00  0.00     0.060 A 
ATOM     27  C   UNL A   1      35.042  29.753  28.193  1.00  0.00     0.016 A 
ATOM     28  C   UNL A   1      35.719  32.075  27.995  1.00  0.00     0.016 A 
ATOM     29  C   UNL A   1      36.237  29.435  28.825  1.00  0.00     0.010 A 
ATOM     30  C   UNL A   1      36.911  31.762  28.648  1.00  0.00     0.010 A 
ATOM     31  C   UNL A   1      37.169  30.445  29.069  1.00  0.00    -0.014 A 
BRANCH  31  32
ATOM     32  C   UNL A   1      38.384  30.157  29.856  1.00  0.00     0.031 A 
ATOM     33  C   UNL A   1      39.406  29.226  29.283  1.00  0.00     0.074 A 
ATOM     34  C   UNL A   1      38.548  30.707  31.069  1.00  0.00     0.049 A 
ATOM     35  N   UNL A   1      40.423  28.650  29.866  1.00  0.00    -0.248 NA
ATOM     36  C   UNL A   1      39.254  28.893  27.858  1.00  0.00     0.031 C 
ATOM     37  C   UNL A   1      37.659  31.697  31.675  1.00  0.00     0.029 A 
ATOM     38  N   UNL A   1      39.511  30.490  32.019  1.00  0.00    -0.354 N 
ATOM     39  C   UNL A   1      41.011  27.858  28.890  1.00  0.00     0.074 A 
ATOM     40  C   UNL A   1      40.238  28.024  27.679  1.00  0.00     0.031 C 
ATOM     41  C   UNL A   1      38.109  31.990  32.906  1.00  0.00     0.029 A 
ATOM     42  C   UNL A   1      39.275  31.160  33.193  1.00  0.00     0.049 A 
ATOM     43  H   UNL A   1      40.295  29.912  31.874  1.00  0.00     0.167 HD
ATOM     44  C   UNL A   1      42.096  27.056  29.010  1.00  0.00     0.037 A 
ATOM     45  C   UNL A   1      39.903  31.065  34.380  1.00  0.00     0.037 A 
ATOM     46  C   UNL A   1      42.851  26.915  30.226  1.00  0.00     0.049 A 
ATOM     47  C   UNL A   1      41.045  30.094  34.519  1.00  0.00     0.074 A 
ATOM     48  C   UNL A   1      43.963  26.130  30.470  1.00  0.00     0.029 A 
ATOM     49  N   UNL A   1      42.564  27.584  31.410  1.00  0.00    -0.354 N 
ATOM     50  N   UNL A   1      41.579  29.310  33.612  1.00  0.00    -0.248 NA
ATOM     51  C   UNL A   1      41.658  29.978  35.848  1.00  0.00     0.031 C 
ATOM     52  C   UNL A   1      44.323  26.293  31.812  1.00  0.00     0.029 A 
ATOM     53  C   UNL A   1      43.466  27.215  32.393  1.00  0.00     0.049 A 
ATOM     54  H   UNL A   1      41.828  28.227  31.530  1.00  0.00     0.167 HD
ATOM     55  C   UNL A   1      42.609  28.633  34.249  1.00  0.00     0.074 A 
ATOM     56  C   UNL A   1      42.625  29.098  35.622  1.00  0.00     0.031 C 
ATOM     57  C   UNL A   1      43.467  27.714  33.745  1.00  0.00     0.037 A 
BRANCH  44  58
ATOM     58  C   UNL A   1      42.486  26.242  27.814  1.00  0.00     0.064 A 
ATOM     59  C   UNL A   1      41.886  25.006  27.529  1.00  0.00     0.173 A 
ATOM     60  C   UNL A   1      43.480  26.705  26.939  1.00  0.00     0.173 A 
ATOM     61  F   UNL A   1      40.944  24.509  28.345  1.00  0.00    -0.203 F 
ATOM     62  C   UNL A   1      42.288  24.251  26.430  1.00  0.00     0.198 A 
ATOM     63  C   UNL A   1      43.860  25.961  25.825  1.00  0.00     0.198 A 
ATOM     64  F   UNL A   1      44.086  27.881  27.164  1.00  0.00    -0.203 F 
ATOM     65  F   UNL A   1      41.738  23.049  26.207  1.00  0.00    -0.200 F 
ATOM     66  C   UNL A   1      43.271  24.731  25.577  1.00  0.00     0.200 A 
ATOM     67  F   UNL A   1      44.804  26.431  24.997  1.00  0.00    -0.200 F 
ATOM     68  F   UNL A   1      43.658  24.002  24.520  1.00  0.00    -0.200 F 
ENDBRANCH  44  58
BRANCH  45  69
ATOM     69  C   UNL A   1      39.446  31.887  35.529  1.00  0.00     0.064 A 
ATOM     70  C   UNL A   1      39.981  33.163  35.754  1.00  0.00     0.173 A 
ATOM     71  C   UNL A   1      38.461  31.425  36.416  1.00  0.00     0.173 A 
ATOM     72  F   UNL A   1      40.941  33.637  34.949  1.00  0.00    -0.203 F 
ATOM     73  C   UNL A   1      39.553  33.943  36.827  1.00  0.00     0.198 A 
ATOM     74  C   UNL A   1      38.015  32.217  37.472  1.00  0.00     0.198 A 
ATOM     75  F   UNL A   1      37.919  30.211  36.245  1.00  0.00    -0.203 F 
ATOM     76  F   UNL A   1      40.105  35.145  37.039  1.00  0.00    -0.200 F 
ATOM     77  C   UNL A   1      38.566  33.473  37.680  1.00  0.00     0.200 A 
ATOM     78  F   UNL A   1      37.053  31.763  38.287  1.00  0.00    -0.200 F 
ATOM     79  F   UNL A   1      38.148  34.228  38.705  1.00  0.00    -0.200 F 
ENDBRANCH  45  69
BRANCH  57  80
ATOM     80  C   UNL A   1      44.530  27.191  34.663  1.00  0.00     0.064 A 
ATOM     81  C   UNL A   1      44.350  26.015  35.404  1.00  0.00     0.173 A 
ATOM     82  C   UNL A   1      45.771  27.842  34.747  1.00  0.00     0.173 A 
ATOM     83  F   UNL A   1      43.176  25.367  35.367  1.00  0.00    -0.203 F 
ATOM     84  C   UNL A   1      45.372  25.514  36.206  1.00  0.00     0.198 A 
ATOM     85  C   UNL A   1      46.798  27.325  35.529  1.00  0.00     0.198 A 
ATOM     86  F   UNL A   1      45.990  28.968  34.051  1.00  0.00    -0.203 F 
ATOM     87  F   UNL A   1      45.170  24.405  36.931  1.00  0.00    -0.200 F 
ATOM     88  C   UNL A   1      46.597  26.165  36.260  1.00  0.00     0.200 A 
ATOM     89  F   UNL A   1      47.984  27.947  35.571  1.00  0.00    -0.200 F 
ATOM     90  F   UNL A   1      47.584  25.672  37.021  1.00  0.00    -0.200 F 
ENDBRANCH  57  80
ENDBRANCH  31  32
ENDBRANCH  24  26
ENDBRANCH  23  24
ENDBRANCH  22  23
ENDBRANCH   1  22
TORSDOF 15
ENDMDL
