MODEL 1
REMARK VINA RESULT:     -10.9      0.000      0.000
REMARK SMILES CC(C)(Cn1ccc(=O)nc1SCC(=O)OCCOC(=O)c1ccc(-c2c3nc(c(-c4c(F)c(F)c(F)c(F)c4F)c4ccc([nH]4)c(-c4c(F)c(F)c(F)c(F)c4F)c4nc(c(-c5c(F)c(F)c(F)c(F)c5F)c5ccc2[nH]5)C=C4)C=C3)cc1)S(C)(=O)=O
REMARK SMILES IDX 16 1 14 2 15 3 13 4 12 5 11 6 5 7 6 8 7 9 10 10 8 11 9 12
REMARK SMILES IDX 4 13 2 14 1 15 3 16 85 17 86 18 87 19 88 20 17 21 18 22
REMARK SMILES IDX 19 23 20 24 21 25 22 26 23 27 84 28 24 29 83 30 25 31 26 32
REMARK SMILES IDX 27 33 77 34 28 35 82 36 76 37 78 38 29 39 81 40 75 41 74 42
REMARK SMILES IDX 30 44 62 45 42 46 61 47 43 48 46 49 60 50 79 51 44 52 45 53
REMARK SMILES IDX 59 55 80 56 47 57 31 58 32 59 40 60 33 61 34 62 38 63 41 64
REMARK SMILES IDX 35 65 36 66 39 67 37 68 63 69 64 70 72 71 65 72 66 73 70 74
REMARK SMILES IDX 73 75 67 76 68 77 71 78 69 79 48 80 49 81 57 82 50 83 51 84
REMARK SMILES IDX 55 85 58 86 52 87 53 88 56 89 54 90
REMARK H PARENT 78 43 46 54
REMARK Flexibility Score: inf
ROOT
ATOM      1  O   UNL A   1      31.418  28.417  25.260  1.00  0.00    -0.461 OA
ENDROOT
BRANCH   1   2
ATOM      2  C   UNL A   1      32.642  27.878  24.984  1.00  0.00     0.316 C 
ATOM      3  O   UNL A   1      33.345  28.245  24.042  1.00  0.00    -0.251 OA
BRANCH   2   4
ATOM      4  C   UNL A   1      33.147  26.878  26.050  1.00  0.00     0.200 C 
BRANCH   4   5
ATOM      5  S   UNL A   1      33.825  25.352  25.341  1.00  0.00    -0.076 SA
BRANCH   5   6
ATOM      6  C   UNL A   1      32.561  24.127  25.458  1.00  0.00     0.172 A 
ATOM      7  N   UNL A   1      32.774  22.762  25.152  1.00  0.00    -0.326 N 
ATOM      8  C   UNL A   1      31.711  21.907  25.400  1.00  0.00     0.094 A 
ATOM      9  C   UNL A   1      30.610  22.301  26.035  1.00  0.00     0.091 A 
ATOM     10  N   UNL A   1      31.497  24.582  26.039  1.00  0.00    -0.185 NA
ATOM     11  C   UNL A   1      30.526  23.713  26.476  1.00  0.00     0.273 A 
ATOM     12  O   UNL A   1      29.618  24.032  27.223  1.00  0.00    -0.267 OA
BRANCH   7  13
ATOM     13  C   UNL A   1      33.965  22.251  24.450  1.00  0.00     0.146 C 
BRANCH  13  14
ATOM     14  C   UNL A   1      35.151  21.669  25.254  1.00  0.00     0.084 C 
ATOM     15  C   UNL A   1      34.947  21.755  26.771  1.00  0.00     0.030 C 
ATOM     16  C   UNL A   1      35.236  20.152  24.932  1.00  0.00     0.030 C 
BRANCH  14  17
ATOM     17  S   UNL A   1      36.762  22.349  24.770  1.00  0.00     0.154 S 
ATOM     18  C   UNL A   1      36.609  22.926  23.095  1.00  0.00     0.158 C 
ATOM     19  O   UNL A   1      36.978  23.538  25.580  1.00  0.00    -0.229 OA
ATOM     20  O   UNL A   1      37.746  21.289  24.819  1.00  0.00    -0.229 OA
ENDBRANCH  14  17
ENDBRANCH  13  14
ENDBRANCH   7  13
ENDBRANCH   5   6
ENDBRANCH   4   5
ENDBRANCH   2   4
ENDBRANCH   1   2
BRANCH   1  21
ATOM     21  C   UNL A   1      31.175  29.812  24.956  1.00  0.00     0.274 C 
BRANCH  21  22
ATOM     22  C   UNL A   1      31.671  30.752  26.080  1.00  0.00     0.275 C 
BRANCH  22  23
ATOM     23  O   UNL A   1      33.114  30.814  26.260  1.00  0.00    -0.458 OA
BRANCH  23  24
ATOM     24  C   UNL A   1      33.479  31.644  27.246  1.00  0.00     0.338 C 
ATOM     25  O   UNL A   1      33.064  32.776  27.421  1.00  0.00    -0.246 OA
BRANCH  24  26
ATOM     26  C   UNL A   1      34.602  31.320  28.096  1.00  0.00     0.060 A 
ATOM     27  C   UNL A   1      34.797  29.965  28.369  1.00  0.00     0.016 A 
ATOM     28  C   UNL A   1      35.668  32.229  28.155  1.00  0.00     0.016 A 
ATOM     29  C   UNL A   1      36.060  29.508  28.716  1.00  0.00     0.010 A 
ATOM     30  C   UNL A   1      36.919  31.790  28.585  1.00  0.00     0.010 A 
ATOM     31  C   UNL A   1      37.101  30.432  28.903  1.00  0.00    -0.014 A 
BRANCH  31  32
ATOM     32  C   UNL A   1      38.124  30.037  29.895  1.00  0.00     0.031 A 
ATOM     33  C   UNL A   1      39.224  29.164  29.344  1.00  0.00     0.074 A 
ATOM     34  C   UNL A   1      38.207  30.574  31.123  1.00  0.00     0.049 A 
ATOM     35  N   UNL A   1      40.282  28.677  29.930  1.00  0.00    -0.248 NA
ATOM     36  C   UNL A   1      39.134  28.831  27.907  1.00  0.00     0.031 C 
ATOM     37  C   UNL A   1      37.294  31.565  31.689  1.00  0.00     0.029 A 
ATOM     38  N   UNL A   1      39.150  30.388  32.103  1.00  0.00    -0.354 N 
ATOM     39  C   UNL A   1      40.971  27.999  28.933  1.00  0.00     0.074 A 
ATOM     40  C   UNL A   1      40.229  28.124  27.709  1.00  0.00     0.031 C 
ATOM     41  C   UNL A   1      37.742  31.924  32.908  1.00  0.00     0.029 A 
ATOM     42  C   UNL A   1      38.943  31.152  33.228  1.00  0.00     0.049 A 
ATOM     43  H   UNL A   1      39.906  29.765  32.010  1.00  0.00     0.167 HD
ATOM     44  C   UNL A   1      42.134  27.322  29.026  1.00  0.00     0.037 A 
ATOM     45  C   UNL A   1      39.647  31.191  34.377  1.00  0.00     0.037 A 
ATOM     46  C   UNL A   1      42.850  27.169  30.251  1.00  0.00     0.049 A 
ATOM     47  C   UNL A   1      40.848  30.279  34.513  1.00  0.00     0.074 A 
ATOM     48  C   UNL A   1      43.945  26.375  30.520  1.00  0.00     0.029 A 
ATOM     49  N   UNL A   1      42.527  27.841  31.420  1.00  0.00    -0.354 N 
ATOM     50  N   UNL A   1      41.428  29.529  33.606  1.00  0.00    -0.248 NA
ATOM     51  C   UNL A   1      41.472  30.196  35.841  1.00  0.00     0.031 C 
ATOM     52  C   UNL A   1      44.274  26.551  31.867  1.00  0.00     0.029 A 
ATOM     53  C   UNL A   1      43.407  27.484  32.419  1.00  0.00     0.049 A 
ATOM     54  H   UNL A   1      41.782  28.477  31.521  1.00  0.00     0.167 HD
ATOM     55  C   UNL A   1      42.492  28.905  34.246  1.00  0.00     0.074 A 
ATOM     56  C   UNL A   1      42.492  29.381  35.613  1.00  0.00     0.031 C 
ATOM     57  C   UNL A   1      43.384  28.007  33.759  1.00  0.00     0.037 A 
BRANCH  44  58
ATOM     58  C   UNL A   1      42.629  26.654  27.783  1.00  0.00     0.064 A 
ATOM     59  C   UNL A   1      42.247  25.346  27.454  1.00  0.00     0.173 A 
ATOM     60  C   UNL A   1      43.538  27.311  26.944  1.00  0.00     0.173 A 
ATOM     61  F   UNL A   1      41.425  24.658  28.262  1.00  0.00    -0.203 F 
ATOM     62  C   UNL A   1      42.769  24.715  26.328  1.00  0.00     0.198 A 
ATOM     63  C   UNL A   1      44.038  26.686  25.806  1.00  0.00     0.198 A 
ATOM     64  F   UNL A   1      43.957  28.551  27.239  1.00  0.00    -0.203 F 
ATOM     65  F   UNL A   1      42.435  23.444  26.059  1.00  0.00    -0.200 F 
ATOM     66  C   UNL A   1      43.657  25.388  25.502  1.00  0.00     0.200 A 
ATOM     67  F   UNL A   1      44.902  27.334  25.014  1.00  0.00    -0.200 F 
ATOM     68  F   UNL A   1      44.159  24.778  24.419  1.00  0.00    -0.200 F 
ENDBRANCH  44  58
BRANCH  45  69
ATOM     69  C   UNL A   1      39.236  32.066  35.514  1.00  0.00     0.064 A 
ATOM     70  C   UNL A   1      39.727  33.376  35.638  1.00  0.00     0.173 A 
ATOM     71  C   UNL A   1      38.409  31.591  36.544  1.00  0.00     0.173 A 
ATOM     72  F   UNL A   1      40.547  33.875  34.701  1.00  0.00    -0.203 F 
ATOM     73  C   UNL A   1      39.429  34.161  36.753  1.00  0.00     0.198 A 
ATOM     74  C   UNL A   1      38.085  32.388  37.642  1.00  0.00     0.198 A 
ATOM     75  F   UNL A   1      37.919  30.343  36.490  1.00  0.00    -0.203 F 
ATOM     76  F   UNL A   1      39.964  35.384  36.873  1.00  0.00    -0.200 F 
ATOM     77  C   UNL A   1      38.605  33.668  37.753  1.00  0.00     0.200 A 
ATOM     78  F   UNL A   1      37.282  31.906  38.601  1.00  0.00    -0.200 F 
ATOM     79  F   UNL A   1      38.325  34.417  38.827  1.00  0.00    -0.200 F 
ENDBRANCH  45  69
BRANCH  57  80
ATOM     80  C   UNL A   1      44.447  27.501  34.686  1.00  0.00     0.064 A 
ATOM     81  C   UNL A   1      45.647  28.202  34.867  1.00  0.00     0.173 A 
ATOM     82  C   UNL A   1      44.206  26.374  35.486  1.00  0.00     0.173 A 
ATOM     83  F   UNL A   1      45.918  29.282  34.120  1.00  0.00    -0.203 F 
ATOM     84  C   UNL A   1      46.575  27.785  35.814  1.00  0.00     0.198 A 
ATOM     85  C   UNL A   1      45.124  25.978  36.451  1.00  0.00     0.198 A 
ATOM     86  F   UNL A   1      43.062  25.685  35.356  1.00  0.00    -0.203 F 
ATOM     87  F   UNL A   1      47.727  28.454  35.959  1.00  0.00    -0.200 F 
ATOM     88  C   UNL A   1      46.308  26.682  36.614  1.00  0.00     0.200 A 
ATOM     89  F   UNL A   1      44.855  24.926  37.237  1.00  0.00    -0.200 F 
ATOM     90  F   UNL A   1      47.193  26.298  37.544  1.00  0.00    -0.200 F 
ENDBRANCH  57  80
ENDBRANCH  31  32
ENDBRANCH  24  26
ENDBRANCH  23  24
ENDBRANCH  22  23
ENDBRANCH  21  22
ENDBRANCH   1  21
TORSDOF 16
ENDMDL
MODEL 2
REMARK VINA RESULT:     -10.7      2.200      7.817
REMARK SMILES CC(C)(Cn1ccc(=O)nc1SCC(=O)OCCOC(=O)c1ccc(-c2c3nc(c(-c4c(F)c(F)c(F)c(F)c4F)c4ccc([nH]4)c(-c4c(F)c(F)c(F)c(F)c4F)c4nc(c(-c5c(F)c(F)c(F)c(F)c5F)c5ccc2[nH]5)C=C4)C=C3)cc1)S(C)(=O)=O
REMARK SMILES IDX 16 1 14 2 15 3 13 4 12 5 11 6 5 7 6 8 7 9 10 10 8 11 9 12
REMARK SMILES IDX 4 13 2 14 1 15 3 16 85 17 86 18 87 19 88 20 17 21 18 22
REMARK SMILES IDX 19 23 20 24 21 25 22 26 23 27 84 28 24 29 83 30 25 31 26 32
REMARK SMILES IDX 27 33 77 34 28 35 82 36 76 37 78 38 29 39 81 40 75 41 74 42
REMARK SMILES IDX 30 44 62 45 42 46 61 47 43 48 46 49 60 50 79 51 44 52 45 53
REMARK SMILES IDX 59 55 80 56 47 57 31 58 32 59 40 60 33 61 34 62 38 63 41 64
REMARK SMILES IDX 35 65 36 66 39 67 37 68 63 69 64 70 72 71 65 72 66 73 70 74
REMARK SMILES IDX 73 75 67 76 68 77 71 78 69 79 48 80 49 81 57 82 50 83 51 84
REMARK SMILES IDX 55 85 58 86 52 87 53 88 56 89 54 90
REMARK H PARENT 78 43 46 54
REMARK Flexibility Score: inf
ROOT
ATOM      1  O   UNL A   1      32.634  30.522  26.675  1.00  0.00    -0.461 OA
ENDROOT
BRANCH   1   2
ATOM      2  C   UNL A   1      32.316  29.742  25.600  1.00  0.00     0.316 C 
ATOM      3  O   UNL A   1      31.256  29.841  24.983  1.00  0.00    -0.251 OA
BRANCH   2   4
ATOM      4  C   UNL A   1      33.469  28.831  25.118  1.00  0.00     0.200 C 
BRANCH   4   5
ATOM      5  S   UNL A   1      33.426  27.170  25.847  1.00  0.00    -0.076 SA
BRANCH   5   6
ATOM      6  C   UNL A   1      33.685  26.026  24.531  1.00  0.00     0.172 A 
ATOM      7  N   UNL A   1      33.648  24.621  24.706  1.00  0.00    -0.326 N 
ATOM      8  C   UNL A   1      33.761  23.859  23.553  1.00  0.00     0.094 A 
ATOM      9  C   UNL A   1      33.744  24.397  22.336  1.00  0.00     0.091 A 
ATOM     10  N   UNL A   1      33.709  26.612  23.376  1.00  0.00    -0.185 NA
ATOM     11  C   UNL A   1      33.612  25.868  22.224  1.00  0.00     0.273 A 
ATOM     12  O   UNL A   1      33.400  26.347  21.125  1.00  0.00    -0.267 OA
BRANCH   7  13
ATOM     13  C   UNL A   1      33.666  23.955  26.019  1.00  0.00     0.146 C 
BRANCH  13  14
ATOM     14  C   UNL A   1      32.536  22.973  26.409  1.00  0.00     0.084 C 
ATOM     15  C   UNL A   1      32.662  21.610  25.718  1.00  0.00     0.030 C 
ATOM     16  C   UNL A   1      32.670  22.682  27.928  1.00  0.00     0.030 C 
BRANCH  14  17
ATOM     17  S   UNL A   1      30.871  23.662  26.201  1.00  0.00     0.154 S 
ATOM     18  C   UNL A   1      29.763  22.666  27.171  1.00  0.00     0.158 C 
ATOM     19  O   UNL A   1      30.876  24.974  26.828  1.00  0.00    -0.229 OA
ATOM     20  O   UNL A   1      30.499  23.563  24.806  1.00  0.00    -0.229 OA
ENDBRANCH  14  17
ENDBRANCH  13  14
ENDBRANCH   7  13
ENDBRANCH   5   6
ENDBRANCH   4   5
ENDBRANCH   2   4
ENDBRANCH   1   2
BRANCH   1  21
ATOM     21  C   UNL A   1      31.886  31.739  26.911  1.00  0.00     0.274 C 
BRANCH  21  22
ATOM     22  C   UNL A   1      32.809  32.954  27.161  1.00  0.00     0.275 C 
BRANCH  22  23
ATOM     23  O   UNL A   1      32.255  34.007  28.000  1.00  0.00    -0.458 OA
BRANCH  23  24
ATOM     24  C   UNL A   1      33.195  34.679  28.678  1.00  0.00     0.338 C 
ATOM     25  O   UNL A   1      33.316  35.890  28.727  1.00  0.00    -0.246 OA
BRANCH  24  26
ATOM     26  C   UNL A   1      34.316  33.979  29.262  1.00  0.00     0.060 A 
ATOM     27  C   UNL A   1      35.582  34.364  28.815  1.00  0.00     0.016 A 
ATOM     28  C   UNL A   1      34.144  33.393  30.524  1.00  0.00     0.016 A 
ATOM     29  C   UNL A   1      36.690  34.153  29.623  1.00  0.00     0.010 A 
ATOM     30  C   UNL A   1      35.263  33.102  31.302  1.00  0.00     0.010 A 
ATOM     31  C   UNL A   1      36.541  33.450  30.829  1.00  0.00    -0.014 A 
BRANCH  31  32
ATOM     32  C   UNL A   1      37.722  32.669  31.255  1.00  0.00     0.031 A 
ATOM     33  C   UNL A   1      38.216  32.990  32.644  1.00  0.00     0.074 A 
ATOM     34  C   UNL A   1      38.195  31.614  30.572  1.00  0.00     0.049 A 
ATOM     35  N   UNL A   1      39.196  32.469  33.328  1.00  0.00    -0.248 NA
ATOM     36  C   UNL A   1      37.458  34.022  33.383  1.00  0.00     0.031 C 
ATOM     37  C   UNL A   1      37.672  31.110  29.303  1.00  0.00     0.029 A 
ATOM     38  N   UNL A   1      39.203  30.739  30.890  1.00  0.00    -0.354 N 
ATOM     39  C   UNL A   1      39.157  33.103  34.563  1.00  0.00     0.074 A 
ATOM     40  C   UNL A   1      38.072  34.046  34.549  1.00  0.00     0.031 C 
ATOM     41  C   UNL A   1      38.346  29.993  28.967  1.00  0.00     0.029 A 
ATOM     42  C   UNL A   1      39.379  29.733  29.970  1.00  0.00     0.049 A 
ATOM     43  H   UNL A   1      39.751  30.824  31.703  1.00  0.00     0.167 HD
ATOM     44  C   UNL A   1      39.961  32.918  35.629  1.00  0.00     0.037 A 
ATOM     45  C   UNL A   1      40.290  28.738  29.952  1.00  0.00     0.037 A 
ATOM     46  C   UNL A   1      41.061  32.008  35.626  1.00  0.00     0.049 A 
ATOM     47  C   UNL A   1      41.297  28.671  31.081  1.00  0.00     0.074 A 
ATOM     48  C   UNL A   1      42.051  31.843  36.572  1.00  0.00     0.029 A 
ATOM     49  N   UNL A   1      41.304  31.099  34.606  1.00  0.00    -0.354 N 
ATOM     50  N   UNL A   1      41.344  29.362  32.196  1.00  0.00    -0.248 NA
ATOM     51  C   UNL A   1      42.396  27.705  30.934  1.00  0.00     0.031 C 
ATOM     52  C   UNL A   1      42.912  30.844  36.112  1.00  0.00     0.029 A 
ATOM     53  C   UNL A   1      42.432  30.363  34.902  1.00  0.00     0.049 A 
ATOM     54  H   UNL A   1      40.755  30.997  33.796  1.00  0.00     0.167 HD
ATOM     55  C   UNL A   1      42.458  28.902  32.887  1.00  0.00     0.074 A 
ATOM     56  C   UNL A   1      43.049  27.857  32.078  1.00  0.00     0.031 C 
ATOM     57  C   UNL A   1      42.964  29.312  34.077  1.00  0.00     0.037 A 
BRANCH  44  58
ATOM     58  C   UNL A   1      39.704  33.774  36.827  1.00  0.00     0.064 A 
ATOM     59  C   UNL A   1      38.901  33.328  37.887  1.00  0.00     0.173 A 
ATOM     60  C   UNL A   1      40.221  35.075  36.889  1.00  0.00     0.173 A 
ATOM     61  F   UNL A   1      38.337  32.111  37.840  1.00  0.00    -0.203 F 
ATOM     62  C   UNL A   1      38.618  34.161  38.964  1.00  0.00     0.198 A 
ATOM     63  C   UNL A   1      39.955  35.897  37.979  1.00  0.00     0.198 A 
ATOM     64  F   UNL A   1      40.965  35.555  35.882  1.00  0.00    -0.203 F 
ATOM     65  F   UNL A   1      37.804  33.737  39.942  1.00  0.00    -0.200 F 
ATOM     66  C   UNL A   1      39.151  35.441  39.014  1.00  0.00     0.200 A 
ATOM     67  F   UNL A   1      40.464  37.135  38.021  1.00  0.00    -0.200 F 
ATOM     68  F   UNL A   1      38.876  36.243  40.052  1.00  0.00    -0.200 F 
ENDBRANCH  44  58
BRANCH  45  69
ATOM     69  C   UNL A   1      40.350  27.755  28.832  1.00  0.00     0.064 A 
ATOM     70  C   UNL A   1      41.055  28.038  27.652  1.00  0.00     0.173 A 
ATOM     71  C   UNL A   1      39.641  26.544  28.880  1.00  0.00     0.173 A 
ATOM     72  F   UNL A   1      41.726  29.194  27.535  1.00  0.00    -0.203 F 
ATOM     73  C   UNL A   1      41.027  27.167  26.561  1.00  0.00     0.198 A 
ATOM     74  C   UNL A   1      39.639  25.659  27.803  1.00  0.00     0.198 A 
ATOM     75  F   UNL A   1      38.936  26.222  29.975  1.00  0.00    -0.203 F 
ATOM     76  F   UNL A   1      41.659  27.496  25.426  1.00  0.00    -0.200 F 
ATOM     77  C   UNL A   1      40.322  25.977  26.639  1.00  0.00     0.200 A 
ATOM     78  F   UNL A   1      38.962  24.506  27.888  1.00  0.00    -0.200 F 
ATOM     79  F   UNL A   1      40.288  25.143  25.591  1.00  0.00    -0.200 F 
ENDBRANCH  45  69
BRANCH  57  80
ATOM     80  C   UNL A   1      44.189  28.621  34.593  1.00  0.00     0.064 A 
ATOM     81  C   UNL A   1      45.469  29.141  34.362  1.00  0.00     0.173 A 
ATOM     82  C   UNL A   1      44.067  27.498  35.425  1.00  0.00     0.173 A 
ATOM     83  F   UNL A   1      45.631  30.211  33.569  1.00  0.00    -0.203 F 
ATOM     84  C   UNL A   1      46.588  28.555  34.943  1.00  0.00     0.198 A 
ATOM     85  C   UNL A   1      45.185  26.933  36.026  1.00  0.00     0.198 A 
ATOM     86  F   UNL A   1      42.858  26.978  35.686  1.00  0.00    -0.203 F 
ATOM     87  F   UNL A   1      47.808  29.053  34.694  1.00  0.00    -0.200 F 
ATOM     88  C   UNL A   1      46.445  27.460  35.784  1.00  0.00     0.200 A 
ATOM     89  F   UNL A   1      45.043  25.889  36.855  1.00  0.00    -0.200 F 
ATOM     90  F   UNL A   1      47.523  26.914  36.363  1.00  0.00    -0.200 F 
ENDBRANCH  57  80
ENDBRANCH  31  32
ENDBRANCH  24  26
ENDBRANCH  23  24
ENDBRANCH  22  23
ENDBRANCH  21  22
ENDBRANCH   1  21
TORSDOF 16
ENDMDL
MODEL 3
REMARK VINA RESULT:     -10.6      2.032      7.917
REMARK SMILES CC(C)(Cn1ccc(=O)nc1SCC(=O)OCCOC(=O)c1ccc(-c2c3nc(c(-c4c(F)c(F)c(F)c(F)c4F)c4ccc([nH]4)c(-c4c(F)c(F)c(F)c(F)c4F)c4nc(c(-c5c(F)c(F)c(F)c(F)c5F)c5ccc2[nH]5)C=C4)C=C3)cc1)S(C)(=O)=O
REMARK SMILES IDX 16 1 14 2 15 3 13 4 12 5 11 6 5 7 6 8 7 9 10 10 8 11 9 12
REMARK SMILES IDX 4 13 2 14 1 15 3 16 85 17 86 18 87 19 88 20 17 21 18 22
REMARK SMILES IDX 19 23 20 24 21 25 22 26 23 27 84 28 24 29 83 30 25 31 26 32
REMARK SMILES IDX 27 33 77 34 28 35 82 36 76 37 78 38 29 39 81 40 75 41 74 42
REMARK SMILES IDX 30 44 62 45 42 46 61 47 43 48 46 49 60 50 79 51 44 52 45 53
REMARK SMILES IDX 59 55 80 56 47 57 31 58 32 59 40 60 33 61 34 62 38 63 41 64
REMARK SMILES IDX 35 65 36 66 39 67 37 68 63 69 64 70 72 71 65 72 66 73 70 74
REMARK SMILES IDX 73 75 67 76 68 77 71 78 69 79 48 80 49 81 57 82 50 83 51 84
REMARK SMILES IDX 55 85 58 86 52 87 53 88 56 89 54 90
REMARK H PARENT 78 43 46 54
REMARK Flexibility Score: inf
ROOT
ATOM      1  O   UNL A   1      32.802  30.444  27.073  1.00  0.00    -0.461 OA
ENDROOT
BRANCH   1   2
ATOM      2  C   UNL A   1      32.486  29.120  27.183  1.00  0.00     0.316 C 
ATOM      3  O   UNL A   1      31.402  28.717  27.605  1.00  0.00    -0.251 OA
BRANCH   2   4
ATOM      4  C   UNL A   1      33.544  28.166  26.582  1.00  0.00     0.200 C 
BRANCH   4   5
ATOM      5  S   UNL A   1      33.653  28.260  24.773  1.00  0.00    -0.076 SA
BRANCH   5   6
ATOM      6  C   UNL A   1      32.030  27.971  24.147  1.00  0.00     0.172 A 
ATOM      7  N   UNL A   1      31.377  26.718  24.231  1.00  0.00    -0.326 N 
ATOM      8  C   UNL A   1      30.063  26.682  23.792  1.00  0.00     0.094 A 
ATOM      9  C   UNL A   1      29.391  27.781  23.459  1.00  0.00     0.091 A 
ATOM     10  N   UNL A   1      31.443  29.070  23.792  1.00  0.00    -0.185 NA
ATOM     11  C   UNL A   1      30.090  29.084  23.554  1.00  0.00     0.273 A 
ATOM     12  O   UNL A   1      29.432  30.102  23.442  1.00  0.00    -0.267 OA
BRANCH   7  13
ATOM     13  C   UNL A   1      32.055  25.460  24.590  1.00  0.00     0.146 C 
BRANCH  13  14
ATOM     14  C   UNL A   1      32.513  24.480  23.484  1.00  0.00     0.084 C 
ATOM     15  C   UNL A   1      31.455  23.425  23.143  1.00  0.00     0.030 C 
ATOM     16  C   UNL A   1      32.714  25.303  22.183  1.00  0.00     0.030 C 
BRANCH  14  17
ATOM     17  S   UNL A   1      34.123  23.711  23.814  1.00  0.00     0.154 S 
ATOM     18  C   UNL A   1      33.811  22.166  24.634  1.00  0.00     0.158 C 
ATOM     19  O   UNL A   1      34.698  23.367  22.524  1.00  0.00    -0.229 OA
ATOM     20  O   UNL A   1      34.875  24.575  24.700  1.00  0.00    -0.229 OA
ENDBRANCH  14  17
ENDBRANCH  13  14
ENDBRANCH   7  13
ENDBRANCH   5   6
ENDBRANCH   4   5
ENDBRANCH   2   4
ENDBRANCH   1   2
BRANCH   1  21
ATOM     21  C   UNL A   1      31.839  31.355  26.490  1.00  0.00     0.274 C 
BRANCH  21  22
ATOM     22  C   UNL A   1      31.625  32.615  27.360  1.00  0.00     0.275 C 
BRANCH  22  23
ATOM     23  O   UNL A   1      32.554  33.711  27.124  1.00  0.00    -0.458 OA
BRANCH  23  24
ATOM     24  C   UNL A   1      33.089  34.190  28.255  1.00  0.00     0.338 C 
ATOM     25  O   UNL A   1      32.830  35.262  28.773  1.00  0.00    -0.246 OA
BRANCH  24  26
ATOM     26  C   UNL A   1      34.222  33.532  28.864  1.00  0.00     0.060 A 
ATOM     27  C   UNL A   1      35.482  34.007  28.492  1.00  0.00     0.016 A 
ATOM     28  C   UNL A   1      34.028  32.886  30.093  1.00  0.00     0.016 A 
ATOM     29  C   UNL A   1      36.563  33.827  29.343  1.00  0.00     0.010 A 
ATOM     30  C   UNL A   1      35.126  32.628  30.912  1.00  0.00     0.010 A 
ATOM     31  C   UNL A   1      36.401  33.067  30.513  1.00  0.00    -0.014 A 
BRANCH  31  32
ATOM     32  C   UNL A   1      37.606  32.339  30.965  1.00  0.00     0.031 A 
ATOM     33  C   UNL A   1      38.087  32.719  32.343  1.00  0.00     0.074 A 
ATOM     34  C   UNL A   1      38.113  31.278  30.315  1.00  0.00     0.049 A 
ATOM     35  N   UNL A   1      39.082  32.251  33.044  1.00  0.00    -0.248 NA
ATOM     36  C   UNL A   1      37.295  33.748  33.049  1.00  0.00     0.031 C 
ATOM     37  C   UNL A   1      37.610  30.719  29.062  1.00  0.00     0.029 A 
ATOM     38  N   UNL A   1      39.149  30.447  30.661  1.00  0.00    -0.354 N 
ATOM     39  C   UNL A   1      39.020  32.922  34.258  1.00  0.00     0.074 A 
ATOM     40  C   UNL A   1      37.905  33.828  34.214  1.00  0.00     0.031 C 
ATOM     41  C   UNL A   1      38.320  29.614  28.762  1.00  0.00     0.029 A 
ATOM     42  C   UNL A   1      39.359  29.419  29.773  1.00  0.00     0.049 A 
ATOM     43  H   UNL A   1      39.692  30.575  31.472  1.00  0.00     0.167 HD
ATOM     44  C   UNL A   1      39.827  32.796  35.330  1.00  0.00     0.037 A 
ATOM     45  C   UNL A   1      40.301  28.454  29.788  1.00  0.00     0.037 A 
ATOM     46  C   UNL A   1      40.955  31.922  35.357  1.00  0.00     0.049 A 
ATOM     47  C   UNL A   1      41.308  28.454  30.920  1.00  0.00     0.074 A 
ATOM     48  C   UNL A   1      41.948  31.818  36.309  1.00  0.00     0.029 A 
ATOM     49  N   UNL A   1      41.230  30.990  34.367  1.00  0.00    -0.354 N 
ATOM     50  N   UNL A   1      41.330  29.180  32.012  1.00  0.00    -0.248 NA
ATOM     51  C   UNL A   1      42.438  27.520  30.803  1.00  0.00     0.031 C 
ATOM     52  C   UNL A   1      42.843  30.834  35.881  1.00  0.00     0.029 A 
ATOM     53  C   UNL A   1      42.380  30.300  34.687  1.00  0.00     0.049 A 
ATOM     54  H   UNL A   1      40.686  30.845  33.560  1.00  0.00     0.167 HD
ATOM     55  C   UNL A   1      42.457  28.778  32.719  1.00  0.00     0.074 A 
ATOM     56  C   UNL A   1      43.082  27.728  31.942  1.00  0.00     0.031 C 
ATOM     57  C   UNL A   1      42.948  29.241  33.895  1.00  0.00     0.037 A 
BRANCH  44  58
ATOM     58  C   UNL A   1      39.541  33.680  36.501  1.00  0.00     0.064 A 
ATOM     59  C   UNL A   1      40.074  34.974  36.589  1.00  0.00     0.173 A 
ATOM     60  C   UNL A   1      38.770  33.207  37.570  1.00  0.00     0.173 A 
ATOM     61  F   UNL A   1      40.867  35.445  35.614  1.00  0.00    -0.203 F 
ATOM     62  C   UNL A   1      39.852  35.761  37.715  1.00  0.00     0.198 A 
ATOM     63  C   UNL A   1      38.529  34.005  38.685  1.00  0.00     0.198 A 
ATOM     64  F   UNL A   1      38.268  31.963  37.544  1.00  0.00    -0.203 F 
ATOM     65  F   UNL A   1      40.416  36.974  37.806  1.00  0.00    -0.200 F 
ATOM     66  C   UNL A   1      39.074  35.279  38.758  1.00  0.00     0.200 A 
ATOM     67  F   UNL A   1      37.785  33.535  39.694  1.00  0.00    -0.200 F 
ATOM     68  F   UNL A   1      38.862  36.037  39.842  1.00  0.00    -0.200 F 
ENDBRANCH  44  58
BRANCH  45  69
ATOM     69  C   UNL A   1      40.395  27.438  28.699  1.00  0.00     0.064 A 
ATOM     70  C   UNL A   1      41.155  27.678  27.543  1.00  0.00     0.173 A 
ATOM     71  C   UNL A   1      39.666  26.239  28.750  1.00  0.00     0.173 A 
ATOM     72  F   UNL A   1      41.848  28.820  27.424  1.00  0.00    -0.203 F 
ATOM     73  C   UNL A   1      41.161  26.777  26.477  1.00  0.00     0.198 A 
ATOM     74  C   UNL A   1      39.698  25.324  27.698  1.00  0.00     0.198 A 
ATOM     75  F   UNL A   1      38.909  25.958  29.821  1.00  0.00    -0.203 F 
ATOM     76  F   UNL A   1      41.846  27.065  25.362  1.00  0.00    -0.200 F 
ATOM     77  C   UNL A   1      40.435  25.599  26.557  1.00  0.00     0.200 A 
ATOM     78  F   UNL A   1      39.000  24.183  27.785  1.00  0.00    -0.200 F 
ATOM     79  F   UNL A   1      40.434  24.737  25.531  1.00  0.00    -0.200 F 
ENDBRANCH  45  69
BRANCH  57  80
ATOM     80  C   UNL A   1      44.193  28.606  34.434  1.00  0.00     0.064 A 
ATOM     81  C   UNL A   1      44.133  27.489  35.278  1.00  0.00     0.173 A 
ATOM     82  C   UNL A   1      45.453  29.048  34.003  1.00  0.00     0.173 A 
ATOM     83  F   UNL A   1      42.949  27.036  35.717  1.00  0.00    -0.203 F 
ATOM     84  C   UNL A   1      45.295  26.839  35.677  1.00  0.00     0.198 A 
ATOM     85  C   UNL A   1      46.609  28.378  34.382  1.00  0.00     0.198 A 
ATOM     86  F   UNL A   1      45.554  30.103  33.180  1.00  0.00    -0.203 F 
ATOM     87  F   UNL A   1      45.220  25.785  36.502  1.00  0.00    -0.200 F 
ATOM     88  C   UNL A   1      46.531  27.276  35.220  1.00  0.00     0.200 A 
ATOM     89  F   UNL A   1      47.800  28.787  33.922  1.00  0.00    -0.200 F 
ATOM     90  F   UNL A   1      47.647  26.631  35.587  1.00  0.00    -0.200 F 
ENDBRANCH  57  80
ENDBRANCH  31  32
ENDBRANCH  24  26
ENDBRANCH  23  24
ENDBRANCH  22  23
ENDBRANCH  21  22
ENDBRANCH   1  21
TORSDOF 16
ENDMDL
