MODEL 1
REMARK VINA RESULT:     -11.2      0.000      0.000
REMARK SMILES CCCCCCNC(=O)Oc1cccc(-c2ccc([C@@H](C)C(=O)OCCOC(=O)c3ccc(-c4c5nc(c(-c6c(F)c(F)c(F)c(F)c6F)c6ccc([nH]6)c(-c6c(F)c(F)c(F)c(F)c6F)c6nc(c(-c7c(F)c(F)c(F)c(F)c7F)c7ccc4[nH]7)C=C6)C=C5)cc3)cc2F)c1
REMARK SMILES IDX 20 1 21 2 19 3 16 4 17 5 94 6 18 7 93 8 95 9 15 10 11 11
REMARK SMILES IDX 12 12 96 13 13 14 14 15 10 16 8 17 7 18 9 20 6 21 5 22 4 23
REMARK SMILES IDX 3 24 2 25 1 26 22 27 23 28 24 29 25 30 26 31 27 32 28 33
REMARK SMILES IDX 29 34 30 35 31 36 92 37 32 38 91 39 33 40 34 41 35 42 85 43
REMARK SMILES IDX 36 44 90 45 84 46 86 47 37 48 89 49 83 50 82 51 38 53 70 54
REMARK SMILES IDX 50 55 69 56 51 57 54 58 68 59 87 60 52 61 53 62 67 64 88 65
REMARK SMILES IDX 55 66 39 67 40 68 48 69 41 70 42 71 46 72 49 73 43 74 44 75
REMARK SMILES IDX 47 76 45 77 71 78 72 79 80 80 73 81 74 82 78 83 81 84 75 85
REMARK SMILES IDX 76 86 79 87 77 88 56 89 57 90 65 91 58 92 59 93 63 94 66 95
REMARK SMILES IDX 60 96 61 97 64 98 62 99
REMARK H PARENT 7 19 86 52 54 63
REMARK Flexibility Score: inf
ROOT
ATOM      1  C   UNL A   1      34.727  32.311  28.363  1.00  0.00     0.126 C 
ATOM      2  C   UNL A   1      36.221  32.017  28.241  1.00  0.00     0.025 C 
ENDROOT
BRANCH   1   3
ATOM      3  C   UNL A   1      33.866  31.310  27.607  1.00  0.00    -0.031 A 
ATOM      4  C   UNL A   1      32.280  29.387  26.224  1.00  0.00     0.018 A 
ATOM      5  C   UNL A   1      31.774  30.659  26.540  1.00  0.00     0.012 A 
ATOM      6  C   UNL A   1      33.592  29.103  26.616  1.00  0.00     0.131 A 
ATOM      7  C   UNL A   1      32.553  31.605  27.216  1.00  0.00     0.005 A 
ATOM      8  C   UNL A   1      34.377  30.043  27.285  1.00  0.00     0.044 A 
ATOM      9  F   UNL A   1      34.143  27.911  26.334  1.00  0.00    -0.206 F 
BRANCH   4  10
ATOM     10  C   UNL A   1      31.453  28.411  25.496  1.00  0.00    -0.012 A 
ATOM     11  C   UNL A   1      30.406  26.232  25.301  1.00  0.00     0.133 A 
ATOM     12  C   UNL A   1      29.848  26.578  24.074  1.00  0.00     0.047 A 
ATOM     13  C   UNL A   1      31.218  27.125  26.005  1.00  0.00     0.056 A 
ATOM     14  C   UNL A   1      30.078  27.846  23.553  1.00  0.00     0.004 A 
ATOM     15  C   UNL A   1      30.872  28.754  24.259  1.00  0.00     0.009 A 
BRANCH  11  16
ATOM     16  O   UNL A   1      30.200  24.914  25.741  1.00  0.00    -0.410 OA
BRANCH  16  17
ATOM     17  C   UNL A   1      31.296  24.220  26.230  1.00  0.00     0.412 C 
ATOM     18  N   UNL A   1      32.011  23.585  25.251  1.00  0.00    -0.321 N 
ATOM     19  H   UNL A   1      32.820  23.102  25.540  1.00  0.00     0.167 HD
ATOM     20  O   UNL A   1      31.633  24.131  27.406  1.00  0.00    -0.224 OA
BRANCH  18  21
ATOM     21  C   UNL A   1      31.707  23.546  23.836  1.00  0.00     0.119 C 
BRANCH  21  22
ATOM     22  C   UNL A   1      32.967  23.515  22.973  1.00  0.00     0.021 C 
BRANCH  22  23
ATOM     23  C   UNL A   1      34.053  24.522  23.378  1.00  0.00     0.002 C 
BRANCH  23  24
ATOM     24  C   UNL A   1      33.582  25.970  23.556  1.00  0.00    -0.000 C 
BRANCH  24  25
ATOM     25  C   UNL A   1      33.465  26.791  22.270  1.00  0.00    -0.003 C 
ATOM     26  C   UNL A   1      33.959  28.221  22.419  1.00  0.00     0.004 C 
ENDBRANCH  24  25
ENDBRANCH  23  24
ENDBRANCH  22  23
ENDBRANCH  21  22
ENDBRANCH  18  21
ENDBRANCH  16  17
ENDBRANCH  11  16
ENDBRANCH   4  10
ENDBRANCH   1   3
BRANCH   1  27
ATOM     27  C   UNL A   1      34.458  33.780  28.053  1.00  0.00     0.313 C 
ATOM     28  O   UNL A   1      35.062  34.380  27.169  1.00  0.00    -0.252 OA
BRANCH  27  29
ATOM     29  O   UNL A   1      33.471  34.325  28.812  1.00  0.00    -0.462 OA
BRANCH  29  30
ATOM     30  C   UNL A   1      33.277  35.749  28.709  1.00  0.00     0.274 C 
BRANCH  30  31
ATOM     31  C   UNL A   1      32.761  36.344  30.022  1.00  0.00     0.275 C 
BRANCH  31  32
ATOM     32  O   UNL A   1      32.525  35.318  31.005  1.00  0.00    -0.458 OA
BRANCH  32  33
ATOM     33  C   UNL A   1      32.765  35.692  32.282  1.00  0.00     0.338 C 
ATOM     34  O   UNL A   1      32.076  36.406  32.988  1.00  0.00    -0.246 OA
BRANCH  33  35
ATOM     35  C   UNL A   1      33.949  34.988  32.794  1.00  0.00     0.060 A 
ATOM     36  C   UNL A   1      35.183  35.634  32.682  1.00  0.00     0.016 A 
ATOM     37  C   UNL A   1      33.874  33.684  33.283  1.00  0.00     0.016 A 
ATOM     38  C   UNL A   1      36.354  34.973  33.031  1.00  0.00     0.010 A 
ATOM     39  C   UNL A   1      35.052  33.022  33.646  1.00  0.00     0.010 A 
ATOM     40  C   UNL A   1      36.298  33.656  33.501  1.00  0.00    -0.014 A 
BRANCH  40  41
ATOM     41  C   UNL A   1      37.565  32.942  33.783  1.00  0.00     0.031 A 
ATOM     42  C   UNL A   1      38.306  33.210  35.059  1.00  0.00     0.074 A 
ATOM     43  C   UNL A   1      38.016  32.017  32.919  1.00  0.00     0.049 A 
ATOM     44  N   UNL A   1      39.426  32.688  35.493  1.00  0.00    -0.248 NA
ATOM     45  C   UNL A   1      37.711  34.200  35.969  1.00  0.00     0.031 C 
ATOM     46  C   UNL A   1      37.363  31.651  31.663  1.00  0.00     0.029 A 
ATOM     47  N   UNL A   1      39.125  31.213  32.969  1.00  0.00    -0.354 N 
ATOM     48  C   UNL A   1      39.677  33.295  36.715  1.00  0.00     0.074 A 
ATOM     49  C   UNL A   1      38.606  34.242  36.945  1.00  0.00     0.031 C 
ATOM     50  C   UNL A   1      38.081  30.690  31.062  1.00  0.00     0.029 A 
ATOM     51  C   UNL A   1      39.259  30.396  31.876  1.00  0.00     0.049 A 
ATOM     52  H   UNL A   1      39.764  31.221  33.718  1.00  0.00     0.167 HD
ATOM     53  C   UNL A   1      40.704  33.074  37.571  1.00  0.00     0.037 A 
ATOM     54  C   UNL A   1      40.230  29.519  31.558  1.00  0.00     0.037 A 
ATOM     55  C   UNL A   1      41.759  32.121  37.345  1.00  0.00     0.049 A 
ATOM     56  C   UNL A   1      41.375  29.312  32.510  1.00  0.00     0.074 A 
ATOM     57  C   UNL A   1      42.832  31.808  38.162  1.00  0.00     0.029 A 
ATOM     58  N   UNL A   1      41.875  31.326  36.213  1.00  0.00    -0.354 N 
ATOM     59  N   UNL A   1      41.597  29.879  33.671  1.00  0.00    -0.248 NA
ATOM     60  C   UNL A   1      42.402  28.340  32.109  1.00  0.00     0.031 C 
ATOM     61  C   UNL A   1      43.618  30.853  37.506  1.00  0.00     0.029 A 
ATOM     62  C   UNL A   1      43.012  30.539  36.300  1.00  0.00     0.049 A 
ATOM     63  H   UNL A   1      41.242  31.323  35.459  1.00  0.00     0.167 HD
ATOM     64  C   UNL A   1      42.778  29.327  34.147  1.00  0.00     0.074 A 
ATOM     65  C   UNL A   1      43.218  28.365  33.155  1.00  0.00     0.031 C 
ATOM     66  C   UNL A   1      43.438  29.592  35.301  1.00  0.00     0.037 A 
BRANCH  53  67
ATOM     67  C   UNL A   1      40.748  33.908  38.817  1.00  0.00     0.064 A 
ATOM     68  C   UNL A   1      41.481  35.102  38.882  1.00  0.00     0.173 A 
ATOM     69  C   UNL A   1      40.040  33.508  39.961  1.00  0.00     0.173 A 
ATOM     70  F   UNL A   1      42.185  35.520  37.820  1.00  0.00    -0.203 F 
ATOM     71  C   UNL A   1      41.531  35.847  40.058  1.00  0.00     0.198 A 
ATOM     72  C   UNL A   1      40.071  34.269  41.126  1.00  0.00     0.198 A 
ATOM     73  F   UNL A   1      39.320  32.376  39.950  1.00  0.00    -0.203 F 
ATOM     74  F   UNL A   1      42.280  36.957  40.114  1.00  0.00    -0.200 F 
ATOM     75  C   UNL A   1      40.823  35.433  41.177  1.00  0.00     0.200 A 
ATOM     76  F   UNL A   1      39.379  33.873  42.204  1.00  0.00    -0.200 F 
ATOM     77  F   UNL A   1      40.875  36.151  42.307  1.00  0.00    -0.200 F 
ENDBRANCH  53  67
BRANCH  54  78
ATOM     78  C   UNL A   1      40.149  28.777  30.276  1.00  0.00     0.064 A 
ATOM     79  C   UNL A   1      40.729  29.286  29.107  1.00  0.00     0.173 A 
ATOM     80  C   UNL A   1      39.517  27.526  30.204  1.00  0.00     0.173 A 
ATOM     81  F   UNL A   1      41.323  30.488  29.123  1.00  0.00    -0.203 F 
ATOM     82  C   UNL A   1      40.679  28.571  27.912  1.00  0.00     0.198 A 
ATOM     83  C   UNL A   1      39.489  26.802  29.015  1.00  0.00     0.198 A 
ATOM     84  F   UNL A   1      38.948  26.999  31.298  1.00  0.00    -0.203 F 
ATOM     85  F   UNL A   1      41.218  29.090  26.801  1.00  0.00    -0.200 F 
ATOM     86  C   UNL A   1      40.068  27.326  27.869  1.00  0.00     0.200 A 
ATOM     87  F   UNL A   1      38.909  25.595  28.982  1.00  0.00    -0.200 F 
ATOM     88  F   UNL A   1      40.033  26.634  26.722  1.00  0.00    -0.200 F 
ENDBRANCH  54  78
BRANCH  66  89
ATOM     89  C   UNL A   1      44.700  28.822  35.560  1.00  0.00     0.064 A 
ATOM     90  C   UNL A   1      44.680  27.586  36.220  1.00  0.00     0.173 A 
ATOM     91  C   UNL A   1      45.936  29.309  35.107  1.00  0.00     0.173 A 
ATOM     92  F   UNL A   1      43.525  27.087  36.685  1.00  0.00    -0.203 F 
ATOM     93  C   UNL A   1      45.856  26.872  36.435  1.00  0.00     0.198 A 
ATOM     94  C   UNL A   1      47.106  28.581  35.302  1.00  0.00     0.198 A 
ATOM     95  F   UNL A   1      46.006  30.484  34.465  1.00  0.00    -0.203 F 
ATOM     96  F   UNL A   1      45.820  25.711  37.103  1.00  0.00    -0.200 F 
ATOM     97  C   UNL A   1      47.066  27.367  35.971  1.00  0.00     0.200 A 
ATOM     98  F   UNL A   1      48.273  29.055  34.845  1.00  0.00    -0.200 F 
ATOM     99  F   UNL A   1      48.196  26.676  36.175  1.00  0.00    -0.200 F 
ENDBRANCH  66  89
ENDBRANCH  40  41
ENDBRANCH  33  35
ENDBRANCH  32  33
ENDBRANCH  31  32
ENDBRANCH  30  31
ENDBRANCH  29  30
ENDBRANCH  27  29
ENDBRANCH   1  27
TORSDOF 20
ENDMDL
MODEL 2
REMARK VINA RESULT:     -11.1      4.292      9.647
REMARK SMILES CCCCCCNC(=O)Oc1cccc(-c2ccc([C@@H](C)C(=O)OCCOC(=O)c3ccc(-c4c5nc(c(-c6c(F)c(F)c(F)c(F)c6F)c6ccc([nH]6)c(-c6c(F)c(F)c(F)c(F)c6F)c6nc(c(-c7c(F)c(F)c(F)c(F)c7F)c7ccc4[nH]7)C=C6)C=C5)cc3)cc2F)c1
REMARK SMILES IDX 20 1 21 2 19 3 16 4 17 5 94 6 18 7 93 8 95 9 15 10 11 11
REMARK SMILES IDX 12 12 96 13 13 14 14 15 10 16 8 17 7 18 9 20 6 21 5 22 4 23
REMARK SMILES IDX 3 24 2 25 1 26 22 27 23 28 24 29 25 30 26 31 27 32 28 33
REMARK SMILES IDX 29 34 30 35 31 36 92 37 32 38 91 39 33 40 34 41 35 42 85 43
REMARK SMILES IDX 36 44 90 45 84 46 86 47 37 48 89 49 83 50 82 51 38 53 70 54
REMARK SMILES IDX 50 55 69 56 51 57 54 58 68 59 87 60 52 61 53 62 67 64 88 65
REMARK SMILES IDX 55 66 39 67 40 68 48 69 41 70 42 71 46 72 49 73 43 74 44 75
REMARK SMILES IDX 47 76 45 77 71 78 72 79 80 80 73 81 74 82 78 83 81 84 75 85
REMARK SMILES IDX 76 86 79 87 77 88 56 89 57 90 65 91 58 92 59 93 63 94 66 95
REMARK SMILES IDX 60 96 61 97 64 98 62 99
REMARK H PARENT 7 19 86 52 54 63
REMARK Flexibility Score: inf
ROOT
ATOM      1  C   UNL A   1      41.993  19.926  26.713  1.00  0.00     0.126 C 
ATOM      2  C   UNL A   1      41.906  19.113  28.003  1.00  0.00     0.025 C 
ENDROOT
BRANCH   1   3
ATOM      3  C   UNL A   1      40.643  20.462  26.261  1.00  0.00    -0.031 A 
ATOM      4  C   UNL A   1      38.086  21.409  25.430  1.00  0.00     0.018 A 
ATOM      5  C   UNL A   1      39.030  22.271  26.012  1.00  0.00     0.012 A 
ATOM      6  C   UNL A   1      38.451  20.068  25.276  1.00  0.00     0.131 A 
ATOM      7  C   UNL A   1      40.287  21.808  26.417  1.00  0.00     0.005 A 
ATOM      8  C   UNL A   1      39.705  19.599  25.672  1.00  0.00     0.044 A 
ATOM      9  F   UNL A   1      37.602  19.192  24.716  1.00  0.00    -0.206 F 
BRANCH   4  10
ATOM     10  C   UNL A   1      36.777  21.918  24.992  1.00  0.00    -0.012 A 
ATOM     11  C   UNL A   1      34.383  22.174  25.294  1.00  0.00     0.133 A 
ATOM     12  C   UNL A   1      34.289  22.927  24.126  1.00  0.00     0.047 A 
ATOM     13  C   UNL A   1      35.607  21.654  25.722  1.00  0.00     0.056 A 
ATOM     14  C   UNL A   1      35.438  23.190  23.388  1.00  0.00     0.004 A 
ATOM     15  C   UNL A   1      36.670  22.692  23.820  1.00  0.00     0.009 A 
BRANCH  11  16
ATOM     16  O   UNL A   1      33.180  21.879  25.955  1.00  0.00    -0.410 OA
BRANCH  16  17
ATOM     17  C   UNL A   1      32.907  22.564  27.129  1.00  0.00     0.412 C 
ATOM     18  N   UNL A   1      31.933  23.515  26.982  1.00  0.00    -0.321 N 
ATOM     19  H   UNL A   1      31.677  24.010  27.793  1.00  0.00     0.167 HD
ATOM     20  O   UNL A   1      33.455  22.395  28.212  1.00  0.00    -0.224 OA
BRANCH  18  21
ATOM     21  C   UNL A   1      31.240  23.870  25.761  1.00  0.00     0.119 C 
BRANCH  21  22
ATOM     22  C   UNL A   1      30.187  24.955  25.987  1.00  0.00     0.021 C 
BRANCH  22  23
ATOM     23  C   UNL A   1      30.690  26.393  25.803  1.00  0.00     0.002 C 
BRANCH  23  24
ATOM     24  C   UNL A   1      30.977  26.815  24.357  1.00  0.00    -0.000 C 
BRANCH  24  25
ATOM     25  C   UNL A   1      30.636  28.268  24.014  1.00  0.00    -0.003 C 
ATOM     26  C   UNL A   1      29.706  28.403  22.819  1.00  0.00     0.004 C 
ENDBRANCH  24  25
ENDBRANCH  23  24
ENDBRANCH  22  23
ENDBRANCH  21  22
ENDBRANCH  18  21
ENDBRANCH  16  17
ENDBRANCH  11  16
ENDBRANCH   4  10
ENDBRANCH   1   3
BRANCH   1  27
ATOM     27  C   UNL A   1      42.782  19.152  25.662  1.00  0.00     0.313 C 
ATOM     28  O   UNL A   1      42.809  17.924  25.641  1.00  0.00    -0.252 OA
BRANCH  27  29
ATOM     29  O   UNL A   1      43.398  19.946  24.748  1.00  0.00    -0.462 OA
BRANCH  29  30
ATOM     30  C   UNL A   1      44.337  20.916  25.249  1.00  0.00     0.274 C 
BRANCH  30  31
ATOM     31  C   UNL A   1      44.369  22.174  24.377  1.00  0.00     0.275 C 
BRANCH  31  32
ATOM     32  O   UNL A   1      43.556  23.222  24.939  1.00  0.00    -0.458 OA
BRANCH  32  33
ATOM     33  C   UNL A   1      44.196  24.398  25.123  1.00  0.00     0.338 C 
ATOM     34  O   UNL A   1      45.142  24.835  24.492  1.00  0.00    -0.246 OA
BRANCH  33  35
ATOM     35  C   UNL A   1      43.494  25.193  26.141  1.00  0.00     0.060 A 
ATOM     36  C   UNL A   1      43.923  26.507  26.342  1.00  0.00     0.016 A 
ATOM     37  C   UNL A   1      42.503  24.640  26.950  1.00  0.00     0.016 A 
ATOM     38  C   UNL A   1      43.387  27.270  27.371  1.00  0.00     0.010 A 
ATOM     39  C   UNL A   1      41.953  25.411  27.980  1.00  0.00     0.010 A 
ATOM     40  C   UNL A   1      42.407  26.722  28.208  1.00  0.00    -0.014 A 
BRANCH  40  41
ATOM     41  C   UNL A   1      41.914  27.522  29.352  1.00  0.00     0.031 A 
ATOM     42  C   UNL A   1      42.649  27.492  30.659  1.00  0.00     0.074 A 
ATOM     43  C   UNL A   1      40.838  28.313  29.198  1.00  0.00     0.049 A 
ATOM     44  N   UNL A   1      42.382  28.121  31.776  1.00  0.00    -0.248 NA
ATOM     45  C   UNL A   1      43.844  26.637  30.720  1.00  0.00     0.031 C 
ATOM     46  C   UNL A   1      40.063  28.447  27.966  1.00  0.00     0.029 A 
ATOM     47  N   UNL A   1      40.218  29.159  30.081  1.00  0.00    -0.354 N 
ATOM     48  C   UNL A   1      43.364  27.728  32.674  1.00  0.00     0.074 A 
ATOM     49  C   UNL A   1      44.220  26.788  31.982  1.00  0.00     0.031 C 
ATOM     50  C   UNL A   1      39.071  29.328  28.169  1.00  0.00     0.029 A 
ATOM     51  C   UNL A   1      39.123  29.795  29.553  1.00  0.00     0.049 A 
ATOM     52  H   UNL A   1      40.528  29.297  31.005  1.00  0.00     0.167 HD
ATOM     53  C   UNL A   1      43.539  28.124  33.958  1.00  0.00     0.037 A 
ATOM     54  C   UNL A   1      38.252  30.648  30.124  1.00  0.00     0.037 A 
ATOM     55  C   UNL A   1      42.694  29.071  34.639  1.00  0.00     0.049 A 
ATOM     56  C   UNL A   1      38.450  31.051  31.559  1.00  0.00     0.074 A 
ATOM     57  C   UNL A   1      42.801  29.552  35.932  1.00  0.00     0.029 A 
ATOM     58  N   UNL A   1      41.578  29.678  34.078  1.00  0.00    -0.354 N 
ATOM     59  N   UNL A   1      39.390  30.686  32.397  1.00  0.00    -0.248 NA
ATOM     60  C   UNL A   1      37.469  31.986  32.125  1.00  0.00     0.031 C 
ATOM     61  C   UNL A   1      41.728  30.421  36.166  1.00  0.00     0.029 A 
ATOM     62  C   UNL A   1      40.977  30.513  35.005  1.00  0.00     0.049 A 
ATOM     63  H   UNL A   1      41.261  29.535  33.157  1.00  0.00     0.167 HD
ATOM     64  C   UNL A   1      39.123  31.354  33.584  1.00  0.00     0.074 A 
ATOM     65  C   UNL A   1      37.942  32.161  33.352  1.00  0.00     0.031 C 
ATOM     66  C   UNL A   1      39.797  31.304  34.760  1.00  0.00     0.037 A 
BRANCH  53  67
ATOM     67  C   UNL A   1      44.674  27.503  34.718  1.00  0.00     0.064 A 
ATOM     68  C   UNL A   1      45.948  28.088  34.750  1.00  0.00     0.173 A 
ATOM     69  C   UNL A   1      44.480  26.308  35.428  1.00  0.00     0.173 A 
ATOM     70  F   UNL A   1      46.188  29.222  34.076  1.00  0.00    -0.203 F 
ATOM     71  C   UNL A   1      46.996  27.481  35.438  1.00  0.00     0.198 A 
ATOM     72  C   UNL A   1      45.523  25.719  36.136  1.00  0.00     0.198 A 
ATOM     73  F   UNL A   1      43.279  25.711  35.433  1.00  0.00    -0.203 F 
ATOM     74  F   UNL A   1      48.219  28.028  35.413  1.00  0.00    -0.200 F 
ATOM     75  C   UNL A   1      46.782  26.300  36.134  1.00  0.00     0.200 A 
ATOM     76  F   UNL A   1      45.312  24.583  36.817  1.00  0.00    -0.200 F 
ATOM     77  F   UNL A   1      47.793  25.717  36.794  1.00  0.00    -0.200 F 
ENDBRANCH  53  67
BRANCH  54  78
ATOM     78  C   UNL A   1      37.117  31.171  29.325  1.00  0.00     0.064 A 
ATOM     79  C   UNL A   1      36.017  30.361  29.013  1.00  0.00     0.173 A 
ATOM     80  C   UNL A   1      37.095  32.504  28.887  1.00  0.00     0.173 A 
ATOM     81  F   UNL A   1      36.005  29.074  29.391  1.00  0.00    -0.203 F 
ATOM     82  C   UNL A   1      34.938  30.865  28.291  1.00  0.00     0.198 A 
ATOM     83  C   UNL A   1      36.005  33.012  28.186  1.00  0.00     0.198 A 
ATOM     84  F   UNL A   1      38.125  33.317  29.163  1.00  0.00    -0.203 F 
ATOM     85  F   UNL A   1      33.909  30.064  27.982  1.00  0.00    -0.200 F 
ATOM     86  C   UNL A   1      34.928  32.192  27.886  1.00  0.00     0.200 A 
ATOM     87  F   UNL A   1      35.994  34.298  27.808  1.00  0.00    -0.200 F 
ATOM     88  F   UNL A   1      33.883  32.679  27.204  1.00  0.00    -0.200 F 
ENDBRANCH  54  78
BRANCH  66  89
ATOM     89  C   UNL A   1      39.280  32.156  35.881  1.00  0.00     0.064 A 
ATOM     90  C   UNL A   1      38.374  31.652  36.825  1.00  0.00     0.173 A 
ATOM     91  C   UNL A   1      39.728  33.476  36.036  1.00  0.00     0.173 A 
ATOM     92  F   UNL A   1      37.905  30.401  36.710  1.00  0.00    -0.203 F 
ATOM     93  C   UNL A   1      37.919  32.448  37.873  1.00  0.00     0.198 A 
ATOM     94  C   UNL A   1      39.289  34.261  37.100  1.00  0.00     0.198 A 
ATOM     95  F   UNL A   1      40.599  34.002  35.163  1.00  0.00    -0.203 F 
ATOM     96  F   UNL A   1      37.022  31.960  38.741  1.00  0.00    -0.200 F 
ATOM     97  C   UNL A   1      38.381  33.748  38.013  1.00  0.00     0.200 A 
ATOM     98  F   UNL A   1      39.744  35.513  37.239  1.00  0.00    -0.200 F 
ATOM     99  F   UNL A   1      37.945  34.510  39.026  1.00  0.00    -0.200 F 
ENDBRANCH  66  89
ENDBRANCH  40  41
ENDBRANCH  33  35
ENDBRANCH  32  33
ENDBRANCH  31  32
ENDBRANCH  30  31
ENDBRANCH  29  30
ENDBRANCH  27  29
ENDBRANCH   1  27
TORSDOF 20
ENDMDL
MODEL 3
REMARK VINA RESULT:     -10.9      5.186     10.598
REMARK SMILES CCCCCCNC(=O)Oc1cccc(-c2ccc([C@@H](C)C(=O)OCCOC(=O)c3ccc(-c4c5nc(c(-c6c(F)c(F)c(F)c(F)c6F)c6ccc([nH]6)c(-c6c(F)c(F)c(F)c(F)c6F)c6nc(c(-c7c(F)c(F)c(F)c(F)c7F)c7ccc4[nH]7)C=C6)C=C5)cc3)cc2F)c1
REMARK SMILES IDX 20 1 21 2 19 3 16 4 17 5 94 6 18 7 93 8 95 9 15 10 11 11
REMARK SMILES IDX 12 12 96 13 13 14 14 15 10 16 8 17 7 18 9 20 6 21 5 22 4 23
REMARK SMILES IDX 3 24 2 25 1 26 22 27 23 28 24 29 25 30 26 31 27 32 28 33
REMARK SMILES IDX 29 34 30 35 31 36 92 37 32 38 91 39 33 40 34 41 35 42 85 43
REMARK SMILES IDX 36 44 90 45 84 46 86 47 37 48 89 49 83 50 82 51 38 53 70 54
REMARK SMILES IDX 50 55 69 56 51 57 54 58 68 59 87 60 52 61 53 62 67 64 88 65
REMARK SMILES IDX 55 66 39 67 40 68 48 69 41 70 42 71 46 72 49 73 43 74 44 75
REMARK SMILES IDX 47 76 45 77 71 78 72 79 80 80 73 81 74 82 78 83 81 84 75 85
REMARK SMILES IDX 76 86 79 87 77 88 56 89 57 90 65 91 58 92 59 93 63 94 66 95
REMARK SMILES IDX 60 96 61 97 64 98 62 99
REMARK H PARENT 7 19 86 52 54 63
REMARK Flexibility Score: inf
ROOT
ATOM      1  C   UNL A   1      42.073  21.665  27.281  1.00  0.00     0.126 C 
ATOM      2  C   UNL A   1      41.121  20.528  27.646  1.00  0.00     0.025 C 
ENDROOT
BRANCH   1   3
ATOM      3  C   UNL A   1      41.499  23.038  27.597  1.00  0.00    -0.031 A 
ATOM      4  C   UNL A   1      40.367  25.583  28.202  1.00  0.00     0.018 A 
ATOM      5  C   UNL A   1      41.699  25.280  28.530  1.00  0.00     0.012 A 
ATOM      6  C   UNL A   1      39.620  24.585  27.568  1.00  0.00     0.131 A 
ATOM      7  C   UNL A   1      42.257  24.032  28.231  1.00  0.00     0.005 A 
ATOM      8  C   UNL A   1      40.170  23.340  27.261  1.00  0.00     0.044 A 
ATOM      9  F   UNL A   1      38.344  24.811  27.215  1.00  0.00    -0.206 F 
BRANCH   4  10
ATOM     10  C   UNL A   1      39.802  26.907  28.507  1.00  0.00    -0.012 A 
ATOM     11  C   UNL A   1      38.491  28.392  29.907  1.00  0.00     0.133 A 
ATOM     12  C   UNL A   1      38.755  29.468  29.063  1.00  0.00     0.047 A 
ATOM     13  C   UNL A   1      38.989  27.117  29.631  1.00  0.00     0.056 A 
ATOM     14  C   UNL A   1      39.553  29.275  27.941  1.00  0.00     0.004 A 
ATOM     15  C   UNL A   1      40.074  28.006  27.668  1.00  0.00     0.009 A 
BRANCH  11  16
ATOM     16  O   UNL A   1      37.619  28.630  30.982  1.00  0.00    -0.410 OA
BRANCH  16  17
ATOM     17  C   UNL A   1      38.094  28.388  32.262  1.00  0.00     0.412 C 
ATOM     18  N   UNL A   1      38.426  29.531  32.937  1.00  0.00    -0.321 N 
ATOM     19  H   UNL A   1      38.740  29.418  33.864  1.00  0.00     0.167 HD
ATOM     20  O   UNL A   1      38.241  27.289  32.785  1.00  0.00    -0.224 OA
BRANCH  18  21
ATOM     21  C   UNL A   1      38.366  30.888  32.435  1.00  0.00     0.119 C 
BRANCH  21  22
ATOM     22  C   UNL A   1      39.755  31.491  32.228  1.00  0.00     0.021 C 
BRANCH  22  23
ATOM     23  C   UNL A   1      39.780  33.017  32.067  1.00  0.00     0.002 C 
BRANCH  23  24
ATOM     24  C   UNL A   1      39.889  33.531  30.627  1.00  0.00    -0.000 C 
BRANCH  24  25
ATOM     25  C   UNL A   1      38.655  34.261  30.090  1.00  0.00    -0.003 C 
ATOM     26  C   UNL A   1      37.903  33.474  29.030  1.00  0.00     0.004 C 
ENDBRANCH  24  25
ENDBRANCH  23  24
ENDBRANCH  22  23
ENDBRANCH  21  22
ENDBRANCH  18  21
ENDBRANCH  16  17
ENDBRANCH  11  16
ENDBRANCH   4  10
ENDBRANCH   1   3
BRANCH   1  27
ATOM     27  C   UNL A   1      42.588  21.476  25.858  1.00  0.00     0.313 C 
ATOM     28  O   UNL A   1      42.808  20.363  25.387  1.00  0.00    -0.252 OA
BRANCH  27  29
ATOM     29  O   UNL A   1      42.729  22.640  25.170  1.00  0.00    -0.462 OA
BRANCH  29  30
ATOM     30  C   UNL A   1      43.882  22.760  24.315  1.00  0.00     0.274 C 
BRANCH  30  31
ATOM     31  C   UNL A   1      44.950  23.665  24.933  1.00  0.00     0.275 C 
BRANCH  31  32
ATOM     32  O   UNL A   1      44.652  25.056  24.709  1.00  0.00    -0.458 OA
BRANCH  32  33
ATOM     33  C   UNL A   1      45.683  25.900  24.939  1.00  0.00     0.338 C 
ATOM     34  O   UNL A   1      46.771  25.909  24.391  1.00  0.00    -0.246 OA
BRANCH  33  35
ATOM     35  C   UNL A   1      45.268  26.950  25.879  1.00  0.00     0.060 A 
ATOM     36  C   UNL A   1      46.266  27.576  26.630  1.00  0.00     0.016 A 
ATOM     37  C   UNL A   1      43.924  27.252  26.096  1.00  0.00     0.016 A 
ATOM     38  C   UNL A   1      45.929  28.486  27.624  1.00  0.00     0.010 A 
ATOM     39  C   UNL A   1      43.583  28.177  27.089  1.00  0.00     0.010 A 
ATOM     40  C   UNL A   1      44.582  28.782  27.871  1.00  0.00    -0.014 A 
BRANCH  40  41
ATOM     41  C   UNL A   1      44.243  29.687  28.993  1.00  0.00     0.031 A 
ATOM     42  C   UNL A   1      44.018  29.126  30.365  1.00  0.00     0.074 A 
ATOM     43  C   UNL A   1      44.191  31.014  28.786  1.00  0.00     0.049 A 
ATOM     44  N   UNL A   1      43.716  29.749  31.476  1.00  0.00    -0.248 NA
ATOM     45  C   UNL A   1      44.146  27.668  30.507  1.00  0.00     0.031 C 
ATOM     46  C   UNL A   1      44.422  31.675  27.503  1.00  0.00     0.029 A 
ATOM     47  N   UNL A   1      43.933  32.044  29.654  1.00  0.00    -0.354 N 
ATOM     48  C   UNL A   1      43.604  28.761  32.444  1.00  0.00     0.074 A 
ATOM     49  C   UNL A   1      43.847  27.494  31.786  1.00  0.00     0.031 C 
ATOM     50  C   UNL A   1      44.301  33.001  27.668  1.00  0.00     0.029 A 
ATOM     51  C   UNL A   1      43.953  33.280  29.060  1.00  0.00     0.049 A 
ATOM     52  H   UNL A   1      43.752  31.910  30.613  1.00  0.00     0.167 HD
ATOM     53  C   UNL A   1      43.331  28.900  33.764  1.00  0.00     0.037 A 
ATOM     54  C   UNL A   1      43.705  34.498  29.576  1.00  0.00     0.037 A 
ATOM     55  C   UNL A   1      43.105  30.163  34.418  1.00  0.00     0.049 A 
ATOM     56  C   UNL A   1      43.377  34.626  31.037  1.00  0.00     0.074 A 
ATOM     57  C   UNL A   1      42.844  30.411  35.754  1.00  0.00     0.029 A 
ATOM     58  N   UNL A   1      43.110  31.395  33.777  1.00  0.00    -0.354 N 
ATOM     59  N   UNL A   1      43.287  33.688  31.949  1.00  0.00    -0.248 NA
ATOM     60  C   UNL A   1      43.119  35.981  31.542  1.00  0.00     0.031 C 
ATOM     61  C   UNL A   1      42.652  31.789  35.915  1.00  0.00     0.029 A 
ATOM     62  C   UNL A   1      42.836  32.404  34.687  1.00  0.00     0.049 A 
ATOM     63  H   UNL A   1      43.283  31.531  32.817  1.00  0.00     0.167 HD
ATOM     64  C   UNL A   1      42.977  34.336  33.136  1.00  0.00     0.074 A 
ATOM     65  C   UNL A   1      42.910  35.752  32.832  1.00  0.00     0.031 C 
ATOM     66  C   UNL A   1      42.766  33.807  34.366  1.00  0.00     0.037 A 
BRANCH  53  67
ATOM     67  C   UNL A   1      43.232  27.645  34.579  1.00  0.00     0.064 A 
ATOM     68  C   UNL A   1      44.350  27.087  35.215  1.00  0.00     0.173 A 
ATOM     69  C   UNL A   1      41.996  26.995  34.730  1.00  0.00     0.173 A 
ATOM     70  F   UNL A   1      45.555  27.662  35.090  1.00  0.00    -0.203 F 
ATOM     71  C   UNL A   1      44.241  25.905  35.945  1.00  0.00     0.198 A 
ATOM     72  C   UNL A   1      41.888  25.829  35.482  1.00  0.00     0.198 A 
ATOM     73  F   UNL A   1      40.895  27.491  34.146  1.00  0.00    -0.203 F 
ATOM     74  F   UNL A   1      45.332  25.360  36.501  1.00  0.00    -0.200 F 
ATOM     75  C   UNL A   1      43.011  25.280  36.082  1.00  0.00     0.200 A 
ATOM     76  F   UNL A   1      40.696  25.232  35.621  1.00  0.00    -0.200 F 
ATOM     77  F   UNL A   1      42.910  24.142  36.782  1.00  0.00    -0.200 F 
ENDBRANCH  53  67
BRANCH  54  78
ATOM     78  C   UNL A   1      43.761  35.688  28.690  1.00  0.00     0.064 A 
ATOM     79  C   UNL A   1      42.605  36.193  28.083  1.00  0.00     0.173 A 
ATOM     80  C   UNL A   1      44.970  36.363  28.464  1.00  0.00     0.173 A 
ATOM     81  F   UNL A   1      41.431  35.566  28.252  1.00  0.00    -0.203 F 
ATOM     82  C   UNL A   1      42.656  37.329  27.279  1.00  0.00     0.198 A 
ATOM     83  C   UNL A   1      45.015  37.513  27.680  1.00  0.00     0.198 A 
ATOM     84  F   UNL A   1      46.103  35.917  29.026  1.00  0.00    -0.203 F 
ATOM     85  F   UNL A   1      41.541  37.778  26.686  1.00  0.00    -0.200 F 
ATOM     86  C   UNL A   1      43.858  37.994  27.085  1.00  0.00     0.200 A 
ATOM     87  F   UNL A   1      46.177  38.158  27.507  1.00  0.00    -0.200 F 
ATOM     88  F   UNL A   1      43.903  39.095  26.323  1.00  0.00    -0.200 F 
ENDBRANCH  54  78
BRANCH  66  89
ATOM     89  C   UNL A   1      42.457  34.764  35.479  1.00  0.00     0.064 A 
ATOM     90  C   UNL A   1      43.475  35.386  36.214  1.00  0.00     0.173 A 
ATOM     91  C   UNL A   1      41.127  35.092  35.785  1.00  0.00     0.173 A 
ATOM     92  F   UNL A   1      44.761  35.093  35.968  1.00  0.00    -0.203 F 
ATOM     93  C   UNL A   1      43.173  36.289  37.230  1.00  0.00     0.198 A 
ATOM     94  C   UNL A   1      40.830  36.014  36.786  1.00  0.00     0.198 A 
ATOM     95  F   UNL A   1      40.117  34.528  35.107  1.00  0.00    -0.203 F 
ATOM     96  F   UNL A   1      44.161  36.842  37.948  1.00  0.00    -0.200 F 
ATOM     97  C   UNL A   1      41.853  36.606  37.511  1.00  0.00     0.200 A 
ATOM     98  F   UNL A   1      39.554  36.327  37.050  1.00  0.00    -0.200 F 
ATOM     99  F   UNL A   1      41.565  37.479  38.486  1.00  0.00    -0.200 F 
ENDBRANCH  66  89
ENDBRANCH  40  41
ENDBRANCH  33  35
ENDBRANCH  32  33
ENDBRANCH  31  32
ENDBRANCH  30  31
ENDBRANCH  29  30
ENDBRANCH  27  29
ENDBRANCH   1  27
TORSDOF 20
ENDMDL
