MODEL 1
REMARK VINA RESULT:     -11.6      0.000      0.000
REMARK SMILES CCc1ccc(N(C)C(=O)N2CC[C@@H](C(=O)OCCOC(=O)c3ccc(-c4c5nc(c(-c6c(F)c(F)c(F)c(F)c6F)c6ccc([nH]6)c(-c6c(F)c(F)c(F)c(F)c6F)c6nc(c(-c7c(F)c(F)c(F)c(F)c7F)c7ccc4[nH]7)C=C6)C=C5)cc3)[C@@H]2C)cc1
REMARK SMILES IDX 18 1 17 2 15 3 16 4 14 5 11 6 12 7 86 8 13 9 87 10 9 11
REMARK SMILES IDX 10 12 7 13 8 14 6 15 3 16 4 17 89 18 5 19 88 20 2 21 1 22
REMARK SMILES IDX 19 23 20 24 21 25 22 26 23 27 24 28 85 29 25 30 84 31 26 32
REMARK SMILES IDX 27 33 28 34 78 35 29 36 83 37 77 38 79 39 30 40 82 41 76 42
REMARK SMILES IDX 75 43 31 45 63 46 43 47 62 48 44 49 47 50 61 51 80 52 45 53
REMARK SMILES IDX 46 54 60 56 81 57 48 58 32 59 33 60 41 61 34 62 35 63 39 64
REMARK SMILES IDX 42 65 36 66 37 67 40 68 38 69 64 70 65 71 73 72 66 73 67 74
REMARK SMILES IDX 71 75 74 76 68 77 69 78 72 79 70 80 49 81 50 82 58 83 51 84
REMARK SMILES IDX 52 85 56 86 59 87 53 88 54 89 57 90 55 91
REMARK H PARENT 79 44 47 55
REMARK Flexibility Score: inf
ROOT
ATOM      1  C   UNL A   1      36.466  20.804  25.007  1.00  0.00     0.274 C 
ENDROOT
BRANCH   1   2
ATOM      2  O   UNL A   1      36.469  22.108  24.392  1.00  0.00    -0.462 OA
BRANCH   2   3
ATOM      3  C   UNL A   1      35.272  22.573  23.954  1.00  0.00     0.311 C 
ATOM      4  O   UNL A   1      35.128  23.337  23.006  1.00  0.00    -0.252 OA
BRANCH   3   5
ATOM      5  C   UNL A   1      34.095  22.098  24.781  1.00  0.00     0.123 C 
ATOM      6  N   UNL A   1      32.244  23.237  25.748  1.00  0.00    -0.321 N 
ATOM      7  C   UNL A   1      31.717  22.224  24.856  1.00  0.00     0.122 C 
ATOM      8  C   UNL A   1      33.682  23.004  25.964  1.00  0.00     0.098 C 
ATOM      9  C   UNL A   1      32.856  21.985  23.893  1.00  0.00     0.039 C 
ATOM     10  C   UNL A   1      33.914  22.307  27.310  1.00  0.00     0.032 C 
BRANCH   6  11
ATOM     11  C   UNL A   1      31.351  24.093  26.367  1.00  0.00     0.324 C 
ATOM     12  O   UNL A   1      30.706  23.652  27.325  1.00  0.00    -0.248 OA
BRANCH  11  13
ATOM     13  N   UNL A   1      31.174  25.380  25.851  1.00  0.00    -0.297 N 
ATOM     14  C   UNL A   1      29.965  25.699  25.096  1.00  0.00     0.155 C 
BRANCH  13  15
ATOM     15  C   UNL A   1      31.971  26.506  26.322  1.00  0.00     0.045 A 
ATOM     16  C   UNL A   1      33.459  28.868  26.970  1.00  0.00    -0.048 A 
ATOM     17  C   UNL A   1      34.054  27.801  26.291  1.00  0.00     0.006 A 
ATOM     18  C   UNL A   1      32.151  28.696  27.418  1.00  0.00     0.006 A 
ATOM     19  C   UNL A   1      33.329  26.637  25.989  1.00  0.00     0.027 A 
ATOM     20  C   UNL A   1      31.430  27.530  27.111  1.00  0.00     0.027 A 
BRANCH  16  21
ATOM     21  C   UNL A   1      34.262  30.129  27.181  1.00  0.00     0.032 C 
ATOM     22  C   UNL A   1      35.550  29.993  27.985  1.00  0.00     0.009 C 
ENDBRANCH  16  21
ENDBRANCH  13  15
ENDBRANCH  11  13
ENDBRANCH   6  11
ENDBRANCH   3   5
ENDBRANCH   2   3
ENDBRANCH   1   2
BRANCH   1  23
ATOM     23  C   UNL A   1      37.887  20.258  25.194  1.00  0.00     0.275 C 
BRANCH  23  24
ATOM     24  O   UNL A   1      38.849  21.312  25.400  1.00  0.00    -0.458 OA
BRANCH  24  25
ATOM     25  C   UNL A   1      39.661  21.140  26.468  1.00  0.00     0.338 C 
ATOM     26  O   UNL A   1      40.058  20.085  26.930  1.00  0.00    -0.246 OA
BRANCH  25  27
ATOM     27  C   UNL A   1      40.166  22.443  26.928  1.00  0.00     0.060 A 
ATOM     28  C   UNL A   1      39.678  23.585  26.290  1.00  0.00     0.016 A 
ATOM     29  C   UNL A   1      41.161  22.551  27.900  1.00  0.00     0.016 A 
ATOM     30  C   UNL A   1      40.184  24.840  26.601  1.00  0.00     0.010 A 
ATOM     31  C   UNL A   1      41.667  23.816  28.220  1.00  0.00     0.010 A 
ATOM     32  C   UNL A   1      41.189  24.965  27.565  1.00  0.00    -0.014 A 
BRANCH  32  33
ATOM     33  C   UNL A   1      41.760  26.304  27.837  1.00  0.00     0.031 A 
ATOM     34  C   UNL A   1      43.138  26.640  27.347  1.00  0.00     0.074 A 
ATOM     35  C   UNL A   1      41.021  27.227  28.479  1.00  0.00     0.049 A 
ATOM     36  N   UNL A   1      43.846  27.721  27.550  1.00  0.00    -0.248 NA
ATOM     37  C   UNL A   1      43.807  25.626  26.517  1.00  0.00     0.031 C 
ATOM     38  C   UNL A   1      39.648  27.033  28.945  1.00  0.00     0.029 A 
ATOM     39  N   UNL A   1      41.323  28.513  28.849  1.00  0.00    -0.354 N 
ATOM     40  C   UNL A   1      45.054  27.506  26.902  1.00  0.00     0.074 A 
ATOM     41  C   UNL A   1      44.987  26.194  26.297  1.00  0.00     0.031 C 
ATOM     42  C   UNL A   1      39.227  28.159  29.544  1.00  0.00     0.029 A 
ATOM     43  C   UNL A   1      40.315  29.133  29.545  1.00  0.00     0.049 A 
ATOM     44  H   UNL A   1      42.179  28.949  28.636  1.00  0.00     0.167 HD
ATOM     45  C   UNL A   1      46.123  28.334  26.826  1.00  0.00     0.037 A 
ATOM     46  C   UNL A   1      40.288  30.338  30.145  1.00  0.00     0.037 A 
ATOM     47  C   UNL A   1      46.172  29.653  27.399  1.00  0.00     0.049 A 
ATOM     48  C   UNL A   1      41.506  31.220  30.075  1.00  0.00     0.074 A 
ATOM     49  C   UNL A   1      47.202  30.575  27.355  1.00  0.00     0.029 A 
ATOM     50  N   UNL A   1      45.140  30.238  28.117  1.00  0.00    -0.354 N 
ATOM     51  N   UNL A   1      42.649  31.004  29.472  1.00  0.00    -0.248 NA
ATOM     52  C   UNL A   1      41.432  32.508  30.778  1.00  0.00     0.031 C 
ATOM     53  C   UNL A   1      46.808  31.707  28.076  1.00  0.00     0.029 A 
ATOM     54  C   UNL A   1      45.517  31.503  28.537  1.00  0.00     0.049 A 
ATOM     55  H   UNL A   1      44.269  29.818  28.300  1.00  0.00     0.167 HD
ATOM     56  C   UNL A   1      43.422  32.133  29.705  1.00  0.00     0.074 A 
ATOM     57  C   UNL A   1      42.612  33.039  30.492  1.00  0.00     0.031 C 
ATOM     58  C   UNL A   1      44.691  32.393  29.309  1.00  0.00     0.037 A 
BRANCH  45  59
ATOM     59  C   UNL A   1      47.346  27.830  26.123  1.00  0.00     0.064 A 
ATOM     60  C   UNL A   1      48.414  27.251  26.822  1.00  0.00     0.173 A 
ATOM     61  C   UNL A   1      47.417  27.872  24.723  1.00  0.00     0.173 A 
ATOM     62  F   UNL A   1      48.397  27.203  28.162  1.00  0.00    -0.203 F 
ATOM     63  C   UNL A   1      49.516  26.738  26.142  1.00  0.00     0.198 A 
ATOM     64  C   UNL A   1      48.511  27.339  24.045  1.00  0.00     0.198 A 
ATOM     65  F   UNL A   1      46.418  28.415  24.011  1.00  0.00    -0.203 F 
ATOM     66  F   UNL A   1      50.538  26.208  26.828  1.00  0.00    -0.200 F 
ATOM     67  C   UNL A   1      49.559  26.774  24.755  1.00  0.00     0.200 A 
ATOM     68  F   UNL A   1      48.546  27.368  22.706  1.00  0.00    -0.200 F 
ATOM     69  F   UNL A   1      50.614  26.267  24.103  1.00  0.00    -0.200 F 
ENDBRANCH  45  59
BRANCH  46  70
ATOM     70  C   UNL A   1      39.083  30.767  30.899  1.00  0.00     0.064 A 
ATOM     71  C   UNL A   1      38.927  30.455  32.256  1.00  0.00     0.173 A 
ATOM     72  C   UNL A   1      38.048  31.474  30.267  1.00  0.00     0.173 A 
ATOM     73  F   UNL A   1      39.877  29.757  32.896  1.00  0.00    -0.203 F 
ATOM     74  C   UNL A   1      37.773  30.818  32.949  1.00  0.00     0.198 A 
ATOM     75  C   UNL A   1      36.908  31.859  30.968  1.00  0.00     0.198 A 
ATOM     76  F   UNL A   1      38.147  31.792  28.968  1.00  0.00    -0.203 F 
ATOM     77  F   UNL A   1      37.627  30.463  34.232  1.00  0.00    -0.200 F 
ATOM     78  C   UNL A   1      36.767  31.523  32.305  1.00  0.00     0.200 A 
ATOM     79  F   UNL A   1      35.943  32.548  30.343  1.00  0.00    -0.200 F 
ATOM     80  F   UNL A   1      35.656  31.868  32.971  1.00  0.00    -0.200 F 
ENDBRANCH  46  70
BRANCH  58  81
ATOM     81  C   UNL A   1      45.268  33.721  29.694  1.00  0.00     0.064 A 
ATOM     82  C   UNL A   1      45.161  34.837  28.851  1.00  0.00     0.173 A 
ATOM     83  C   UNL A   1      45.901  33.888  30.934  1.00  0.00     0.173 A 
ATOM     84  F   UNL A   1      44.578  34.720  27.648  1.00  0.00    -0.203 F 
ATOM     85  C   UNL A   1      45.685  36.070  29.229  1.00  0.00     0.198 A 
ATOM     86  C   UNL A   1      46.403  35.128  31.318  1.00  0.00     0.198 A 
ATOM     87  F   UNL A   1      46.023  32.851  31.776  1.00  0.00    -0.203 F 
ATOM     88  F   UNL A   1      45.608  37.114  28.393  1.00  0.00    -0.200 F 
ATOM     89  C   UNL A   1      46.300  36.216  30.464  1.00  0.00     0.200 A 
ATOM     90  F   UNL A   1      46.988  35.270  32.516  1.00  0.00    -0.200 F 
ATOM     91  F   UNL A   1      46.800  37.405  30.829  1.00  0.00    -0.200 F 
ENDBRANCH  58  81
ENDBRANCH  32  33
ENDBRANCH  25  27
ENDBRANCH  24  25
ENDBRANCH  23  24
ENDBRANCH   1  23
TORSDOF 15
ENDMDL
MODEL 2
REMARK VINA RESULT:     -11.5      0.676      7.332
REMARK SMILES CCc1ccc(N(C)C(=O)N2CC[C@@H](C(=O)OCCOC(=O)c3ccc(-c4c5nc(c(-c6c(F)c(F)c(F)c(F)c6F)c6ccc([nH]6)c(-c6c(F)c(F)c(F)c(F)c6F)c6nc(c(-c7c(F)c(F)c(F)c(F)c7F)c7ccc4[nH]7)C=C6)C=C5)cc3)[C@@H]2C)cc1
REMARK SMILES IDX 18 1 17 2 15 3 16 4 14 5 11 6 12 7 86 8 13 9 87 10 9 11
REMARK SMILES IDX 10 12 7 13 8 14 6 15 3 16 4 17 89 18 5 19 88 20 2 21 1 22
REMARK SMILES IDX 19 23 20 24 21 25 22 26 23 27 24 28 85 29 25 30 84 31 26 32
REMARK SMILES IDX 27 33 28 34 78 35 29 36 83 37 77 38 79 39 30 40 82 41 76 42
REMARK SMILES IDX 75 43 31 45 63 46 43 47 62 48 44 49 47 50 61 51 80 52 45 53
REMARK SMILES IDX 46 54 60 56 81 57 48 58 32 59 33 60 41 61 34 62 35 63 39 64
REMARK SMILES IDX 42 65 36 66 37 67 40 68 38 69 64 70 65 71 73 72 66 73 67 74
REMARK SMILES IDX 71 75 74 76 68 77 69 78 72 79 70 80 49 81 50 82 58 83 51 84
REMARK SMILES IDX 52 85 56 86 59 87 53 88 54 89 57 90 55 91
REMARK H PARENT 79 44 47 55
REMARK Flexibility Score: inf
ROOT
ATOM      1  C   UNL A   1      36.708  19.928  24.953  1.00  0.00     0.274 C 
ENDROOT
BRANCH   1   2
ATOM      2  O   UNL A   1      36.117  21.095  25.559  1.00  0.00    -0.462 OA
BRANCH   2   3
ATOM      3  C   UNL A   1      35.071  21.655  24.901  1.00  0.00     0.311 C 
ATOM      4  O   UNL A   1      35.165  22.286  23.855  1.00  0.00    -0.252 OA
BRANCH   3   5
ATOM      5  C   UNL A   1      33.743  21.474  25.606  1.00  0.00     0.123 C 
ATOM      6  N   UNL A   1      31.929  22.955  26.024  1.00  0.00    -0.321 N 
ATOM      7  C   UNL A   1      31.410  21.828  25.274  1.00  0.00     0.122 C 
ATOM      8  C   UNL A   1      33.284  22.643  26.508  1.00  0.00     0.098 C 
ATOM      9  C   UNL A   1      32.633  21.289  24.571  1.00  0.00     0.039 C 
ATOM     10  C   UNL A   1      33.242  22.229  27.983  1.00  0.00     0.032 C 
BRANCH   6  11
ATOM     11  C   UNL A   1      31.070  24.000  26.314  1.00  0.00     0.324 C 
ATOM     12  O   UNL A   1      30.182  23.796  27.149  1.00  0.00    -0.248 OA
BRANCH  11  13
ATOM     13  N   UNL A   1      31.202  25.203  25.613  1.00  0.00    -0.297 N 
ATOM     14  C   UNL A   1      30.291  25.503  24.511  1.00  0.00     0.155 C 
BRANCH  13  15
ATOM     15  C   UNL A   1      31.976  26.315  26.149  1.00  0.00     0.045 A 
ATOM     16  C   UNL A   1      33.405  28.670  26.939  1.00  0.00    -0.048 A 
ATOM     17  C   UNL A   1      34.012  27.683  26.156  1.00  0.00     0.006 A 
ATOM     18  C   UNL A   1      32.119  28.414  27.413  1.00  0.00     0.006 A 
ATOM     19  C   UNL A   1      33.316  26.522  25.784  1.00  0.00     0.027 A 
ATOM     20  C   UNL A   1      31.428  27.252  27.035  1.00  0.00     0.027 A 
BRANCH  16  21
ATOM     21  C   UNL A   1      34.172  29.939  27.226  1.00  0.00     0.032 C 
ATOM     22  C   UNL A   1      35.458  29.793  28.032  1.00  0.00     0.009 C 
ENDBRANCH  16  21
ENDBRANCH  13  15
ENDBRANCH  11  13
ENDBRANCH   6  11
ENDBRANCH   3   5
ENDBRANCH   2   3
ENDBRANCH   1   2
BRANCH   1  23
ATOM     23  C   UNL A   1      38.235  19.927  25.084  1.00  0.00     0.275 C 
BRANCH  23  24
ATOM     24  O   UNL A   1      38.724  21.124  25.723  1.00  0.00    -0.458 OA
BRANCH  24  25
ATOM     25  C   UNL A   1      39.739  20.929  26.595  1.00  0.00     0.338 C 
ATOM     26  O   UNL A   1      40.246  19.867  26.911  1.00  0.00    -0.246 OA
BRANCH  25  27
ATOM     27  C   UNL A   1      40.297  22.226  27.012  1.00  0.00     0.060 A 
ATOM     28  C   UNL A   1      39.873  23.362  26.320  1.00  0.00     0.016 A 
ATOM     29  C   UNL A   1      41.280  22.327  27.996  1.00  0.00     0.016 A 
ATOM     30  C   UNL A   1      40.431  24.604  26.590  1.00  0.00     0.010 A 
ATOM     31  C   UNL A   1      41.840  23.580  28.274  1.00  0.00     0.010 A 
ATOM     32  C   UNL A   1      41.425  24.722  27.565  1.00  0.00    -0.014 A 
BRANCH  32  33
ATOM     33  C   UNL A   1      42.053  26.044  27.794  1.00  0.00     0.031 A 
ATOM     34  C   UNL A   1      41.332  27.081  28.604  1.00  0.00     0.074 A 
ATOM     35  C   UNL A   1      43.286  26.289  27.315  1.00  0.00     0.049 A 
ATOM     36  N   UNL A   1      41.671  28.320  28.849  1.00  0.00    -0.248 NA
ATOM     37  C   UNL A   1      40.062  26.669  29.221  1.00  0.00     0.031 C 
ATOM     38  C   UNL A   1      44.106  25.336  26.568  1.00  0.00     0.029 A 
ATOM     39  N   UNL A   1      44.064  27.416  27.386  1.00  0.00    -0.354 N 
ATOM     40  C   UNL A   1      40.644  28.845  29.621  1.00  0.00     0.074 A 
ATOM     41  C   UNL A   1      39.669  27.793  29.807  1.00  0.00     0.031 C 
ATOM     42  C   UNL A   1      45.271  25.920  26.245  1.00  0.00     0.029 A 
ATOM     43  C   UNL A   1      45.259  27.300  26.721  1.00  0.00     0.049 A 
ATOM     44  H   UNL A   1      43.792  28.230  27.868  1.00  0.00     0.167 HD
ATOM     45  C   UNL A   1      40.530  30.097  30.124  1.00  0.00     0.037 A 
ATOM     46  C   UNL A   1      46.219  28.217  26.492  1.00  0.00     0.037 A 
ATOM     47  C   UNL A   1      41.520  31.130  29.967  1.00  0.00     0.049 A 
ATOM     48  C   UNL A   1      46.045  29.611  27.032  1.00  0.00     0.074 A 
ATOM     49  C   UNL A   1      41.505  32.422  30.459  1.00  0.00     0.029 A 
ATOM     50  N   UNL A   1      42.708  30.982  29.268  1.00  0.00    -0.354 N 
ATOM     51  N   UNL A   1      45.065  30.103  27.750  1.00  0.00    -0.248 NA
ATOM     52  C   UNL A   1      47.106  30.579  26.723  1.00  0.00     0.031 C 
ATOM     53  C   UNL A   1      42.667  33.069  30.029  1.00  0.00     0.029 A 
ATOM     54  C   UNL A   1      43.425  32.166  29.300  1.00  0.00     0.049 A 
ATOM     55  H   UNL A   1      42.999  30.157  28.815  1.00  0.00     0.167 HD
ATOM     56  C   UNL A   1      45.399  31.429  27.992  1.00  0.00     0.074 A 
ATOM     57  C   UNL A   1      46.679  31.660  27.359  1.00  0.00     0.031 C 
ATOM     58  C   UNL A   1      44.703  32.371  28.673  1.00  0.00     0.037 A 
BRANCH  45  59
ATOM     59  C   UNL A   1      39.276  30.438  30.868  1.00  0.00     0.064 A 
ATOM     60  C   UNL A   1      39.135  30.177  32.237  1.00  0.00     0.173 A 
ATOM     61  C   UNL A   1      38.226  31.096  30.210  1.00  0.00     0.173 A 
ATOM     62  F   UNL A   1      40.106  29.537  32.905  1.00  0.00    -0.203 F 
ATOM     63  C   UNL A   1      37.983  30.555  32.921  1.00  0.00     0.198 A 
ATOM     64  C   UNL A   1      37.084  31.491  30.900  1.00  0.00     0.198 A 
ATOM     65  F   UNL A   1      38.316  31.369  28.899  1.00  0.00    -0.203 F 
ATOM     66  F   UNL A   1      37.856  30.276  34.226  1.00  0.00    -0.200 F 
ATOM     67  C   UNL A   1      36.962  31.220  32.254  1.00  0.00     0.200 A 
ATOM     68  F   UNL A   1      36.103  32.139  30.256  1.00  0.00    -0.200 F 
ATOM     69  F   UNL A   1      35.860  31.594  32.917  1.00  0.00    -0.200 F 
ENDBRANCH  45  59
BRANCH  46  70
ATOM     70  C   UNL A   1      47.411  27.860  25.682  1.00  0.00     0.064 A 
ATOM     71  C   UNL A   1      47.355  27.833  24.282  1.00  0.00     0.173 A 
ATOM     72  C   UNL A   1      48.623  27.510  26.295  1.00  0.00     0.173 A 
ATOM     73  F   UNL A   1      46.210  28.134  23.652  1.00  0.00    -0.203 F 
ATOM     74  C   UNL A   1      48.462  27.452  23.526  1.00  0.00     0.198 A 
ATOM     75  C   UNL A   1      49.736  27.154  25.537  1.00  0.00     0.198 A 
ATOM     76  F   UNL A   1      48.726  27.514  27.632  1.00  0.00    -0.203 F 
ATOM     77  F   UNL A   1      48.367  27.385  22.192  1.00  0.00    -0.200 F 
ATOM     78  C   UNL A   1      49.652  27.117  24.155  1.00  0.00     0.200 A 
ATOM     79  F   UNL A   1      50.887  26.841  26.149  1.00  0.00    -0.200 F 
ATOM     80  F   UNL A   1      50.715  26.747  23.427  1.00  0.00    -0.200 F 
ENDBRANCH  46  70
BRANCH  58  81
ATOM     81  C   UNL A   1      45.329  33.728  28.793  1.00  0.00     0.064 A 
ATOM     82  C   UNL A   1      45.060  34.743  27.864  1.00  0.00     0.173 A 
ATOM     83  C   UNL A   1      46.178  34.025  29.869  1.00  0.00     0.173 A 
ATOM     84  F   UNL A   1      44.267  34.498  26.809  1.00  0.00    -0.203 F 
ATOM     85  C   UNL A   1      45.633  36.003  27.998  1.00  0.00     0.198 A 
ATOM     86  C   UNL A   1      46.731  35.294  30.012  1.00  0.00     0.198 A 
ATOM     87  F   UNL A   1      46.462  33.088  30.786  1.00  0.00    -0.203 F 
ATOM     88  F   UNL A   1      45.394  36.948  27.077  1.00  0.00    -0.200 F 
ATOM     89  C   UNL A   1      46.463  36.281  29.074  1.00  0.00     0.200 A 
ATOM     90  F   UNL A   1      47.524  35.563  31.059  1.00  0.00    -0.200 F 
ATOM     91  F   UNL A   1      47.011  37.496  29.204  1.00  0.00    -0.200 F 
ENDBRANCH  58  81
ENDBRANCH  32  33
ENDBRANCH  25  27
ENDBRANCH  24  25
ENDBRANCH  23  24
ENDBRANCH   1  23
TORSDOF 15
ENDMDL
MODEL 3
REMARK VINA RESULT:     -11.5      4.333      7.127
REMARK SMILES CCc1ccc(N(C)C(=O)N2CC[C@@H](C(=O)OCCOC(=O)c3ccc(-c4c5nc(c(-c6c(F)c(F)c(F)c(F)c6F)c6ccc([nH]6)c(-c6c(F)c(F)c(F)c(F)c6F)c6nc(c(-c7c(F)c(F)c(F)c(F)c7F)c7ccc4[nH]7)C=C6)C=C5)cc3)[C@@H]2C)cc1
REMARK SMILES IDX 18 1 17 2 15 3 16 4 14 5 11 6 12 7 86 8 13 9 87 10 9 11
REMARK SMILES IDX 10 12 7 13 8 14 6 15 3 16 4 17 89 18 5 19 88 20 2 21 1 22
REMARK SMILES IDX 19 23 20 24 21 25 22 26 23 27 24 28 85 29 25 30 84 31 26 32
REMARK SMILES IDX 27 33 28 34 78 35 29 36 83 37 77 38 79 39 30 40 82 41 76 42
REMARK SMILES IDX 75 43 31 45 63 46 43 47 62 48 44 49 47 50 61 51 80 52 45 53
REMARK SMILES IDX 46 54 60 56 81 57 48 58 32 59 33 60 41 61 34 62 35 63 39 64
REMARK SMILES IDX 42 65 36 66 37 67 40 68 38 69 64 70 65 71 73 72 66 73 67 74
REMARK SMILES IDX 71 75 74 76 68 77 69 78 72 79 70 80 49 81 50 82 58 83 51 84
REMARK SMILES IDX 52 85 56 86 59 87 53 88 54 89 57 90 55 91
REMARK H PARENT 79 44 47 55
REMARK Flexibility Score: inf
ROOT
ATOM      1  C   UNL A   1      31.367  29.051  24.939  1.00  0.00     0.274 C 
ENDROOT
BRANCH   1   2
ATOM      2  O   UNL A   1      31.994  29.021  23.641  1.00  0.00    -0.462 OA
BRANCH   2   3
ATOM      3  C   UNL A   1      31.586  28.043  22.794  1.00  0.00     0.311 C 
ATOM      4  O   UNL A   1      30.549  28.077  22.141  1.00  0.00    -0.252 OA
BRANCH   3   5
ATOM      5  C   UNL A   1      32.516  26.848  22.751  1.00  0.00     0.123 C 
ATOM      6  N   UNL A   1      32.255  24.581  23.424  1.00  0.00    -0.321 N 
ATOM      7  C   UNL A   1      32.584  24.584  22.012  1.00  0.00     0.122 C 
ATOM      8  C   UNL A   1      32.493  25.921  23.988  1.00  0.00     0.098 C 
ATOM      9  C   UNL A   1      32.156  25.960  21.560  1.00  0.00     0.039 C 
ATOM     10  C   UNL A   1      33.829  25.954  24.738  1.00  0.00     0.032 C 
BRANCH   6  11
ATOM     11  C   UNL A   1      31.969  23.370  24.028  1.00  0.00     0.324 C 
ATOM     12  O   UNL A   1      31.013  23.331  24.810  1.00  0.00    -0.248 OA
BRANCH  11  13
ATOM     13  N   UNL A   1      32.801  22.274  23.779  1.00  0.00    -0.297 N 
ATOM     14  C   UNL A   1      32.432  21.302  22.752  1.00  0.00     0.155 C 
BRANCH  13  15
ATOM     15  C   UNL A   1      34.179  22.241  24.250  1.00  0.00     0.045 A 
ATOM     16  C   UNL A   1      36.836  22.475  25.300  1.00  0.00    -0.048 A 
ATOM     17  C   UNL A   1      36.531  22.893  24.002  1.00  0.00     0.006 A 
ATOM     18  C   UNL A   1      35.829  21.838  26.024  1.00  0.00     0.006 A 
ATOM     19  C   UNL A   1      35.233  22.763  23.482  1.00  0.00     0.027 A 
ATOM     20  C   UNL A   1      34.532  21.713  25.500  1.00  0.00     0.027 A 
BRANCH  16  21
ATOM     21  C   UNL A   1      38.225  22.729  25.834  1.00  0.00     0.032 C 
ATOM     22  C   UNL A   1      38.465  24.079  26.501  1.00  0.00     0.009 C 
ENDBRANCH  16  21
ENDBRANCH  13  15
ENDBRANCH  11  13
ENDBRANCH   6  11
ENDBRANCH   3   5
ENDBRANCH   2   3
ENDBRANCH   1   2
BRANCH   1  23
ATOM     23  C   UNL A   1      31.754  30.306  25.730  1.00  0.00     0.275 C 
BRANCH  23  24
ATOM     24  O   UNL A   1      33.055  30.182  26.340  1.00  0.00    -0.458 OA
BRANCH  24  25
ATOM     25  C   UNL A   1      33.464  31.268  27.034  1.00  0.00     0.338 C 
ATOM     26  O   UNL A   1      32.838  32.295  27.233  1.00  0.00    -0.246 OA
BRANCH  25  27
ATOM     27  C   UNL A   1      34.751  30.988  27.690  1.00  0.00     0.060 A 
ATOM     28  C   UNL A   1      35.000  29.672  28.084  1.00  0.00     0.016 A 
ATOM     29  C   UNL A   1      35.661  31.999  27.998  1.00  0.00     0.016 A 
ATOM     30  C   UNL A   1      36.146  29.352  28.799  1.00  0.00     0.010 A 
ATOM     31  C   UNL A   1      36.821  31.678  28.713  1.00  0.00     0.010 A 
ATOM     32  C   UNL A   1      37.064  30.355  29.126  1.00  0.00    -0.014 A 
BRANCH  32  33
ATOM     33  C   UNL A   1      38.248  30.005  29.943  1.00  0.00     0.031 A 
ATOM     34  C   UNL A   1      39.296  29.088  29.383  1.00  0.00     0.074 A 
ATOM     35  C   UNL A   1      38.401  30.549  31.164  1.00  0.00     0.049 A 
ATOM     36  N   UNL A   1      40.360  28.597  29.963  1.00  0.00    -0.248 NA
ATOM     37  C   UNL A   1      39.124  28.670  27.983  1.00  0.00     0.031 C 
ATOM     38  C   UNL A   1      37.480  31.500  31.785  1.00  0.00     0.029 A 
ATOM     39  N   UNL A   1      39.390  30.380  32.100  1.00  0.00    -0.354 N 
ATOM     40  C   UNL A   1      40.967  27.788  29.013  1.00  0.00     0.074 A 
ATOM     41  C   UNL A   1      40.157  27.853  27.817  1.00  0.00     0.031 C 
ATOM     42  C   UNL A   1      37.944  31.827  33.002  1.00  0.00     0.029 A 
ATOM     43  C   UNL A   1      39.167  31.074  33.263  1.00  0.00     0.049 A 
ATOM     44  H   UNL A   1      40.183  29.816  31.951  1.00  0.00     0.167 HD
ATOM     45  C   UNL A   1      42.099  27.056  29.137  1.00  0.00     0.037 A 
ATOM     46  C   UNL A   1      39.856  31.073  34.421  1.00  0.00     0.037 A 
ATOM     47  C   UNL A   1      42.922  27.023  30.317  1.00  0.00     0.049 A 
ATOM     48  C   UNL A   1      41.089  30.219  34.539  1.00  0.00     0.074 A 
ATOM     49  C   UNL A   1      44.100  26.330  30.530  1.00  0.00     0.029 A 
ATOM     50  N   UNL A   1      42.653  27.722  31.484  1.00  0.00    -0.354 N 
ATOM     51  N   UNL A   1      41.650  29.446  33.640  1.00  0.00    -0.248 NA
ATOM     52  C   UNL A   1      41.780  30.229  35.836  1.00  0.00     0.031 C 
ATOM     53  C   UNL A   1      44.526  26.581  31.837  1.00  0.00     0.029 A 
ATOM     54  C   UNL A   1      43.633  27.461  32.427  1.00  0.00     0.049 A 
ATOM     55  H   UNL A   1      41.880  28.316  31.622  1.00  0.00     0.167 HD
ATOM     56  C   UNL A   1      42.765  28.895  34.255  1.00  0.00     0.074 A 
ATOM     57  C   UNL A   1      42.812  29.433  35.598  1.00  0.00     0.031 C 
ATOM     58  C   UNL A   1      43.667  28.017  33.753  1.00  0.00     0.037 A 
BRANCH  45  59
ATOM     59  C   UNL A   1      42.506  26.201  27.977  1.00  0.00     0.064 A 
ATOM     60  C   UNL A   1      41.953  24.931  27.765  1.00  0.00     0.173 A 
ATOM     61  C   UNL A   1      43.418  26.691  27.029  1.00  0.00     0.173 A 
ATOM     62  F   UNL A   1      41.089  24.415  28.651  1.00  0.00    -0.203 F 
ATOM     63  C   UNL A   1      42.304  24.178  26.647  1.00  0.00     0.198 A 
ATOM     64  C   UNL A   1      43.751  25.944  25.903  1.00  0.00     0.198 A 
ATOM     65  F   UNL A   1      43.973  27.902  27.189  1.00  0.00    -0.203 F 
ATOM     66  F   UNL A   1      41.781  22.956  26.473  1.00  0.00    -0.200 F 
ATOM     67  C   UNL A   1      43.195  24.689  25.713  1.00  0.00     0.200 A 
ATOM     68  F   UNL A   1      44.605  26.443  24.999  1.00  0.00    -0.200 F 
ATOM     69  F   UNL A   1      43.521  23.967  24.632  1.00  0.00    -0.200 F 
ENDBRANCH  45  59
BRANCH  46  70
ATOM     70  C   UNL A   1      39.374  31.875  35.573  1.00  0.00     0.064 A 
ATOM     71  C   UNL A   1      39.840  33.177  35.797  1.00  0.00     0.173 A 
ATOM     72  C   UNL A   1      38.458  31.341  36.493  1.00  0.00     0.173 A 
ATOM     73  F   UNL A   1      40.737  33.720  34.960  1.00  0.00    -0.203 F 
ATOM     74  C   UNL A   1      39.423  33.910  36.906  1.00  0.00     0.198 A 
ATOM     75  C   UNL A   1      38.021  32.085  37.587  1.00  0.00     0.198 A 
ATOM     76  F   UNL A   1      37.986  30.098  36.327  1.00  0.00    -0.203 F 
ATOM     77  F   UNL A   1      39.922  35.133  37.124  1.00  0.00    -0.200 F 
ATOM     78  C   UNL A   1      38.510  33.364  37.797  1.00  0.00     0.200 A 
ATOM     79  F   UNL A   1      37.133  31.557  38.440  1.00  0.00    -0.200 F 
ATOM     80  F   UNL A   1      38.112  34.068  38.866  1.00  0.00    -0.200 F 
ENDBRANCH  46  70
BRANCH  58  81
ATOM     81  C   UNL A   1      44.796  27.609  34.651  1.00  0.00     0.064 A 
ATOM     82  C   UNL A   1      45.987  28.347  34.710  1.00  0.00     0.173 A 
ATOM     83  C   UNL A   1      44.669  26.491  35.488  1.00  0.00     0.173 A 
ATOM     84  F   UNL A   1      46.158  29.415  33.915  1.00  0.00    -0.203 F 
ATOM     85  C   UNL A   1      47.019  27.968  35.562  1.00  0.00     0.198 A 
ATOM     86  C   UNL A   1      45.695  26.129  36.356  1.00  0.00     0.198 A 
ATOM     87  F   UNL A   1      43.547  25.757  35.470  1.00  0.00    -0.203 F 
ATOM     88  F   UNL A   1      48.165  28.664  35.574  1.00  0.00    -0.200 F 
ATOM     89  C   UNL A   1      46.871  26.864  36.388  1.00  0.00     0.200 A 
ATOM     90  F   UNL A   1      45.546  25.067  37.161  1.00  0.00    -0.200 F 
ATOM     91  F   UNL A   1      47.865  26.502  37.212  1.00  0.00    -0.200 F 
ENDBRANCH  58  81
ENDBRANCH  32  33
ENDBRANCH  25  27
ENDBRANCH  24  25
ENDBRANCH  23  24
ENDBRANCH   1  23
TORSDOF 15
ENDMDL
