MODEL 1
REMARK VINA RESULT:     -12.0      0.000      0.000
REMARK SMILES COc1ccc(-c2sc(C(=O)OCCOC(=O)c3ccc(-c4c5nc(c(-c6c(F)c(F)c(F)c(F)c6F)c6ccc([nH]6)c(-c6c(F)c(F)c(F)c(F)c6F)c6nc(c(-c7c(F)c(F)c(F)c(F)c7F)c7ccc4[nH]7)C=C6)C=C5)cc3)cc2C)c(OC)c1
REMARK SMILES IDX 13 1 12 2 10 3 11 4 9 5 7 6 8 7 82 8 81 9 83 10 6 11 3 12
REMARK SMILES IDX 4 13 87 14 5 15 84 16 2 17 1 18 85 19 86 20 14 21 15 22
REMARK SMILES IDX 16 23 17 24 18 25 19 26 80 27 20 28 79 29 21 30 22 31 23 32
REMARK SMILES IDX 73 33 24 34 78 35 72 36 74 37 25 38 77 39 71 40 70 41 26 43
REMARK SMILES IDX 58 44 38 45 57 46 39 47 42 48 56 49 75 50 40 51 41 52 55 54
REMARK SMILES IDX 76 55 43 56 27 57 28 58 36 59 29 60 30 61 34 62 37 63 31 64
REMARK SMILES IDX 32 65 35 66 33 67 59 68 60 69 68 70 61 71 62 72 66 73 69 74
REMARK SMILES IDX 63 75 64 76 67 77 65 78 44 79 45 80 53 81 46 82 47 83 51 84
REMARK SMILES IDX 54 85 48 86 49 87 52 88 50 89
REMARK H PARENT 74 42 42 53
REMARK Flexibility Score: inf
ROOT
ATOM      1  C   UNL A   1      31.716  29.112  25.205  1.00  0.00     0.275 C 
ENDROOT
BRANCH   1   2
ATOM      2  O   UNL A   1      32.636  28.248  25.902  1.00  0.00    -0.458 OA
BRANCH   2   3
ATOM      3  C   UNL A   1      32.075  27.172  26.528  1.00  0.00     0.348 C 
ATOM      4  O   UNL A   1      31.117  27.244  27.290  1.00  0.00    -0.245 OA
BRANCH   3   5
ATOM      5  C   UNL A   1      32.656  25.915  26.089  1.00  0.00     0.113 A 
ATOM      6  C   UNL A   1      33.176  23.585  25.454  1.00  0.00     0.042 A 
ATOM      7  S   UNL A   1      31.801  24.439  26.024  1.00  0.00    -0.128 S 
ATOM      8  C   UNL A   1      34.306  24.385  25.411  1.00  0.00    -0.031 A 
ATOM      9  C   UNL A   1      33.957  25.746  25.652  1.00  0.00     0.031 A 
ATOM     10  C   UNL A   1      35.698  23.930  25.114  1.00  0.00     0.046 C 
BRANCH   6  11
ATOM     11  C   UNL A   1      33.055  22.183  25.036  1.00  0.00     0.034 A 
ATOM     12  C   UNL A   1      32.571  19.478  24.465  1.00  0.00     0.122 A 
ATOM     13  C   UNL A   1      33.049  19.853  25.719  1.00  0.00     0.047 A 
ATOM     14  C   UNL A   1      32.332  20.453  23.491  1.00  0.00     0.093 A 
ATOM     15  C   UNL A   1      33.299  21.193  26.000  1.00  0.00     0.017 A 
ATOM     16  C   UNL A   1      32.558  21.810  23.772  1.00  0.00     0.131 A 
BRANCH  12  17
ATOM     17  O   UNL A   1      32.335  18.137  24.328  1.00  0.00    -0.497 OA
ATOM     18  C   UNL A   1      32.906  17.505  23.190  1.00  0.00     0.278 C 
ENDBRANCH  12  17
BRANCH  16  19
ATOM     19  O   UNL A   1      32.316  22.833  22.888  1.00  0.00    -0.496 OA
ATOM     20  C   UNL A   1      33.278  23.062  21.867  1.00  0.00     0.278 C 
ENDBRANCH  16  19
ENDBRANCH   6  11
ENDBRANCH   3   5
ENDBRANCH   2   3
ENDBRANCH   1   2
BRANCH   1  21
ATOM     21  C   UNL A   1      31.637  30.490  25.865  1.00  0.00     0.275 C 
BRANCH  21  22
ATOM     22  O   UNL A   1      32.415  30.521  27.077  1.00  0.00    -0.458 OA
BRANCH  22  23
ATOM     23  C   UNL A   1      33.130  31.650  27.280  1.00  0.00     0.338 C 
ATOM     24  O   UNL A   1      32.753  32.804  27.163  1.00  0.00    -0.246 OA
BRANCH  23  25
ATOM     25  C   UNL A   1      34.488  31.317  27.738  1.00  0.00     0.060 A 
ATOM     26  C   UNL A   1      34.792  29.983  27.987  1.00  0.00     0.016 A 
ATOM     27  C   UNL A   1      35.384  32.317  28.104  1.00  0.00     0.016 A 
ATOM     28  C   UNL A   1      35.947  29.639  28.683  1.00  0.00     0.010 A 
ATOM     29  C   UNL A   1      36.586  31.966  28.733  1.00  0.00     0.010 A 
ATOM     30  C   UNL A   1      36.860  30.626  29.072  1.00  0.00    -0.014 A 
BRANCH  30  31
ATOM     31  C   UNL A   1      38.049  30.268  29.899  1.00  0.00     0.031 A 
ATOM     32  C   UNL A   1      39.126  29.381  29.324  1.00  0.00     0.074 A 
ATOM     33  C   UNL A   1      38.195  30.751  31.148  1.00  0.00     0.049 A 
ATOM     34  N   UNL A   1      40.150  28.821  29.919  1.00  0.00    -0.248 NA
ATOM     35  C   UNL A   1      39.030  29.076  27.888  1.00  0.00     0.031 C 
ATOM     36  C   UNL A   1      37.268  31.666  31.817  1.00  0.00     0.029 A 
ATOM     37  N   UNL A   1      39.183  30.543  32.081  1.00  0.00    -0.354 N 
ATOM     38  C   UNL A   1      40.783  28.055  28.948  1.00  0.00     0.074 A 
ATOM     39  C   UNL A   1      40.026  28.215  27.725  1.00  0.00     0.031 C 
ATOM     40  C   UNL A   1      37.742  31.961  33.036  1.00  0.00     0.029 A 
ATOM     41  C   UNL A   1      38.961  31.193  33.272  1.00  0.00     0.049 A 
ATOM     42  H   UNL A   1      39.974  29.982  31.913  1.00  0.00     0.167 HD
ATOM     43  C   UNL A   1      41.895  27.289  29.064  1.00  0.00     0.037 A 
ATOM     44  C   UNL A   1      39.637  31.147  34.436  1.00  0.00     0.037 A 
ATOM     45  C   UNL A   1      42.683  27.176  30.266  1.00  0.00     0.049 A 
ATOM     46  C   UNL A   1      40.849  30.263  34.552  1.00  0.00     0.074 A 
ATOM     47  C   UNL A   1      43.834  26.437  30.477  1.00  0.00     0.029 A 
ATOM     48  N   UNL A   1      42.409  27.836  31.455  1.00  0.00    -0.354 N 
ATOM     49  N   UNL A   1      41.409  29.504  33.642  1.00  0.00    -0.248 NA
ATOM     50  C   UNL A   1      41.514  30.219  35.861  1.00  0.00     0.031 C 
ATOM     51  C   UNL A   1      44.235  26.618  31.805  1.00  0.00     0.029 A 
ATOM     52  C   UNL A   1      43.363  27.511  32.406  1.00  0.00     0.049 A 
ATOM     53  H   UNL A   1      41.649  28.445  31.600  1.00  0.00     0.167 HD
ATOM     54  C   UNL A   1      42.503  28.912  34.260  1.00  0.00     0.074 A 
ATOM     55  C   UNL A   1      42.537  29.413  35.618  1.00  0.00     0.031 C 
ATOM     56  C   UNL A   1      43.396  28.030  33.749  1.00  0.00     0.037 A 
BRANCH  43  57
ATOM     57  C   UNL A   1      42.317  26.483  27.869  1.00  0.00     0.064 A 
ATOM     58  C   UNL A   1      41.743  25.240  27.566  1.00  0.00     0.173 A 
ATOM     59  C   UNL A   1      43.287  26.988  26.987  1.00  0.00     0.173 A 
ATOM     60  F   UNL A   1      40.820  24.706  28.382  1.00  0.00    -0.203 F 
ATOM     61  C   UNL A   1      42.141  24.521  26.442  1.00  0.00     0.198 A 
ATOM     62  C   UNL A   1      43.660  26.280  25.847  1.00  0.00     0.198 A 
ATOM     63  F   UNL A   1      43.863  28.176  27.223  1.00  0.00    -0.203 F 
ATOM     64  F   UNL A   1      41.611  23.314  26.198  1.00  0.00    -0.200 F 
ATOM     65  C   UNL A   1      43.092  25.045  25.579  1.00  0.00     0.200 A 
ATOM     66  F   UNL A   1      44.568  26.796  25.007  1.00  0.00    -0.200 F 
ATOM     67  F   UNL A   1      43.468  24.355  24.493  1.00  0.00    -0.200 F 
ENDBRANCH  43  57
BRANCH  44  68
ATOM     68  C   UNL A   1      39.160  31.936  35.604  1.00  0.00     0.064 A 
ATOM     69  C   UNL A   1      38.320  31.363  36.569  1.00  0.00     0.173 A 
ATOM     70  C   UNL A   1      39.526  33.280  35.773  1.00  0.00     0.173 A 
ATOM     71  F   UNL A   1      37.919  30.090  36.438  1.00  0.00    -0.203 F 
ATOM     72  C   UNL A   1      37.852  32.109  37.649  1.00  0.00     0.198 A 
ATOM     73  C   UNL A   1      39.085  34.015  36.870  1.00  0.00     0.198 A 
ATOM     74  F   UNL A   1      40.324  33.877  34.876  1.00  0.00    -0.203 F 
ATOM     75  F   UNL A   1      37.011  31.552  38.531  1.00  0.00    -0.200 F 
ATOM     76  C   UNL A   1      38.241  33.432  37.804  1.00  0.00     0.200 A 
ATOM     77  F   UNL A   1      39.474  35.287  37.023  1.00  0.00    -0.200 F 
ATOM     78  F   UNL A   1      37.795  34.146  38.846  1.00  0.00    -0.200 F 
ENDBRANCH  44  68
BRANCH  56  79
ATOM     79  C   UNL A   1      44.518  27.590  34.644  1.00  0.00     0.064 A 
ATOM     80  C   UNL A   1      44.419  26.440  35.440  1.00  0.00     0.173 A 
ATOM     81  C   UNL A   1      45.719  28.315  34.681  1.00  0.00     0.173 A 
ATOM     82  F   UNL A   1      43.286  25.722  35.453  1.00  0.00    -0.203 F 
ATOM     83  C   UNL A   1      45.474  26.046  36.261  1.00  0.00     0.198 A 
ATOM     84  C   UNL A   1      46.781  27.902  35.480  1.00  0.00     0.198 A 
ATOM     85  F   UNL A   1      45.865  29.419  33.934  1.00  0.00    -0.203 F 
ATOM     86  F   UNL A   1      45.340  24.972  37.051  1.00  0.00    -0.200 F 
ATOM     87  C   UNL A   1      46.655  26.774  36.275  1.00  0.00     0.200 A 
ATOM     88  F   UNL A   1      47.925  28.599  35.482  1.00  0.00    -0.200 F 
ATOM     89  F   UNL A   1      47.670  26.391  37.062  1.00  0.00    -0.200 F 
ENDBRANCH  56  79
ENDBRANCH  30  31
ENDBRANCH  23  25
ENDBRANCH  22  23
ENDBRANCH  21  22
ENDBRANCH   1  21
TORSDOF 14
ENDMDL
MODEL 2
REMARK VINA RESULT:     -11.9      4.396      9.905
REMARK SMILES COc1ccc(-c2sc(C(=O)OCCOC(=O)c3ccc(-c4c5nc(c(-c6c(F)c(F)c(F)c(F)c6F)c6ccc([nH]6)c(-c6c(F)c(F)c(F)c(F)c6F)c6nc(c(-c7c(F)c(F)c(F)c(F)c7F)c7ccc4[nH]7)C=C6)C=C5)cc3)cc2C)c(OC)c1
REMARK SMILES IDX 13 1 12 2 10 3 11 4 9 5 7 6 8 7 82 8 81 9 83 10 6 11 3 12
REMARK SMILES IDX 4 13 87 14 5 15 84 16 2 17 1 18 85 19 86 20 14 21 15 22
REMARK SMILES IDX 16 23 17 24 18 25 19 26 80 27 20 28 79 29 21 30 22 31 23 32
REMARK SMILES IDX 73 33 24 34 78 35 72 36 74 37 25 38 77 39 71 40 70 41 26 43
REMARK SMILES IDX 58 44 38 45 57 46 39 47 42 48 56 49 75 50 40 51 41 52 55 54
REMARK SMILES IDX 76 55 43 56 27 57 28 58 36 59 29 60 30 61 34 62 37 63 31 64
REMARK SMILES IDX 32 65 35 66 33 67 59 68 60 69 68 70 61 71 62 72 66 73 69 74
REMARK SMILES IDX 63 75 64 76 67 77 65 78 44 79 45 80 53 81 46 82 47 83 51 84
REMARK SMILES IDX 54 85 48 86 49 87 52 88 50 89
REMARK H PARENT 74 42 42 53
REMARK Flexibility Score: inf
ROOT
ATOM      1  C   UNL A   1      35.622  21.576  25.285  1.00  0.00     0.275 C 
ENDROOT
BRANCH   1   2
ATOM      2  O   UNL A   1      35.875  22.983  25.100  1.00  0.00    -0.458 OA
BRANCH   2   3
ATOM      3  C   UNL A   1      35.410  23.518  23.933  1.00  0.00     0.348 C 
ATOM      4  O   UNL A   1      35.653  23.058  22.823  1.00  0.00    -0.245 OA
BRANCH   3   5
ATOM      5  C   UNL A   1      34.486  24.616  24.160  1.00  0.00     0.113 A 
ATOM      6  C   UNL A   1      32.776  26.395  24.053  1.00  0.00     0.042 A 
ATOM      7  S   UNL A   1      33.375  25.185  22.995  1.00  0.00    -0.128 S 
ATOM      8  C   UNL A   1      33.481  26.442  25.245  1.00  0.00    -0.031 A 
ATOM      9  C   UNL A   1      34.367  25.330  25.338  1.00  0.00     0.031 A 
ATOM     10  C   UNL A   1      33.328  27.469  26.320  1.00  0.00     0.046 C 
BRANCH   6  11
ATOM     11  C   UNL A   1      31.613  27.203  23.668  1.00  0.00     0.034 A 
ATOM     12  C   UNL A   1      29.483  28.696  22.611  1.00  0.00     0.122 A 
ATOM     13  C   UNL A   1      30.796  29.132  22.441  1.00  0.00     0.047 A 
ATOM     14  C   UNL A   1      29.229  27.510  23.308  1.00  0.00     0.093 A 
ATOM     15  C   UNL A   1      31.852  28.399  22.974  1.00  0.00     0.017 A 
ATOM     16  C   UNL A   1      30.288  26.750  23.830  1.00  0.00     0.131 A 
BRANCH  12  17
ATOM     17  O   UNL A   1      28.542  29.487  22.010  1.00  0.00    -0.497 OA
ATOM     18  C   UNL A   1      29.003  30.715  21.461  1.00  0.00     0.278 C 
ENDBRANCH  12  17
BRANCH  16  19
ATOM     19  O   UNL A   1      30.131  25.559  24.496  1.00  0.00    -0.496 OA
ATOM     20  C   UNL A   1      29.853  25.616  25.888  1.00  0.00     0.278 C 
ENDBRANCH  16  19
ENDBRANCH   6  11
ENDBRANCH   3   5
ENDBRANCH   2   3
ENDBRANCH   1   2
BRANCH   1  21
ATOM     21  C   UNL A   1      36.881  20.745  25.026  1.00  0.00     0.275 C 
BRANCH  21  22
ATOM     22  O   UNL A   1      38.052  21.585  25.005  1.00  0.00    -0.458 OA
BRANCH  22  23
ATOM     23  C   UNL A   1      39.015  21.260  25.895  1.00  0.00     0.338 C 
ATOM     24  O   UNL A   1      39.477  20.155  26.126  1.00  0.00    -0.246 OA
BRANCH  23  25
ATOM     25  C   UNL A   1      39.519  22.469  26.564  1.00  0.00     0.060 A 
ATOM     26  C   UNL A   1      39.026  23.703  26.155  1.00  0.00     0.016 A 
ATOM     27  C   UNL A   1      40.599  22.405  27.440  1.00  0.00     0.016 A 
ATOM     28  C   UNL A   1      39.660  24.882  26.540  1.00  0.00     0.010 A 
ATOM     29  C   UNL A   1      41.187  23.593  27.895  1.00  0.00     0.010 A 
ATOM     30  C   UNL A   1      40.754  24.844  27.413  1.00  0.00    -0.014 A 
BRANCH  30  31
ATOM     31  C   UNL A   1      41.490  26.097  27.751  1.00  0.00     0.031 A 
ATOM     32  C   UNL A   1      40.817  27.165  28.577  1.00  0.00     0.074 A 
ATOM     33  C   UNL A   1      42.765  26.279  27.355  1.00  0.00     0.049 A 
ATOM     34  N   UNL A   1      41.214  28.385  28.845  1.00  0.00    -0.248 NA
ATOM     35  C   UNL A   1      39.518  26.815  29.174  1.00  0.00     0.031 C 
ATOM     36  C   UNL A   1      43.566  25.312  26.603  1.00  0.00     0.029 A 
ATOM     37  N   UNL A   1      43.616  27.344  27.535  1.00  0.00    -0.354 N 
ATOM     38  C   UNL A   1      40.192  28.963  29.588  1.00  0.00     0.074 A 
ATOM     39  C   UNL A   1      39.153  27.965  29.725  1.00  0.00     0.031 C 
ATOM     40  C   UNL A   1      44.795  25.813  26.410  1.00  0.00     0.029 A 
ATOM     41  C   UNL A   1      44.847  27.169  26.948  1.00  0.00     0.049 A 
ATOM     42  H   UNL A   1      43.369  28.154  28.035  1.00  0.00     0.167 HD
ATOM     43  C   UNL A   1      40.125  30.213  30.109  1.00  0.00     0.037 A 
ATOM     44  C   UNL A   1      45.886  28.016  26.819  1.00  0.00     0.037 A 
ATOM     45  C   UNL A   1      41.184  31.187  30.023  1.00  0.00     0.049 A 
ATOM     46  C   UNL A   1      45.777  29.409  27.376  1.00  0.00     0.074 A 
ATOM     47  C   UNL A   1      41.216  32.474  30.532  1.00  0.00     0.029 A 
ATOM     48  N   UNL A   1      42.405  30.974  29.400  1.00  0.00    -0.354 N 
ATOM     49  N   UNL A   1      44.786  29.962  28.033  1.00  0.00    -0.248 NA
ATOM     50  C   UNL A   1      46.925  30.300  27.162  1.00  0.00     0.031 C 
ATOM     51  C   UNL A   1      42.441  33.054  30.184  1.00  0.00     0.029 A 
ATOM     52  C   UNL A   1      43.192  32.110  29.503  1.00  0.00     0.049 A 
ATOM     53  H   UNL A   1      42.672  30.139  28.952  1.00  0.00     0.167 HD
ATOM     54  C   UNL A   1      45.200  31.254  28.330  1.00  0.00     0.074 A 
ATOM     55  C   UNL A   1      46.538  31.398  27.796  1.00  0.00     0.031 C 
ATOM     56  C   UNL A   1      44.529  32.234  28.983  1.00  0.00     0.037 A 
BRANCH  43  57
ATOM     57  C   UNL A   1      38.853  30.616  30.797  1.00  0.00     0.064 A 
ATOM     58  C   UNL A   1      38.709  30.564  32.192  1.00  0.00     0.173 A 
ATOM     59  C   UNL A   1      37.771  31.105  30.046  1.00  0.00     0.173 A 
ATOM     60  F   UNL A   1      39.707  30.095  32.956  1.00  0.00    -0.203 F 
ATOM     61  C   UNL A   1      37.523  30.961  32.805  1.00  0.00     0.198 A 
ATOM     62  C   UNL A   1      36.598  31.529  30.665  1.00  0.00     0.198 A 
ATOM     63  F   UNL A   1      37.857  31.185  28.710  1.00  0.00    -0.203 F 
ATOM     64  F   UNL A   1      37.393  30.859  34.135  1.00  0.00    -0.200 F 
ATOM     65  C   UNL A   1      36.472  31.450  32.043  1.00  0.00     0.200 A 
ATOM     66  F   UNL A   1      35.590  32.016  29.928  1.00  0.00    -0.200 F 
ATOM     67  F   UNL A   1      35.335  31.839  32.637  1.00  0.00    -0.200 F 
ENDBRANCH  43  57
BRANCH  44  68
ATOM     68  C   UNL A   1      47.113  27.583  26.097  1.00  0.00     0.064 A 
ATOM     69  C   UNL A   1      47.215  27.708  24.705  1.00  0.00     0.173 A 
ATOM     70  C   UNL A   1      48.204  27.027  26.784  1.00  0.00     0.173 A 
ATOM     71  F   UNL A   1      46.189  28.207  24.000  1.00  0.00    -0.203 F 
ATOM     72  C   UNL A   1      48.354  27.278  24.026  1.00  0.00     0.198 A 
ATOM     73  C   UNL A   1      49.354  26.629  26.108  1.00  0.00     0.198 A 
ATOM     74  F   UNL A   1      48.156  26.882  28.115  1.00  0.00    -0.203 F 
ATOM     75  F   UNL A   1      48.405  27.363  22.690  1.00  0.00    -0.200 F 
ATOM     76  C   UNL A   1      49.426  26.746  24.728  1.00  0.00     0.200 A 
ATOM     77  F   UNL A   1      50.392  26.130  26.791  1.00  0.00    -0.200 F 
ATOM     78  F   UNL A   1      50.522  26.339  24.074  1.00  0.00    -0.200 F 
ENDBRANCH  44  68
BRANCH  56  79
ATOM     79  C   UNL A   1      45.251  33.532  29.204  1.00  0.00     0.064 A 
ATOM     80  C   UNL A   1      46.061  33.743  30.330  1.00  0.00     0.173 A 
ATOM     81  C   UNL A   1      45.154  34.565  28.261  1.00  0.00     0.173 A 
ATOM     82  F   UNL A   1      46.173  32.793  31.269  1.00  0.00    -0.203 F 
ATOM     83  C   UNL A   1      46.726  34.953  30.515  1.00  0.00     0.198 A 
ATOM     84  C   UNL A   1      45.844  35.762  28.434  1.00  0.00     0.198 A 
ATOM     85  F   UNL A   1      44.397  34.410  27.164  1.00  0.00    -0.203 F 
ATOM     86  F   UNL A   1      47.454  35.152  31.621  1.00  0.00    -0.200 F 
ATOM     87  C   UNL A   1      46.622  35.958  29.564  1.00  0.00     0.200 A 
ATOM     88  F   UNL A   1      45.752  36.726  27.508  1.00  0.00    -0.200 F 
ATOM     89  F   UNL A   1      47.266  37.119  29.741  1.00  0.00    -0.200 F 
ENDBRANCH  56  79
ENDBRANCH  30  31
ENDBRANCH  23  25
ENDBRANCH  22  23
ENDBRANCH  21  22
ENDBRANCH   1  21
TORSDOF 14
ENDMDL
MODEL 3
REMARK VINA RESULT:     -11.8      3.433      8.298
REMARK SMILES COc1ccc(-c2sc(C(=O)OCCOC(=O)c3ccc(-c4c5nc(c(-c6c(F)c(F)c(F)c(F)c6F)c6ccc([nH]6)c(-c6c(F)c(F)c(F)c(F)c6F)c6nc(c(-c7c(F)c(F)c(F)c(F)c7F)c7ccc4[nH]7)C=C6)C=C5)cc3)cc2C)c(OC)c1
REMARK SMILES IDX 13 1 12 2 10 3 11 4 9 5 7 6 8 7 82 8 81 9 83 10 6 11 3 12
REMARK SMILES IDX 4 13 87 14 5 15 84 16 2 17 1 18 85 19 86 20 14 21 15 22
REMARK SMILES IDX 16 23 17 24 18 25 19 26 80 27 20 28 79 29 21 30 22 31 23 32
REMARK SMILES IDX 73 33 24 34 78 35 72 36 74 37 25 38 77 39 71 40 70 41 26 43
REMARK SMILES IDX 58 44 38 45 57 46 39 47 42 48 56 49 75 50 40 51 41 52 55 54
REMARK SMILES IDX 76 55 43 56 27 57 28 58 36 59 29 60 30 61 34 62 37 63 31 64
REMARK SMILES IDX 32 65 35 66 33 67 59 68 60 69 68 70 61 71 62 72 66 73 69 74
REMARK SMILES IDX 63 75 64 76 67 77 65 78 44 79 45 80 53 81 46 82 47 83 51 84
REMARK SMILES IDX 54 85 48 86 49 87 52 88 50 89
REMARK H PARENT 74 42 42 53
REMARK Flexibility Score: inf
ROOT
ATOM      1  C   UNL A   1      43.083  20.295  25.858  1.00  0.00     0.275 C 
ENDROOT
BRANCH   1   2
ATOM      2  O   UNL A   1      41.705  20.087  25.486  1.00  0.00    -0.458 OA
BRANCH   2   3
ATOM      3  C   UNL A   1      40.802  20.150  26.508  1.00  0.00     0.348 C 
ATOM      4  O   UNL A   1      40.957  19.605  27.596  1.00  0.00    -0.245 OA
BRANCH   3   5
ATOM      5  C   UNL A   1      39.697  21.044  26.212  1.00  0.00     0.113 A 
ATOM      6  C   UNL A   1      37.665  22.184  25.387  1.00  0.00     0.042 A 
ATOM      7  S   UNL A   1      38.425  20.666  25.136  1.00  0.00    -0.128 S 
ATOM      8  C   UNL A   1      38.420  23.017  26.198  1.00  0.00    -0.031 A 
ATOM      9  C   UNL A   1      39.512  22.298  26.764  1.00  0.00     0.031 A 
ATOM     10  C   UNL A   1      38.135  24.454  26.493  1.00  0.00     0.046 C 
BRANCH   6  11
ATOM     11  C   UNL A   1      36.345  22.454  24.808  1.00  0.00     0.034 A 
ATOM     12  C   UNL A   1      33.894  22.735  23.467  1.00  0.00     0.122 A 
ATOM     13  C   UNL A   1      35.083  23.082  22.830  1.00  0.00     0.047 A 
ATOM     14  C   UNL A   1      33.924  22.244  24.777  1.00  0.00     0.093 A 
ATOM     15  C   UNL A   1      36.298  22.954  23.497  1.00  0.00     0.017 A 
ATOM     16  C   UNL A   1      35.146  22.088  25.451  1.00  0.00     0.131 A 
BRANCH  12  17
ATOM     17  O   UNL A   1      32.775  22.876  22.692  1.00  0.00    -0.497 OA
ATOM     18  C   UNL A   1      31.859  23.891  23.079  1.00  0.00     0.278 C 
ENDBRANCH  12  17
BRANCH  16  19
ATOM     19  O   UNL A   1      35.269  21.581  26.721  1.00  0.00    -0.496 OA
ATOM     20  C   UNL A   1      34.084  21.454  27.497  1.00  0.00     0.278 C 
ENDBRANCH  16  19
ENDBRANCH   6  11
ENDBRANCH   3   5
ENDBRANCH   2   3
ENDBRANCH   1   2
BRANCH   1  21
ATOM     21  C   UNL A   1      43.724  21.403  25.020  1.00  0.00     0.275 C 
BRANCH  21  22
ATOM     22  O   UNL A   1      42.870  22.563  24.969  1.00  0.00    -0.458 OA
BRANCH  22  23
ATOM     23  C   UNL A   1      43.505  23.755  25.040  1.00  0.00     0.338 C 
ATOM     24  O   UNL A   1      44.493  24.113  24.422  1.00  0.00    -0.246 OA
BRANCH  23  25
ATOM     25  C   UNL A   1      42.799  24.652  25.967  1.00  0.00     0.060 A 
ATOM     26  C   UNL A   1      42.981  26.024  25.826  1.00  0.00     0.016 A 
ATOM     27  C   UNL A   1      42.127  24.148  27.077  1.00  0.00     0.016 A 
ATOM     28  C   UNL A   1      42.577  26.898  26.831  1.00  0.00     0.010 A 
ATOM     29  C   UNL A   1      41.646  25.034  28.050  1.00  0.00     0.010 A 
ATOM     30  C   UNL A   1      41.907  26.416  27.962  1.00  0.00    -0.014 A 
BRANCH  30  31
ATOM     31  C   UNL A   1      41.558  27.340  29.081  1.00  0.00     0.031 A 
ATOM     32  C   UNL A   1      42.385  27.341  30.342  1.00  0.00     0.074 A 
ATOM     33  C   UNL A   1      40.528  28.202  28.970  1.00  0.00     0.049 A 
ATOM     34  N   UNL A   1      42.162  27.940  31.485  1.00  0.00    -0.248 NA
ATOM     35  C   UNL A   1      43.628  26.552  30.315  1.00  0.00     0.031 C 
ATOM     36  C   UNL A   1      39.675  28.358  27.791  1.00  0.00     0.029 A 
ATOM     37  N   UNL A   1      40.024  29.116  29.866  1.00  0.00    -0.354 N 
ATOM     38  C   UNL A   1      43.199  27.556  32.326  1.00  0.00     0.074 A 
ATOM     39  C   UNL A   1      44.050  26.666  31.566  1.00  0.00     0.031 C 
ATOM     40  C   UNL A   1      38.775  29.324  28.024  1.00  0.00     0.029 A 
ATOM     41  C   UNL A   1      38.928  29.800  29.395  1.00  0.00     0.049 A 
ATOM     42  H   UNL A   1      40.410  29.266  30.758  1.00  0.00     0.167 HD
ATOM     43  C   UNL A   1      43.421  27.913  33.615  1.00  0.00     0.037 A 
ATOM     44  C   UNL A   1      38.113  30.679  30.008  1.00  0.00     0.037 A 
ATOM     45  C   UNL A   1      42.606  28.844  34.353  1.00  0.00     0.049 A 
ATOM     46  C   UNL A   1      38.360  31.034  31.449  1.00  0.00     0.074 A 
ATOM     47  C   UNL A   1      42.760  29.281  35.658  1.00  0.00     0.029 A 
ATOM     48  N   UNL A   1      41.494  29.497  33.843  1.00  0.00    -0.354 N 
ATOM     49  N   UNL A   1      39.314  30.626  32.250  1.00  0.00    -0.248 NA
ATOM     50  C   UNL A   1      37.408  31.962  32.075  1.00  0.00     0.031 C 
ATOM     51  C   UNL A   1      41.718  30.167  35.951  1.00  0.00     0.029 A 
ATOM     52  C   UNL A   1      40.946  30.323  34.812  1.00  0.00     0.049 A 
ATOM     53  H   UNL A   1      41.145  29.389  32.928  1.00  0.00     0.167 HD
ATOM     54  C   UNL A   1      39.091  31.264  33.464  1.00  0.00     0.074 A 
ATOM     55  C   UNL A   1      37.922  32.099  33.289  1.00  0.00     0.031 C 
ATOM     56  C   UNL A   1      39.791  31.162  34.620  1.00  0.00     0.037 A 
BRANCH  43  57
ATOM     57  C   UNL A   1      44.578  27.272  34.328  1.00  0.00     0.064 A 
ATOM     58  C   UNL A   1      45.852  27.858  34.360  1.00  0.00     0.173 A 
ATOM     59  C   UNL A   1      44.393  26.068  35.027  1.00  0.00     0.173 A 
ATOM     60  F   UNL A   1      46.085  29.003  33.700  1.00  0.00    -0.203 F 
ATOM     61  C   UNL A   1      46.903  27.251  35.043  1.00  0.00     0.198 A 
ATOM     62  C   UNL A   1      45.439  25.479  35.734  1.00  0.00     0.198 A 
ATOM     63  F   UNL A   1      43.194  25.468  35.037  1.00  0.00    -0.203 F 
ATOM     64  F   UNL A   1      48.123  27.806  35.022  1.00  0.00    -0.200 F 
ATOM     65  C   UNL A   1      46.694  26.067  35.735  1.00  0.00     0.200 A 
ATOM     66  F   UNL A   1      45.231  24.344  36.415  1.00  0.00    -0.200 F 
ATOM     67  F   UNL A   1      47.705  25.489  36.399  1.00  0.00    -0.200 F 
ENDBRANCH  43  57
BRANCH  44  68
ATOM     68  C   UNL A   1      36.958  31.260  29.272  1.00  0.00     0.064 A 
ATOM     69  C   UNL A   1      36.968  32.597  28.850  1.00  0.00     0.173 A 
ATOM     70  C   UNL A   1      35.818  30.494  28.984  1.00  0.00     0.173 A 
ATOM     71  F   UNL A   1      38.022  33.379  29.125  1.00  0.00    -0.203 F 
ATOM     72  C   UNL A   1      35.875  33.149  28.184  1.00  0.00     0.198 A 
ATOM     73  C   UNL A   1      34.740  31.037  28.289  1.00  0.00     0.198 A 
ATOM     74  F   UNL A   1      35.756  29.211  29.369  1.00  0.00    -0.203 F 
ATOM     75  F   UNL A   1      35.890  34.443  27.835  1.00  0.00    -0.200 F 
ATOM     76  C   UNL A   1      34.766  32.367  27.896  1.00  0.00     0.200 A 
ATOM     77  F   UNL A   1      33.678  30.274  28.001  1.00  0.00    -0.200 F 
ATOM     78  F   UNL A   1      33.719  32.897  27.251  1.00  0.00    -0.200 F 
ENDBRANCH  44  68
BRANCH  56  79
ATOM     79  C   UNL A   1      39.344  32.015  35.771  1.00  0.00     0.064 A 
ATOM     80  C   UNL A   1      38.371  31.576  36.681  1.00  0.00     0.173 A 
ATOM     81  C   UNL A   1      39.921  33.277  35.983  1.00  0.00     0.173 A 
ATOM     82  F   UNL A   1      37.778  30.385  36.513  1.00  0.00    -0.203 F 
ATOM     83  C   UNL A   1      37.974  32.381  37.746  1.00  0.00     0.198 A 
ATOM     84  C   UNL A   1      39.542  34.066  37.065  1.00  0.00     0.198 A 
ATOM     85  F   UNL A   1      40.860  33.740  35.145  1.00  0.00    -0.203 F 
ATOM     86  F   UNL A   1      37.007  31.963  38.574  1.00  0.00    -0.200 F 
ATOM     87  C   UNL A   1      38.563  33.622  37.940  1.00  0.00     0.200 A 
ATOM     88  F   UNL A   1      40.123  35.258  37.258  1.00  0.00    -0.200 F 
ATOM     89  F   UNL A   1      38.183  34.393  38.968  1.00  0.00    -0.200 F 
ENDBRANCH  56  79
ENDBRANCH  30  31
ENDBRANCH  23  25
ENDBRANCH  22  23
ENDBRANCH  21  22
ENDBRANCH   1  21
TORSDOF 14
ENDMDL
