MODEL 1
REMARK VINA RESULT:     -11.8      0.000      0.000
REMARK SMILES O=C(OCCOC(=O)c1ccc(-c2c3nc(c(-c4c(F)c(F)c(F)c(F)c4F)c4ccc([nH]4)c(-c4c(F)c(F)c(F)c(F)c4F)c4nc(c(-c5c(F)c(F)c(F)c(F)c5F)c5ccc2[nH]5)C=C4)C=C3)cc1)C1=C[C@H]2C(=N1)C=CC(Cl)=C2Cl
REMARK SMILES IDX 5 1 4 2 3 3 2 4 1 5 72 6 73 7 76 8 74 9 75 10 81 11 77 12
REMARK SMILES IDX 79 13 82 14 78 15 80 16 6 17 7 18 8 19 9 20 10 21 71 22
REMARK SMILES IDX 11 23 70 24 12 25 13 26 14 27 64 28 15 29 69 30 63 31 65 32
REMARK SMILES IDX 16 33 68 34 62 35 61 36 17 38 49 39 29 40 48 41 30 42 33 43
REMARK SMILES IDX 47 44 66 45 31 46 32 47 46 49 67 50 34 51 18 52 19 53 27 54
REMARK SMILES IDX 20 55 21 56 25 57 28 58 22 59 23 60 26 61 24 62 50 63 51 64
REMARK SMILES IDX 59 65 52 66 53 67 57 68 60 69 54 70 55 71 58 72 56 73 35 74
REMARK SMILES IDX 36 75 44 76 37 77 38 78 42 79 45 80 39 81 40 82 43 83 41 84
REMARK H PARENT 65 37 33 48
REMARK Flexibility Score: inf
ROOT
ATOM      1  C   UNL A   1      42.103  20.472  26.020  1.00  0.00     0.275 C 
ENDROOT
BRANCH   1   2
ATOM      2  C   UNL A   1      40.764  20.428  26.763  1.00  0.00     0.275 C 
BRANCH   2   3
ATOM      3  O   UNL A   1      39.661  20.537  25.848  1.00  0.00    -0.457 OA
BRANCH   3   4
ATOM      4  C   UNL A   1      38.809  21.585  25.809  1.00  0.00     0.356 C 
ATOM      5  O   UNL A   1      39.091  22.648  26.359  1.00  0.00    -0.244 OA
BRANCH   4   6
ATOM      6  C   UNL A   1      37.522  21.454  25.083  1.00  0.00     0.145 C 
ATOM      7  C   UNL A   1      36.997  22.543  24.513  1.00  0.00     0.024 C 
ATOM      8  N   UNL A   1      36.654  20.384  25.142  1.00  0.00    -0.245 NA
ATOM      9  C   UNL A   1      35.601  22.261  24.129  1.00  0.00     0.107 C 
ATOM     10  C   UNL A   1      35.530  20.863  24.714  1.00  0.00     0.054 C 
ATOM     11  C   UNL A   1      34.512  23.072  24.735  1.00  0.00     0.050 C 
ATOM     12  C   UNL A   1      34.216  20.198  24.814  1.00  0.00     0.026 C 
ATOM     13  C   UNL A   1      33.315  22.477  24.862  1.00  0.00     0.056 C 
ATOM     14  Cl  UNL A   1      34.790  24.764  24.939  1.00  0.00    -0.086 Cl
ATOM     15  C   UNL A   1      33.167  21.031  24.882  1.00  0.00     0.023 C 
ATOM     16  Cl  UNL A   1      31.875  23.379  24.757  1.00  0.00    -0.083 Cl
ENDBRANCH   4   6
ENDBRANCH   3   4
ENDBRANCH   2   3
ENDBRANCH   1   2
BRANCH   1  17
ATOM     17  O   UNL A   1      42.964  21.529  26.486  1.00  0.00    -0.458 OA
BRANCH  17  18
ATOM     18  C   UNL A   1      42.951  22.685  25.762  1.00  0.00     0.338 C 
ATOM     19  O   UNL A   1      43.024  22.777  24.560  1.00  0.00    -0.246 OA
BRANCH  18  20
ATOM     20  C   UNL A   1      42.725  23.859  26.663  1.00  0.00     0.060 A 
ATOM     21  C   UNL A   1      43.433  25.044  26.418  1.00  0.00     0.016 A 
ATOM     22  C   UNL A   1      41.825  23.817  27.731  1.00  0.00     0.016 A 
ATOM     23  C   UNL A   1      43.242  26.180  27.228  1.00  0.00     0.010 A 
ATOM     24  C   UNL A   1      41.619  24.957  28.522  1.00  0.00     0.010 A 
ATOM     25  C   UNL A   1      42.326  26.153  28.288  1.00  0.00    -0.014 A 
BRANCH  25  26
ATOM     26  C   UNL A   1      42.097  27.314  29.202  1.00  0.00     0.031 A 
ATOM     27  C   UNL A   1      42.819  27.383  30.523  1.00  0.00     0.074 A 
ATOM     28  C   UNL A   1      41.180  28.267  28.929  1.00  0.00     0.049 A 
ATOM     29  N   UNL A   1      42.663  28.236  31.506  1.00  0.00    -0.248 NA
ATOM     30  C   UNL A   1      43.872  26.383  30.760  1.00  0.00     0.031 C 
ATOM     31  C   UNL A   1      40.463  28.434  27.670  1.00  0.00     0.029 A 
ATOM     32  N   UNL A   1      40.645  29.247  29.742  1.00  0.00    -0.354 N 
ATOM     33  C   UNL A   1      43.641  27.926  32.438  1.00  0.00     0.074 A 
ATOM     34  C   UNL A   1      44.310  26.732  31.963  1.00  0.00     0.031 C 
ATOM     35  C   UNL A   1      39.501  29.362  27.831  1.00  0.00     0.029 A 
ATOM     36  C   UNL A   1      39.529  29.852  29.205  1.00  0.00     0.049 A 
ATOM     37  H   UNL A   1      41.023  29.489  30.618  1.00  0.00     0.167 HD
ATOM     38  C   UNL A   1      43.994  28.612  33.551  1.00  0.00     0.037 A 
ATOM     39  C   UNL A   1      38.620  30.679  29.763  1.00  0.00     0.037 A 
ATOM     40  C   UNL A   1      43.329  29.793  34.039  1.00  0.00     0.049 A 
ATOM     41  C   UNL A   1      38.874  31.252  31.122  1.00  0.00     0.074 A 
ATOM     42  C   UNL A   1      43.677  30.600  35.109  1.00  0.00     0.029 A 
ATOM     43  N   UNL A   1      42.164  30.321  33.507  1.00  0.00    -0.354 N 
ATOM     44  N   UNL A   1      39.870  31.030  31.936  1.00  0.00    -0.248 NA
ATOM     45  C   UNL A   1      37.918  32.267  31.594  1.00  0.00     0.031 C 
ATOM     46  C   UNL A   1      42.685  31.575  35.268  1.00  0.00     0.029 A 
ATOM     47  C   UNL A   1      41.748  31.408  34.264  1.00  0.00     0.049 A 
ATOM     48  H   UNL A   1      41.699  29.976  32.711  1.00  0.00     0.167 HD
ATOM     49  C   UNL A   1      39.720  31.945  32.967  1.00  0.00     0.074 A 
ATOM     50  C   UNL A   1      38.512  32.693  32.698  1.00  0.00     0.031 C 
ATOM     51  C   UNL A   1      40.551  32.168  34.012  1.00  0.00     0.037 A 
BRANCH  38  52
ATOM     52  C   UNL A   1      45.195  28.123  34.306  1.00  0.00     0.064 A 
ATOM     53  C   UNL A   1      45.065  27.193  35.349  1.00  0.00     0.173 A 
ATOM     54  C   UNL A   1      46.486  28.535  33.948  1.00  0.00     0.173 A 
ATOM     55  F   UNL A   1      43.848  26.772  35.730  1.00  0.00    -0.203 F 
ATOM     56  C   UNL A   1      46.182  26.714  36.025  1.00  0.00     0.198 A 
ATOM     57  C   UNL A   1      47.604  28.033  34.608  1.00  0.00     0.198 A 
ATOM     58  F   UNL A   1      46.664  29.414  32.951  1.00  0.00    -0.203 F 
ATOM     59  F   UNL A   1      46.031  25.857  37.044  1.00  0.00    -0.200 F 
ATOM     60  C   UNL A   1      47.451  27.129  35.650  1.00  0.00     0.200 A 
ATOM     61  F   UNL A   1      48.831  28.424  34.237  1.00  0.00    -0.200 F 
ATOM     62  F   UNL A   1      48.527  26.659  36.295  1.00  0.00    -0.200 F 
ENDBRANCH  38  52
BRANCH  39  63
ATOM     63  C   UNL A   1      37.364  31.041  29.057  1.00  0.00     0.064 A 
ATOM     64  C   UNL A   1      37.131  32.327  28.566  1.00  0.00     0.173 A 
ATOM     65  C   UNL A   1      36.308  30.123  28.989  1.00  0.00     0.173 A 
ATOM     66  F   UNL A   1      38.053  33.284  28.741  1.00  0.00    -0.203 F 
ATOM     67  C   UNL A   1      35.907  32.659  27.983  1.00  0.00     0.198 A 
ATOM     68  C   UNL A   1      35.121  30.422  28.328  1.00  0.00     0.198 A 
ATOM     69  F   UNL A   1      36.402  28.959  29.648  1.00  0.00    -0.203 F 
ATOM     70  F   UNL A   1      35.670  33.924  27.608  1.00  0.00    -0.200 F 
ATOM     71  C   UNL A   1      34.917  31.698  27.833  1.00  0.00     0.200 A 
ATOM     72  F   UNL A   1      34.163  29.492  28.211  1.00  0.00    -0.200 F 
ATOM     73  F   UNL A   1      33.746  32.019  27.265  1.00  0.00    -0.200 F 
ENDBRANCH  39  63
BRANCH  51  74
ATOM     74  C   UNL A   1      40.225  33.317  34.919  1.00  0.00     0.064 A 
ATOM     75  C   UNL A   1      39.442  33.156  36.070  1.00  0.00     0.173 A 
ATOM     76  C   UNL A   1      40.718  34.600  34.635  1.00  0.00     0.173 A 
ATOM     77  F   UNL A   1      38.922  31.956  36.371  1.00  0.00    -0.203 F 
ATOM     78  C   UNL A   1      39.147  34.240  36.892  1.00  0.00     0.198 A 
ATOM     79  C   UNL A   1      40.452  35.675  35.478  1.00  0.00     0.198 A 
ATOM     80  F   UNL A   1      41.467  34.812  33.541  1.00  0.00    -0.203 F 
ATOM     81  F   UNL A   1      38.352  34.073  37.959  1.00  0.00    -0.200 F 
ATOM     82  C   UNL A   1      39.660  35.495  36.602  1.00  0.00     0.200 A 
ATOM     83  F   UNL A   1      40.958  36.884  35.201  1.00  0.00    -0.200 F 
ATOM     84  F   UNL A   1      39.386  36.535  37.402  1.00  0.00    -0.200 F 
ENDBRANCH  51  74
ENDBRANCH  25  26
ENDBRANCH  18  20
ENDBRANCH  17  18
ENDBRANCH   1  17
TORSDOF 11
ENDMDL
MODEL 2
REMARK VINA RESULT:     -11.7      2.123      3.042
REMARK SMILES O=C(OCCOC(=O)c1ccc(-c2c3nc(c(-c4c(F)c(F)c(F)c(F)c4F)c4ccc([nH]4)c(-c4c(F)c(F)c(F)c(F)c4F)c4nc(c(-c5c(F)c(F)c(F)c(F)c5F)c5ccc2[nH]5)C=C4)C=C3)cc1)C1=C[C@H]2C(=N1)C=CC(Cl)=C2Cl
REMARK SMILES IDX 5 1 4 2 3 3 2 4 1 5 72 6 73 7 76 8 74 9 75 10 81 11 77 12
REMARK SMILES IDX 79 13 82 14 78 15 80 16 6 17 7 18 8 19 9 20 10 21 71 22
REMARK SMILES IDX 11 23 70 24 12 25 13 26 14 27 64 28 15 29 69 30 63 31 65 32
REMARK SMILES IDX 16 33 68 34 62 35 61 36 17 38 49 39 29 40 48 41 30 42 33 43
REMARK SMILES IDX 47 44 66 45 31 46 32 47 46 49 67 50 34 51 18 52 19 53 27 54
REMARK SMILES IDX 20 55 21 56 25 57 28 58 22 59 23 60 26 61 24 62 50 63 51 64
REMARK SMILES IDX 59 65 52 66 53 67 57 68 60 69 54 70 55 71 58 72 56 73 35 74
REMARK SMILES IDX 36 75 44 76 37 77 38 78 42 79 45 80 39 81 40 82 43 83 41 84
REMARK H PARENT 65 37 33 48
REMARK Flexibility Score: inf
ROOT
ATOM      1  C   UNL A   1      45.968  21.788  25.076  1.00  0.00     0.275 C 
ENDROOT
BRANCH   1   2
ATOM      2  C   UNL A   1      45.548  20.344  25.366  1.00  0.00     0.275 C 
BRANCH   2   3
ATOM      3  O   UNL A   1      44.268  20.050  24.780  1.00  0.00    -0.457 OA
BRANCH   3   4
ATOM      4  C   UNL A   1      43.305  19.324  25.387  1.00  0.00     0.356 C 
ATOM      5  O   UNL A   1      43.331  18.095  25.363  1.00  0.00    -0.244 OA
BRANCH   4   6
ATOM      6  C   UNL A   1      42.206  20.020  26.101  1.00  0.00     0.145 C 
ATOM      7  C   UNL A   1      40.999  19.449  26.125  1.00  0.00     0.024 C 
ATOM      8  N   UNL A   1      42.212  21.330  26.534  1.00  0.00    -0.245 NA
ATOM      9  C   UNL A   1      40.009  20.434  26.601  1.00  0.00     0.107 C 
ATOM     10  C   UNL A   1      40.960  21.611  26.707  1.00  0.00     0.054 C 
ATOM     11  C   UNL A   1      38.890  20.821  25.702  1.00  0.00     0.050 C 
ATOM     12  C   UNL A   1      40.402  22.961  26.923  1.00  0.00     0.026 C 
ATOM     13  C   UNL A   1      38.387  22.056  25.862  1.00  0.00     0.056 C 
ATOM     14  Cl  UNL A   1      38.152  19.578  24.759  1.00  0.00    -0.086 Cl
ATOM     15  C   UNL A   1      39.142  23.125  26.494  1.00  0.00     0.023 C 
ATOM     16  Cl  UNL A   1      36.742  22.375  25.558  1.00  0.00    -0.083 Cl
ENDBRANCH   4   6
ENDBRANCH   3   4
ENDBRANCH   2   3
ENDBRANCH   1   2
BRANCH   1  17
ATOM     17  O   UNL A   1      45.384  22.733  25.995  1.00  0.00    -0.458 OA
BRANCH  17  18
ATOM     18  C   UNL A   1      44.842  23.858  25.445  1.00  0.00     0.338 C 
ATOM     19  O   UNL A   1      44.698  24.079  24.267  1.00  0.00    -0.246 OA
BRANCH  18  20
ATOM     20  C   UNL A   1      44.337  24.769  26.521  1.00  0.00     0.060 A 
ATOM     21  C   UNL A   1      44.896  26.049  26.637  1.00  0.00     0.016 A 
ATOM     22  C   UNL A   1      43.323  24.390  27.404  1.00  0.00     0.016 A 
ATOM     23  C   UNL A   1      44.443  26.948  27.622  1.00  0.00     0.010 A 
ATOM     24  C   UNL A   1      42.857  25.296  28.369  1.00  0.00     0.010 A 
ATOM     25  C   UNL A   1      43.412  26.584  28.498  1.00  0.00    -0.014 A 
BRANCH  25  26
ATOM     26  C   UNL A   1      42.904  27.480  29.582  1.00  0.00     0.031 A 
ATOM     27  C   UNL A   1      43.401  27.304  30.995  1.00  0.00     0.074 A 
ATOM     28  C   UNL A   1      41.929  28.387  29.361  1.00  0.00     0.049 A 
ATOM     29  N   UNL A   1      42.993  27.892  32.093  1.00  0.00    -0.248 NA
ATOM     30  C   UNL A   1      44.521  26.371  31.195  1.00  0.00     0.031 C 
ATOM     31  C   UNL A   1      41.399  28.778  28.060  1.00  0.00     0.029 A 
ATOM     32  N   UNL A   1      41.160  29.105  30.256  1.00  0.00    -0.354 N 
ATOM     33  C   UNL A   1      43.848  27.460  33.095  1.00  0.00     0.074 A 
ATOM     34  C   UNL A   1      44.724  26.469  32.503  1.00  0.00     0.031 C 
ATOM     35  C   UNL A   1      40.317  29.558  28.242  1.00  0.00     0.029 A 
ATOM     36  C   UNL A   1      40.074  29.719  29.671  1.00  0.00     0.049 A 
ATOM     37  H   UNL A   1      41.367  29.170  31.217  1.00  0.00     0.167 HD
ATOM     38  C   UNL A   1      43.940  27.898  34.373  1.00  0.00     0.037 A 
ATOM     39  C   UNL A   1      38.995  30.314  30.223  1.00  0.00     0.037 A 
ATOM     40  C   UNL A   1      43.068  28.874  34.976  1.00  0.00     0.049 A 
ATOM     41  C   UNL A   1      38.966  30.579  31.696  1.00  0.00     0.074 A 
ATOM     42  C   UNL A   1      43.146  29.440  36.237  1.00  0.00     0.029 A 
ATOM     43  N   UNL A   1      41.941  29.409  34.372  1.00  0.00    -0.354 N 
ATOM     44  N   UNL A   1      39.845  30.261  32.607  1.00  0.00    -0.248 NA
ATOM     45  C   UNL A   1      37.832  31.372  32.196  1.00  0.00     0.031 C 
ATOM     46  C   UNL A   1      42.029  30.263  36.422  1.00  0.00     0.029 A 
ATOM     47  C   UNL A   1      41.284  30.252  35.257  1.00  0.00     0.049 A 
ATOM     48  H   UNL A   1      41.650  29.218  33.451  1.00  0.00     0.167 HD
ATOM     49  C   UNL A   1      39.428  30.898  33.766  1.00  0.00     0.074 A 
ATOM     50  C   UNL A   1      38.193  31.582  33.454  1.00  0.00     0.031 C 
ATOM     51  C   UNL A   1      40.055  30.944  34.964  1.00  0.00     0.037 A 
BRANCH  38  52
ATOM     52  C   UNL A   1      45.062  27.354  35.207  1.00  0.00     0.064 A 
ATOM     53  C   UNL A   1      46.313  27.990  35.239  1.00  0.00     0.173 A 
ATOM     54  C   UNL A   1      44.872  26.232  36.025  1.00  0.00     0.173 A 
ATOM     55  F   UNL A   1      46.544  29.066  34.471  1.00  0.00    -0.203 F 
ATOM     56  C   UNL A   1      47.342  27.505  36.041  1.00  0.00     0.198 A 
ATOM     57  C   UNL A   1      45.895  25.765  36.845  1.00  0.00     0.198 A 
ATOM     58  F   UNL A   1      43.691  25.596  36.037  1.00  0.00    -0.203 F 
ATOM     59  F   UNL A   1      48.540  28.104  36.025  1.00  0.00    -0.200 F 
ATOM     60  C   UNL A   1      47.130  26.398  36.848  1.00  0.00     0.200 A 
ATOM     61  F   UNL A   1      45.686  24.703  37.635  1.00  0.00    -0.200 F 
ATOM     62  F   UNL A   1      48.118  25.937  37.626  1.00  0.00    -0.200 F 
ENDBRANCH  38  52
BRANCH  39  63
ATOM     63  C   UNL A   1      37.827  30.720  29.400  1.00  0.00     0.064 A 
ATOM     64  C   UNL A   1      37.622  32.042  29.001  1.00  0.00     0.173 A 
ATOM     65  C   UNL A   1      36.813  29.795  29.118  1.00  0.00     0.173 A 
ATOM     66  F   UNL A   1      38.489  32.993  29.375  1.00  0.00    -0.203 F 
ATOM     67  C   UNL A   1      36.471  32.407  28.301  1.00  0.00     0.198 A 
ATOM     68  C   UNL A   1      35.710  30.136  28.342  1.00  0.00     0.198 A 
ATOM     69  F   UNL A   1      36.856  28.578  29.677  1.00  0.00    -0.203 F 
ATOM     70  F   UNL A   1      36.248  33.697  28.013  1.00  0.00    -0.200 F 
ATOM     71  C   UNL A   1      35.534  31.449  27.941  1.00  0.00     0.200 A 
ATOM     72  F   UNL A   1      34.799  29.206  28.022  1.00  0.00    -0.200 F 
ATOM     73  F   UNL A   1      34.434  31.802  27.262  1.00  0.00    -0.200 F 
ENDBRANCH  39  63
BRANCH  51  74
ATOM     74  C   UNL A   1      39.456  31.822  36.022  1.00  0.00     0.064 A 
ATOM     75  C   UNL A   1      38.401  31.388  36.837  1.00  0.00     0.173 A 
ATOM     76  C   UNL A   1      39.958  33.116  36.232  1.00  0.00     0.173 A 
ATOM     77  F   UNL A   1      37.866  30.171  36.658  1.00  0.00    -0.203 F 
ATOM     78  C   UNL A   1      37.857  32.224  37.808  1.00  0.00     0.198 A 
ATOM     79  C   UNL A   1      39.435  33.936  37.228  1.00  0.00     0.198 A 
ATOM     80  F   UNL A   1      40.962  33.584  35.476  1.00  0.00    -0.203 F 
ATOM     81  F   UNL A   1      36.813  31.808  38.540  1.00  0.00    -0.200 F 
ATOM     82  C   UNL A   1      38.380  33.492  38.010  1.00  0.00     0.200 A 
ATOM     83  F   UNL A   1      39.951  35.157  37.428  1.00  0.00    -0.200 F 
ATOM     84  F   UNL A   1      37.863  34.290  38.954  1.00  0.00    -0.200 F 
ENDBRANCH  51  74
ENDBRANCH  25  26
ENDBRANCH  18  20
ENDBRANCH  17  18
ENDBRANCH   1  17
TORSDOF 11
ENDMDL
MODEL 3
REMARK VINA RESULT:     -11.6      5.155     10.779
REMARK SMILES O=C(OCCOC(=O)c1ccc(-c2c3nc(c(-c4c(F)c(F)c(F)c(F)c4F)c4ccc([nH]4)c(-c4c(F)c(F)c(F)c(F)c4F)c4nc(c(-c5c(F)c(F)c(F)c(F)c5F)c5ccc2[nH]5)C=C4)C=C3)cc1)C1=C[C@H]2C(=N1)C=CC(Cl)=C2Cl
REMARK SMILES IDX 5 1 4 2 3 3 2 4 1 5 72 6 73 7 76 8 74 9 75 10 81 11 77 12
REMARK SMILES IDX 79 13 82 14 78 15 80 16 6 17 7 18 8 19 9 20 10 21 71 22
REMARK SMILES IDX 11 23 70 24 12 25 13 26 14 27 64 28 15 29 69 30 63 31 65 32
REMARK SMILES IDX 16 33 68 34 62 35 61 36 17 38 49 39 29 40 48 41 30 42 33 43
REMARK SMILES IDX 47 44 66 45 31 46 32 47 46 49 67 50 34 51 18 52 19 53 27 54
REMARK SMILES IDX 20 55 21 56 25 57 28 58 22 59 23 60 26 61 24 62 50 63 51 64
REMARK SMILES IDX 59 65 52 66 53 67 57 68 60 69 54 70 55 71 58 72 56 73 35 74
REMARK SMILES IDX 36 75 44 76 37 77 38 78 42 79 45 80 39 81 40 82 43 83 41 84
REMARK H PARENT 65 37 33 48
REMARK Flexibility Score: inf
ROOT
ATOM      1  C   UNL A   1      34.734  32.892  28.027  1.00  0.00     0.275 C 
ENDROOT
BRANCH   1   2
ATOM      2  C   UNL A   1      34.647  33.978  29.105  1.00  0.00     0.275 C 
BRANCH   2   3
ATOM      3  O   UNL A   1      34.088  33.454  30.322  1.00  0.00    -0.457 OA
BRANCH   3   4
ATOM      4  C   UNL A   1      34.499  33.809  31.559  1.00  0.00     0.356 C 
ATOM      5  O   UNL A   1      33.688  34.133  32.424  1.00  0.00    -0.244 OA
BRANCH   4   6
ATOM      6  C   UNL A   1      35.947  33.795  31.879  1.00  0.00     0.145 C 
ATOM      7  C   UNL A   1      36.625  32.655  31.719  1.00  0.00     0.024 C 
ATOM      8  N   UNL A   1      36.640  34.762  32.578  1.00  0.00    -0.245 NA
ATOM      9  C   UNL A   1      37.939  32.779  32.378  1.00  0.00     0.107 C 
ATOM     10  C   UNL A   1      37.719  34.160  32.966  1.00  0.00     0.054 C 
ATOM     11  C   UNL A   1      38.276  31.851  33.489  1.00  0.00     0.050 C 
ATOM     12  C   UNL A   1      38.681  34.673  33.961  1.00  0.00     0.026 C 
ATOM     13  C   UNL A   1      39.128  32.308  34.421  1.00  0.00     0.056 C 
ATOM     14  Cl  UNL A   1      37.794  30.200  33.330  1.00  0.00    -0.086 Cl
ATOM     15  C   UNL A   1      39.345  33.727  34.643  1.00  0.00     0.023 C 
ATOM     16  Cl  UNL A   1      40.191  31.250  35.228  1.00  0.00    -0.083 Cl
ENDBRANCH   4   6
ENDBRANCH   3   4
ENDBRANCH   2   3
ENDBRANCH   1   2
BRANCH   1  17
ATOM     17  O   UNL A   1      34.205  31.626  28.469  1.00  0.00    -0.458 OA
BRANCH  17  18
ATOM     18  C   UNL A   1      34.587  30.528  27.755  1.00  0.00     0.338 C 
ATOM     19  O   UNL A   1      33.967  30.006  26.860  1.00  0.00    -0.246 OA
BRANCH  18  20
ATOM     20  C   UNL A   1      35.962  30.098  28.162  1.00  0.00     0.060 A 
ATOM     21  C   UNL A   1      36.179  29.701  29.489  1.00  0.00     0.016 A 
ATOM     22  C   UNL A   1      37.031  30.067  27.263  1.00  0.00     0.016 A 
ATOM     23  C   UNL A   1      37.451  29.273  29.915  1.00  0.00     0.010 A 
ATOM     24  C   UNL A   1      38.291  29.618  27.684  1.00  0.00     0.010 A 
ATOM     25  C   UNL A   1      38.524  29.220  29.015  1.00  0.00    -0.014 A 
BRANCH  25  26
ATOM     26  C   UNL A   1      39.904  28.801  29.409  1.00  0.00     0.031 A 
ATOM     27  C   UNL A   1      40.863  29.817  29.976  1.00  0.00     0.074 A 
ATOM     28  C   UNL A   1      40.364  27.553  29.182  1.00  0.00     0.049 A 
ATOM     29  N   UNL A   1      42.136  29.684  30.258  1.00  0.00    -0.248 NA
ATOM     30  C   UNL A   1      40.315  31.146  30.293  1.00  0.00     0.031 C 
ATOM     31  C   UNL A   1      39.568  26.410  28.746  1.00  0.00     0.029 A 
ATOM     32  N   UNL A   1      41.652  27.055  29.228  1.00  0.00    -0.354 N 
ATOM     33  C   UNL A   1      42.521  30.876  30.852  1.00  0.00     0.074 A 
ATOM     34  C   UNL A   1      41.380  31.767  30.782  1.00  0.00     0.031 C 
ATOM     35  C   UNL A   1      40.393  25.390  28.444  1.00  0.00     0.029 A 
ATOM     36  C   UNL A   1      41.774  25.806  28.659  1.00  0.00     0.049 A 
ATOM     37  H   UNL A   1      42.407  27.545  29.627  1.00  0.00     0.167 HD
ATOM     38  C   UNL A   1      43.693  31.176  31.461  1.00  0.00     0.037 A 
ATOM     39  C   UNL A   1      42.871  25.095  28.323  1.00  0.00     0.037 A 
ATOM     40  C   UNL A   1      44.836  30.302  31.527  1.00  0.00     0.049 A 
ATOM     41  C   UNL A   1      44.222  25.555  28.773  1.00  0.00     0.074 A 
ATOM     42  C   UNL A   1      46.031  30.493  32.200  1.00  0.00     0.029 A 
ATOM     43  N   UNL A   1      44.940  29.084  30.874  1.00  0.00    -0.354 N 
ATOM     44  N   UNL A   1      44.545  26.633  29.436  1.00  0.00    -0.248 NA
ATOM     45  C   UNL A   1      45.347  24.646  28.506  1.00  0.00     0.031 C 
ATOM     46  C   UNL A   1      46.884  29.425  31.898  1.00  0.00     0.029 A 
ATOM     47  C   UNL A   1      46.201  28.542  31.080  1.00  0.00     0.049 A 
ATOM     48  H   UNL A   1      44.225  28.666  30.341  1.00  0.00     0.167 HD
ATOM     49  C   UNL A   1      45.886  26.485  29.756  1.00  0.00     0.074 A 
ATOM     50  C   UNL A   1      46.327  25.237  29.173  1.00  0.00     0.031 C 
ATOM     51  C   UNL A   1      46.658  27.300  30.513  1.00  0.00     0.037 A 
BRANCH  38  52
ATOM     52  C   UNL A   1      43.787  32.504  32.153  1.00  0.00     0.064 A 
ATOM     53  C   UNL A   1      44.230  33.646  31.468  1.00  0.00     0.173 A 
ATOM     54  C   UNL A   1      43.374  32.652  33.483  1.00  0.00     0.173 A 
ATOM     55  F   UNL A   1      44.639  33.553  30.193  1.00  0.00    -0.203 F 
ATOM     56  C   UNL A   1      44.283  34.884  32.101  1.00  0.00     0.198 A 
ATOM     57  C   UNL A   1      43.403  33.897  34.105  1.00  0.00     0.198 A 
ATOM     58  F   UNL A   1      42.931  31.593  34.177  1.00  0.00    -0.203 F 
ATOM     59  F   UNL A   1      44.748  35.953  31.440  1.00  0.00    -0.200 F 
ATOM     60  C   UNL A   1      43.863  35.010  33.416  1.00  0.00     0.200 A 
ATOM     61  F   UNL A   1      42.984  34.021  35.372  1.00  0.00    -0.200 F 
ATOM     62  F   UNL A   1      43.905  36.205  34.021  1.00  0.00    -0.200 F 
ENDBRANCH  38  52
BRANCH  39  63
ATOM     63  C   UNL A   1      42.773  23.853  27.513  1.00  0.00     0.064 A 
ATOM     64  C   UNL A   1      42.452  22.618  28.080  1.00  0.00     0.173 A 
ATOM     65  C   UNL A   1      43.142  23.867  26.162  1.00  0.00     0.173 A 
ATOM     66  F   UNL A   1      42.237  22.527  29.400  1.00  0.00    -0.203 F 
ATOM     67  C   UNL A   1      42.450  21.456  27.308  1.00  0.00     0.198 A 
ATOM     68  C   UNL A   1      43.053  22.726  25.369  1.00  0.00     0.198 A 
ATOM     69  F   UNL A   1      43.676  24.977  25.634  1.00  0.00    -0.203 F 
ATOM     70  F   UNL A   1      42.236  20.269  27.893  1.00  0.00    -0.200 F 
ATOM     71  C   UNL A   1      42.716  21.515  25.948  1.00  0.00     0.200 A 
ATOM     72  F   UNL A   1      43.336  22.793  24.060  1.00  0.00    -0.200 F 
ATOM     73  F   UNL A   1      42.706  20.398  25.208  1.00  0.00    -0.200 F 
ENDBRANCH  39  63
BRANCH  51  74
ATOM     74  C   UNL A   1      48.051  26.839  30.820  1.00  0.00     0.064 A 
ATOM     75  C   UNL A   1      48.327  25.956  31.873  1.00  0.00     0.173 A 
ATOM     76  C   UNL A   1      49.128  27.280  30.035  1.00  0.00     0.173 A 
ATOM     77  F   UNL A   1      47.337  25.528  32.671  1.00  0.00    -0.203 F 
ATOM     78  C   UNL A   1      49.630  25.548  32.143  1.00  0.00     0.198 A 
ATOM     79  C   UNL A   1      50.426  26.842  30.284  1.00  0.00     0.198 A 
ATOM     80  F   UNL A   1      48.922  28.131  29.019  1.00  0.00    -0.203 F 
ATOM     81  F   UNL A   1      49.877  24.746  33.188  1.00  0.00    -0.200 F 
ATOM     82  C   UNL A   1      50.677  25.983  31.343  1.00  0.00     0.200 A 
ATOM     83  F   UNL A   1      51.433  27.255  29.503  1.00  0.00    -0.200 F 
ATOM     84  F   UNL A   1      51.929  25.579  31.597  1.00  0.00    -0.200 F 
ENDBRANCH  51  74
ENDBRANCH  25  26
ENDBRANCH  18  20
ENDBRANCH  17  18
ENDBRANCH   1  17
TORSDOF 11
ENDMDL
