MODEL 1
REMARK VINA RESULT:     -12.7      0.000      0.000
REMARK SMILES O=C(OCCOC(=O)c1ccc(F)cc1-c1ccc(F)c(Cl)c1)c1ccc(-c2c3nc(c(-c4c(F)c(F)c(F)c(F)c4F)c4ccc([nH]4)c(-c4c(F)c(F)c(F)c(F)c4F)c4nc(c(-c5c(F)c(F)c(F)c(F)c5F)c5ccc2[nH]5)C=C4)C=C3)cc1
REMARK SMILES IDX 4 1 3 2 2 3 1 4 24 5 25 6 86 7 26 8 85 9 27 10 28 11 29 12
REMARK SMILES IDX 79 13 30 14 84 15 78 16 80 17 31 18 83 19 77 20 76 21 32 23
REMARK SMILES IDX 64 24 44 25 63 26 45 27 48 28 62 29 81 30 46 31 47 32 61 34
REMARK SMILES IDX 82 35 49 36 33 37 34 38 42 39 35 40 36 41 40 42 43 43 37 44
REMARK SMILES IDX 38 45 41 46 39 47 65 48 66 49 74 50 67 51 68 52 72 53 75 54
REMARK SMILES IDX 69 55 70 56 73 57 71 58 50 59 51 60 59 61 52 62 53 63 57 64
REMARK SMILES IDX 60 65 54 66 55 67 58 68 56 69 5 70 6 71 7 72 8 73 9 74 10 75
REMARK SMILES IDX 15 76 11 77 14 78 12 79 13 80 16 81 17 82 23 83 18 84 21 85
REMARK SMILES IDX 19 86 22 87 20 88
REMARK H PARENT 80 22 48 33
REMARK Flexibility Score: inf
ROOT
ATOM      1  C   UNL A   1      38.350  20.623  25.670  1.00  0.00     0.275 C 
ENDROOT
BRANCH   1   2
ATOM      2  O   UNL A   1      39.788  20.720  25.746  1.00  0.00    -0.458 OA
BRANCH   2   3
ATOM      3  C   UNL A   1      40.422  20.946  26.916  1.00  0.00     0.338 C 
ATOM      4  O   UNL A   1      40.778  20.031  27.646  1.00  0.00    -0.246 OA
BRANCH   3   5
ATOM      5  C   UNL A   1      40.783  22.361  27.219  1.00  0.00     0.060 A 
ATOM      6  C   UNL A   1      40.319  23.462  26.496  1.00  0.00     0.016 A 
ATOM      7  C   UNL A   1      41.636  22.578  28.309  1.00  0.00     0.016 A 
ATOM      8  C   UNL A   1      40.687  24.752  26.881  1.00  0.00     0.010 A 
ATOM      9  C   UNL A   1      41.972  23.859  28.728  1.00  0.00     0.010 A 
ATOM     10  C   UNL A   1      41.521  24.952  27.990  1.00  0.00    -0.014 A 
BRANCH  10  11
ATOM     11  C   UNL A   1      42.041  26.297  28.287  1.00  0.00     0.031 A 
ATOM     12  C   UNL A   1      43.407  26.654  27.782  1.00  0.00     0.074 A 
ATOM     13  C   UNL A   1      41.275  27.172  28.959  1.00  0.00     0.049 A 
ATOM     14  N   UNL A   1      43.998  27.817  27.758  1.00  0.00    -0.248 NA
ATOM     15  C   UNL A   1      44.217  25.558  27.218  1.00  0.00     0.031 C 
ATOM     16  C   UNL A   1      39.951  26.878  29.509  1.00  0.00     0.029 A 
ATOM     17  N   UNL A   1      41.488  28.484  29.284  1.00  0.00    -0.354 N 
ATOM     18  C   UNL A   1      45.216  27.601  27.128  1.00  0.00     0.074 A 
ATOM     19  C   UNL A   1      45.328  26.185  26.869  1.00  0.00     0.031 C 
ATOM     20  C   UNL A   1      39.466  27.980  30.104  1.00  0.00     0.029 A 
ATOM     21  C   UNL A   1      40.436  29.060  29.954  1.00  0.00     0.049 A 
ATOM     22  H   UNL A   1      42.314  28.967  29.059  1.00  0.00     0.167 HD
ATOM     23  C   UNL A   1      46.133  28.522  26.754  1.00  0.00     0.037 A 
ATOM     24  C   UNL A   1      40.274  30.332  30.363  1.00  0.00     0.037 A 
ATOM     25  C   UNL A   1      45.999  29.920  27.050  1.00  0.00     0.049 A 
ATOM     26  C   UNL A   1      41.332  31.333  29.978  1.00  0.00     0.074 A 
ATOM     27  C   UNL A   1      46.850  30.960  26.734  1.00  0.00     0.029 A 
ATOM     28  N   UNL A   1      44.930  30.467  27.749  1.00  0.00    -0.354 N 
ATOM     29  N   UNL A   1      42.441  31.140  29.300  1.00  0.00    -0.248 NA
ATOM     30  C   UNL A   1      41.107  32.728  30.373  1.00  0.00     0.031 C 
ATOM     31  C   UNL A   1      46.312  32.133  27.271  1.00  0.00     0.029 A 
ATOM     32  C   UNL A   1      45.105  31.831  27.885  1.00  0.00     0.049 A 
ATOM     33  H   UNL A   1      44.162  29.958  28.096  1.00  0.00     0.167 HD
ATOM     34  C   UNL A   1      43.028  32.387  29.157  1.00  0.00     0.074 A 
ATOM     35  C   UNL A   1      42.145  33.333  29.813  1.00  0.00     0.031 C 
ATOM     36  C   UNL A   1      44.186  32.728  28.541  1.00  0.00     0.037 A 
BRANCH  23  37
ATOM     37  C   UNL A   1      47.317  28.045  25.969  1.00  0.00     0.064 A 
ATOM     38  C   UNL A   1      48.549  27.801  26.590  1.00  0.00     0.173 A 
ATOM     39  C   UNL A   1      47.233  27.853  24.580  1.00  0.00     0.173 A 
ATOM     40  F   UNL A   1      48.683  27.961  27.914  1.00  0.00    -0.203 F 
ATOM     41  C   UNL A   1      49.655  27.389  25.849  1.00  0.00     0.198 A 
ATOM     42  C   UNL A   1      48.335  27.421  23.846  1.00  0.00     0.198 A 
ATOM     43  F   UNL A   1      46.071  28.054  23.939  1.00  0.00    -0.203 F 
ATOM     44  F   UNL A   1      50.828  27.175  26.462  1.00  0.00    -0.200 F 
ATOM     45  C   UNL A   1      49.547  27.197  24.480  1.00  0.00     0.200 A 
ATOM     46  F   UNL A   1      48.219  27.210  22.527  1.00  0.00    -0.200 F 
ATOM     47  F   UNL A   1      50.609  26.787  23.772  1.00  0.00    -0.200 F 
ENDBRANCH  23  37
BRANCH  24  48
ATOM     48  C   UNL A   1      39.039  30.729  31.089  1.00  0.00     0.064 A 
ATOM     49  C   UNL A   1      37.913  31.206  30.402  1.00  0.00     0.173 A 
ATOM     50  C   UNL A   1      38.970  30.679  32.489  1.00  0.00     0.173 A 
ATOM     51  F   UNL A   1      37.929  31.288  29.063  1.00  0.00    -0.203 F 
ATOM     52  C   UNL A   1      36.771  31.625  31.085  1.00  0.00     0.198 A 
ATOM     53  C   UNL A   1      37.821  31.077  33.171  1.00  0.00     0.198 A 
ATOM     54  F   UNL A   1      40.016  30.226  33.194  1.00  0.00    -0.203 F 
ATOM     55  F   UNL A   1      35.722  32.106  30.404  1.00  0.00    -0.200 F 
ATOM     56  C   UNL A   1      36.724  31.556  32.469  1.00  0.00     0.200 A 
ATOM     57  F   UNL A   1      37.775  30.996  34.507  1.00  0.00    -0.200 F 
ATOM     58  F   UNL A   1      35.626  31.953  33.126  1.00  0.00    -0.200 F 
ENDBRANCH  24  48
BRANCH  36  59
ATOM     59  C   UNL A   1      44.550  34.180  28.534  1.00  0.00     0.064 A 
ATOM     60  C   UNL A   1      45.320  34.721  29.574  1.00  0.00     0.173 A 
ATOM     61  C   UNL A   1      44.063  35.046  27.547  1.00  0.00     0.173 A 
ATOM     62  F   UNL A   1      45.798  33.927  30.545  1.00  0.00    -0.203 F 
ATOM     63  C   UNL A   1      45.579  36.085  29.631  1.00  0.00     0.198 A 
ATOM     64  C   UNL A   1      44.347  36.407  27.593  1.00  0.00     0.198 A 
ATOM     65  F   UNL A   1      43.330  34.569  26.529  1.00  0.00    -0.203 F 
ATOM     66  F   UNL A   1      46.288  36.588  30.652  1.00  0.00    -0.200 F 
ATOM     67  C   UNL A   1      45.096  36.926  28.641  1.00  0.00     0.200 A 
ATOM     68  F   UNL A   1      43.899  37.216  26.623  1.00  0.00    -0.200 F 
ATOM     69  F   UNL A   1      45.352  38.240  28.693  1.00  0.00    -0.200 F 
ENDBRANCH  36  59
ENDBRANCH  10  11
ENDBRANCH   3   5
ENDBRANCH   2   3
ENDBRANCH   1   2
BRANCH   1  70
ATOM     70  C   UNL A   1      37.552  21.832  25.164  1.00  0.00     0.275 C 
BRANCH  70  71
ATOM     71  O   UNL A   1      36.309  21.480  24.534  1.00  0.00    -0.458 OA
BRANCH  71  72
ATOM     72  C   UNL A   1      35.331  21.046  25.376  1.00  0.00     0.338 C 
ATOM     73  O   UNL A   1      35.080  21.489  26.488  1.00  0.00    -0.246 OA
BRANCH  72  74
ATOM     74  C   UNL A   1      34.616  19.901  24.764  1.00  0.00     0.068 A 
ATOM     75  C   UNL A   1      35.289  18.664  24.741  1.00  0.00     0.019 A 
ATOM     76  C   UNL A   1      33.299  20.019  24.251  1.00  0.00    -0.001 A 
ATOM     77  C   UNL A   1      34.671  17.539  24.198  1.00  0.00     0.040 A 
ATOM     78  C   UNL A   1      32.715  18.869  23.684  1.00  0.00     0.048 A 
ATOM     79  C   UNL A   1      33.396  17.656  23.665  1.00  0.00     0.123 A 
ATOM     80  F   UNL A   1      32.808  16.579  23.127  1.00  0.00    -0.207 F 
BRANCH  76  81
ATOM     81  C   UNL A   1      32.511  21.267  24.272  1.00  0.00    -0.016 A 
ATOM     82  C   UNL A   1      32.427  22.101  23.143  1.00  0.00     0.012 A 
ATOM     83  C   UNL A   1      31.777  21.632  25.411  1.00  0.00     0.032 A 
ATOM     84  C   UNL A   1      31.722  23.305  23.176  1.00  0.00     0.041 A 
ATOM     85  C   UNL A   1      31.036  22.817  25.433  1.00  0.00     0.077 A 
ATOM     86  C   UNL A   1      31.029  23.658  24.324  1.00  0.00     0.141 A 
ATOM     87  Cl  UNL A   1      30.118  23.214  26.834  1.00  0.00    -0.081 Cl
ATOM     88  F   UNL A   1      30.342  24.809  24.332  1.00  0.00    -0.205 F 
ENDBRANCH  76  81
ENDBRANCH  72  74
ENDBRANCH  71  72
ENDBRANCH  70  71
ENDBRANCH   1  70
TORSDOF 12
ENDMDL
MODEL 2
REMARK VINA RESULT:     -12.7      0.234      1.636
REMARK SMILES O=C(OCCOC(=O)c1ccc(F)cc1-c1ccc(F)c(Cl)c1)c1ccc(-c2c3nc(c(-c4c(F)c(F)c(F)c(F)c4F)c4ccc([nH]4)c(-c4c(F)c(F)c(F)c(F)c4F)c4nc(c(-c5c(F)c(F)c(F)c(F)c5F)c5ccc2[nH]5)C=C4)C=C3)cc1
REMARK SMILES IDX 4 1 3 2 2 3 1 4 24 5 25 6 86 7 26 8 85 9 27 10 28 11 29 12
REMARK SMILES IDX 79 13 30 14 84 15 78 16 80 17 31 18 83 19 77 20 76 21 32 23
REMARK SMILES IDX 64 24 44 25 63 26 45 27 48 28 62 29 81 30 46 31 47 32 61 34
REMARK SMILES IDX 82 35 49 36 33 37 34 38 42 39 35 40 36 41 40 42 43 43 37 44
REMARK SMILES IDX 38 45 41 46 39 47 65 48 66 49 74 50 67 51 68 52 72 53 75 54
REMARK SMILES IDX 69 55 70 56 73 57 71 58 50 59 51 60 59 61 52 62 53 63 57 64
REMARK SMILES IDX 60 65 54 66 55 67 58 68 56 69 5 70 6 71 7 72 8 73 9 74 10 75
REMARK SMILES IDX 15 76 11 77 14 78 12 79 13 80 16 81 17 82 23 83 18 84 21 85
REMARK SMILES IDX 19 86 22 87 20 88
REMARK H PARENT 80 22 48 33
REMARK Flexibility Score: inf
ROOT
ATOM      1  C   UNL A   1      38.356  20.733  25.486  1.00  0.00     0.275 C 
ENDROOT
BRANCH   1   2
ATOM      2  O   UNL A   1      39.775  20.943  25.646  1.00  0.00    -0.458 OA
BRANCH   2   3
ATOM      3  C   UNL A   1      40.328  21.144  26.860  1.00  0.00     0.338 C 
ATOM      4  O   UNL A   1      40.593  20.216  27.612  1.00  0.00    -0.246 OA
BRANCH   3   5
ATOM      5  C   UNL A   1      40.723  22.544  27.192  1.00  0.00     0.060 A 
ATOM      6  C   UNL A   1      40.250  23.673  26.522  1.00  0.00     0.016 A 
ATOM      7  C   UNL A   1      41.620  22.714  28.255  1.00  0.00     0.016 A 
ATOM      8  C   UNL A   1      40.653  24.945  26.932  1.00  0.00     0.010 A 
ATOM      9  C   UNL A   1      41.992  23.976  28.700  1.00  0.00     0.010 A 
ATOM     10  C   UNL A   1      41.531  25.097  28.014  1.00  0.00    -0.014 A 
BRANCH  10  11
ATOM     11  C   UNL A   1      42.083  26.425  28.332  1.00  0.00     0.031 A 
ATOM     12  C   UNL A   1      43.461  26.754  27.840  1.00  0.00     0.074 A 
ATOM     13  C   UNL A   1      41.335  27.310  29.012  1.00  0.00     0.049 A 
ATOM     14  N   UNL A   1      44.081  27.902  27.834  1.00  0.00    -0.248 NA
ATOM     15  C   UNL A   1      44.246  25.645  27.265  1.00  0.00     0.031 C 
ATOM     16  C   UNL A   1      40.001  27.042  29.550  1.00  0.00     0.029 A 
ATOM     17  N   UNL A   1      41.579  28.611  29.356  1.00  0.00    -0.354 N 
ATOM     18  C   UNL A   1      45.297  27.664  27.208  1.00  0.00     0.074 A 
ATOM     19  C   UNL A   1      45.375  26.249  26.931  1.00  0.00     0.031 C 
ATOM     20  C   UNL A   1      39.541  28.148  30.158  1.00  0.00     0.029 A 
ATOM     21  C   UNL A   1      40.539  29.205  30.028  1.00  0.00     0.049 A 
ATOM     22  H   UNL A   1      42.419  29.077  29.142  1.00  0.00     0.167 HD
ATOM     23  C   UNL A   1      46.238  28.566  26.852  1.00  0.00     0.037 A 
ATOM     24  C   UNL A   1      40.407  30.475  30.453  1.00  0.00     0.037 A 
ATOM     25  C   UNL A   1      46.138  29.963  27.166  1.00  0.00     0.049 A 
ATOM     26  C   UNL A   1      41.492  31.454  30.088  1.00  0.00     0.074 A 
ATOM     27  C   UNL A   1      47.018  30.985  26.869  1.00  0.00     0.029 A 
ATOM     28  N   UNL A   1      45.079  30.527  27.867  1.00  0.00    -0.354 N 
ATOM     29  N   UNL A   1      42.599  31.242  29.413  1.00  0.00    -0.248 NA
ATOM     30  C   UNL A   1      41.300  32.849  30.501  1.00  0.00     0.031 C 
ATOM     31  C   UNL A   1      46.506  32.164  27.419  1.00  0.00     0.029 A 
ATOM     32  C   UNL A   1      45.288  31.884  28.022  1.00  0.00     0.049 A 
ATOM     33  H   UNL A   1      44.297  30.034  28.202  1.00  0.00     0.167 HD
ATOM     34  C   UNL A   1      43.218  32.476  29.290  1.00  0.00     0.074 A 
ATOM     35  C   UNL A   1      42.356  33.435  29.954  1.00  0.00     0.031 C 
ATOM     36  C   UNL A   1      44.388  32.796  28.685  1.00  0.00     0.037 A 
BRANCH  23  37
ATOM     37  C   UNL A   1      47.415  28.069  26.067  1.00  0.00     0.064 A 
ATOM     38  C   UNL A   1      48.649  27.827  26.684  1.00  0.00     0.173 A 
ATOM     39  C   UNL A   1      47.322  27.858  24.681  1.00  0.00     0.173 A 
ATOM     40  F   UNL A   1      48.792  28.007  28.005  1.00  0.00    -0.203 F 
ATOM     41  C   UNL A   1      49.748  27.397  25.943  1.00  0.00     0.198 A 
ATOM     42  C   UNL A   1      48.416  27.407  23.947  1.00  0.00     0.198 A 
ATOM     43  F   UNL A   1      46.157  28.056  24.045  1.00  0.00    -0.203 F 
ATOM     44  F   UNL A   1      50.924  27.185  26.551  1.00  0.00    -0.200 F 
ATOM     45  C   UNL A   1      49.631  27.185  24.577  1.00  0.00     0.200 A 
ATOM     46  F   UNL A   1      48.291  27.178  22.633  1.00  0.00    -0.200 F 
ATOM     47  F   UNL A   1      50.686  26.759  23.869  1.00  0.00    -0.200 F 
ENDBRANCH  23  37
BRANCH  24  48
ATOM     48  C   UNL A   1      39.178  30.893  31.178  1.00  0.00     0.064 A 
ATOM     49  C   UNL A   1      39.082  30.778  32.574  1.00  0.00     0.173 A 
ATOM     50  C   UNL A   1      38.057  31.378  30.491  1.00  0.00     0.173 A 
ATOM     51  F   UNL A   1      40.120  30.306  33.281  1.00  0.00    -0.203 F 
ATOM     52  C   UNL A   1      37.913  31.122  33.250  1.00  0.00     0.198 A 
ATOM     53  C   UNL A   1      36.894  31.742  31.169  1.00  0.00     0.198 A 
ATOM     54  F   UNL A   1      38.096  31.512  29.158  1.00  0.00    -0.203 F 
ATOM     55  F   UNL A   1      37.839  30.972  34.580  1.00  0.00    -0.200 F 
ATOM     56  C   UNL A   1      36.820  31.609  32.548  1.00  0.00     0.200 A 
ATOM     57  F   UNL A   1      35.846  32.225  30.488  1.00  0.00    -0.200 F 
ATOM     58  F   UNL A   1      35.698  31.946  33.198  1.00  0.00    -0.200 F 
ENDBRANCH  24  48
BRANCH  36  59
ATOM     59  C   UNL A   1      44.789  34.238  28.700  1.00  0.00     0.064 A 
ATOM     60  C   UNL A   1      44.346  35.105  27.690  1.00  0.00     0.173 A 
ATOM     61  C   UNL A   1      45.679  34.735  29.661  1.00  0.00     0.173 A 
ATOM     62  F   UNL A   1      43.502  34.666  26.744  1.00  0.00    -0.203 F 
ATOM     63  C   UNL A   1      44.794  36.420  27.636  1.00  0.00     0.198 A 
ATOM     64  C   UNL A   1      46.103  36.059  29.619  1.00  0.00     0.198 A 
ATOM     65  F   UNL A   1      46.120  33.941  30.648  1.00  0.00    -0.203 F 
ATOM     66  F   UNL A   1      44.387  37.224  26.644  1.00  0.00    -0.200 F 
ATOM     67  C   UNL A   1      45.668  36.897  28.601  1.00  0.00     0.200 A 
ATOM     68  F   UNL A   1      46.929  36.525  30.564  1.00  0.00    -0.200 F 
ATOM     69  F   UNL A   1      46.092  38.166  28.552  1.00  0.00    -0.200 F 
ENDBRANCH  36  59
ENDBRANCH  10  11
ENDBRANCH   3   5
ENDBRANCH   2   3
ENDBRANCH   1   2
BRANCH   1  70
ATOM     70  C   UNL A   1      37.481  21.906  25.025  1.00  0.00     0.275 C 
BRANCH  70  71
ATOM     71  O   UNL A   1      36.222  21.501  24.462  1.00  0.00    -0.458 OA
BRANCH  71  72
ATOM     72  C   UNL A   1      35.311  21.026  25.355  1.00  0.00     0.338 C 
ATOM     73  O   UNL A   1      35.110  21.450  26.485  1.00  0.00    -0.246 OA
BRANCH  72  74
ATOM     74  C   UNL A   1      34.601  19.862  24.775  1.00  0.00     0.068 A 
ATOM     75  C   UNL A   1      35.292  18.633  24.759  1.00  0.00     0.019 A 
ATOM     76  C   UNL A   1      33.274  19.952  24.284  1.00  0.00    -0.001 A 
ATOM     77  C   UNL A   1      34.681  17.491  24.246  1.00  0.00     0.040 A 
ATOM     78  C   UNL A   1      32.697  18.785  23.746  1.00  0.00     0.048 A 
ATOM     79  C   UNL A   1      33.395  17.581  23.734  1.00  0.00     0.123 A 
ATOM     80  F   UNL A   1      32.814  16.488  23.223  1.00  0.00    -0.207 F 
BRANCH  76  81
ATOM     81  C   UNL A   1      32.469  21.188  24.300  1.00  0.00    -0.016 A 
ATOM     82  C   UNL A   1      32.335  21.992  23.153  1.00  0.00     0.012 A 
ATOM     83  C   UNL A   1      31.767  21.572  25.453  1.00  0.00     0.032 A 
ATOM     84  C   UNL A   1      31.613  23.186  23.179  1.00  0.00     0.041 A 
ATOM     85  C   UNL A   1      31.009  22.747  25.469  1.00  0.00     0.077 A 
ATOM     86  C   UNL A   1      30.954  23.559  24.340  1.00  0.00     0.141 A 
ATOM     87  Cl  UNL A   1      30.132  23.167  26.890  1.00  0.00    -0.081 Cl
ATOM     88  F   UNL A   1      30.249  24.700  24.342  1.00  0.00    -0.205 F 
ENDBRANCH  76  81
ENDBRANCH  72  74
ENDBRANCH  71  72
ENDBRANCH  70  71
ENDBRANCH   1  70
TORSDOF 12
ENDMDL
MODEL 3
REMARK VINA RESULT:     -12.6      5.067     10.183
REMARK SMILES O=C(OCCOC(=O)c1ccc(F)cc1-c1ccc(F)c(Cl)c1)c1ccc(-c2c3nc(c(-c4c(F)c(F)c(F)c(F)c4F)c4ccc([nH]4)c(-c4c(F)c(F)c(F)c(F)c4F)c4nc(c(-c5c(F)c(F)c(F)c(F)c5F)c5ccc2[nH]5)C=C4)C=C3)cc1
REMARK SMILES IDX 4 1 3 2 2 3 1 4 24 5 25 6 86 7 26 8 85 9 27 10 28 11 29 12
REMARK SMILES IDX 79 13 30 14 84 15 78 16 80 17 31 18 83 19 77 20 76 21 32 23
REMARK SMILES IDX 64 24 44 25 63 26 45 27 48 28 62 29 81 30 46 31 47 32 61 34
REMARK SMILES IDX 82 35 49 36 33 37 34 38 42 39 35 40 36 41 40 42 43 43 37 44
REMARK SMILES IDX 38 45 41 46 39 47 65 48 66 49 74 50 67 51 68 52 72 53 75 54
REMARK SMILES IDX 69 55 70 56 73 57 71 58 50 59 51 60 59 61 52 62 53 63 57 64
REMARK SMILES IDX 60 65 54 66 55 67 58 68 56 69 5 70 6 71 7 72 8 73 9 74 10 75
REMARK SMILES IDX 15 76 11 77 14 78 12 79 13 80 16 81 17 82 23 83 18 84 21 85
REMARK SMILES IDX 19 86 22 87 20 88
REMARK H PARENT 80 22 48 33
REMARK Flexibility Score: inf
ROOT
ATOM      1  C   UNL A   1      32.312  30.450  25.997  1.00  0.00     0.275 C 
ENDROOT
BRANCH   1   2
ATOM      2  O   UNL A   1      32.665  30.899  27.322  1.00  0.00    -0.458 OA
BRANCH   2   3
ATOM      3  C   UNL A   1      33.653  31.795  27.526  1.00  0.00     0.338 C 
ATOM      4  O   UNL A   1      33.487  32.994  27.350  1.00  0.00    -0.246 OA
BRANCH   3   5
ATOM      5  C   UNL A   1      34.925  31.268  28.102  1.00  0.00     0.060 A 
ATOM      6  C   UNL A   1      35.123  29.940  28.482  1.00  0.00     0.016 A 
ATOM      7  C   UNL A   1      35.978  32.180  28.253  1.00  0.00     0.016 A 
ATOM      8  C   UNL A   1      36.365  29.536  28.978  1.00  0.00     0.010 A 
ATOM      9  C   UNL A   1      37.229  31.780  28.703  1.00  0.00     0.010 A 
ATOM     10  C   UNL A   1      37.414  30.457  29.098  1.00  0.00    -0.014 A 
BRANCH  10  11
ATOM     11  C   UNL A   1      38.661  30.066  29.778  1.00  0.00     0.031 A 
ATOM     12  C   UNL A   1      38.917  30.610  31.152  1.00  0.00     0.074 A 
ATOM     13  C   UNL A   1      39.507  29.214  29.176  1.00  0.00     0.049 A 
ATOM     14  N   UNL A   1      39.838  30.273  32.012  1.00  0.00    -0.248 NA
ATOM     15  C   UNL A   1      38.009  31.670  31.630  1.00  0.00     0.031 C 
ATOM     16  C   UNL A   1      39.336  28.676  27.826  1.00  0.00     0.029 A 
ATOM     17  N   UNL A   1      40.669  28.643  29.618  1.00  0.00    -0.354 N 
ATOM     18  C   UNL A   1      39.584  31.034  33.145  1.00  0.00     0.074 A 
ATOM     19  C   UNL A   1      38.486  31.919  32.838  1.00  0.00     0.031 C 
ATOM     20  C   UNL A   1      40.357  27.848  27.549  1.00  0.00     0.029 A 
ATOM     21  C   UNL A   1      41.237  27.783  28.711  1.00  0.00     0.049 A 
ATOM     22  H   UNL A   1      41.059  28.830  30.502  1.00  0.00     0.167 HD
ATOM     23  C   UNL A   1      40.188  30.954  34.352  1.00  0.00     0.037 A 
ATOM     24  C   UNL A   1      42.329  27.006  28.834  1.00  0.00     0.037 A 
ATOM     25  C   UNL A   1      41.294  30.078  34.614  1.00  0.00     0.049 A 
ATOM     26  C   UNL A   1      43.017  26.969  30.174  1.00  0.00     0.074 A 
ATOM     27  C   UNL A   1      42.000  29.898  35.787  1.00  0.00     0.029 A 
ATOM     28  N   UNL A   1      41.858  29.234  33.665  1.00  0.00    -0.354 N 
ATOM     29  N   UNL A   1      42.715  27.624  31.273  1.00  0.00    -0.248 NA
ATOM     30  C   UNL A   1      44.165  26.066  30.310  1.00  0.00     0.031 C 
ATOM     31  C   UNL A   1      43.014  28.967  35.538  1.00  0.00     0.029 A 
ATOM     32  C   UNL A   1      42.913  28.537  34.222  1.00  0.00     0.049 A 
ATOM     33  H   UNL A   1      41.551  29.145  32.734  1.00  0.00     0.167 HD
ATOM     34  C   UNL A   1      43.609  27.189  32.238  1.00  0.00     0.074 A 
ATOM     35  C   UNL A   1      44.461  26.206  31.595  1.00  0.00     0.031 C 
ATOM     36  C   UNL A   1      43.722  27.560  33.537  1.00  0.00     0.037 A 
BRANCH  23  37
ATOM     37  C   UNL A   1      39.642  31.804  35.460  1.00  0.00     0.064 A 
ATOM     38  C   UNL A   1      40.117  33.104  35.679  1.00  0.00     0.173 A 
ATOM     39  C   UNL A   1      38.655  31.311  36.329  1.00  0.00     0.173 A 
ATOM     40  F   UNL A   1      41.055  33.626  34.876  1.00  0.00    -0.203 F 
ATOM     41  C   UNL A   1      39.629  33.876  36.731  1.00  0.00     0.198 A 
ATOM     42  C   UNL A   1      38.154  32.094  37.366  1.00  0.00     0.198 A 
ATOM     43  F   UNL A   1      38.151  30.080  36.151  1.00  0.00    -0.203 F 
ATOM     44  F   UNL A   1      40.109  35.112  36.932  1.00  0.00    -0.200 F 
ATOM     45  C   UNL A   1      38.647  33.373  37.572  1.00  0.00     0.200 A 
ATOM     46  F   UNL A   1      37.186  31.614  38.159  1.00  0.00    -0.200 F 
ATOM     47  F   UNL A   1      38.170  34.123  38.574  1.00  0.00    -0.200 F 
ENDBRANCH  23  37
BRANCH  24  48
ATOM     48  C   UNL A   1      42.766  26.152  27.699  1.00  0.00     0.064 A 
ATOM     49  C   UNL A   1      43.741  26.593  26.790  1.00  0.00     0.173 A 
ATOM     50  C   UNL A   1      42.192  24.894  27.470  1.00  0.00     0.173 A 
ATOM     51  F   UNL A   1      44.314  27.795  26.953  1.00  0.00    -0.203 F 
ATOM     52  C   UNL A   1      44.117  25.815  25.696  1.00  0.00     0.198 A 
ATOM     53  C   UNL A   1      42.583  24.106  26.388  1.00  0.00     0.198 A 
ATOM     54  F   UNL A   1      41.260  24.422  28.310  1.00  0.00    -0.203 F 
ATOM     55  F   UNL A   1      45.027  26.276  24.827  1.00  0.00    -0.200 F 
ATOM     56  C   UNL A   1      43.540  24.569  25.498  1.00  0.00     0.200 A 
ATOM     57  F   UNL A   1      42.033  22.897  26.208  1.00  0.00    -0.200 F 
ATOM     58  F   UNL A   1      43.905  23.818  24.450  1.00  0.00    -0.200 F 
ENDBRANCH  24  48
BRANCH  36  59
ATOM     59  C   UNL A   1      44.788  26.889  34.346  1.00  0.00     0.064 A 
ATOM     60  C   UNL A   1      44.503  25.712  35.053  1.00  0.00     0.173 A 
ATOM     61  C   UNL A   1      46.059  27.460  34.489  1.00  0.00     0.173 A 
ATOM     62  F   UNL A   1      43.294  25.138  34.952  1.00  0.00    -0.203 F 
ATOM     63  C   UNL A   1      45.454  25.137  35.888  1.00  0.00     0.198 A 
ATOM     64  C   UNL A   1      47.016  26.866  35.304  1.00  0.00     0.198 A 
ATOM     65  F   UNL A   1      46.375  28.581  33.823  1.00  0.00    -0.203 F 
ATOM     66  F   UNL A   1      45.151  24.030  36.582  1.00  0.00    -0.200 F 
ATOM     67  C   UNL A   1      46.710  25.711  36.010  1.00  0.00     0.200 A 
ATOM     68  F   UNL A   1      48.237  27.409  35.404  1.00  0.00    -0.200 F 
ATOM     69  F   UNL A   1      47.628  25.151  36.809  1.00  0.00    -0.200 F 
ENDBRANCH  36  59
ENDBRANCH  10  11
ENDBRANCH   3   5
ENDBRANCH   2   3
ENDBRANCH   1   2
BRANCH   1  70
ATOM     70  C   UNL A   1      33.068  29.258  25.393  1.00  0.00     0.275 C 
BRANCH  70  71
ATOM     71  O   UNL A   1      33.285  28.183  26.321  1.00  0.00    -0.458 OA
BRANCH  71  72
ATOM     72  C   UNL A   1      32.388  27.160  26.247  1.00  0.00     0.338 C 
ATOM     73  O   UNL A   1      31.404  27.004  26.957  1.00  0.00    -0.246 OA
BRANCH  72  74
ATOM     74  C   UNL A   1      32.800  26.209  25.188  1.00  0.00     0.068 A 
ATOM     75  C   UNL A   1      33.985  25.480  25.407  1.00  0.00     0.019 A 
ATOM     76  C   UNL A   1      32.029  26.002  24.016  1.00  0.00    -0.001 A 
ATOM     77  C   UNL A   1      34.425  24.554  24.464  1.00  0.00     0.040 A 
ATOM     78  C   UNL A   1      32.516  25.079  23.070  1.00  0.00     0.048 A 
ATOM     79  C   UNL A   1      33.692  24.371  23.300  1.00  0.00     0.123 A 
ATOM     80  F   UNL A   1      34.123  23.494  22.384  1.00  0.00    -0.207 F 
BRANCH  76  81
ATOM     81  C   UNL A   1      30.758  26.694  23.729  1.00  0.00    -0.016 A 
ATOM     82  C   UNL A   1      29.528  26.190  24.186  1.00  0.00     0.012 A 
ATOM     83  C   UNL A   1      30.746  27.912  23.031  1.00  0.00     0.032 A 
ATOM     84  C   UNL A   1      28.320  26.817  23.875  1.00  0.00     0.041 A 
ATOM     85  C   UNL A   1      29.541  28.565  22.754  1.00  0.00     0.077 A 
ATOM     86  C   UNL A   1      28.333  28.003  23.158  1.00  0.00     0.141 A 
ATOM     87  Cl  UNL A   1      29.569  30.074  21.928  1.00  0.00    -0.081 Cl
ATOM     88  F   UNL A   1      27.166  28.602  22.884  1.00  0.00    -0.205 F 
ENDBRANCH  76  81
ENDBRANCH  72  74
ENDBRANCH  71  72
ENDBRANCH  70  71
ENDBRANCH   1  70
TORSDOF 12
ENDMDL
