MODEL 1
REMARK VINA RESULT:     -14.5      0.000      0.000
REMARK SMILES O=C(CCN1C(=O)[C@@H]2[C@@H](C1=O)[C@H]1c3ccccc3[C@]2(Br)c2ccccc21)OCCOC(=O)c1ccc(-c2c3nc(c(-c4c(F)c(F)c(F)c(F)c4F)c4ccc([nH]4)c(-c4c(F)c(F)c(F)c(F)c4F)c4nc(c(-c5c(F)c(F)c(F)c(F)c5F)c5ccc2[nH]5)C=C4)C=C3)cc1
REMARK SMILES IDX 28 1 27 2 2 3 1 4 3 5 4 6 5 7 6 8 10 9 7 10 8 11 9 12 11 13
REMARK SMILES IDX 19 14 12 15 21 16 20 17 18 18 26 19 13 20 22 21 17 22 25 23
REMARK SMILES IDX 14 24 23 25 16 26 24 27 15 28 29 29 30 30 31 31 32 32 33 33
REMARK SMILES IDX 34 34 95 35 35 36 94 37 36 38 37 39 38 40 88 41 39 42 93 43
REMARK SMILES IDX 87 44 89 45 40 46 92 47 86 48 85 49 41 51 73 52 53 53 72 54
REMARK SMILES IDX 54 55 57 56 71 57 90 58 55 59 56 60 70 62 91 63 58 64 42 65
REMARK SMILES IDX 43 66 51 67 44 68 45 69 49 70 52 71 46 72 47 73 50 74 48 75
REMARK SMILES IDX 74 76 75 77 83 78 76 79 77 80 81 81 84 82 78 83 79 84 82 85
REMARK SMILES IDX 80 86 59 87 60 88 68 89 61 90 62 91 66 92 69 93 63 94 64 95
REMARK SMILES IDX 67 96 65 97
REMARK H PARENT 89 50 57 61
REMARK Flexibility Score: inf
ROOT
ATOM      1  C   UNL A   1      35.809  20.719  25.007  1.00  0.00     0.274 C 
ENDROOT
BRANCH   1   2
ATOM      2  O   UNL A   1      35.661  22.115  24.679  1.00  0.00    -0.462 OA
BRANCH   2   3
ATOM      3  C   UNL A   1      34.968  22.587  23.614  1.00  0.00     0.307 C 
ATOM      4  O   UNL A   1      35.528  23.267  22.755  1.00  0.00    -0.252 OA
BRANCH   3   5
ATOM      5  C   UNL A   1      33.473  22.361  23.540  1.00  0.00     0.144 C 
BRANCH   5   6
ATOM      6  C   UNL A   1      32.820  23.041  22.339  1.00  0.00     0.140 C 
BRANCH   6   7
ATOM      7  N   UNL A   1      32.285  24.350  22.670  1.00  0.00    -0.281 N 
ATOM      8  C   UNL A   1      32.813  25.565  22.209  1.00  0.00     0.235 C 
ATOM      9  C   UNL A   1      31.270  24.536  23.599  1.00  0.00     0.234 C 
ATOM     10  O   UNL A   1      33.653  25.727  21.345  1.00  0.00    -0.274 OA
ATOM     11  C   UNL A   1      32.316  26.562  23.215  1.00  0.00     0.118 C 
ATOM     12  C   UNL A   1      30.919  25.972  23.458  1.00  0.00     0.105 C 
ATOM     13  O   UNL A   1      30.741  23.719  24.323  1.00  0.00    -0.274 OA
ATOM     14  C   UNL A   1      32.244  28.094  23.348  1.00  0.00     0.088 C 
ATOM     15  C   UNL A   1      30.175  26.831  24.477  1.00  0.00     0.063 C 
ATOM     16  C   UNL A   1      32.217  28.203  24.916  1.00  0.00    -0.022 A 
ATOM     17  Br  UNL A   1      33.779  28.933  22.551  1.00  0.00    -0.074 Br
ATOM     18  C   UNL A   1      30.877  28.631  22.889  1.00  0.00    -0.022 A 
ATOM     19  C   UNL A   1      31.147  27.433  25.494  1.00  0.00    -0.035 A 
ATOM     20  C   UNL A   1      29.769  27.998  23.554  1.00  0.00    -0.035 A 
ATOM     21  C   UNL A   1      33.118  28.853  25.755  1.00  0.00     0.006 A 
ATOM     22  C   UNL A   1      30.618  29.644  21.973  1.00  0.00     0.006 A 
ATOM     23  C   UNL A   1      31.027  27.292  26.871  1.00  0.00     0.005 A 
ATOM     24  C   UNL A   1      28.455  28.367  23.298  1.00  0.00     0.005 A 
ATOM     25  C   UNL A   1      32.977  28.717  27.141  1.00  0.00     0.000 A 
ATOM     26  C   UNL A   1      29.291  30.009  21.717  1.00  0.00     0.000 A 
ATOM     27  C   UNL A   1      31.951  27.936  27.691  1.00  0.00     0.000 A 
ATOM     28  C   UNL A   1      28.224  29.379  22.373  1.00  0.00     0.000 A 
ENDBRANCH   6   7
ENDBRANCH   5   6
ENDBRANCH   3   5
ENDBRANCH   2   3
ENDBRANCH   1   2
BRANCH   1  29
ATOM     29  C   UNL A   1      37.259  20.245  25.002  1.00  0.00     0.275 C 
BRANCH  29  30
ATOM     30  O   UNL A   1      38.116  21.372  25.233  1.00  0.00    -0.458 OA
BRANCH  30  31
ATOM     31  C   UNL A   1      39.187  21.097  26.016  1.00  0.00     0.338 C 
ATOM     32  O   UNL A   1      39.759  20.025  26.122  1.00  0.00    -0.246 OA
BRANCH  31  33
ATOM     33  C   UNL A   1      39.700  22.355  26.595  1.00  0.00     0.060 A 
ATOM     34  C   UNL A   1      40.704  22.370  27.568  1.00  0.00     0.016 A 
ATOM     35  C   UNL A   1      39.135  23.553  26.142  1.00  0.00     0.016 A 
ATOM     36  C   UNL A   1      41.176  23.592  28.048  1.00  0.00     0.010 A 
ATOM     37  C   UNL A   1      39.618  24.774  26.609  1.00  0.00     0.010 A 
ATOM     38  C   UNL A   1      40.663  24.799  27.542  1.00  0.00    -0.014 A 
BRANCH  38  39
ATOM     39  C   UNL A   1      41.352  26.073  27.850  1.00  0.00     0.031 A 
ATOM     40  C   UNL A   1      42.748  26.350  27.396  1.00  0.00     0.074 A 
ATOM     41  C   UNL A   1      40.679  26.985  28.576  1.00  0.00     0.049 A 
ATOM     42  N   UNL A   1      43.434  27.460  27.492  1.00  0.00    -0.248 NA
ATOM     43  C   UNL A   1      43.476  25.243  26.761  1.00  0.00     0.031 C 
ATOM     44  C   UNL A   1      39.332  26.791  29.119  1.00  0.00     0.029 A 
ATOM     45  N   UNL A   1      41.021  28.251  28.976  1.00  0.00    -0.354 N 
ATOM     46  C   UNL A   1      44.664  27.198  26.908  1.00  0.00     0.074 A 
ATOM     47  C   UNL A   1      44.651  25.807  26.506  1.00  0.00     0.031 C 
ATOM     48  C   UNL A   1      38.946  27.912  29.744  1.00  0.00     0.029 A 
ATOM     49  C   UNL A   1      40.024  28.892  29.667  1.00  0.00     0.049 A 
ATOM     50  H   UNL A   1      41.896  28.659  28.784  1.00  0.00     0.167 HD
ATOM     51  C   UNL A   1      45.696  28.054  26.712  1.00  0.00     0.037 A 
ATOM     52  C   UNL A   1      39.977  30.139  30.171  1.00  0.00     0.037 A 
ATOM     53  C   UNL A   1      45.703  29.431  27.138  1.00  0.00     0.049 A 
ATOM     54  C   UNL A   1      41.151  31.053  29.973  1.00  0.00     0.074 A 
ATOM     55  C   UNL A   1      46.677  30.392  26.931  1.00  0.00     0.029 A 
ATOM     56  N   UNL A   1      44.696  30.036  27.876  1.00  0.00    -0.354 N 
ATOM     57  N   UNL A   1      42.268  30.830  29.324  1.00  0.00    -0.248 NA
ATOM     58  C   UNL A   1      41.060  32.390  30.573  1.00  0.00     0.031 C 
ATOM     59  C   UNL A   1      46.285  31.562  27.588  1.00  0.00     0.029 A 
ATOM     60  C   UNL A   1      45.044  31.347  28.165  1.00  0.00     0.049 A 
ATOM     61  H   UNL A   1      43.858  29.601  28.153  1.00  0.00     0.167 HD
ATOM     62  C   UNL A   1      43.007  32.000  29.424  1.00  0.00     0.074 A 
ATOM     63  C   UNL A   1      42.204  32.937  30.182  1.00  0.00     0.031 C 
ATOM     64  C   UNL A   1      44.241  32.267  28.931  1.00  0.00     0.037 A 
BRANCH  51  65
ATOM     65  C   UNL A   1      46.905  27.536  25.990  1.00  0.00     0.064 A 
ATOM     66  C   UNL A   1      47.034  27.672  24.599  1.00  0.00     0.173 A 
ATOM     67  C   UNL A   1      47.979  26.976  26.698  1.00  0.00     0.173 A 
ATOM     68  F   UNL A   1      46.034  28.197  23.877  1.00  0.00    -0.203 F 
ATOM     69  C   UNL A   1      48.187  27.251  23.942  1.00  0.00     0.198 A 
ATOM     70  C   UNL A   1      49.141  26.580  26.040  1.00  0.00     0.198 A 
ATOM     71  F   UNL A   1      47.911  26.834  28.030  1.00  0.00    -0.203 F 
ATOM     72  F   UNL A   1      48.277  27.366  22.610  1.00  0.00    -0.200 F 
ATOM     73  C   UNL A   1      49.242  26.714  24.663  1.00  0.00     0.200 A 
ATOM     74  F   UNL A   1      50.167  26.074  26.739  1.00  0.00    -0.200 F 
ATOM     75  F   UNL A   1      50.358  26.326  24.031  1.00  0.00    -0.200 F 
ENDBRANCH  51  65
BRANCH  52  76
ATOM     76  C   UNL A   1      38.746  30.598  30.858  1.00  0.00     0.064 A 
ATOM     77  C   UNL A   1      38.634  30.519  32.252  1.00  0.00     0.173 A 
ATOM     78  C   UNL A   1      37.684  31.176  30.146  1.00  0.00     0.173 A 
ATOM     79  F   UNL A   1      39.619  29.962  32.972  1.00  0.00    -0.203 F 
ATOM     80  C   UNL A   1      37.504  30.999  32.910  1.00  0.00     0.198 A 
ATOM     81  C   UNL A   1      36.566  31.677  30.808  1.00  0.00     0.198 A 
ATOM     82  F   UNL A   1      37.750  31.282  28.812  1.00  0.00    -0.203 F 
ATOM     83  F   UNL A   1      37.413  30.893  34.243  1.00  0.00    -0.200 F 
ATOM     84  C   UNL A   1      36.476  31.585  32.189  1.00  0.00     0.200 A 
ATOM     85  F   UNL A   1      35.582  32.260  30.109  1.00  0.00    -0.200 F 
ATOM     86  F   UNL A   1      35.397  32.064  32.824  1.00  0.00    -0.200 F 
ENDBRANCH  52  76
BRANCH  64  87
ATOM     87  C   UNL A   1      44.810  33.628  29.199  1.00  0.00     0.064 A 
ATOM     88  C   UNL A   1      45.641  33.866  30.303  1.00  0.00     0.173 A 
ATOM     89  C   UNL A   1      44.588  34.685  28.302  1.00  0.00     0.173 A 
ATOM     90  F   UNL A   1      45.869  32.891  31.197  1.00  0.00    -0.203 F 
ATOM     91  C   UNL A   1      46.223  35.114  30.504  1.00  0.00     0.198 A 
ATOM     92  C   UNL A   1      45.193  35.924  28.493  1.00  0.00     0.198 A 
ATOM     93  F   UNL A   1      43.804  34.507  27.228  1.00  0.00    -0.203 F 
ATOM     94  F   UNL A   1      46.993  35.326  31.582  1.00  0.00    -0.200 F 
ATOM     95  C   UNL A   1      46.008  36.138  29.594  1.00  0.00     0.200 A 
ATOM     96  F   UNL A   1      44.994  36.909  27.606  1.00  0.00    -0.200 F 
ATOM     97  F   UNL A   1      46.586  37.333  29.779  1.00  0.00    -0.200 F 
ENDBRANCH  64  87
ENDBRANCH  38  39
ENDBRANCH  31  33
ENDBRANCH  30  31
ENDBRANCH  29  30
ENDBRANCH   1  29
TORSDOF 13
ENDMDL
MODEL 2
REMARK VINA RESULT:     -14.5      4.312      9.800
REMARK SMILES O=C(CCN1C(=O)[C@@H]2[C@@H](C1=O)[C@H]1c3ccccc3[C@]2(Br)c2ccccc21)OCCOC(=O)c1ccc(-c2c3nc(c(-c4c(F)c(F)c(F)c(F)c4F)c4ccc([nH]4)c(-c4c(F)c(F)c(F)c(F)c4F)c4nc(c(-c5c(F)c(F)c(F)c(F)c5F)c5ccc2[nH]5)C=C4)C=C3)cc1
REMARK SMILES IDX 28 1 27 2 2 3 1 4 3 5 4 6 5 7 6 8 10 9 7 10 8 11 9 12 11 13
REMARK SMILES IDX 19 14 12 15 21 16 20 17 18 18 26 19 13 20 22 21 17 22 25 23
REMARK SMILES IDX 14 24 23 25 16 26 24 27 15 28 29 29 30 30 31 31 32 32 33 33
REMARK SMILES IDX 34 34 95 35 35 36 94 37 36 38 37 39 38 40 88 41 39 42 93 43
REMARK SMILES IDX 87 44 89 45 40 46 92 47 86 48 85 49 41 51 73 52 53 53 72 54
REMARK SMILES IDX 54 55 57 56 71 57 90 58 55 59 56 60 70 62 91 63 58 64 42 65
REMARK SMILES IDX 43 66 51 67 44 68 45 69 49 70 52 71 46 72 47 73 50 74 48 75
REMARK SMILES IDX 74 76 75 77 83 78 76 79 77 80 81 81 84 82 78 83 79 84 82 85
REMARK SMILES IDX 80 86 59 87 60 88 68 89 61 90 62 91 66 92 69 93 63 94 64 95
REMARK SMILES IDX 67 96 65 97
REMARK H PARENT 89 50 57 61
REMARK Flexibility Score: inf
ROOT
ATOM      1  C   UNL A   1      32.677  29.331  25.131  1.00  0.00     0.274 C 
ENDROOT
BRANCH   1   2
ATOM      2  O   UNL A   1      32.607  28.069  25.824  1.00  0.00    -0.462 OA
BRANCH   2   3
ATOM      3  C   UNL A   1      31.462  27.380  26.057  1.00  0.00     0.307 C 
ATOM      4  O   UNL A   1      31.126  27.098  27.206  1.00  0.00    -0.252 OA
BRANCH   3   5
ATOM      5  C   UNL A   1      30.651  26.868  24.887  1.00  0.00     0.144 C 
BRANCH   5   6
ATOM      6  C   UNL A   1      29.923  25.560  25.185  1.00  0.00     0.140 C 
BRANCH   6   7
ATOM      7  N   UNL A   1      30.789  24.402  25.042  1.00  0.00    -0.281 N 
ATOM      8  C   UNL A   1      31.299  23.653  26.112  1.00  0.00     0.235 C 
ATOM      9  C   UNL A   1      31.315  24.001  23.821  1.00  0.00     0.234 C 
ATOM     10  O   UNL A   1      30.976  23.719  27.283  1.00  0.00    -0.274 OA
ATOM     11  C   UNL A   1      32.506  22.983  25.522  1.00  0.00     0.118 C 
ATOM     12  C   UNL A   1      31.948  22.693  24.120  1.00  0.00     0.105 C 
ATOM     13  O   UNL A   1      31.237  24.549  22.742  1.00  0.00    -0.274 OA
ATOM     14  C   UNL A   1      33.483  21.861  25.917  1.00  0.00     0.088 C 
ATOM     15  C   UNL A   1      33.014  21.986  23.286  1.00  0.00     0.063 C 
ATOM     16  C   UNL A   1      34.730  22.314  25.073  1.00  0.00    -0.022 A 
ATOM     17  Br  UNL A   1      33.804  21.856  27.812  1.00  0.00    -0.074 Br
ATOM     18  C   UNL A   1      33.060  20.513  25.308  1.00  0.00    -0.022 A 
ATOM     19  C   UNL A   1      34.415  22.463  23.677  1.00  0.00    -0.035 A 
ATOM     20  C   UNL A   1      32.881  20.569  23.881  1.00  0.00    -0.035 A 
ATOM     21  C   UNL A   1      36.004  22.653  25.523  1.00  0.00     0.006 A 
ATOM     22  C   UNL A   1      32.884  19.297  25.957  1.00  0.00     0.006 A 
ATOM     23  C   UNL A   1      35.343  22.978  22.782  1.00  0.00     0.005 A 
ATOM     24  C   UNL A   1      32.529  19.446  23.144  1.00  0.00     0.005 A 
ATOM     25  C   UNL A   1      36.936  23.156  24.610  1.00  0.00     0.000 A 
ATOM     26  C   UNL A   1      32.526  18.170  25.209  1.00  0.00     0.000 A 
ATOM     27  C   UNL A   1      36.606  23.328  23.258  1.00  0.00     0.000 A 
ATOM     28  C   UNL A   1      32.353  18.244  23.820  1.00  0.00     0.000 A 
ENDBRANCH   6   7
ENDBRANCH   5   6
ENDBRANCH   3   5
ENDBRANCH   2   3
ENDBRANCH   1   2
BRANCH   1  29
ATOM     29  C   UNL A   1      31.935  30.456  25.844  1.00  0.00     0.275 C 
BRANCH  29  30
ATOM     30  O   UNL A   1      32.467  30.597  27.169  1.00  0.00    -0.458 OA
BRANCH  30  31
ATOM     31  C   UNL A   1      33.213  31.714  27.346  1.00  0.00     0.338 C 
ATOM     32  O   UNL A   1      32.834  32.869  27.251  1.00  0.00    -0.246 OA
BRANCH  31  33
ATOM     33  C   UNL A   1      34.538  31.332  27.875  1.00  0.00     0.060 A 
ATOM     34  C   UNL A   1      35.558  32.268  28.070  1.00  0.00     0.016 A 
ATOM     35  C   UNL A   1      34.752  29.979  28.168  1.00  0.00     0.016 A 
ATOM     36  C   UNL A   1      36.775  31.853  28.610  1.00  0.00     0.010 A 
ATOM     37  C   UNL A   1      35.963  29.569  28.723  1.00  0.00     0.010 A 
ATOM     38  C   UNL A   1      36.970  30.509  28.975  1.00  0.00    -0.014 A 
BRANCH  38  39
ATOM     39  C   UNL A   1      38.147  30.135  29.791  1.00  0.00     0.031 A 
ATOM     40  C   UNL A   1      38.344  30.646  31.182  1.00  0.00     0.074 A 
ATOM     41  C   UNL A   1      39.060  29.321  29.229  1.00  0.00     0.049 A 
ATOM     42  N   UNL A   1      39.263  30.313  32.052  1.00  0.00    -0.248 NA
ATOM     43  C   UNL A   1      37.398  31.663  31.660  1.00  0.00     0.031 C 
ATOM     44  C   UNL A   1      38.993  28.813  27.857  1.00  0.00     0.029 A 
ATOM     45  N   UNL A   1      40.209  28.770  29.734  1.00  0.00    -0.354 N 
ATOM     46  C   UNL A   1      38.995  31.058  33.190  1.00  0.00     0.074 A 
ATOM     47  C   UNL A   1      37.857  31.901  32.883  1.00  0.00     0.031 C 
ATOM     48  C   UNL A   1      40.032  27.993  27.643  1.00  0.00     0.029 A 
ATOM     49  C   UNL A   1      40.847  27.936  28.851  1.00  0.00     0.049 A 
ATOM     50  H   UNL A   1      40.542  28.955  30.641  1.00  0.00     0.167 HD
ATOM     51  C   UNL A   1      39.633  31.021  34.384  1.00  0.00     0.037 A 
ATOM     52  C   UNL A   1      41.960  27.195  29.002  1.00  0.00     0.037 A 
ATOM     53  C   UNL A   1      40.780  30.193  34.668  1.00  0.00     0.049 A 
ATOM     54  C   UNL A   1      42.670  27.203  30.324  1.00  0.00     0.074 A 
ATOM     55  C   UNL A   1      41.458  30.041  35.865  1.00  0.00     0.029 A 
ATOM     56  N   UNL A   1      41.429  29.394  33.737  1.00  0.00    -0.354 N 
ATOM     57  N   UNL A   1      42.347  27.828  31.430  1.00  0.00    -0.248 NA
ATOM     58  C   UNL A   1      43.897  26.402  30.423  1.00  0.00     0.031 C 
ATOM     59  C   UNL A   1      42.548  29.193  35.646  1.00  0.00     0.029 A 
ATOM     60  C   UNL A   1      42.523  28.778  34.325  1.00  0.00     0.049 A 
ATOM     61  H   UNL A   1      41.153  29.281  32.799  1.00  0.00     0.167 HD
ATOM     62  C   UNL A   1      43.318  27.488  32.359  1.00  0.00     0.074 A 
ATOM     63  C   UNL A   1      44.236  26.586  31.693  1.00  0.00     0.031 C 
ATOM     64  C   UNL A   1      43.435  27.891  33.648  1.00  0.00     0.037 A 
BRANCH  51  65
ATOM     65  C   UNL A   1      39.102  31.887  35.488  1.00  0.00     0.064 A 
ATOM     66  C   UNL A   1      38.280  31.359  36.494  1.00  0.00     0.173 A 
ATOM     67  C   UNL A   1      39.484  33.233  35.591  1.00  0.00     0.173 A 
ATOM     68  F   UNL A   1      37.884  30.078  36.440  1.00  0.00    -0.203 F 
ATOM     69  C   UNL A   1      37.845  32.151  37.554  1.00  0.00     0.198 A 
ATOM     70  C   UNL A   1      39.068  34.016  36.665  1.00  0.00     0.198 A 
ATOM     71  F   UNL A   1      40.279  33.784  34.661  1.00  0.00    -0.203 F 
ATOM     72  F   UNL A   1      37.038  31.631  38.489  1.00  0.00    -0.200 F 
ATOM     73  C   UNL A   1      38.246  33.475  37.643  1.00  0.00     0.200 A 
ATOM     74  F   UNL A   1      39.468  35.292  36.759  1.00  0.00    -0.200 F 
ATOM     75  F   UNL A   1      37.841  34.231  38.673  1.00  0.00    -0.200 F 
ENDBRANCH  51  65
BRANCH  52  76
ATOM     76  C   UNL A   1      42.423  26.344  27.879  1.00  0.00     0.064 A 
ATOM     77  C   UNL A   1      41.861  25.080  27.660  1.00  0.00     0.173 A 
ATOM     78  C   UNL A   1      43.391  26.799  26.970  1.00  0.00     0.173 A 
ATOM     79  F   UNL A   1      40.942  24.601  28.511  1.00  0.00    -0.203 F 
ATOM     80  C   UNL A   1      42.251  24.299  26.575  1.00  0.00     0.198 A 
ATOM     81  C   UNL A   1      43.763  26.026  25.873  1.00  0.00     0.198 A 
ATOM     82  F   UNL A   1      43.951  28.006  27.133  1.00  0.00    -0.203 F 
ATOM     83  F   UNL A   1      41.712  23.085  26.399  1.00  0.00    -0.200 F 
ATOM     84  C   UNL A   1      43.194  24.776  25.678  1.00  0.00     0.200 A 
ATOM     85  F   UNL A   1      44.661  26.497  24.997  1.00  0.00    -0.200 F 
ATOM     86  F   UNL A   1      43.555  24.031  24.624  1.00  0.00    -0.200 F 
ENDBRANCH  52  76
BRANCH  64  87
ATOM     87  C   UNL A   1      44.603  27.367  34.430  1.00  0.00     0.064 A 
ATOM     88  C   UNL A   1      45.782  28.113  34.565  1.00  0.00     0.173 A 
ATOM     89  C   UNL A   1      44.514  26.145  35.115  1.00  0.00     0.173 A 
ATOM     90  F   UNL A   1      45.921  29.279  33.915  1.00  0.00    -0.203 F 
ATOM     91  C   UNL A   1      46.834  27.652  35.352  1.00  0.00     0.198 A 
ATOM     92  C   UNL A   1      45.557  25.700  35.921  1.00  0.00     0.198 A 
ATOM     93  F   UNL A   1      43.405  25.397  35.021  1.00  0.00    -0.203 F 
ATOM     94  F   UNL A   1      47.963  28.370  35.445  1.00  0.00    -0.200 F 
ATOM     95  C   UNL A   1      46.716  26.453  36.038  1.00  0.00     0.200 A 
ATOM     96  F   UNL A   1      45.438  24.547  36.594  1.00  0.00    -0.200 F 
ATOM     97  F   UNL A   1      47.723  26.021  36.811  1.00  0.00    -0.200 F 
ENDBRANCH  64  87
ENDBRANCH  38  39
ENDBRANCH  31  33
ENDBRANCH  30  31
ENDBRANCH  29  30
ENDBRANCH   1  29
TORSDOF 13
ENDMDL
MODEL 3
REMARK VINA RESULT:     -14.4      4.281      9.734
REMARK SMILES O=C(CCN1C(=O)[C@@H]2[C@@H](C1=O)[C@H]1c3ccccc3[C@]2(Br)c2ccccc21)OCCOC(=O)c1ccc(-c2c3nc(c(-c4c(F)c(F)c(F)c(F)c4F)c4ccc([nH]4)c(-c4c(F)c(F)c(F)c(F)c4F)c4nc(c(-c5c(F)c(F)c(F)c(F)c5F)c5ccc2[nH]5)C=C4)C=C3)cc1
REMARK SMILES IDX 28 1 27 2 2 3 1 4 3 5 4 6 5 7 6 8 10 9 7 10 8 11 9 12 11 13
REMARK SMILES IDX 19 14 12 15 21 16 20 17 18 18 26 19 13 20 22 21 17 22 25 23
REMARK SMILES IDX 14 24 23 25 16 26 24 27 15 28 29 29 30 30 31 31 32 32 33 33
REMARK SMILES IDX 34 34 95 35 35 36 94 37 36 38 37 39 38 40 88 41 39 42 93 43
REMARK SMILES IDX 87 44 89 45 40 46 92 47 86 48 85 49 41 51 73 52 53 53 72 54
REMARK SMILES IDX 54 55 57 56 71 57 90 58 55 59 56 60 70 62 91 63 58 64 42 65
REMARK SMILES IDX 43 66 51 67 44 68 45 69 49 70 52 71 46 72 47 73 50 74 48 75
REMARK SMILES IDX 74 76 75 77 83 78 76 79 77 80 81 81 84 82 78 83 79 84 82 85
REMARK SMILES IDX 80 86 59 87 60 88 68 89 61 90 62 91 66 92 69 93 63 94 64 95
REMARK SMILES IDX 67 96 65 97
REMARK H PARENT 89 50 57 61
REMARK Flexibility Score: inf
ROOT
ATOM      1  C   UNL A   1      32.222  29.683  25.201  1.00  0.00     0.274 C 
ENDROOT
BRANCH   1   2
ATOM      2  O   UNL A   1      32.387  28.425  25.886  1.00  0.00    -0.462 OA
BRANCH   2   3
ATOM      3  C   UNL A   1      31.398  27.518  26.080  1.00  0.00     0.307 C 
ATOM      4  O   UNL A   1      31.120  27.130  27.214  1.00  0.00    -0.252 OA
BRANCH   3   5
ATOM      5  C   UNL A   1      30.706  26.904  24.883  1.00  0.00     0.144 C 
BRANCH   5   6
ATOM      6  C   UNL A   1      29.978  25.602  25.209  1.00  0.00     0.140 C 
BRANCH   6   7
ATOM      7  N   UNL A   1      30.835  24.439  25.057  1.00  0.00    -0.281 N 
ATOM      8  C   UNL A   1      31.344  23.683  26.123  1.00  0.00     0.235 C 
ATOM      9  C   UNL A   1      31.352  24.039  23.833  1.00  0.00     0.234 C 
ATOM     10  O   UNL A   1      31.028  23.747  27.295  1.00  0.00    -0.274 OA
ATOM     11  C   UNL A   1      32.543  23.006  25.524  1.00  0.00     0.118 C 
ATOM     12  C   UNL A   1      31.977  22.724  24.124  1.00  0.00     0.105 C 
ATOM     13  O   UNL A   1      31.272  24.591  22.755  1.00  0.00    -0.274 OA
ATOM     14  C   UNL A   1      33.513  21.875  25.910  1.00  0.00     0.088 C 
ATOM     15  C   UNL A   1      33.033  22.012  23.283  1.00  0.00     0.063 C 
ATOM     16  C   UNL A   1      34.760  22.322  25.062  1.00  0.00    -0.022 A 
ATOM     17  Br  UNL A   1      33.844  21.861  27.804  1.00  0.00    -0.074 Br
ATOM     18  C   UNL A   1      33.078  20.532  25.299  1.00  0.00    -0.022 A 
ATOM     19  C   UNL A   1      34.439  22.478  23.668  1.00  0.00    -0.035 A 
ATOM     20  C   UNL A   1      32.892  20.594  23.873  1.00  0.00    -0.035 A 
ATOM     21  C   UNL A   1      36.038  22.649  25.507  1.00  0.00     0.006 A 
ATOM     22  C   UNL A   1      32.896  19.316  25.945  1.00  0.00     0.006 A 
ATOM     23  C   UNL A   1      35.368  22.989  22.771  1.00  0.00     0.005 A 
ATOM     24  C   UNL A   1      32.529  19.477  23.134  1.00  0.00     0.005 A 
ATOM     25  C   UNL A   1      36.970  23.149  24.591  1.00  0.00     0.000 A 
ATOM     26  C   UNL A   1      32.526  18.193  25.195  1.00  0.00     0.000 A 
ATOM     27  C   UNL A   1      36.635  23.328  23.242  1.00  0.00     0.000 A 
ATOM     28  C   UNL A   1      32.347  18.273  23.806  1.00  0.00     0.000 A 
ENDBRANCH   6   7
ENDBRANCH   5   6
ENDBRANCH   3   5
ENDBRANCH   2   3
ENDBRANCH   1   2
BRANCH   1  29
ATOM     29  C   UNL A   1      31.781  30.819  26.118  1.00  0.00     0.275 C 
BRANCH  29  30
ATOM     30  O   UNL A   1      32.579  30.790  27.310  1.00  0.00    -0.458 OA
BRANCH  30  31
ATOM     31  C   UNL A   1      33.352  31.889  27.482  1.00  0.00     0.338 C 
ATOM     32  O   UNL A   1      32.991  33.053  27.427  1.00  0.00    -0.246 OA
BRANCH  31  33
ATOM     33  C   UNL A   1      34.689  31.473  27.949  1.00  0.00     0.060 A 
ATOM     34  C   UNL A   1      35.720  32.392  28.165  1.00  0.00     0.016 A 
ATOM     35  C   UNL A   1      34.904  30.105  28.160  1.00  0.00     0.016 A 
ATOM     36  C   UNL A   1      36.951  31.942  28.644  1.00  0.00     0.010 A 
ATOM     37  C   UNL A   1      36.128  29.659  28.655  1.00  0.00     0.010 A 
ATOM     38  C   UNL A   1      37.148  30.579  28.929  1.00  0.00    -0.014 A 
BRANCH  38  39
ATOM     39  C   UNL A   1      38.346  30.155  29.686  1.00  0.00     0.031 A 
ATOM     40  C   UNL A   1      38.619  30.637  31.075  1.00  0.00     0.074 A 
ATOM     41  C   UNL A   1      39.207  29.322  29.074  1.00  0.00     0.049 A 
ATOM     42  N   UNL A   1      39.564  30.262  31.899  1.00  0.00    -0.248 NA
ATOM     43  C   UNL A   1      37.728  31.676  31.608  1.00  0.00     0.031 C 
ATOM     44  C   UNL A   1      39.065  28.838  27.698  1.00  0.00     0.029 A 
ATOM     45  N   UNL A   1      40.359  28.727  29.520  1.00  0.00    -0.354 N 
ATOM     46  C   UNL A   1      39.369  30.997  33.059  1.00  0.00     0.074 A 
ATOM     47  C   UNL A   1      38.247  31.880  32.813  1.00  0.00     0.031 C 
ATOM     48  C   UNL A   1      40.066  27.989  27.428  1.00  0.00     0.029 A 
ATOM     49  C   UNL A   1      40.931  27.887  28.598  1.00  0.00     0.049 A 
ATOM     50  H   UNL A   1      40.737  28.887  30.415  1.00  0.00     0.167 HD
ATOM     51  C   UNL A   1      40.057  30.920  34.223  1.00  0.00     0.037 A 
ATOM     52  C   UNL A   1      42.025  27.108  28.690  1.00  0.00     0.037 A 
ATOM     53  C   UNL A   1      41.187  30.053  34.445  1.00  0.00     0.049 A 
ATOM     54  C   UNL A   1      42.791  27.073  29.980  1.00  0.00     0.074 A 
ATOM     55  C   UNL A   1      41.911  29.861  35.608  1.00  0.00     0.029 A 
ATOM     56  N   UNL A   1      41.769  29.249  33.475  1.00  0.00    -0.354 N 
ATOM     57  N   UNL A   1      42.536  27.691  31.107  1.00  0.00    -0.248 NA
ATOM     58  C   UNL A   1      43.995  26.232  30.014  1.00  0.00     0.031 C 
ATOM     59  C   UNL A   1      42.963  28.982  35.330  1.00  0.00     0.029 A 
ATOM     60  C   UNL A   1      42.867  28.588  34.006  1.00  0.00     0.049 A 
ATOM     61  H   UNL A   1      41.450  29.159  32.548  1.00  0.00     0.167 HD
ATOM     62  C   UNL A   1      43.535  27.305  31.989  1.00  0.00     0.074 A 
ATOM     63  C   UNL A   1      44.393  26.386  31.270  1.00  0.00     0.031 C 
ATOM     64  C   UNL A   1      43.720  27.684  33.276  1.00  0.00     0.037 A 
BRANCH  51  65
ATOM     65  C   UNL A   1      39.602  31.786  35.361  1.00  0.00     0.064 A 
ATOM     66  C   UNL A   1      40.064  33.103  35.501  1.00  0.00     0.173 A 
ATOM     67  C   UNL A   1      38.637  31.328  36.270  1.00  0.00     0.173 A 
ATOM     68  F   UNL A   1      40.990  33.587  34.660  1.00  0.00    -0.203 F 
ATOM     69  C   UNL A   1      39.588  33.925  36.519  1.00  0.00     0.198 A 
ATOM     70  C   UNL A   1      38.144  32.161  37.272  1.00  0.00     0.198 A 
ATOM     71  F   UNL A   1      38.154  30.080  36.174  1.00  0.00    -0.203 F 
ATOM     72  F   UNL A   1      40.063  35.171  36.650  1.00  0.00    -0.200 F 
ATOM     73  C   UNL A   1      38.623  33.457  37.398  1.00  0.00     0.200 A 
ATOM     74  F   UNL A   1      37.201  31.712  38.112  1.00  0.00    -0.200 F 
ATOM     75  F   UNL A   1      38.153  34.255  38.366  1.00  0.00    -0.200 F 
ENDBRANCH  51  65
BRANCH  52  76
ATOM     76  C   UNL A   1      42.411  26.262  27.536  1.00  0.00     0.064 A 
ATOM     77  C   UNL A   1      43.387  26.693  26.628  1.00  0.00     0.173 A 
ATOM     78  C   UNL A   1      41.859  24.985  27.348  1.00  0.00     0.173 A 
ATOM     79  F   UNL A   1      43.933  27.911  26.762  1.00  0.00    -0.203 F 
ATOM     80  C   UNL A   1      43.797  25.880  25.574  1.00  0.00     0.198 A 
ATOM     81  C   UNL A   1      42.286  24.165  26.307  1.00  0.00     0.198 A 
ATOM     82  F   UNL A   1      40.929  24.526  28.197  1.00  0.00    -0.203 F 
ATOM     83  F   UNL A   1      44.718  26.325  24.708  1.00  0.00    -0.200 F 
ATOM     84  C   UNL A   1      43.253  24.614  25.419  1.00  0.00     0.200 A 
ATOM     85  F   UNL A   1      41.772  22.935  26.172  1.00  0.00    -0.200 F 
ATOM     86  F   UNL A   1      43.660  23.826  24.416  1.00  0.00    -0.200 F 
ENDBRANCH  52  76
BRANCH  64  87
ATOM     87  C   UNL A   1      44.903  27.111  33.999  1.00  0.00     0.064 A 
ATOM     88  C   UNL A   1      46.132  27.786  34.035  1.00  0.00     0.173 A 
ATOM     89  C   UNL A   1      44.786  25.917  34.729  1.00  0.00     0.173 A 
ATOM     90  F   UNL A   1      46.297  28.922  33.340  1.00  0.00    -0.203 F 
ATOM     91  C   UNL A   1      47.203  27.283  34.768  1.00  0.00     0.198 A 
ATOM     92  C   UNL A   1      45.851  25.432  35.481  1.00  0.00     0.198 A 
ATOM     93  F   UNL A   1      43.631  25.237  34.730  1.00  0.00    -0.203 F 
ATOM     94  F   UNL A   1      48.377  27.931  34.765  1.00  0.00    -0.200 F 
ATOM     95  C   UNL A   1      47.058  26.114  35.499  1.00  0.00     0.200 A 
ATOM     96  F   UNL A   1      45.707  24.308  36.196  1.00  0.00    -0.200 F 
ATOM     97  F   UNL A   1      48.085  25.642  36.220  1.00  0.00    -0.200 F 
ENDBRANCH  64  87
ENDBRANCH  38  39
ENDBRANCH  31  33
ENDBRANCH  30  31
ENDBRANCH  29  30
ENDBRANCH   1  29
TORSDOF 13
ENDMDL
