MODEL 1
REMARK VINA RESULT:     -10.9      0.000      0.000
REMARK SMILES C[C@@H](O)C[C@H](C(=O)OCCOC(=O)c1ccc(-c2c3nc(c(-c4c(F)c(F)c(F)c(F)c4F)c4ccc([nH]4)c(-c4c(F)c(F)c(F)c(F)c4F)c4nc(c(-c5c(F)c(F)c(F)c(F)c5F)c5ccc2[nH]5)C=C4)C=C3)cc1)c1ccc(Br)cc1
REMARK SMILES IDX 9 1 8 2 6 3 7 4 5 5 4 6 2 7 1 8 3 9 77 11 78 12 83 13 79 14
REMARK SMILES IDX 82 15 80 16 81 17 10 18 11 19 12 20 13 21 14 22 15 23 76 24
REMARK SMILES IDX 16 25 75 26 17 27 18 28 19 29 69 30 20 31 74 32 68 33 70 34
REMARK SMILES IDX 21 35 73 36 67 37 66 38 22 40 54 41 34 42 53 43 35 44 38 45
REMARK SMILES IDX 52 46 71 47 36 48 37 49 51 51 72 52 39 53 23 54 24 55 32 56
REMARK SMILES IDX 25 57 26 58 30 59 33 60 27 61 28 62 31 63 29 64 55 65 56 66
REMARK SMILES IDX 64 67 57 68 58 69 62 70 65 71 59 72 60 73 63 74 61 75 40 76
REMARK SMILES IDX 41 77 49 78 42 79 43 80 47 81 50 82 44 83 45 84 48 85 46 86
REMARK H PARENT 3 10 70 39 38 50
REMARK Flexibility Score: inf
ROOT
ATOM      1  C   UNL A   1      32.506  28.007  24.921  1.00  0.00     0.274 C 
ENDROOT
BRANCH   1   2
ATOM      2  O   UNL A   1      33.558  28.000  23.937  1.00  0.00    -0.462 OA
BRANCH   2   3
ATOM      3  C   UNL A   1      33.572  26.941  23.087  1.00  0.00     0.313 C 
ATOM      4  O   UNL A   1      34.022  26.984  21.945  1.00  0.00    -0.252 OA
BRANCH   3   5
ATOM      5  C   UNL A   1      33.065  25.640  23.729  1.00  0.00     0.132 C 
BRANCH   5   6
ATOM      6  C   UNL A   1      31.917  24.948  22.969  1.00  0.00     0.051 C 
BRANCH   6   7
ATOM      7  C   UNL A   1      30.633  24.720  23.783  1.00  0.00     0.112 C 
ATOM      8  C   UNL A   1      29.736  25.954  23.877  1.00  0.00     0.038 C 
BRANCH   7   9
ATOM      9  O   UNL A   1      29.897  23.688  23.126  1.00  0.00    -0.393 OA
ATOM     10  H   UNL A   1      29.958  22.868  23.640  1.00  0.00     0.210 HD
ENDBRANCH   7   9
ENDBRANCH   6   7
ENDBRANCH   5   6
BRANCH   5  11
ATOM     11  C   UNL A   1      34.202  24.691  24.100  1.00  0.00    -0.034 A 
ATOM     12  C   UNL A   1      34.728  23.771  23.178  1.00  0.00     0.006 A 
ATOM     13  C   UNL A   1      34.769  24.746  25.385  1.00  0.00     0.006 A 
ATOM     14  C   UNL A   1      35.806  22.951  23.522  1.00  0.00     0.016 A 
ATOM     15  C   UNL A   1      35.830  23.908  25.738  1.00  0.00     0.016 A 
ATOM     16  C   UNL A   1      36.350  23.021  24.801  1.00  0.00     0.017 A 
ATOM     17  Br  UNL A   1      37.808  21.912  25.265  1.00  0.00    -0.051 Br
ENDBRANCH   5  11
ENDBRANCH   3   5
ENDBRANCH   2   3
ENDBRANCH   1   2
BRANCH   1  18
ATOM     18  C   UNL A   1      32.126  29.448  25.254  1.00  0.00     0.275 C 
BRANCH  18  19
ATOM     19  O   UNL A   1      33.306  30.196  25.609  1.00  0.00    -0.458 OA
BRANCH  19  20
ATOM     20  C   UNL A   1      33.203  30.972  26.712  1.00  0.00     0.338 C 
ATOM     21  O   UNL A   1      32.288  31.723  27.007  1.00  0.00    -0.246 OA
BRANCH  20  22
ATOM     22  C   UNL A   1      34.393  30.809  27.569  1.00  0.00     0.060 A 
ATOM     23  C   UNL A   1      35.252  31.878  27.834  1.00  0.00     0.016 A 
ATOM     24  C   UNL A   1      34.706  29.530  28.032  1.00  0.00     0.016 A 
ATOM     25  C   UNL A   1      36.461  31.655  28.494  1.00  0.00     0.010 A 
ATOM     26  C   UNL A   1      35.871  29.328  28.778  1.00  0.00     0.010 A 
ATOM     27  C   UNL A   1      36.774  30.383  28.995  1.00  0.00    -0.014 A 
BRANCH  27  28
ATOM     28  C   UNL A   1      38.030  30.135  29.754  1.00  0.00     0.031 A 
ATOM     29  C   UNL A   1      39.103  29.250  29.181  1.00  0.00     0.074 A 
ATOM     30  C   UNL A   1      38.191  30.663  30.983  1.00  0.00     0.049 A 
ATOM     31  N   UNL A   1      40.152  28.730  29.768  1.00  0.00    -0.248 NA
ATOM     32  C   UNL A   1      38.970  28.889  27.760  1.00  0.00     0.031 C 
ATOM     33  C   UNL A   1      37.248  31.560  31.653  1.00  0.00     0.029 A 
ATOM     34  N   UNL A   1      39.206  30.508  31.896  1.00  0.00    -0.354 N 
ATOM     35  C   UNL A   1      40.769  27.938  28.810  1.00  0.00     0.074 A 
ATOM     36  C   UNL A   1      39.984  28.049  27.598  1.00  0.00     0.031 C 
ATOM     37  C   UNL A   1      37.735  31.890  32.858  1.00  0.00     0.029 A 
ATOM     38  C   UNL A   1      38.983  31.168  33.079  1.00  0.00     0.049 A 
ATOM     39  H   UNL A   1      40.015  29.976  31.718  1.00  0.00     0.167 HD
ATOM     40  C   UNL A   1      41.887  27.181  28.934  1.00  0.00     0.037 A 
ATOM     41  C   UNL A   1      39.676  31.158  34.232  1.00  0.00     0.037 A 
ATOM     42  C   UNL A   1      42.697  27.112  30.122  1.00  0.00     0.049 A 
ATOM     43  C   UNL A   1      40.904  30.304  34.350  1.00  0.00     0.074 A 
ATOM     44  C   UNL A   1      43.864  26.398  30.332  1.00  0.00     0.029 A 
ATOM     45  N   UNL A   1      42.429  27.795  31.299  1.00  0.00    -0.354 N 
ATOM     46  N   UNL A   1      41.453  29.521  33.454  1.00  0.00    -0.248 NA
ATOM     47  C   UNL A   1      41.596  30.314  35.647  1.00  0.00     0.031 C 
ATOM     48  C   UNL A   1      44.290  26.628  31.646  1.00  0.00     0.029 A 
ATOM     49  C   UNL A   1      43.405  27.511  32.242  1.00  0.00     0.049 A 
ATOM     50  H   UNL A   1      41.661  28.392  31.444  1.00  0.00     0.167 HD
ATOM     51  C   UNL A   1      42.556  28.952  34.072  1.00  0.00     0.074 A 
ATOM     52  C   UNL A   1      42.610  29.491  35.416  1.00  0.00     0.031 C 
ATOM     53  C   UNL A   1      43.442  28.056  33.574  1.00  0.00     0.037 A 
BRANCH  40  54
ATOM     54  C   UNL A   1      42.293  26.342  27.760  1.00  0.00     0.064 A 
ATOM     55  C   UNL A   1      43.304  26.744  26.877  1.00  0.00     0.173 A 
ATOM     56  C   UNL A   1      41.692  25.091  27.547  1.00  0.00     0.173 A 
ATOM     57  F   UNL A   1      43.898  27.937  27.029  1.00  0.00    -0.203 F 
ATOM     58  C   UNL A   1      43.689  25.932  25.812  1.00  0.00     0.198 A 
ATOM     59  C   UNL A   1      42.093  24.273  26.495  1.00  0.00     0.198 A 
ATOM     60  F   UNL A   1      40.722  24.660  28.367  1.00  0.00    -0.203 F 
ATOM     61  F   UNL A   1      44.634  26.349  24.959  1.00  0.00    -0.200 F 
ATOM     62  C   UNL A   1      43.088  24.694  25.627  1.00  0.00     0.200 A 
ATOM     63  F   UNL A   1      41.517  23.074  26.323  1.00  0.00    -0.200 F 
ATOM     64  F   UNL A   1      43.464  23.911  24.607  1.00  0.00    -0.200 F 
ENDBRANCH  40  54
BRANCH  41  65
ATOM     65  C   UNL A   1      39.195  31.965  35.383  1.00  0.00     0.064 A 
ATOM     66  C   UNL A   1      39.464  33.337  35.458  1.00  0.00     0.173 A 
ATOM     67  C   UNL A   1      38.438  31.385  36.412  1.00  0.00     0.173 A 
ATOM     68  F   UNL A   1      40.205  33.927  34.509  1.00  0.00    -0.203 F 
ATOM     69  C   UNL A   1      38.996  34.102  36.524  1.00  0.00     0.198 A 
ATOM     70  C   UNL A   1      37.950  32.156  37.463  1.00  0.00     0.198 A 
ATOM     71  F   UNL A   1      38.156  30.075  36.382  1.00  0.00    -0.203 F 
ATOM     72  F   UNL A   1      39.290  35.408  36.590  1.00  0.00    -0.200 F 
ATOM     73  C   UNL A   1      38.232  33.513  37.521  1.00  0.00     0.200 A 
ATOM     74  F   UNL A   1      37.203  31.586  38.419  1.00  0.00    -0.200 F 
ATOM     75  F   UNL A   1      37.772  34.251  38.540  1.00  0.00    -0.200 F 
ENDBRANCH  41  65
BRANCH  53  76
ATOM     76  C   UNL A   1      44.553  27.622  34.480  1.00  0.00     0.064 A 
ATOM     77  C   UNL A   1      44.430  26.487  35.292  1.00  0.00     0.173 A 
ATOM     78  C   UNL A   1      45.760  28.335  34.516  1.00  0.00     0.173 A 
ATOM     79  F   UNL A   1      43.286  25.784  35.302  1.00  0.00    -0.203 F 
ATOM     80  C   UNL A   1      45.472  26.090  36.126  1.00  0.00     0.198 A 
ATOM     81  C   UNL A   1      46.806  27.924  35.336  1.00  0.00     0.198 A 
ATOM     82  F   UNL A   1      45.924  29.427  33.754  1.00  0.00    -0.203 F 
ATOM     83  F   UNL A   1      45.321  25.023  36.923  1.00  0.00    -0.200 F 
ATOM     84  C   UNL A   1      46.660  26.806  36.143  1.00  0.00     0.200 A 
ATOM     85  F   UNL A   1      47.956  28.613  35.349  1.00  0.00    -0.200 F 
ATOM     86  F   UNL A   1      47.662  26.423  36.947  1.00  0.00    -0.200 F 
ENDBRANCH  53  76
ENDBRANCH  27  28
ENDBRANCH  20  22
ENDBRANCH  19  20
ENDBRANCH  18  19
ENDBRANCH   1  18
TORSDOF 15
ENDMDL
MODEL 2
REMARK VINA RESULT:     -10.7      4.605      9.646
REMARK SMILES C[C@@H](O)C[C@H](C(=O)OCCOC(=O)c1ccc(-c2c3nc(c(-c4c(F)c(F)c(F)c(F)c4F)c4ccc([nH]4)c(-c4c(F)c(F)c(F)c(F)c4F)c4nc(c(-c5c(F)c(F)c(F)c(F)c5F)c5ccc2[nH]5)C=C4)C=C3)cc1)c1ccc(Br)cc1
REMARK SMILES IDX 9 1 8 2 6 3 7 4 5 5 4 6 2 7 1 8 3 9 77 11 78 12 83 13 79 14
REMARK SMILES IDX 82 15 80 16 81 17 10 18 11 19 12 20 13 21 14 22 15 23 76 24
REMARK SMILES IDX 16 25 75 26 17 27 18 28 19 29 69 30 20 31 74 32 68 33 70 34
REMARK SMILES IDX 21 35 73 36 67 37 66 38 22 40 54 41 34 42 53 43 35 44 38 45
REMARK SMILES IDX 52 46 71 47 36 48 37 49 51 51 72 52 39 53 23 54 24 55 32 56
REMARK SMILES IDX 25 57 26 58 30 59 33 60 27 61 28 62 31 63 29 64 55 65 56 66
REMARK SMILES IDX 64 67 57 68 58 69 62 70 65 71 59 72 60 73 63 74 61 75 40 76
REMARK SMILES IDX 41 77 49 78 42 79 43 80 47 81 50 82 44 83 45 84 48 85 46 86
REMARK H PARENT 3 10 70 39 38 50
REMARK Flexibility Score: inf
ROOT
ATOM      1  C   UNL A   1      36.170  22.715  23.895  1.00  0.00     0.274 C 
ENDROOT
BRANCH   1   2
ATOM      2  O   UNL A   1      34.835  22.200  23.725  1.00  0.00    -0.462 OA
BRANCH   2   3
ATOM      3  C   UNL A   1      33.880  23.112  23.408  1.00  0.00     0.313 C 
ATOM      4  O   UNL A   1      33.871  23.762  22.366  1.00  0.00    -0.252 OA
BRANCH   3   5
ATOM      5  C   UNL A   1      32.740  23.179  24.436  1.00  0.00     0.132 C 
BRANCH   5   6
ATOM      6  C   UNL A   1      32.721  22.025  25.458  1.00  0.00     0.051 C 
BRANCH   6   7
ATOM      7  C   UNL A   1      33.682  22.185  26.648  1.00  0.00     0.112 C 
ATOM      8  C   UNL A   1      32.981  22.203  28.006  1.00  0.00     0.038 C 
BRANCH   7   9
ATOM      9  O   UNL A   1      34.570  21.067  26.624  1.00  0.00    -0.393 OA
ATOM     10  H   UNL A   1      35.192  21.164  25.886  1.00  0.00     0.210 HD
ENDBRANCH   7   9
ENDBRANCH   6   7
ENDBRANCH   5   6
BRANCH   5  11
ATOM     11  C   UNL A   1      32.616  24.557  25.081  1.00  0.00    -0.034 A 
ATOM     12  C   UNL A   1      31.408  25.008  25.637  1.00  0.00     0.006 A 
ATOM     13  C   UNL A   1      33.740  25.399  25.156  1.00  0.00     0.006 A 
ATOM     14  C   UNL A   1      31.332  26.250  26.273  1.00  0.00     0.016 A 
ATOM     15  C   UNL A   1      33.658  26.652  25.768  1.00  0.00     0.016 A 
ATOM     16  C   UNL A   1      32.456  27.068  26.333  1.00  0.00     0.017 A 
ATOM     17  Br  UNL A   1      32.354  28.747  27.193  1.00  0.00    -0.051 Br
ENDBRANCH   5  11
ENDBRANCH   3   5
ENDBRANCH   2   3
ENDBRANCH   1   2
BRANCH   1  18
ATOM     18  C   UNL A   1      37.110  21.581  24.296  1.00  0.00     0.275 C 
BRANCH  18  19
ATOM     19  O   UNL A   1      37.408  21.668  25.704  1.00  0.00    -0.458 OA
BRANCH  19  20
ATOM     20  C   UNL A   1      38.694  21.435  26.050  1.00  0.00     0.338 C 
ATOM     21  O   UNL A   1      39.299  20.378  25.986  1.00  0.00    -0.246 OA
BRANCH  20  22
ATOM     22  C   UNL A   1      39.324  22.672  26.551  1.00  0.00     0.060 A 
ATOM     23  C   UNL A   1      38.876  23.932  26.147  1.00  0.00     0.016 A 
ATOM     24  C   UNL A   1      40.454  22.560  27.362  1.00  0.00     0.016 A 
ATOM     25  C   UNL A   1      39.600  25.074  26.492  1.00  0.00     0.010 A 
ATOM     26  C   UNL A   1      41.121  23.713  27.785  1.00  0.00     0.010 A 
ATOM     27  C   UNL A   1      40.718  24.981  27.333  1.00  0.00    -0.014 A 
BRANCH  27  28
ATOM     28  C   UNL A   1      41.470  26.192  27.762  1.00  0.00     0.031 A 
ATOM     29  C   UNL A   1      40.795  27.254  28.585  1.00  0.00     0.074 A 
ATOM     30  C   UNL A   1      42.748  26.365  27.371  1.00  0.00     0.049 A 
ATOM     31  N   UNL A   1      41.195  28.470  28.862  1.00  0.00    -0.248 NA
ATOM     32  C   UNL A   1      39.485  26.909  29.162  1.00  0.00     0.031 C 
ATOM     33  C   UNL A   1      43.537  25.409  26.596  1.00  0.00     0.029 A 
ATOM     34  N   UNL A   1      43.605  27.422  27.565  1.00  0.00    -0.354 N 
ATOM     35  C   UNL A   1      40.168  29.052  29.592  1.00  0.00     0.074 A 
ATOM     36  C   UNL A   1      39.126  28.055  29.725  1.00  0.00     0.031 C 
ATOM     37  C   UNL A   1      44.765  25.909  26.395  1.00  0.00     0.029 A 
ATOM     38  C   UNL A   1      44.824  27.254  26.957  1.00  0.00     0.049 A 
ATOM     39  H   UNL A   1      43.367  28.221  28.089  1.00  0.00     0.167 HD
ATOM     40  C   UNL A   1      40.100  30.307  30.100  1.00  0.00     0.037 A 
ATOM     41  C   UNL A   1      45.861  28.102  26.824  1.00  0.00     0.037 A 
ATOM     42  C   UNL A   1      41.158  31.280  30.014  1.00  0.00     0.049 A 
ATOM     43  C   UNL A   1      45.758  29.490  27.384  1.00  0.00     0.074 A 
ATOM     44  C   UNL A   1      41.193  32.566  30.525  1.00  0.00     0.029 A 
ATOM     45  N   UNL A   1      42.375  31.067  29.384  1.00  0.00    -0.354 N 
ATOM     46  N   UNL A   1      44.764  30.046  28.032  1.00  0.00    -0.248 NA
ATOM     47  C   UNL A   1      46.913  30.376  27.176  1.00  0.00     0.031 C 
ATOM     48  C   UNL A   1      42.422  33.141  30.183  1.00  0.00     0.029 A 
ATOM     49  C   UNL A   1      43.165  32.202  29.487  1.00  0.00     0.049 A 
ATOM     50  H   UNL A   1      42.639  30.234  28.932  1.00  0.00     0.167 HD
ATOM     51  C   UNL A   1      45.173  31.342  28.314  1.00  0.00     0.074 A 
ATOM     52  C   UNL A   1      46.513  31.485  27.783  1.00  0.00     0.031 C 
ATOM     53  C   UNL A   1      44.495  32.327  28.951  1.00  0.00     0.037 A 
BRANCH  40  54
ATOM     54  C   UNL A   1      38.827  30.714  30.777  1.00  0.00     0.064 A 
ATOM     55  C   UNL A   1      38.672  30.643  32.168  1.00  0.00     0.173 A 
ATOM     56  C   UNL A   1      37.762  31.234  30.022  1.00  0.00     0.173 A 
ATOM     57  F   UNL A   1      39.654  30.140  32.931  1.00  0.00    -0.203 F 
ATOM     58  C   UNL A   1      37.491  31.060  32.779  1.00  0.00     0.198 A 
ATOM     59  C   UNL A   1      36.593  31.670  30.637  1.00  0.00     0.198 A 
ATOM     60  F   UNL A   1      37.864  31.327  28.688  1.00  0.00    -0.203 F 
ATOM     61  F   UNL A   1      37.351  30.952  34.107  1.00  0.00    -0.200 F 
ATOM     62  C   UNL A   1      36.456  31.580  32.014  1.00  0.00     0.200 A 
ATOM     63  F   UNL A   1      35.597  32.179  29.898  1.00  0.00    -0.200 F 
ATOM     64  F   UNL A   1      35.325  31.987  32.604  1.00  0.00    -0.200 F 
ENDBRANCH  40  54
BRANCH  41  65
ATOM     65  C   UNL A   1      47.076  27.663  26.092  1.00  0.00     0.064 A 
ATOM     66  C   UNL A   1      48.186  27.159  26.783  1.00  0.00     0.173 A 
ATOM     67  C   UNL A   1      47.142  27.716  24.692  1.00  0.00     0.173 A 
ATOM     68  F   UNL A   1      48.175  27.113  28.122  1.00  0.00    -0.203 F 
ATOM     69  C   UNL A   1      49.319  26.725  26.099  1.00  0.00     0.198 A 
ATOM     70  C   UNL A   1      48.266  27.259  24.009  1.00  0.00     0.198 A 
ATOM     71  F   UNL A   1      46.105  28.192  23.989  1.00  0.00    -0.203 F 
ATOM     72  F   UNL A   1      50.380  26.273  26.783  1.00  0.00    -0.200 F 
ATOM     73  C   UNL A   1      49.355  26.768  24.713  1.00  0.00     0.200 A 
ATOM     74  F   UNL A   1      48.292  27.291  22.670  1.00  0.00    -0.200 F 
ATOM     75  F   UNL A   1      50.441  26.340  24.055  1.00  0.00    -0.200 F 
ENDBRANCH  41  65
BRANCH  53  76
ATOM     76  C   UNL A   1      45.201  33.636  29.125  1.00  0.00     0.064 A 
ATOM     77  C   UNL A   1      45.966  33.905  30.268  1.00  0.00     0.173 A 
ATOM     78  C   UNL A   1      45.132  34.619  28.127  1.00  0.00     0.173 A 
ATOM     79  F   UNL A   1      46.046  33.000  31.256  1.00  0.00    -0.203 F 
ATOM     80  C   UNL A   1      46.623  35.124  30.416  1.00  0.00     0.198 A 
ATOM     81  C   UNL A   1      45.806  35.828  28.270  1.00  0.00     0.198 A 
ATOM     82  F   UNL A   1      44.414  34.404  27.015  1.00  0.00    -0.203 F 
ATOM     83  F   UNL A   1      47.318  35.377  31.534  1.00  0.00    -0.200 F 
ATOM     84  C   UNL A   1      46.546  36.082  29.415  1.00  0.00     0.200 A 
ATOM     85  F   UNL A   1      45.735  36.752  27.301  1.00  0.00    -0.200 F 
ATOM     86  F   UNL A   1      47.178  37.254  29.560  1.00  0.00    -0.200 F 
ENDBRANCH  53  76
ENDBRANCH  27  28
ENDBRANCH  20  22
ENDBRANCH  19  20
ENDBRANCH  18  19
ENDBRANCH   1  18
TORSDOF 15
ENDMDL
MODEL 3
REMARK VINA RESULT:     -10.7      4.951      9.964
REMARK SMILES C[C@@H](O)C[C@H](C(=O)OCCOC(=O)c1ccc(-c2c3nc(c(-c4c(F)c(F)c(F)c(F)c4F)c4ccc([nH]4)c(-c4c(F)c(F)c(F)c(F)c4F)c4nc(c(-c5c(F)c(F)c(F)c(F)c5F)c5ccc2[nH]5)C=C4)C=C3)cc1)c1ccc(Br)cc1
REMARK SMILES IDX 9 1 8 2 6 3 7 4 5 5 4 6 2 7 1 8 3 9 77 11 78 12 83 13 79 14
REMARK SMILES IDX 82 15 80 16 81 17 10 18 11 19 12 20 13 21 14 22 15 23 76 24
REMARK SMILES IDX 16 25 75 26 17 27 18 28 19 29 69 30 20 31 74 32 68 33 70 34
REMARK SMILES IDX 21 35 73 36 67 37 66 38 22 40 54 41 34 42 53 43 35 44 38 45
REMARK SMILES IDX 52 46 71 47 36 48 37 49 51 51 72 52 39 53 23 54 24 55 32 56
REMARK SMILES IDX 25 57 26 58 30 59 33 60 27 61 28 62 31 63 29 64 55 65 56 66
REMARK SMILES IDX 64 67 57 68 58 69 62 70 65 71 59 72 60 73 63 74 61 75 40 76
REMARK SMILES IDX 41 77 49 78 42 79 43 80 47 81 50 82 44 83 45 84 48 85 46 86
REMARK H PARENT 3 10 70 39 38 50
REMARK Flexibility Score: inf
ROOT
ATOM      1  C   UNL A   1      36.313  20.221  24.949  1.00  0.00     0.274 C 
ENDROOT
BRANCH   1   2
ATOM      2  O   UNL A   1      35.793  21.202  25.867  1.00  0.00    -0.462 OA
BRANCH   2   3
ATOM      3  C   UNL A   1      34.455  21.157  26.093  1.00  0.00     0.313 C 
ATOM      4  O   UNL A   1      33.937  21.359  27.187  1.00  0.00    -0.252 OA
BRANCH   3   5
ATOM      5  C   UNL A   1      33.631  20.931  24.815  1.00  0.00     0.132 C 
BRANCH   5   6
ATOM      6  C   UNL A   1      32.357  20.086  25.008  1.00  0.00     0.051 C 
BRANCH   6   7
ATOM      7  C   UNL A   1      32.592  18.579  25.207  1.00  0.00     0.112 C 
ATOM      8  C   UNL A   1      33.727  18.015  24.355  1.00  0.00     0.038 C 
BRANCH   7   9
ATOM      9  O   UNL A   1      32.933  18.386  26.581  1.00  0.00    -0.393 OA
ATOM     10  H   UNL A   1      33.893  18.284  26.666  1.00  0.00     0.210 HD
ENDBRANCH   7   9
ENDBRANCH   6   7
ENDBRANCH   5   6
BRANCH   5  11
ATOM     11  C   UNL A   1      33.385  22.225  24.043  1.00  0.00    -0.034 A 
ATOM     12  C   UNL A   1      34.413  23.153  23.809  1.00  0.00     0.006 A 
ATOM     13  C   UNL A   1      32.109  22.496  23.520  1.00  0.00     0.006 A 
ATOM     14  C   UNL A   1      34.178  24.303  23.050  1.00  0.00     0.016 A 
ATOM     15  C   UNL A   1      31.867  23.659  22.784  1.00  0.00     0.016 A 
ATOM     16  C   UNL A   1      32.906  24.553  22.545  1.00  0.00     0.017 A 
ATOM     17  Br  UNL A   1      32.590  26.108  21.520  1.00  0.00    -0.051 Br
ENDBRANCH   5  11
ENDBRANCH   3   5
ENDBRANCH   2   3
ENDBRANCH   1   2
BRANCH   1  18
ATOM     18  C   UNL A   1      37.840  20.252  24.976  1.00  0.00     0.275 C 
BRANCH  18  19
ATOM     19  O   UNL A   1      38.292  21.368  25.769  1.00  0.00    -0.458 OA
BRANCH  19  20
ATOM     20  C   UNL A   1      39.439  21.173  26.461  1.00  0.00     0.338 C 
ATOM     21  O   UNL A   1      39.961  20.109  26.746  1.00  0.00    -0.246 OA
BRANCH  20  22
ATOM     22  C   UNL A   1      40.021  22.468  26.863  1.00  0.00     0.060 A 
ATOM     23  C   UNL A   1      39.603  23.667  26.282  1.00  0.00     0.016 A 
ATOM     24  C   UNL A   1      41.082  22.465  27.770  1.00  0.00     0.016 A 
ATOM     25  C   UNL A   1      40.294  24.850  26.548  1.00  0.00     0.010 A 
ATOM     26  C   UNL A   1      41.709  23.666  28.109  1.00  0.00     0.010 A 
ATOM     27  C   UNL A   1      41.340  24.869  27.482  1.00  0.00    -0.014 A 
BRANCH  27  28
ATOM     28  C   UNL A   1      42.051  26.130  27.826  1.00  0.00     0.031 A 
ATOM     29  C   UNL A   1      41.367  27.189  28.646  1.00  0.00     0.074 A 
ATOM     30  C   UNL A   1      43.296  26.351  27.361  1.00  0.00     0.049 A 
ATOM     31  N   UNL A   1      41.719  28.433  28.858  1.00  0.00    -0.248 NA
ATOM     32  C   UNL A   1      40.108  26.803  29.305  1.00  0.00     0.031 C 
ATOM     33  C   UNL A   1      44.092  25.405  26.578  1.00  0.00     0.029 A 
ATOM     34  N   UNL A   1      44.107  27.454  27.471  1.00  0.00    -0.354 N 
ATOM     35  C   UNL A   1      40.703  28.991  29.622  1.00  0.00     0.074 A 
ATOM     36  C   UNL A   1      39.721  27.951  29.846  1.00  0.00     0.031 C 
ATOM     37  C   UNL A   1      45.280  25.957  26.294  1.00  0.00     0.029 A 
ATOM     38  C   UNL A   1      45.301  27.324  26.804  1.00  0.00     0.049 A 
ATOM     39  H   UNL A   1      43.858  28.261  27.978  1.00  0.00     0.167 HD
ATOM     40  C   UNL A   1      40.598  30.259  30.088  1.00  0.00     0.037 A 
ATOM     41  C   UNL A   1      46.285  28.216  26.585  1.00  0.00     0.037 A 
ATOM     42  C   UNL A   1      41.599  31.279  29.910  1.00  0.00     0.049 A 
ATOM     43  C   UNL A   1      46.140  29.617  27.101  1.00  0.00     0.074 A 
ATOM     44  C   UNL A   1      41.595  32.584  30.373  1.00  0.00     0.029 A 
ATOM     45  N   UNL A   1      42.791  31.102  29.224  1.00  0.00    -0.354 N 
ATOM     46  N   UNL A   1      45.155  30.149  27.781  1.00  0.00    -0.248 NA
ATOM     47  C   UNL A   1      47.236  30.550  26.800  1.00  0.00     0.031 C 
ATOM     48  C   UNL A   1      42.775  33.205  29.945  1.00  0.00     0.029 A 
ATOM     49  C   UNL A   1      43.526  32.277  29.243  1.00  0.00     0.049 A 
ATOM     50  H   UNL A   1      43.073  30.267  28.788  1.00  0.00     0.167 HD
ATOM     51  C   UNL A   1      45.511  31.472  27.995  1.00  0.00     0.074 A 
ATOM     52  C   UNL A   1      46.813  31.660  27.388  1.00  0.00     0.031 C 
ATOM     53  C   UNL A   1      44.818  32.446  28.632  1.00  0.00     0.037 A 
BRANCH  40  54
ATOM     54  C   UNL A   1      39.343  30.630  30.818  1.00  0.00     0.064 A 
ATOM     55  C   UNL A   1      38.220  31.136  30.150  1.00  0.00     0.173 A 
ATOM     56  C   UNL A   1      39.248  30.426  32.204  1.00  0.00     0.173 A 
ATOM     57  F   UNL A   1      38.266  31.363  28.829  1.00  0.00    -0.203 F 
ATOM     58  C   UNL A   1      37.051  31.441  30.845  1.00  0.00     0.198 A 
ATOM     59  C   UNL A   1      38.072  30.711  32.892  1.00  0.00     0.198 A 
ATOM     60  F   UNL A   1      40.294  29.939  32.888  1.00  0.00    -0.203 F 
ATOM     61  F   UNL A   1      36.000  31.956  30.193  1.00  0.00    -0.200 F 
ATOM     62  C   UNL A   1      36.976  31.221  32.213  1.00  0.00     0.200 A 
ATOM     63  F   UNL A   1      37.998  30.490  34.212  1.00  0.00    -0.200 F 
ATOM     64  F   UNL A   1      35.849  31.509  32.879  1.00  0.00    -0.200 F 
ENDBRANCH  40  54
BRANCH  41  65
ATOM     65  C   UNL A   1      47.481  27.809  25.805  1.00  0.00     0.064 A 
ATOM     66  C   UNL A   1      47.451  27.792  24.405  1.00  0.00     0.173 A 
ATOM     67  C   UNL A   1      48.680  27.456  26.441  1.00  0.00     0.173 A 
ATOM     68  F   UNL A   1      46.318  28.098  23.756  1.00  0.00    -0.203 F 
ATOM     69  C   UNL A   1      48.577  27.432  23.668  1.00  0.00     0.198 A 
ATOM     70  C   UNL A   1      49.812  27.121  25.703  1.00  0.00     0.198 A 
ATOM     71  F   UNL A   1      48.755  27.458  27.779  1.00  0.00    -0.203 F 
ATOM     72  F   UNL A   1      48.516  27.395  22.330  1.00  0.00    -0.200 F 
ATOM     73  C   UNL A   1      49.759  27.106  24.317  1.00  0.00     0.200 A 
ATOM     74  F   UNL A   1      50.955  26.818  26.333  1.00  0.00    -0.200 F 
ATOM     75  F   UNL A   1      50.845  26.772  23.608  1.00  0.00    -0.200 F 
ENDBRANCH  41  65
BRANCH  53  76
ATOM     76  C   UNL A   1      45.466  33.794  28.721  1.00  0.00     0.064 A 
ATOM     77  C   UNL A   1      46.327  34.120  29.778  1.00  0.00     0.173 A 
ATOM     78  C   UNL A   1      45.241  34.758  27.728  1.00  0.00     0.173 A 
ATOM     79  F   UNL A   1      46.558  33.235  30.759  1.00  0.00    -0.203 F 
ATOM     80  C   UNL A   1      46.927  35.374  29.847  1.00  0.00     0.198 A 
ATOM     81  C   UNL A   1      45.857  36.004  27.790  1.00  0.00     0.198 A 
ATOM     82  F   UNL A   1      44.425  34.489  26.697  1.00  0.00    -0.203 F 
ATOM     83  F   UNL A   1      47.719  35.680  30.885  1.00  0.00    -0.200 F 
ATOM     84  C   UNL A   1      46.696  36.313  28.851  1.00  0.00     0.200 A 
ATOM     85  F   UNL A   1      45.638  36.908  26.826  1.00  0.00    -0.200 F 
ATOM     86  F   UNL A   1      47.274  37.520  28.920  1.00  0.00    -0.200 F 
ENDBRANCH  53  76
ENDBRANCH  27  28
ENDBRANCH  20  22
ENDBRANCH  19  20
ENDBRANCH  18  19
ENDBRANCH   1  18
TORSDOF 15
ENDMDL
