MODEL 1
REMARK VINA RESULT:     -11.5      0.000      0.000
REMARK SMILES CC(C)(C)[N@H+](CC(=O)OCCOC(=O)c1ccc(-c2c3nc(c(-c4c(F)c(F)c(F)c(F)c4F)c4ccc([nH]4)c(-c4c(F)c(F)c(F)c(F)c4F)c4nc(c(-c5c(F)c(F)c(F)c(F)c5F)c5ccc2[nH]5)C=C4)C=C3)cc1)C[C@H]1Cc2cc(F)ccc2O1
REMARK SMILES IDX 10 1 9 2 7 3 8 4 6 5 5 6 2 8 1 9 3 10 4 11 78 12 79 13 80 14
REMARK SMILES IDX 88 15 81 16 87 17 82 18 86 19 83 20 85 21 84 22 11 23 12 24
REMARK SMILES IDX 13 25 14 26 15 27 16 28 77 29 17 30 76 31 18 32 19 33 20 34
REMARK SMILES IDX 70 35 21 36 75 37 69 38 71 39 22 40 74 41 68 42 67 43 23 45
REMARK SMILES IDX 55 46 35 47 54 48 36 49 39 50 53 51 72 52 37 53 38 54 52 56
REMARK SMILES IDX 73 57 40 58 24 59 25 60 33 61 26 62 27 63 31 64 34 65 28 66
REMARK SMILES IDX 29 67 32 68 30 69 56 70 57 71 65 72 58 73 59 74 63 75 66 76
REMARK SMILES IDX 60 77 61 78 64 79 62 80 41 81 42 82 50 83 43 84 44 85 48 86
REMARK SMILES IDX 51 87 45 88 46 89 49 90 47 91
REMARK H PARENT 5 7 71 44 39 55
REMARK Flexibility Score: inf
ROOT
ATOM      1  C   UNL A   1      31.721  28.714  27.318  1.00  0.00     0.274 C 
ENDROOT
BRANCH   1   2
ATOM      2  O   UNL A   1      32.885  27.918  27.009  1.00  0.00    -0.458 OA
BRANCH   2   3
ATOM      3  C   UNL A   1      32.727  26.904  26.121  1.00  0.00     0.361 C 
ATOM      4  O   UNL A   1      32.373  25.769  26.436  1.00  0.00    -0.245 OA
BRANCH   3   5
ATOM      5  C   UNL A   1      33.070  27.256  24.667  1.00  0.00     0.387 C 
BRANCH   5   6
ATOM      6  N   UNL A   1      31.985  27.030  23.689  1.00  0.00    -0.318 N 
ATOM      7  H   UNL A   1      32.234  27.610  22.888  1.00  0.00     0.349 HD
BRANCH   6   8
ATOM      8  C   UNL A   1      32.025  25.804  22.850  1.00  0.00     0.090 C 
ATOM      9  C   UNL A   1      33.340  24.990  22.956  1.00  0.00     0.078 C 
ATOM     10  C   UNL A   1      31.894  26.247  21.375  1.00  0.00     0.078 C 
ATOM     11  C   UNL A   1      30.901  24.781  23.155  1.00  0.00     0.078 C 
ENDBRANCH   6   8
BRANCH   6  12
ATOM     12  C   UNL A   1      30.688  27.637  24.086  1.00  0.00     0.309 C 
BRANCH  12  13
ATOM     13  C   UNL A   1      30.263  28.923  23.333  1.00  0.00     0.232 C 
ATOM     14  C   UNL A   1      29.071  28.742  22.377  1.00  0.00     0.090 C 
ATOM     15  O   UNL A   1      29.842  29.996  24.225  1.00  0.00    -0.484 OA
ATOM     16  C   UNL A   1      28.754  30.188  22.220  1.00  0.00     0.001 A 
ATOM     17  C   UNL A   1      29.226  30.852  23.347  1.00  0.00     0.123 A 
ATOM     18  C   UNL A   1      28.163  30.887  21.190  1.00  0.00     0.047 A 
ATOM     19  C   UNL A   1      29.147  32.220  23.499  1.00  0.00     0.050 A 
ATOM     20  C   UNL A   1      28.098  32.277  21.315  1.00  0.00     0.123 A 
ATOM     21  C   UNL A   1      28.584  32.945  22.449  1.00  0.00     0.043 A 
ATOM     22  F   UNL A   1      27.579  32.996  20.310  1.00  0.00    -0.207 F 
ENDBRANCH  12  13
ENDBRANCH   6  12
ENDBRANCH   5   6
ENDBRANCH   3   5
ENDBRANCH   2   3
ENDBRANCH   1   2
BRANCH   1  23
ATOM     23  C   UNL A   1      31.861  30.165  26.834  1.00  0.00     0.275 C 
BRANCH  23  24
ATOM     24  O   UNL A   1      33.225  30.491  26.497  1.00  0.00    -0.458 OA
BRANCH  24  25
ATOM     25  C   UNL A   1      33.704  31.528  27.220  1.00  0.00     0.338 C 
ATOM     26  O   UNL A   1      33.134  32.585  27.400  1.00  0.00    -0.246 OA
BRANCH  25  27
ATOM     27  C   UNL A   1      34.976  31.208  27.876  1.00  0.00     0.060 A 
ATOM     28  C   UNL A   1      35.127  29.950  28.469  1.00  0.00     0.016 A 
ATOM     29  C   UNL A   1      35.958  32.186  28.027  1.00  0.00     0.016 A 
ATOM     30  C   UNL A   1      36.268  29.657  29.209  1.00  0.00     0.010 A 
ATOM     31  C   UNL A   1      37.112  31.885  28.754  1.00  0.00     0.010 A 
ATOM     32  C   UNL A   1      37.275  30.619  29.346  1.00  0.00    -0.014 A 
BRANCH  32  33
ATOM     33  C   UNL A   1      38.526  30.298  30.069  1.00  0.00     0.031 A 
ATOM     34  C   UNL A   1      39.518  29.345  29.478  1.00  0.00     0.074 A 
ATOM     35  C   UNL A   1      38.736  30.840  31.282  1.00  0.00     0.049 A 
ATOM     36  N   UNL A   1      40.565  28.791  30.035  1.00  0.00    -0.248 NA
ATOM     37  C   UNL A   1      39.307  28.962  28.074  1.00  0.00     0.031 C 
ATOM     38  C   UNL A   1      37.863  31.822  31.927  1.00  0.00     0.029 A 
ATOM     39  N   UNL A   1      39.734  30.625  32.197  1.00  0.00    -0.354 N 
ATOM     40  C   UNL A   1      41.122  27.973  29.063  1.00  0.00     0.074 A 
ATOM     41  C   UNL A   1      40.300  28.103  27.878  1.00  0.00     0.031 C 
ATOM     42  C   UNL A   1      38.353  32.110  33.142  1.00  0.00     0.029 A 
ATOM     43  C   UNL A   1      39.534  31.289  33.383  1.00  0.00     0.049 A 
ATOM     44  H   UNL A   1      40.515  30.052  32.023  1.00  0.00     0.167 HD
ATOM     45  C   UNL A   1      42.217  27.182  29.163  1.00  0.00     0.037 A 
ATOM     46  C   UNL A   1      40.201  31.206  34.548  1.00  0.00     0.037 A 
ATOM     47  C   UNL A   1      43.027  27.067  30.349  1.00  0.00     0.049 A 
ATOM     48  C   UNL A   1      41.373  30.271  34.654  1.00  0.00     0.074 A 
ATOM     49  C   UNL A   1      44.154  26.290  30.556  1.00  0.00     0.029 A 
ATOM     50  N   UNL A   1      42.794  27.756  31.532  1.00  0.00    -0.354 N 
ATOM     51  N   UNL A   1      41.881  29.480  33.741  1.00  0.00    -0.248 NA
ATOM     52  C   UNL A   1      42.058  30.210  35.951  1.00  0.00     0.031 C 
ATOM     53  C   UNL A   1      44.579  26.480  31.875  1.00  0.00     0.029 A 
ATOM     54  C   UNL A   1      43.747  27.410  32.476  1.00  0.00     0.049 A 
ATOM     55  H   UNL A   1      42.060  28.395  31.677  1.00  0.00     0.167 HD
ATOM     56  C   UNL A   1      42.961  28.850  34.341  1.00  0.00     0.074 A 
ATOM     57  C   UNL A   1      43.036  29.352  35.698  1.00  0.00     0.031 C 
ATOM     58  C   UNL A   1      43.815  27.939  33.814  1.00  0.00     0.037 A 
BRANCH  45  59
ATOM     59  C   UNL A   1      42.583  26.347  27.973  1.00  0.00     0.064 A 
ATOM     60  C   UNL A   1      43.496  26.794  27.009  1.00  0.00     0.173 A 
ATOM     61  C   UNL A   1      42.044  25.059  27.819  1.00  0.00     0.173 A 
ATOM     62  F   UNL A   1      44.031  28.021  27.104  1.00  0.00    -0.203 F 
ATOM     63  C   UNL A   1      43.844  25.992  25.924  1.00  0.00     0.198 A 
ATOM     64  C   UNL A   1      42.411  24.250  26.747  1.00  0.00     0.198 A 
ATOM     65  F   UNL A   1      41.170  24.581  28.718  1.00  0.00    -0.203 F 
ATOM     66  F   UNL A   1      44.694  26.453  24.997  1.00  0.00    -0.200 F 
ATOM     67  C   UNL A   1      43.307  24.719  25.798  1.00  0.00     0.200 A 
ATOM     68  F   UNL A   1      41.900  23.017  26.634  1.00  0.00    -0.200 F 
ATOM     69  F   UNL A   1      43.648  23.945  24.759  1.00  0.00    -0.200 F 
ENDBRANCH  45  59
BRANCH  46  70
ATOM     70  C   UNL A   1      39.750  32.011  35.710  1.00  0.00     0.064 A 
ATOM     71  C   UNL A   1      40.321  33.261  35.986  1.00  0.00     0.173 A 
ATOM     72  C   UNL A   1      38.728  31.557  36.558  1.00  0.00     0.173 A 
ATOM     73  F   UNL A   1      41.317  33.724  35.217  1.00  0.00    -0.203 F 
ATOM     74  C   UNL A   1      39.891  34.023  37.069  1.00  0.00     0.198 A 
ATOM     75  C   UNL A   1      38.280  32.333  37.625  1.00  0.00     0.198 A 
ATOM     76  F   UNL A   1      38.149  30.368  36.336  1.00  0.00    -0.203 F 
ATOM     77  F   UNL A   1      40.476  35.199  37.331  1.00  0.00    -0.200 F 
ATOM     78  C   UNL A   1      38.866  33.563  37.883  1.00  0.00     0.200 A 
ATOM     79  F   UNL A   1      37.281  31.890  38.400  1.00  0.00    -0.200 F 
ATOM     80  F   UNL A   1      38.446  34.302  38.918  1.00  0.00    -0.200 F 
ENDBRANCH  46  70
BRANCH  58  81
ATOM     81  C   UNL A   1      44.938  27.468  34.687  1.00  0.00     0.064 A 
ATOM     82  C   UNL A   1      44.822  26.320  35.482  1.00  0.00     0.173 A 
ATOM     83  C   UNL A   1      46.165  28.149  34.684  1.00  0.00     0.173 A 
ATOM     84  F   UNL A   1      43.663  25.647  35.529  1.00  0.00    -0.203 F 
ATOM     85  C   UNL A   1      45.891  25.877  36.255  1.00  0.00     0.198 A 
ATOM     86  C   UNL A   1      47.239  27.690  35.440  1.00  0.00     0.198 A 
ATOM     87  F   UNL A   1      46.325  29.251  33.936  1.00  0.00    -0.203 F 
ATOM     88  F   UNL A   1      45.751  24.795  37.033  1.00  0.00    -0.200 F 
ATOM     89  C   UNL A   1      47.101  26.557  36.227  1.00  0.00     0.200 A 
ATOM     90  F   UNL A   1      48.409  28.343  35.406  1.00  0.00    -0.200 F 
ATOM     91  F   UNL A   1      48.132  26.122  36.964  1.00  0.00    -0.200 F 
ENDBRANCH  58  81
ENDBRANCH  32  33
ENDBRANCH  25  27
ENDBRANCH  24  25
ENDBRANCH  23  24
ENDBRANCH   1  23
TORSDOF 15
ENDMDL
MODEL 2
REMARK VINA RESULT:     -11.5      4.967     10.401
REMARK SMILES CC(C)(C)[N@H+](CC(=O)OCCOC(=O)c1ccc(-c2c3nc(c(-c4c(F)c(F)c(F)c(F)c4F)c4ccc([nH]4)c(-c4c(F)c(F)c(F)c(F)c4F)c4nc(c(-c5c(F)c(F)c(F)c(F)c5F)c5ccc2[nH]5)C=C4)C=C3)cc1)C[C@H]1Cc2cc(F)ccc2O1
REMARK SMILES IDX 10 1 9 2 7 3 8 4 6 5 5 6 2 8 1 9 3 10 4 11 78 12 79 13 80 14
REMARK SMILES IDX 88 15 81 16 87 17 82 18 86 19 83 20 85 21 84 22 11 23 12 24
REMARK SMILES IDX 13 25 14 26 15 27 16 28 77 29 17 30 76 31 18 32 19 33 20 34
REMARK SMILES IDX 70 35 21 36 75 37 69 38 71 39 22 40 74 41 68 42 67 43 23 45
REMARK SMILES IDX 55 46 35 47 54 48 36 49 39 50 53 51 72 52 37 53 38 54 52 56
REMARK SMILES IDX 73 57 40 58 24 59 25 60 33 61 26 62 27 63 31 64 34 65 28 66
REMARK SMILES IDX 29 67 32 68 30 69 56 70 57 71 65 72 58 73 59 74 63 75 66 76
REMARK SMILES IDX 60 77 61 78 64 79 62 80 41 81 42 82 50 83 43 84 44 85 48 86
REMARK SMILES IDX 51 87 45 88 46 89 49 90 47 91
REMARK H PARENT 5 7 71 44 39 55
REMARK Flexibility Score: inf
ROOT
ATOM      1  C   UNL A   1      36.449  22.465  23.697  1.00  0.00     0.274 C 
ENDROOT
BRANCH   1   2
ATOM      2  O   UNL A   1      36.162  23.693  24.400  1.00  0.00    -0.458 OA
BRANCH   2   3
ATOM      3  C   UNL A   1      34.904  23.854  24.882  1.00  0.00     0.361 C 
ATOM      4  O   UNL A   1      34.593  23.669  26.057  1.00  0.00    -0.245 OA
BRANCH   3   5
ATOM      5  C   UNL A   1      33.853  24.243  23.833  1.00  0.00     0.387 C 
BRANCH   5   6
ATOM      6  N   UNL A   1      32.495  23.712  24.072  1.00  0.00    -0.318 N 
ATOM      7  H   UNL A   1      32.558  23.235  24.972  1.00  0.00     0.349 HD
BRANCH   6   8
ATOM      8  C   UNL A   1      31.452  24.629  24.599  1.00  0.00     0.090 C 
ATOM      9  C   UNL A   1      30.761  24.144  25.899  1.00  0.00     0.078 C 
ATOM     10  C   UNL A   1      30.346  24.741  23.524  1.00  0.00     0.078 C 
ATOM     11  C   UNL A   1      31.959  26.056  24.929  1.00  0.00     0.078 C 
ENDBRANCH   6   8
BRANCH   6  12
ATOM     12  C   UNL A   1      32.130  22.581  23.178  1.00  0.00     0.309 C 
BRANCH  12  13
ATOM     13  C   UNL A   1      32.641  21.177  23.589  1.00  0.00     0.232 C 
ATOM     14  C   UNL A   1      32.165  20.702  24.973  1.00  0.00     0.090 C 
ATOM     15  O   UNL A   1      32.205  20.122  22.684  1.00  0.00    -0.484 OA
ATOM     16  C   UNL A   1      32.496  19.263  24.785  1.00  0.00     0.001 A 
ATOM     17  C   UNL A   1      32.488  18.999  23.420  1.00  0.00     0.123 A 
ATOM     18  C   UNL A   1      32.825  18.276  25.688  1.00  0.00     0.047 A 
ATOM     19  C   UNL A   1      32.812  17.767  22.893  1.00  0.00     0.050 A 
ATOM     20  C   UNL A   1      33.183  17.028  25.171  1.00  0.00     0.123 A 
ATOM     21  C   UNL A   1      33.183  16.768  23.792  1.00  0.00     0.043 A 
ATOM     22  F   UNL A   1      33.561  16.058  26.015  1.00  0.00    -0.207 F 
ENDBRANCH  12  13
ENDBRANCH   6  12
ENDBRANCH   5   6
ENDBRANCH   3   5
ENDBRANCH   2   3
ENDBRANCH   1   2
BRANCH   1  23
ATOM     23  C   UNL A   1      36.958  21.361  24.634  1.00  0.00     0.275 C 
BRANCH  23  24
ATOM     24  O   UNL A   1      37.421  21.893  25.893  1.00  0.00    -0.458 OA
BRANCH  24  25
ATOM     25  C   UNL A   1      38.732  21.648  26.108  1.00  0.00     0.338 C 
ATOM     26  O   UNL A   1      39.309  20.612  25.847  1.00  0.00    -0.246 OA
BRANCH  25  27
ATOM     27  C   UNL A   1      39.443  22.829  26.609  1.00  0.00     0.060 A 
ATOM     28  C   UNL A   1      39.183  24.069  26.016  1.00  0.00     0.016 A 
ATOM     29  C   UNL A   1      40.457  22.694  27.556  1.00  0.00     0.016 A 
ATOM     30  C   UNL A   1      39.929  25.188  26.376  1.00  0.00     0.010 A 
ATOM     31  C   UNL A   1      41.192  23.821  27.931  1.00  0.00     0.010 A 
ATOM     32  C   UNL A   1      40.931  25.073  27.346  1.00  0.00    -0.014 A 
BRANCH  32  33
ATOM     33  C   UNL A   1      41.683  26.268  27.792  1.00  0.00     0.031 A 
ATOM     34  C   UNL A   1      41.009  27.326  28.609  1.00  0.00     0.074 A 
ATOM     35  C   UNL A   1      42.966  26.407  27.415  1.00  0.00     0.049 A 
ATOM     36  N   UNL A   1      41.435  28.522  28.925  1.00  0.00    -0.248 NA
ATOM     37  C   UNL A   1      39.678  26.998  29.141  1.00  0.00     0.031 C 
ATOM     38  C   UNL A   1      43.737  25.414  26.666  1.00  0.00     0.029 A 
ATOM     39  N   UNL A   1      43.841  27.450  27.588  1.00  0.00    -0.354 N 
ATOM     40  C   UNL A   1      40.417  29.101  29.668  1.00  0.00     0.074 A 
ATOM     41  C   UNL A   1      39.351  28.125  29.760  1.00  0.00     0.031 C 
ATOM     42  C   UNL A   1      44.963  25.901  26.427  1.00  0.00     0.029 A 
ATOM     43  C   UNL A   1      45.042  27.261  26.950  1.00  0.00     0.049 A 
ATOM     44  H   UNL A   1      43.629  28.253  28.116  1.00  0.00     0.167 HD
ATOM     45  C   UNL A   1      40.381  30.340  30.215  1.00  0.00     0.037 A 
ATOM     46  C   UNL A   1      46.071  28.109  26.765  1.00  0.00     0.037 A 
ATOM     47  C   UNL A   1      41.453  31.299  30.118  1.00  0.00     0.049 A 
ATOM     48  C   UNL A   1      45.979  29.501  27.324  1.00  0.00     0.074 A 
ATOM     49  C   UNL A   1      41.514  32.583  30.631  1.00  0.00     0.029 A 
ATOM     50  N   UNL A   1      42.655  31.072  29.463  1.00  0.00    -0.354 N 
ATOM     51  N   UNL A   1      45.005  30.053  28.004  1.00  0.00    -0.248 NA
ATOM     52  C   UNL A   1      47.124  30.388  27.084  1.00  0.00     0.031 C 
ATOM     53  C   UNL A   1      42.738  33.146  30.254  1.00  0.00     0.029 A 
ATOM     54  C   UNL A   1      43.459  32.197  29.547  1.00  0.00     0.049 A 
ATOM     55  H   UNL A   1      42.900  30.235  29.007  1.00  0.00     0.167 HD
ATOM     56  C   UNL A   1      45.429  31.341  28.299  1.00  0.00     0.074 A 
ATOM     57  C   UNL A   1      46.750  31.487  27.724  1.00  0.00     0.031 C 
ATOM     58  C   UNL A   1      44.780  32.313  28.986  1.00  0.00     0.037 A 
BRANCH  45  59
ATOM     59  C   UNL A   1      39.129  30.749  30.932  1.00  0.00     0.064 A 
ATOM     60  C   UNL A   1      38.031  31.293  30.252  1.00  0.00     0.173 A 
ATOM     61  C   UNL A   1      39.011  30.550  32.317  1.00  0.00     0.173 A 
ATOM     62  F   UNL A   1      38.098  31.513  28.931  1.00  0.00    -0.203 F 
ATOM     63  C   UNL A   1      36.867  31.641  30.934  1.00  0.00     0.198 A 
ATOM     64  C   UNL A   1      37.838  30.877  32.992  1.00  0.00     0.198 A 
ATOM     65  F   UNL A   1      40.031  30.026  33.014  1.00  0.00    -0.203 F 
ATOM     66  F   UNL A   1      35.842  32.191  30.269  1.00  0.00    -0.200 F 
ATOM     67  C   UNL A   1      36.769  31.426  32.301  1.00  0.00     0.200 A 
ATOM     68  F   UNL A   1      37.741  30.657  34.310  1.00  0.00    -0.200 F 
ATOM     69  F   UNL A   1      35.645  31.753  32.954  1.00  0.00    -0.200 F 
ENDBRANCH  45  59
BRANCH  46  70
ATOM     70  C   UNL A   1      47.256  27.666  25.990  1.00  0.00     0.064 A 
ATOM     71  C   UNL A   1      48.384  27.142  26.635  1.00  0.00     0.173 A 
ATOM     72  C   UNL A   1      47.279  27.739  24.589  1.00  0.00     0.173 A 
ATOM     73  F   UNL A   1      48.416  27.074  27.974  1.00  0.00    -0.203 F 
ATOM     74  C   UNL A   1      49.493  26.714  25.909  1.00  0.00     0.198 A 
ATOM     75  C   UNL A   1      48.377  27.287  23.862  1.00  0.00     0.198 A 
ATOM     76  F   UNL A   1      46.223  28.233  23.924  1.00  0.00    -0.203 F 
ATOM     77  F   UNL A   1      50.572  26.249  26.551  1.00  0.00    -0.200 F 
ATOM     78  C   UNL A   1      49.486  26.779  24.523  1.00  0.00     0.200 A 
ATOM     79  F   UNL A   1      48.361  27.339  22.523  1.00  0.00    -0.200 F 
ATOM     80  F   UNL A   1      50.549  26.359  23.824  1.00  0.00    -0.200 F 
ENDBRANCH  46  70
BRANCH  58  81
ATOM     81  C   UNL A   1      45.513  33.602  29.204  1.00  0.00     0.064 A 
ATOM     82  C   UNL A   1      45.393  34.677  28.313  1.00  0.00     0.173 A 
ATOM     83  C   UNL A   1      46.304  33.777  30.349  1.00  0.00     0.173 A 
ATOM     84  F   UNL A   1      44.661  34.549  27.196  1.00  0.00    -0.203 F 
ATOM     85  C   UNL A   1      46.050  35.880  28.555  1.00  0.00     0.198 A 
ATOM     86  C   UNL A   1      46.941  34.988  30.600  1.00  0.00     0.198 A 
ATOM     87  F   UNL A   1      46.447  32.777  31.232  1.00  0.00    -0.203 F 
ATOM     88  F   UNL A   1      45.949  36.886  27.676  1.00  0.00    -0.200 F 
ATOM     89  C   UNL A   1      46.816  36.037  29.702  1.00  0.00     0.200 A 
ATOM     90  F   UNL A   1      47.674  35.141  31.711  1.00  0.00    -0.200 F 
ATOM     91  F   UNL A   1      47.440  37.200  29.938  1.00  0.00    -0.200 F 
ENDBRANCH  58  81
ENDBRANCH  32  33
ENDBRANCH  25  27
ENDBRANCH  24  25
ENDBRANCH  23  24
ENDBRANCH   1  23
TORSDOF 15
ENDMDL
MODEL 3
REMARK VINA RESULT:     -11.5      2.288      4.114
REMARK SMILES CC(C)(C)[N@H+](CC(=O)OCCOC(=O)c1ccc(-c2c3nc(c(-c4c(F)c(F)c(F)c(F)c4F)c4ccc([nH]4)c(-c4c(F)c(F)c(F)c(F)c4F)c4nc(c(-c5c(F)c(F)c(F)c(F)c5F)c5ccc2[nH]5)C=C4)C=C3)cc1)C[C@H]1Cc2cc(F)ccc2O1
REMARK SMILES IDX 10 1 9 2 7 3 8 4 6 5 5 6 2 8 1 9 3 10 4 11 78 12 79 13 80 14
REMARK SMILES IDX 88 15 81 16 87 17 82 18 86 19 83 20 85 21 84 22 11 23 12 24
REMARK SMILES IDX 13 25 14 26 15 27 16 28 77 29 17 30 76 31 18 32 19 33 20 34
REMARK SMILES IDX 70 35 21 36 75 37 69 38 71 39 22 40 74 41 68 42 67 43 23 45
REMARK SMILES IDX 55 46 35 47 54 48 36 49 39 50 53 51 72 52 37 53 38 54 52 56
REMARK SMILES IDX 73 57 40 58 24 59 25 60 33 61 26 62 27 63 31 64 34 65 28 66
REMARK SMILES IDX 29 67 32 68 30 69 56 70 57 71 65 72 58 73 59 74 63 75 66 76
REMARK SMILES IDX 60 77 61 78 64 79 62 80 41 81 42 82 50 83 43 84 44 85 48 86
REMARK SMILES IDX 51 87 45 88 46 89 49 90 47 91
REMARK H PARENT 5 7 71 44 39 55
REMARK Flexibility Score: inf
ROOT
ATOM      1  C   UNL A   1      31.398  29.310  24.679  1.00  0.00     0.274 C 
ENDROOT
BRANCH   1   2
ATOM      2  O   UNL A   1      32.389  29.245  23.630  1.00  0.00    -0.458 OA
BRANCH   2   3
ATOM      3  C   UNL A   1      32.965  28.040  23.393  1.00  0.00     0.361 C 
ATOM      4  O   UNL A   1      34.177  27.839  23.451  1.00  0.00    -0.245 OA
BRANCH   3   5
ATOM      5  C   UNL A   1      31.992  26.924  22.991  1.00  0.00     0.387 C 
BRANCH   5   6
ATOM      6  N   UNL A   1      32.121  25.667  23.757  1.00  0.00    -0.318 N 
ATOM      7  H   UNL A   1      32.814  25.872  24.476  1.00  0.00     0.349 HD
BRANCH   6   8
ATOM      8  C   UNL A   1      31.100  25.353  24.790  1.00  0.00     0.090 C 
ATOM      9  C   UNL A   1      29.697  25.950  24.514  1.00  0.00     0.078 C 
ATOM     10  C   UNL A   1      31.587  25.962  26.124  1.00  0.00     0.078 C 
ATOM     11  C   UNL A   1      30.850  23.839  25.006  1.00  0.00     0.078 C 
ENDBRANCH   6   8
BRANCH   6  12
ATOM     12  C   UNL A   1      32.804  24.579  23.008  1.00  0.00     0.309 C 
BRANCH  12  13
ATOM     13  C   UNL A   1      34.217  24.178  23.499  1.00  0.00     0.232 C 
ATOM     14  C   UNL A   1      34.580  24.698  24.901  1.00  0.00     0.090 C 
ATOM     15  O   UNL A   1      34.401  22.736  23.597  1.00  0.00    -0.484 OA
ATOM     16  C   UNL A   1      35.738  23.790  25.127  1.00  0.00     0.001 A 
ATOM     17  C   UNL A   1      35.554  22.659  24.338  1.00  0.00     0.123 A 
ATOM     18  C   UNL A   1      36.874  23.931  25.895  1.00  0.00     0.047 A 
ATOM     19  C   UNL A   1      36.476  21.637  24.266  1.00  0.00     0.050 A 
ATOM     20  C   UNL A   1      37.832  22.918  25.813  1.00  0.00     0.123 A 
ATOM     21  C   UNL A   1      37.647  21.783  25.009  1.00  0.00     0.043 A 
ATOM     22  F   UNL A   1      38.973  23.045  26.504  1.00  0.00    -0.207 F 
ENDBRANCH  12  13
ENDBRANCH   6  12
ENDBRANCH   5   6
ENDBRANCH   3   5
ENDBRANCH   2   3
ENDBRANCH   1   2
BRANCH   1  23
ATOM     23  C   UNL A   1      31.748  30.352  25.750  1.00  0.00     0.275 C 
BRANCH  23  24
ATOM     24  O   UNL A   1      33.084  30.171  26.262  1.00  0.00    -0.458 OA
BRANCH  24  25
ATOM     25  C   UNL A   1      33.488  31.203  27.035  1.00  0.00     0.338 C 
ATOM     26  O   UNL A   1      32.852  32.214  27.250  1.00  0.00    -0.246 OA
BRANCH  25  27
ATOM     27  C   UNL A   1      34.769  30.935  27.697  1.00  0.00     0.060 A 
ATOM     28  C   UNL A   1      35.032  29.637  28.147  1.00  0.00     0.016 A 
ATOM     29  C   UNL A   1      35.643  31.979  27.995  1.00  0.00     0.016 A 
ATOM     30  C   UNL A   1      36.178  29.372  28.890  1.00  0.00     0.010 A 
ATOM     31  C   UNL A   1      36.802  31.709  28.725  1.00  0.00     0.010 A 
ATOM     32  C   UNL A   1      37.078  30.406  29.174  1.00  0.00    -0.014 A 
BRANCH  32  33
ATOM     33  C   UNL A   1      38.336  30.125  29.901  1.00  0.00     0.031 A 
ATOM     34  C   UNL A   1      39.361  29.204  29.315  1.00  0.00     0.074 A 
ATOM     35  C   UNL A   1      38.525  30.676  31.114  1.00  0.00     0.049 A 
ATOM     36  N   UNL A   1      40.423  28.686  29.876  1.00  0.00    -0.248 NA
ATOM     37  C   UNL A   1      39.167  28.813  27.911  1.00  0.00     0.031 C 
ATOM     38  C   UNL A   1      37.618  31.630  31.755  1.00  0.00     0.029 A 
ATOM     39  N   UNL A   1      39.526  30.494  32.033  1.00  0.00    -0.354 N 
ATOM     40  C   UNL A   1      41.009  27.885  28.907  1.00  0.00     0.074 A 
ATOM     41  C   UNL A   1      40.187  27.986  27.719  1.00  0.00     0.031 C 
ATOM     42  C   UNL A   1      38.095  31.935  32.971  1.00  0.00     0.029 A 
ATOM     43  C   UNL A   1      39.302  31.153  33.216  1.00  0.00     0.049 A 
ATOM     44  H   UNL A   1      40.326  29.946  31.862  1.00  0.00     0.167 HD
ATOM     45  C   UNL A   1      42.129  27.129  29.011  1.00  0.00     0.037 A 
ATOM     46  C   UNL A   1      39.968  31.093  34.384  1.00  0.00     0.037 A 
ATOM     47  C   UNL A   1      42.939  27.042  30.200  1.00  0.00     0.049 A 
ATOM     48  C   UNL A   1      41.169  30.197  34.495  1.00  0.00     0.074 A 
ATOM     49  C   UNL A   1      44.089  26.302  30.411  1.00  0.00     0.029 A 
ATOM     50  N   UNL A   1      42.680  27.725  31.381  1.00  0.00    -0.354 N 
ATOM     51  N   UNL A   1      41.705  29.421  33.585  1.00  0.00    -0.248 NA
ATOM     52  C   UNL A   1      41.851  30.160  35.794  1.00  0.00     0.031 C 
ATOM     53  C   UNL A   1      44.504  26.508  31.731  1.00  0.00     0.029 A 
ATOM     54  C   UNL A   1      43.640  27.411  32.328  1.00  0.00     0.049 A 
ATOM     55  H   UNL A   1      41.925  28.340  31.523  1.00  0.00     0.167 HD
ATOM     56  C   UNL A   1      42.803  28.828  34.189  1.00  0.00     0.074 A 
ATOM     57  C   UNL A   1      42.857  29.333  35.546  1.00  0.00     0.031 C 
ATOM     58  C   UNL A   1      43.687  27.944  33.666  1.00  0.00     0.037 A 
BRANCH  45  59
ATOM     59  C   UNL A   1      42.526  26.305  27.823  1.00  0.00     0.064 A 
ATOM     60  C   UNL A   1      43.471  26.757  26.892  1.00  0.00     0.173 A 
ATOM     61  C   UNL A   1      41.983  25.023  27.639  1.00  0.00     0.173 A 
ATOM     62  F   UNL A   1      44.010  27.979  27.017  1.00  0.00    -0.203 F 
ATOM     63  C   UNL A   1      43.846  25.964  25.810  1.00  0.00     0.198 A 
ATOM     64  C   UNL A   1      42.377  24.223  26.569  1.00  0.00     0.198 A 
ATOM     65  F   UNL A   1      41.080  24.540  28.506  1.00  0.00    -0.203 F 
ATOM     66  F   UNL A   1      44.726  26.430  24.913  1.00  0.00    -0.200 F 
ATOM     67  C   UNL A   1      43.304  24.696  25.653  1.00  0.00     0.200 A 
ATOM     68  F   UNL A   1      41.862  22.995  26.428  1.00  0.00    -0.200 F 
ATOM     69  F   UNL A   1      43.672  23.931  24.616  1.00  0.00    -0.200 F 
ENDBRANCH  45  59
BRANCH  46  70
ATOM     70  C   UNL A   1      39.487  31.885  35.544  1.00  0.00     0.064 A 
ATOM     71  C   UNL A   1      39.939  33.193  35.760  1.00  0.00     0.173 A 
ATOM     72  C   UNL A   1      38.553  31.358  36.449  1.00  0.00     0.173 A 
ATOM     73  F   UNL A   1      40.850  33.730  34.934  1.00  0.00    -0.203 F 
ATOM     74  C   UNL A   1      39.481  33.942  36.840  1.00  0.00     0.198 A 
ATOM     75  C   UNL A   1      38.075  32.117  37.514  1.00  0.00     0.198 A 
ATOM     76  F   UNL A   1      38.088  30.110  36.285  1.00  0.00    -0.203 F 
ATOM     77  F   UNL A   1      39.954  35.179  37.044  1.00  0.00    -0.200 F 
ATOM     78  C   UNL A   1      38.543  33.408  37.712  1.00  0.00     0.200 A 
ATOM     79  F   UNL A   1      37.159  31.601  38.345  1.00  0.00    -0.200 F 
ATOM     80  F   UNL A   1      38.095  34.132  38.746  1.00  0.00    -0.200 F 
ENDBRANCH  46  70
BRANCH  58  81
ATOM     81  C   UNL A   1      44.822  27.510  34.543  1.00  0.00     0.064 A 
ATOM     82  C   UNL A   1      44.735  26.369  35.351  1.00  0.00     0.173 A 
ATOM     83  C   UNL A   1      46.032  28.221  34.531  1.00  0.00     0.173 A 
ATOM     84  F   UNL A   1      43.592  25.669  35.407  1.00  0.00    -0.203 F 
ATOM     85  C   UNL A   1      45.815  25.961  36.128  1.00  0.00     0.198 A 
ATOM     86  C   UNL A   1      47.118  27.797  35.291  1.00  0.00     0.198 A 
ATOM     87  F   UNL A   1      46.164  29.318  33.770  1.00  0.00    -0.203 F 
ATOM     88  F   UNL A   1      45.702  24.885  36.919  1.00  0.00    -0.200 F 
ATOM     89  C   UNL A   1      47.008  26.670  36.091  1.00  0.00     0.200 A 
ATOM     90  F   UNL A   1      48.271  28.478  35.248  1.00  0.00    -0.200 F 
ATOM     91  F   UNL A   1      48.050  26.269  36.831  1.00  0.00    -0.200 F 
ENDBRANCH  58  81
ENDBRANCH  32  33
ENDBRANCH  25  27
ENDBRANCH  24  25
ENDBRANCH  23  24
ENDBRANCH   1  23
TORSDOF 15
ENDMDL
