MODEL 1
REMARK VINA RESULT:     -12.7      0.000      0.000
REMARK SMILES Cc1nsc(NC(=O)N2CCC[C@@H](C)C2)c1C(=O)OCCOC(=O)c1ccc(-c2c3nc(c(-c4c(F)c(F)c(F)c(F)c4F)c4ccc([nH]4)c(-c4c(F)c(F)c(F)c(F)c4F)c4nc(c(-c5c(F)c(F)c(F)c(F)c5F)c5ccc2[nH]5)C=C4)C=C3)cc1
REMARK SMILES IDX 20 1 19 2 17 3 18 4 16 5 1 6 2 7 3 8 4 9 5 10 6 11 7 12 8 14
REMARK SMILES IDX 9 15 10 16 15 17 11 18 13 19 12 20 14 21 21 22 22 23 23 24
REMARK SMILES IDX 24 25 25 26 26 27 87 28 27 29 86 30 28 31 29 32 30 33 80 34
REMARK SMILES IDX 31 35 85 36 79 37 81 38 32 39 84 40 78 41 77 42 33 44 65 45
REMARK SMILES IDX 45 46 64 47 46 48 49 49 63 50 82 51 47 52 48 53 62 55 83 56
REMARK SMILES IDX 50 57 34 58 35 59 43 60 36 61 37 62 41 63 44 64 38 65 39 66
REMARK SMILES IDX 42 67 40 68 66 69 67 70 75 71 68 72 69 73 73 74 76 75 70 76
REMARK SMILES IDX 71 77 74 78 72 79 51 80 52 81 60 82 53 83 54 84 58 85 61 86
REMARK SMILES IDX 55 87 56 88 59 89 57 90
REMARK H PARENT 6 13 81 43 49 54
REMARK Flexibility Score: inf
ROOT
ATOM      1  C   UNL A   1      32.197  30.382  26.103  1.00  0.00     0.275 C 
ENDROOT
BRANCH   1   2
ATOM      2  O   UNL A   1      31.850  29.044  26.495  1.00  0.00    -0.458 OA
BRANCH   2   3
ATOM      3  C   UNL A   1      32.308  28.028  25.711  1.00  0.00     0.343 C 
ATOM      4  O   UNL A   1      33.450  27.576  25.768  1.00  0.00    -0.246 OA
BRANCH   3   5
ATOM      5  C   UNL A   1      31.254  27.424  24.909  1.00  0.00     0.117 A 
ATOM      6  C   UNL A   1      31.126  29.128  22.905  1.00  0.00     0.069 C 
ATOM      7  C   UNL A   1      30.675  27.942  23.686  1.00  0.00     0.068 A 
ATOM      8  N   UNL A   1      29.590  27.307  23.243  1.00  0.00    -0.195 NA
ATOM      9  S   UNL A   1      29.161  26.175  24.355  1.00  0.00    -0.017 S 
ATOM     10  C   UNL A   1      30.549  26.295  25.318  1.00  0.00     0.132 A 
BRANCH  10  11
ATOM     11  N   UNL A   1      30.789  25.498  26.428  1.00  0.00    -0.297 N 
ATOM     12  C   UNL A   1      31.499  24.346  26.567  1.00  0.00     0.322 C 
ATOM     13  H   UNL A   1      30.374  25.822  27.259  1.00  0.00     0.172 HD
ATOM     14  O   UNL A   1      31.095  23.528  27.399  1.00  0.00    -0.248 OA
BRANCH  12  15
ATOM     15  N   UNL A   1      32.612  24.098  25.804  1.00  0.00    -0.324 N 
ATOM     16  C   UNL A   1      33.961  24.030  26.368  1.00  0.00     0.121 C 
ATOM     17  C   UNL A   1      32.435  23.349  24.566  1.00  0.00     0.124 C 
ATOM     18  C   UNL A   1      35.041  24.420  25.354  1.00  0.00     0.022 C 
ATOM     19  C   UNL A   1      33.380  23.899  23.497  1.00  0.00     0.005 C 
ATOM     20  C   UNL A   1      34.835  23.786  23.976  1.00  0.00     0.007 C 
ATOM     21  C   UNL A   1      33.183  23.183  22.164  1.00  0.00     0.009 C 
ENDBRANCH  12  15
ENDBRANCH  10  11
ENDBRANCH   3   5
ENDBRANCH   2   3
ENDBRANCH   1   2
BRANCH   1  22
ATOM     22  C   UNL A   1      32.920  31.092  27.240  1.00  0.00     0.275 C 
BRANCH  22  23
ATOM     23  O   UNL A   1      34.315  30.776  27.264  1.00  0.00    -0.458 OA
BRANCH  23  24
ATOM     24  C   UNL A   1      35.030  31.416  28.216  1.00  0.00     0.338 C 
ATOM     25  O   UNL A   1      34.706  32.416  28.831  1.00  0.00    -0.246 OA
BRANCH  24  26
ATOM     26  C   UNL A   1      36.377  30.843  28.276  1.00  0.00     0.060 A 
ATOM     27  C   UNL A   1      36.545  29.488  27.982  1.00  0.00     0.016 A 
ATOM     28  C   UNL A   1      37.418  31.609  28.819  1.00  0.00     0.016 A 
ATOM     29  C   UNL A   1      37.748  28.882  28.304  1.00  0.00     0.010 A 
ATOM     30  C   UNL A   1      38.617  31.004  29.133  1.00  0.00     0.010 A 
ATOM     31  C   UNL A   1      38.761  29.635  28.917  1.00  0.00    -0.014 A 
BRANCH  31  32
ATOM     32  C   UNL A   1      40.041  28.987  29.184  1.00  0.00     0.031 A 
ATOM     33  C   UNL A   1      40.360  28.852  30.628  1.00  0.00     0.074 A 
ATOM     34  C   UNL A   1      40.796  28.412  28.227  1.00  0.00     0.049 A 
ATOM     35  N   UNL A   1      41.425  29.243  31.244  1.00  0.00    -0.248 NA
ATOM     36  C   UNL A   1      39.327  28.286  31.513  1.00  0.00     0.031 C 
ATOM     37  C   UNL A   1      40.448  28.234  26.814  1.00  0.00     0.029 A 
ATOM     38  N   UNL A   1      41.997  27.767  28.337  1.00  0.00    -0.354 N 
ATOM     39  C   UNL A   1      41.272  28.832  32.566  1.00  0.00     0.074 A 
ATOM     40  C   UNL A   1      39.922  28.357  32.703  1.00  0.00     0.031 C 
ATOM     41  C   UNL A   1      41.303  27.354  26.250  1.00  0.00     0.029 A 
ATOM     42  C   UNL A   1      42.337  27.021  27.218  1.00  0.00     0.049 A 
ATOM     43  H   UNL A   1      42.568  27.826  29.137  1.00  0.00     0.167 HD
ATOM     44  C   UNL A   1      42.349  28.690  33.381  1.00  0.00     0.037 A 
ATOM     45  C   UNL A   1      43.375  26.163  27.085  1.00  0.00     0.037 A 
ATOM     46  C   UNL A   1      43.492  29.401  32.878  1.00  0.00     0.049 A 
ATOM     47  C   UNL A   1      44.397  26.501  28.097  1.00  0.00     0.074 A 
ATOM     48  C   UNL A   1      43.931  30.705  32.873  1.00  0.00     0.029 A 
ATOM     49  N   UNL A   1      44.217  28.720  31.940  1.00  0.00    -0.354 N 
ATOM     50  N   UNL A   1      45.107  27.594  28.067  1.00  0.00    -0.248 NA
ATOM     51  C   UNL A   1      44.458  25.751  29.348  1.00  0.00     0.031 C 
ATOM     52  C   UNL A   1      44.834  30.820  31.774  1.00  0.00     0.029 A 
ATOM     53  C   UNL A   1      44.926  29.582  31.146  1.00  0.00     0.049 A 
ATOM     54  H   UNL A   1      44.227  27.740  31.847  1.00  0.00     0.167 HD
ATOM     55  C   UNL A   1      45.336  27.882  29.396  1.00  0.00     0.074 A 
ATOM     56  C   UNL A   1      45.101  26.637  30.112  1.00  0.00     0.031 C 
ATOM     57  C   UNL A   1      45.362  29.172  29.832  1.00  0.00     0.037 A 
BRANCH  44  58
ATOM     58  C   UNL A   1      42.508  27.559  34.369  1.00  0.00     0.064 A 
ATOM     59  C   UNL A   1      42.986  26.312  33.921  1.00  0.00     0.173 A 
ATOM     60  C   UNL A   1      41.902  27.558  35.645  1.00  0.00     0.173 A 
ATOM     61  F   UNL A   1      43.550  26.192  32.709  1.00  0.00    -0.203 F 
ATOM     62  C   UNL A   1      42.817  25.144  34.671  1.00  0.00     0.198 A 
ATOM     63  C   UNL A   1      41.781  26.401  36.412  1.00  0.00     0.198 A 
ATOM     64  F   UNL A   1      41.301  28.645  36.146  1.00  0.00    -0.203 F 
ATOM     65  F   UNL A   1      43.183  23.963  34.157  1.00  0.00    -0.200 F 
ATOM     66  C   UNL A   1      42.211  25.189  35.914  1.00  0.00     0.200 A 
ATOM     67  F   UNL A   1      41.166  26.460  37.602  1.00  0.00    -0.200 F 
ATOM     68  F   UNL A   1      41.996  24.065  36.608  1.00  0.00    -0.200 F 
ENDBRANCH  44  58
BRANCH  45  69
ATOM     69  C   UNL A   1      43.485  24.968  26.223  1.00  0.00     0.064 A 
ATOM     70  C   UNL A   1      44.513  24.840  25.275  1.00  0.00     0.173 A 
ATOM     71  C   UNL A   1      42.731  23.812  26.496  1.00  0.00     0.173 A 
ATOM     72  F   UNL A   1      45.299  25.887  24.986  1.00  0.00    -0.203 F 
ATOM     73  C   UNL A   1      44.788  23.617  24.658  1.00  0.00     0.198 A 
ATOM     74  C   UNL A   1      43.003  22.593  25.875  1.00  0.00     0.198 A 
ATOM     75  F   UNL A   1      41.779  23.822  27.441  1.00  0.00    -0.203 F 
ATOM     76  F   UNL A   1      45.816  23.516  23.804  1.00  0.00    -0.200 F 
ATOM     77  C   UNL A   1      44.040  22.493  24.967  1.00  0.00     0.200 A 
ATOM     78  F   UNL A   1      42.293  21.505  26.206  1.00  0.00    -0.200 F 
ATOM     79  F   UNL A   1      44.344  21.307  24.421  1.00  0.00    -0.200 F 
ENDBRANCH  45  69
BRANCH  57  80
ATOM     80  C   UNL A   1      45.672  30.221  28.812  1.00  0.00     0.064 A 
ATOM     81  C   UNL A   1      46.972  30.572  28.415  1.00  0.00     0.173 A 
ATOM     82  C   UNL A   1      44.602  30.874  28.187  1.00  0.00     0.173 A 
ATOM     83  F   UNL A   1      48.040  29.935  28.911  1.00  0.00    -0.203 F 
ATOM     84  C   UNL A   1      47.189  31.578  27.475  1.00  0.00     0.198 A 
ATOM     85  C   UNL A   1      44.820  31.850  27.221  1.00  0.00     0.198 A 
ATOM     86  F   UNL A   1      43.339  30.545  28.499  1.00  0.00    -0.203 F 
ATOM     87  F   UNL A   1      48.439  31.923  27.136  1.00  0.00    -0.200 F 
ATOM     88  C   UNL A   1      46.113  32.213  26.877  1.00  0.00     0.200 A 
ATOM     89  F   UNL A   1      43.776  32.434  26.616  1.00  0.00    -0.200 F 
ATOM     90  F   UNL A   1      46.320  33.165  25.955  1.00  0.00    -0.200 F 
ENDBRANCH  57  80
ENDBRANCH  31  32
ENDBRANCH  24  26
ENDBRANCH  23  24
ENDBRANCH  22  23
ENDBRANCH   1  22
TORSDOF 13
ENDMDL
MODEL 2
REMARK VINA RESULT:     -12.5      3.385      8.923
REMARK SMILES Cc1nsc(NC(=O)N2CCC[C@@H](C)C2)c1C(=O)OCCOC(=O)c1ccc(-c2c3nc(c(-c4c(F)c(F)c(F)c(F)c4F)c4ccc([nH]4)c(-c4c(F)c(F)c(F)c(F)c4F)c4nc(c(-c5c(F)c(F)c(F)c(F)c5F)c5ccc2[nH]5)C=C4)C=C3)cc1
REMARK SMILES IDX 20 1 19 2 17 3 18 4 16 5 1 6 2 7 3 8 4 9 5 10 6 11 7 12 8 14
REMARK SMILES IDX 9 15 10 16 15 17 11 18 13 19 12 20 14 21 21 22 22 23 23 24
REMARK SMILES IDX 24 25 25 26 26 27 87 28 27 29 86 30 28 31 29 32 30 33 80 34
REMARK SMILES IDX 31 35 85 36 79 37 81 38 32 39 84 40 78 41 77 42 33 44 65 45
REMARK SMILES IDX 45 46 64 47 46 48 49 49 63 50 82 51 47 52 48 53 62 55 83 56
REMARK SMILES IDX 50 57 34 58 35 59 43 60 36 61 37 62 41 63 44 64 38 65 39 66
REMARK SMILES IDX 42 67 40 68 66 69 67 70 75 71 68 72 69 73 73 74 76 75 70 76
REMARK SMILES IDX 71 77 74 78 72 79 51 80 52 81 60 82 53 83 54 84 58 85 61 86
REMARK SMILES IDX 55 87 56 88 59 89 57 90
REMARK H PARENT 6 13 81 43 49 54
REMARK Flexibility Score: inf
ROOT
ATOM      1  C   UNL A   1      37.672  22.223  24.930  1.00  0.00     0.275 C 
ENDROOT
BRANCH   1   2
ATOM      2  O   UNL A   1      36.405  22.140  25.601  1.00  0.00    -0.458 OA
BRANCH   2   3
ATOM      3  C   UNL A   1      35.656  23.276  25.657  1.00  0.00     0.343 C 
ATOM      4  O   UNL A   1      36.127  24.407  25.771  1.00  0.00    -0.246 OA
BRANCH   3   5
ATOM      5  C   UNL A   1      34.244  23.027  25.404  1.00  0.00     0.117 A 
ATOM      6  C   UNL A   1      33.664  21.418  27.407  1.00  0.00     0.069 C 
ATOM      7  C   UNL A   1      33.362  22.147  26.143  1.00  0.00     0.068 A 
ATOM      8  N   UNL A   1      32.163  21.936  25.600  1.00  0.00    -0.195 NA
ATOM      9  S   UNL A   1      32.124  22.670  24.129  1.00  0.00    -0.017 S 
ATOM     10  C   UNL A   1      33.581  23.519  24.283  1.00  0.00     0.132 A 
BRANCH  10  11
ATOM     11  N   UNL A   1      34.066  24.399  23.326  1.00  0.00    -0.297 N 
ATOM     12  C   UNL A   1      33.618  25.618  22.921  1.00  0.00     0.322 C 
ATOM     13  H   UNL A   1      34.874  24.087  22.859  1.00  0.00     0.172 HD
ATOM     14  O   UNL A   1      33.783  25.917  21.734  1.00  0.00    -0.248 OA
BRANCH  12  15
ATOM     15  N   UNL A   1      32.998  26.475  23.794  1.00  0.00    -0.324 N 
ATOM     16  C   UNL A   1      31.542  26.563  23.920  1.00  0.00     0.121 C 
ATOM     17  C   UNL A   1      33.733  26.884  24.984  1.00  0.00     0.124 C 
ATOM     18  C   UNL A   1      31.076  27.948  24.381  1.00  0.00     0.022 C 
ATOM     19  C   UNL A   1      33.414  28.344  25.306  1.00  0.00     0.005 C 
ATOM     20  C   UNL A   1      31.905  28.511  25.539  1.00  0.00     0.007 C 
ATOM     21  C   UNL A   1      34.213  28.832  26.511  1.00  0.00     0.009 C 
ENDBRANCH  12  15
ENDBRANCH  10  11
ENDBRANCH   3   5
ENDBRANCH   2   3
ENDBRANCH   1   2
BRANCH   1  22
ATOM     22  C   UNL A   1      38.761  21.581  25.781  1.00  0.00     0.275 C 
BRANCH  22  23
ATOM     23  O   UNL A   1      39.302  22.500  26.735  1.00  0.00    -0.458 OA
BRANCH  23  24
ATOM     24  C   UNL A   1      40.609  22.800  26.562  1.00  0.00     0.338 C 
ATOM     25  O   UNL A   1      41.511  22.027  26.294  1.00  0.00    -0.246 OA
BRANCH  24  26
ATOM     26  C   UNL A   1      40.840  24.195  26.945  1.00  0.00     0.060 A 
ATOM     27  C   UNL A   1      41.718  24.468  27.996  1.00  0.00     0.016 A 
ATOM     28  C   UNL A   1      40.028  25.195  26.391  1.00  0.00     0.016 A 
ATOM     29  C   UNL A   1      41.727  25.741  28.541  1.00  0.00     0.010 A 
ATOM     30  C   UNL A   1      40.044  26.463  26.932  1.00  0.00     0.010 A 
ATOM     31  C   UNL A   1      40.859  26.719  28.033  1.00  0.00    -0.014 A 
BRANCH  31  32
ATOM     32  C   UNL A   1      40.937  28.068  28.582  1.00  0.00     0.031 A 
ATOM     33  C   UNL A   1      42.112  28.845  28.113  1.00  0.00     0.074 A 
ATOM     34  C   UNL A   1      39.954  28.629  29.317  1.00  0.00     0.049 A 
ATOM     35  N   UNL A   1      43.002  29.447  28.831  1.00  0.00    -0.248 NA
ATOM     36  C   UNL A   1      42.378  28.887  26.665  1.00  0.00     0.031 C 
ATOM     37  C   UNL A   1      38.632  28.064  29.601  1.00  0.00     0.029 A 
ATOM     38  N   UNL A   1      39.890  29.874  29.877  1.00  0.00    -0.354 N 
ATOM     39  C   UNL A   1      43.853  30.079  27.928  1.00  0.00     0.074 A 
ATOM     40  C   UNL A   1      43.498  29.609  26.617  1.00  0.00     0.031 C 
ATOM     41  C   UNL A   1      37.829  29.032  30.092  1.00  0.00     0.029 A 
ATOM     42  C   UNL A   1      38.616  30.239  30.288  1.00  0.00     0.049 A 
ATOM     43  H   UNL A   1      40.676  30.459  29.980  1.00  0.00     0.167 HD
ATOM     44  C   UNL A   1      44.623  31.129  28.315  1.00  0.00     0.037 A 
ATOM     45  C   UNL A   1      38.210  31.450  30.734  1.00  0.00     0.037 A 
ATOM     46  C   UNL A   1      44.768  31.182  29.743  1.00  0.00     0.049 A 
ATOM     47  C   UNL A   1      39.393  32.194  31.216  1.00  0.00     0.074 A 
ATOM     48  C   UNL A   1      45.533  30.542  30.691  1.00  0.00     0.029 A 
ATOM     49  N   UNL A   1      43.740  31.804  30.396  1.00  0.00    -0.354 N 
ATOM     50  N   UNL A   1      40.067  31.864  32.282  1.00  0.00    -0.248 NA
ATOM     51  C   UNL A   1      40.038  33.175  30.349  1.00  0.00     0.031 C 
ATOM     52  C   UNL A   1      44.826  30.663  31.926  1.00  0.00     0.029 A 
ATOM     53  C   UNL A   1      43.656  31.381  31.696  1.00  0.00     0.049 A 
ATOM     54  H   UNL A   1      43.140  32.467  29.985  1.00  0.00     0.167 HD
ATOM     55  C   UNL A   1      41.359  32.249  31.995  1.00  0.00     0.074 A 
ATOM     56  C   UNL A   1      41.248  33.213  30.911  1.00  0.00     0.031 C 
ATOM     57  C   UNL A   1      42.416  31.505  32.425  1.00  0.00     0.037 A 
BRANCH  44  58
ATOM     58  C   UNL A   1      44.861  32.351  27.462  1.00  0.00     0.064 A 
ATOM     59  C   UNL A   1      46.103  32.513  26.816  1.00  0.00     0.173 A 
ATOM     60  C   UNL A   1      44.052  33.508  27.526  1.00  0.00     0.173 A 
ATOM     61  F   UNL A   1      46.964  31.488  26.726  1.00  0.00    -0.203 F 
ATOM     62  C   UNL A   1      46.524  33.752  26.325  1.00  0.00     0.198 A 
ATOM     63  C   UNL A   1      44.454  34.730  26.991  1.00  0.00     0.198 A 
ATOM     64  F   UNL A   1      42.901  33.531  28.210  1.00  0.00    -0.203 F 
ATOM     65  F   UNL A   1      47.758  33.886  25.822  1.00  0.00    -0.200 F 
ATOM     66  C   UNL A   1      45.700  34.861  26.416  1.00  0.00     0.200 A 
ATOM     67  F   UNL A   1      43.654  35.799  27.114  1.00  0.00    -0.200 F 
ATOM     68  F   UNL A   1      46.124  36.061  25.999  1.00  0.00    -0.200 F 
ENDBRANCH  44  58
BRANCH  45  69
ATOM     69  C   UNL A   1      36.872  32.071  30.644  1.00  0.00     0.064 A 
ATOM     70  C   UNL A   1      35.987  32.066  31.733  1.00  0.00     0.173 A 
ATOM     71  C   UNL A   1      36.540  32.910  29.564  1.00  0.00     0.173 A 
ATOM     72  F   UNL A   1      36.253  31.321  32.816  1.00  0.00    -0.203 F 
ATOM     73  C   UNL A   1      34.849  32.876  31.752  1.00  0.00     0.198 A 
ATOM     74  C   UNL A   1      35.401  33.714  29.582  1.00  0.00     0.198 A 
ATOM     75  F   UNL A   1      37.365  33.035  28.514  1.00  0.00    -0.203 F 
ATOM     76  F   UNL A   1      34.059  32.893  32.834  1.00  0.00    -0.200 F 
ATOM     77  C   UNL A   1      34.563  33.708  30.681  1.00  0.00     0.200 A 
ATOM     78  F   UNL A   1      35.153  34.537  28.554  1.00  0.00    -0.200 F 
ATOM     79  F   UNL A   1      33.506  34.530  30.726  1.00  0.00    -0.200 F 
ENDBRANCH  45  69
BRANCH  57  80
ATOM     80  C   UNL A   1      42.182  30.625  33.610  1.00  0.00     0.064 A 
ATOM     81  C   UNL A   1      42.278  31.057  34.943  1.00  0.00     0.173 A 
ATOM     82  C   UNL A   1      41.811  29.294  33.384  1.00  0.00     0.173 A 
ATOM     83  F   UNL A   1      42.550  32.335  35.235  1.00  0.00    -0.203 F 
ATOM     84  C   UNL A   1      42.069  30.175  36.001  1.00  0.00     0.198 A 
ATOM     85  C   UNL A   1      41.567  28.424  34.442  1.00  0.00     0.198 A 
ATOM     86  F   UNL A   1      41.662  28.841  32.129  1.00  0.00    -0.203 F 
ATOM     87  F   UNL A   1      42.202  30.599  37.266  1.00  0.00    -0.200 F 
ATOM     88  C   UNL A   1      41.711  28.861  35.749  1.00  0.00     0.200 A 
ATOM     89  F   UNL A   1      41.180  27.165  34.193  1.00  0.00    -0.200 F 
ATOM     90  F   UNL A   1      41.488  28.016  36.767  1.00  0.00    -0.200 F 
ENDBRANCH  57  80
ENDBRANCH  31  32
ENDBRANCH  24  26
ENDBRANCH  23  24
ENDBRANCH  22  23
ENDBRANCH   1  22
TORSDOF 13
ENDMDL
MODEL 3
REMARK VINA RESULT:     -12.5      3.297      8.783
REMARK SMILES Cc1nsc(NC(=O)N2CCC[C@@H](C)C2)c1C(=O)OCCOC(=O)c1ccc(-c2c3nc(c(-c4c(F)c(F)c(F)c(F)c4F)c4ccc([nH]4)c(-c4c(F)c(F)c(F)c(F)c4F)c4nc(c(-c5c(F)c(F)c(F)c(F)c5F)c5ccc2[nH]5)C=C4)C=C3)cc1
REMARK SMILES IDX 20 1 19 2 17 3 18 4 16 5 1 6 2 7 3 8 4 9 5 10 6 11 7 12 8 14
REMARK SMILES IDX 9 15 10 16 15 17 11 18 13 19 12 20 14 21 21 22 22 23 23 24
REMARK SMILES IDX 24 25 25 26 26 27 87 28 27 29 86 30 28 31 29 32 30 33 80 34
REMARK SMILES IDX 31 35 85 36 79 37 81 38 32 39 84 40 78 41 77 42 33 44 65 45
REMARK SMILES IDX 45 46 64 47 46 48 49 49 63 50 82 51 47 52 48 53 62 55 83 56
REMARK SMILES IDX 50 57 34 58 35 59 43 60 36 61 37 62 41 63 44 64 38 65 39 66
REMARK SMILES IDX 42 67 40 68 66 69 67 70 75 71 68 72 69 73 73 74 76 75 70 76
REMARK SMILES IDX 71 77 74 78 72 79 51 80 52 81 60 82 53 83 54 84 58 85 61 86
REMARK SMILES IDX 55 87 56 88 59 89 57 90
REMARK H PARENT 6 13 81 43 49 54
REMARK Flexibility Score: inf
ROOT
ATOM      1  C   UNL A   1      36.865  20.776  25.074  1.00  0.00     0.275 C 
ENDROOT
BRANCH   1   2
ATOM      2  O   UNL A   1      36.259  21.894  24.407  1.00  0.00    -0.458 OA
BRANCH   2   3
ATOM      3  C   UNL A   1      35.183  22.470  25.012  1.00  0.00     0.343 C 
ATOM      4  O   UNL A   1      35.264  23.302  25.915  1.00  0.00    -0.246 OA
BRANCH   3   5
ATOM      5  C   UNL A   1      33.926  22.120  24.366  1.00  0.00     0.117 A 
ATOM      6  C   UNL A   1      33.268  19.957  25.718  1.00  0.00     0.069 C 
ATOM      7  C   UNL A   1      33.096  20.963  24.632  1.00  0.00     0.068 A 
ATOM      8  N   UNL A   1      32.094  20.758  23.777  1.00  0.00    -0.195 NA
ATOM      9  S   UNL A   1      32.216  21.859  22.562  1.00  0.00    -0.017 S 
ATOM     10  C   UNL A   1      33.422  22.814  23.270  1.00  0.00     0.132 A 
BRANCH  10  11
ATOM     11  N   UNL A   1      33.915  23.981  22.702  1.00  0.00    -0.297 N 
ATOM     12  C   UNL A   1      33.391  25.233  22.632  1.00  0.00     0.322 C 
ATOM     13  H   UNL A   1      34.797  23.884  22.275  1.00  0.00     0.172 HD
ATOM     14  O   UNL A   1      33.652  25.902  21.627  1.00  0.00    -0.248 OA
BRANCH  12  15
ATOM     15  N   UNL A   1      32.595  25.730  23.633  1.00  0.00    -0.324 N 
ATOM     16  C   UNL A   1      33.122  26.140  24.935  1.00  0.00     0.121 C 
ATOM     17  C   UNL A   1      31.351  26.385  23.250  1.00  0.00     0.124 C 
ATOM     18  C   UNL A   1      32.085  26.004  26.056  1.00  0.00     0.022 C 
ATOM     19  C   UNL A   1      30.266  26.060  24.277  1.00  0.00     0.005 C 
ATOM     20  C   UNL A   1      30.703  26.538  25.670  1.00  0.00     0.007 C 
ATOM     21  C   UNL A   1      28.927  26.676  23.881  1.00  0.00     0.009 C 
ENDBRANCH  12  15
ENDBRANCH  10  11
ENDBRANCH   3   5
ENDBRANCH   2   3
ENDBRANCH   1   2
BRANCH   1  22
ATOM     22  C   UNL A   1      38.357  21.021  25.262  1.00  0.00     0.275 C 
BRANCH  22  23
ATOM     23  O   UNL A   1      38.610  22.138  26.119  1.00  0.00    -0.458 OA
BRANCH  23  24
ATOM     24  C   UNL A   1      39.818  22.132  26.725  1.00  0.00     0.338 C 
ATOM     25  O   UNL A   1      40.455  21.158  27.084  1.00  0.00    -0.246 OA
BRANCH  24  26
ATOM     26  C   UNL A   1      40.186  23.504  27.084  1.00  0.00     0.060 A 
ATOM     27  C   UNL A   1      41.333  23.714  27.852  1.00  0.00     0.016 A 
ATOM     28  C   UNL A   1      39.279  24.541  26.824  1.00  0.00     0.016 A 
ATOM     29  C   UNL A   1      41.532  24.959  28.424  1.00  0.00     0.010 A 
ATOM     30  C   UNL A   1      39.483  25.782  27.390  1.00  0.00     0.010 A 
ATOM     31  C   UNL A   1      40.583  25.973  28.224  1.00  0.00    -0.014 A 
BRANCH  31  32
ATOM     32  C   UNL A   1      40.850  27.293  28.783  1.00  0.00     0.031 A 
ATOM     33  C   UNL A   1      42.067  27.946  28.237  1.00  0.00     0.074 A 
ATOM     34  C   UNL A   1      39.993  27.943  29.596  1.00  0.00     0.049 A 
ATOM     35  N   UNL A   1      43.069  28.431  28.893  1.00  0.00    -0.248 NA
ATOM     36  C   UNL A   1      42.230  27.989  26.774  1.00  0.00     0.031 C 
ATOM     37  C   UNL A   1      38.640  27.521  29.972  1.00  0.00     0.029 A 
ATOM     38  N   UNL A   1      40.109  29.176  30.176  1.00  0.00    -0.354 N 
ATOM     39  C   UNL A   1      43.916  28.985  27.938  1.00  0.00     0.074 A 
ATOM     40  C   UNL A   1      43.416  28.584  26.650  1.00  0.00     0.031 C 
ATOM     41  C   UNL A   1      37.988  28.561  30.535  1.00  0.00     0.029 A 
ATOM     42  C   UNL A   1      38.917  29.670  30.686  1.00  0.00     0.049 A 
ATOM     43  H   UNL A   1      40.960  29.668  30.227  1.00  0.00     0.167 HD
ATOM     44  C   UNL A   1      44.825  29.935  28.279  1.00  0.00     0.037 A 
ATOM     45  C   UNL A   1      38.682  30.909  31.177  1.00  0.00     0.037 A 
ATOM     46  C   UNL A   1      45.079  29.941  29.693  1.00  0.00     0.049 A 
ATOM     47  C   UNL A   1      39.973  31.507  31.579  1.00  0.00     0.074 A 
ATOM     48  C   UNL A   1      45.836  29.201  30.572  1.00  0.00     0.029 A 
ATOM     49  N   UNL A   1      44.178  30.658  30.429  1.00  0.00    -0.354 N 
ATOM     50  N   UNL A   1      40.682  31.082  32.587  1.00  0.00    -0.248 NA
ATOM     51  C   UNL A   1      40.657  32.430  30.678  1.00  0.00     0.031 C 
ATOM     52  C   UNL A   1      45.239  29.373  31.858  1.00  0.00     0.029 A 
ATOM     53  C   UNL A   1      44.142  30.220  31.726  1.00  0.00     0.049 A 
ATOM     54  H   UNL A   1      43.626  31.392  30.073  1.00  0.00     0.167 HD
ATOM     55  C   UNL A   1      41.985  31.329  32.208  1.00  0.00     0.074 A 
ATOM     56  C   UNL A   1      41.903  32.322  31.148  1.00  0.00     0.031 C 
ATOM     57  C   UNL A   1      42.981  30.464  32.548  1.00  0.00     0.037 A 
BRANCH  44  58
ATOM     58  C   UNL A   1      45.135  31.142  27.426  1.00  0.00     0.064 A 
ATOM     59  C   UNL A   1      46.451  31.346  26.969  1.00  0.00     0.173 A 
ATOM     60  C   UNL A   1      44.274  32.257  27.325  1.00  0.00     0.173 A 
ATOM     61  F   UNL A   1      47.362  30.364  27.049  1.00  0.00    -0.203 F 
ATOM     62  C   UNL A   1      46.886  32.590  26.501  1.00  0.00     0.198 A 
ATOM     63  C   UNL A   1      44.696  33.481  26.810  1.00  0.00     0.198 A 
ATOM     64  F   UNL A   1      43.032  32.242  27.826  1.00  0.00    -0.203 F 
ATOM     65  F   UNL A   1      48.175  32.771  26.186  1.00  0.00    -0.200 F 
ATOM     66  C   UNL A   1      46.008  33.658  26.426  1.00  0.00     0.200 A 
ATOM     67  F   UNL A   1      43.839  34.511  26.771  1.00  0.00    -0.200 F 
ATOM     68  F   UNL A   1      46.435  34.864  26.033  1.00  0.00    -0.200 F 
ENDBRANCH  44  58
BRANCH  45  69
ATOM     69  C   UNL A   1      37.419  31.675  31.196  1.00  0.00     0.064 A 
ATOM     70  C   UNL A   1      36.677  31.835  32.376  1.00  0.00     0.173 A 
ATOM     71  C   UNL A   1      37.053  32.484  30.105  1.00  0.00     0.173 A 
ATOM     72  F   UNL A   1      36.988  31.127  33.472  1.00  0.00    -0.203 F 
ATOM     73  C   UNL A   1      35.644  32.772  32.468  1.00  0.00     0.198 A 
ATOM     74  C   UNL A   1      36.018  33.414  30.195  1.00  0.00     0.198 A 
ATOM     75  F   UNL A   1      37.753  32.451  28.962  1.00  0.00    -0.203 F 
ATOM     76  F   UNL A   1      34.997  32.942  33.629  1.00  0.00    -0.200 F 
ATOM     77  C   UNL A   1      35.323  33.568  31.380  1.00  0.00     0.200 A 
ATOM     78  F   UNL A   1      35.738  34.201  29.146  1.00  0.00    -0.200 F 
ATOM     79  F   UNL A   1      34.375  34.510  31.487  1.00  0.00    -0.200 F 
ENDBRANCH  45  69
BRANCH  57  80
ATOM     80  C   UNL A   1      42.737  29.590  33.736  1.00  0.00     0.064 A 
ATOM     81  C   UNL A   1      42.124  28.329  33.673  1.00  0.00     0.173 A 
ATOM     82  C   UNL A   1      43.175  30.038  34.988  1.00  0.00     0.173 A 
ATOM     83  F   UNL A   1      41.752  27.801  32.500  1.00  0.00    -0.203 F 
ATOM     84  C   UNL A   1      41.906  27.577  34.826  1.00  0.00     0.198 A 
ATOM     85  C   UNL A   1      42.990  29.270  36.133  1.00  0.00     0.198 A 
ATOM     86  F   UNL A   1      43.805  31.218  35.098  1.00  0.00    -0.203 F 
ATOM     87  F   UNL A   1      41.286  26.391  34.748  1.00  0.00    -0.200 F 
ATOM     88  C   UNL A   1      42.342  28.048  36.054  1.00  0.00     0.200 A 
ATOM     89  F   UNL A   1      43.450  29.711  37.312  1.00  0.00    -0.200 F 
ATOM     90  F   UNL A   1      42.154  27.315  37.161  1.00  0.00    -0.200 F 
ENDBRANCH  57  80
ENDBRANCH  31  32
ENDBRANCH  24  26
ENDBRANCH  23  24
ENDBRANCH  22  23
ENDBRANCH   1  22
TORSDOF 13
ENDMDL
