MODEL 1
REMARK VINA RESULT:     -13.1      0.000      0.000
REMARK SMILES COc1cccc(C[N@@H+]2C[C@H](C(=O)OCCOC(=O)c3ccc(-c4c5nc(c(-c6c(F)c(F)c(F)c(F)c6F)c6ccc([nH]6)c(-c6c(F)c(F)c(F)c(F)c6F)c6nc(c(-c7c(F)c(F)c(F)c(F)c7F)c7ccc4[nH]7)C=C6)C=C5)cc3)C3(CC[NH+](C)CC3)C2)c1
REMARK SMILES IDX 15 1 14 2 12 3 13 4 11 5 9 6 10 7 90 8 83 10 84 11 89 12
REMARK SMILES IDX 85 13 88 14 86 15 87 16 8 18 7 19 3 20 4 21 91 22 5 23 6 24
REMARK SMILES IDX 2 25 1 26 16 27 17 28 18 29 19 30 20 31 21 32 82 33 22 34
REMARK SMILES IDX 81 35 23 36 24 37 25 38 75 39 26 40 80 41 74 42 76 43 27 44
REMARK SMILES IDX 79 45 73 46 72 47 28 49 60 50 40 51 59 52 41 53 44 54 58 55
REMARK SMILES IDX 77 56 42 57 43 58 57 60 78 61 45 62 29 63 30 64 38 65 31 66
REMARK SMILES IDX 32 67 36 68 39 69 33 70 34 71 37 72 35 73 61 74 62 75 70 76
REMARK SMILES IDX 63 77 64 78 68 79 71 80 65 81 66 82 69 83 67 84 46 85 47 86
REMARK SMILES IDX 55 87 48 88 49 89 53 90 56 91 50 92 51 93 54 94 52 95
REMARK H PARENT 9 9 86 17 76 48 44 59
REMARK Flexibility Score: inf
ROOT
ATOM      1  C   UNL A   1      32.202  27.925  26.944  1.00  0.00     0.274 C 
ENDROOT
BRANCH   1   2
ATOM      2  O   UNL A   1      30.983  27.143  27.097  1.00  0.00    -0.462 OA
BRANCH   2   3
ATOM      3  C   UNL A   1      30.693  26.220  26.129  1.00  0.00     0.315 C 
ATOM      4  O   UNL A   1      29.651  25.579  26.100  1.00  0.00    -0.252 OA
BRANCH   3   5
ATOM      5  C   UNL A   1      31.816  26.119  25.074  1.00  0.00     0.166 C 
ATOM      6  N   UNL A   1      32.227  24.171  23.674  1.00  0.00    -0.330 N 
ATOM      7  C   UNL A   1      32.309  24.663  25.042  1.00  0.00     0.278 C 
ATOM      8  C   UNL A   1      31.584  25.148  22.814  1.00  0.00     0.271 C 
ATOM      9  H   UNL A   1      33.193  24.076  23.361  1.00  0.00     0.348 HD
ATOM     10  C   UNL A   1      31.451  26.471  23.597  1.00  0.00     0.049 C 
ATOM     11  C   UNL A   1      32.409  27.509  22.937  1.00  0.00     0.075 C 
ATOM     12  C   UNL A   1      30.025  27.016  23.441  1.00  0.00     0.075 C 
ATOM     13  C   UNL A   1      32.199  28.958  23.386  1.00  0.00     0.262 C 
ATOM     14  C   UNL A   1      29.940  28.447  23.956  1.00  0.00     0.262 C 
ATOM     15  N   UNL A   1      30.818  29.410  23.329  1.00  0.00    -0.337 N 
ATOM     16  C   UNL A   1      30.318  29.777  22.013  1.00  0.00     0.332 C 
ATOM     17  H   UNL A   1      30.818  30.287  23.850  1.00  0.00     0.347 HD
BRANCH   6  18
ATOM     18  C   UNL A   1      31.760  22.787  23.499  1.00  0.00     0.299 C 
BRANCH  18  19
ATOM     19  C   UNL A   1      32.661  21.687  24.041  1.00  0.00     0.010 A 
ATOM     20  C   UNL A   1      32.922  19.536  25.166  1.00  0.00     0.119 A 
ATOM     21  C   UNL A   1      34.299  19.730  25.228  1.00  0.00     0.046 A 
ATOM     22  C   UNL A   1      32.104  20.514  24.591  1.00  0.00     0.056 A 
ATOM     23  C   UNL A   1      34.866  20.869  24.661  1.00  0.00     0.004 A 
ATOM     24  C   UNL A   1      34.053  21.831  24.059  1.00  0.00     0.010 A 
BRANCH  20  25
ATOM     25  O   UNL A   1      32.450  18.396  25.757  1.00  0.00    -0.497 OA
ATOM     26  C   UNL A   1      32.795  17.207  25.049  1.00  0.00     0.278 C 
ENDBRANCH  20  25
ENDBRANCH  18  19
ENDBRANCH   6  18
ENDBRANCH   3   5
ENDBRANCH   2   3
ENDBRANCH   1   2
BRANCH   1  27
ATOM     27  C   UNL A   1      31.968  29.429  27.213  1.00  0.00     0.275 C 
BRANCH  27  28
ATOM     28  O   UNL A   1      32.945  30.240  26.517  1.00  0.00    -0.458 OA
BRANCH  28  29
ATOM     29  C   UNL A   1      33.479  31.279  27.225  1.00  0.00     0.338 C 
ATOM     30  O   UNL A   1      32.847  32.219  27.692  1.00  0.00    -0.246 OA
BRANCH  29  31
ATOM     31  C   UNL A   1      34.929  31.029  27.525  1.00  0.00     0.060 A 
ATOM     32  C   UNL A   1      35.403  29.725  27.640  1.00  0.00     0.016 A 
ATOM     33  C   UNL A   1      35.761  32.076  27.945  1.00  0.00     0.016 A 
ATOM     34  C   UNL A   1      36.544  29.476  28.410  1.00  0.00     0.010 A 
ATOM     35  C   UNL A   1      37.014  31.810  28.540  1.00  0.00     0.010 A 
ATOM     36  C   UNL A   1      37.409  30.495  28.842  1.00  0.00    -0.014 A 
BRANCH  36  37
ATOM     37  C   UNL A   1      38.683  30.175  29.590  1.00  0.00     0.031 A 
ATOM     38  C   UNL A   1      39.751  29.263  29.007  1.00  0.00     0.074 A 
ATOM     39  C   UNL A   1      38.935  30.727  30.801  1.00  0.00     0.049 A 
ATOM     40  N   UNL A   1      40.750  28.656  29.606  1.00  0.00    -0.248 NA
ATOM     41  C   UNL A   1      39.704  29.011  27.560  1.00  0.00     0.031 C 
ATOM     42  C   UNL A   1      38.097  31.713  31.486  1.00  0.00     0.029 A 
ATOM     43  N   UNL A   1      39.980  30.537  31.683  1.00  0.00    -0.354 N 
ATOM     44  C   UNL A   1      41.407  27.914  28.626  1.00  0.00     0.074 A 
ATOM     45  C   UNL A   1      40.714  28.171  27.382  1.00  0.00     0.031 C 
ATOM     46  C   UNL A   1      38.685  32.097  32.622  1.00  0.00     0.029 A 
ATOM     47  C   UNL A   1      39.825  31.230  32.862  1.00  0.00     0.049 A 
ATOM     48  H   UNL A   1      40.758  29.966  31.487  1.00  0.00     0.167 HD
ATOM     49  C   UNL A   1      42.466  27.073  28.758  1.00  0.00     0.037 A 
ATOM     50  C   UNL A   1      40.426  31.108  34.061  1.00  0.00     0.037 A 
ATOM     51  C   UNL A   1      43.159  26.833  30.001  1.00  0.00     0.049 A 
ATOM     52  C   UNL A   1      41.485  30.065  34.239  1.00  0.00     0.074 A 
ATOM     53  C   UNL A   1      44.196  25.952  30.265  1.00  0.00     0.029 A 
ATOM     54  N   UNL A   1      42.885  27.487  31.193  1.00  0.00    -0.354 N 
ATOM     55  N   UNL A   1      41.993  29.248  33.351  1.00  0.00    -0.248 NA
ATOM     56  C   UNL A   1      42.027  29.902  35.592  1.00  0.00     0.031 C 
ATOM     57  C   UNL A   1      44.508  26.033  31.626  1.00  0.00     0.029 A 
ATOM     58  C   UNL A   1      43.713  27.012  32.198  1.00  0.00     0.049 A 
ATOM     59  H   UNL A   1      42.201  28.186  31.309  1.00  0.00     0.167 HD
ATOM     60  C   UNL A   1      42.924  28.480  34.033  1.00  0.00     0.074 A 
ATOM     61  C   UNL A   1      42.922  28.943  35.406  1.00  0.00     0.031 C 
ATOM     62  C   UNL A   1      43.707  27.480  33.561  1.00  0.00     0.037 A 
BRANCH  49  63
ATOM     63  C   UNL A   1      42.893  26.274  27.553  1.00  0.00     0.064 A 
ATOM     64  C   UNL A   1      43.916  26.692  26.689  1.00  0.00     0.173 A 
ATOM     65  C   UNL A   1      42.289  25.032  27.288  1.00  0.00     0.173 A 
ATOM     66  F   UNL A   1      44.525  27.871  26.887  1.00  0.00    -0.203 F 
ATOM     67  C   UNL A   1      44.298  25.914  25.595  1.00  0.00     0.198 A 
ATOM     68  C   UNL A   1      42.693  24.243  26.211  1.00  0.00     0.198 A 
ATOM     69  F   UNL A   1      41.314  24.571  28.085  1.00  0.00    -0.203 F 
ATOM     70  F   UNL A   1      45.249  26.355  24.759  1.00  0.00    -0.200 F 
ATOM     71  C   UNL A   1      43.691  24.689  25.361  1.00  0.00     0.200 A 
ATOM     72  F   UNL A   1      42.114  23.053  26.000  1.00  0.00    -0.200 F 
ATOM     73  F   UNL A   1      44.064  23.940  24.313  1.00  0.00    -0.200 F 
ENDBRANCH  49  63
BRANCH  50  74
ATOM     74  C   UNL A   1      39.922  31.908  35.214  1.00  0.00     0.064 A 
ATOM     75  C   UNL A   1      40.431  33.180  35.502  1.00  0.00     0.173 A 
ATOM     76  C   UNL A   1      38.887  31.421  36.034  1.00  0.00     0.173 A 
ATOM     77  F   UNL A   1      41.443  33.676  34.776  1.00  0.00    -0.203 F 
ATOM     78  C   UNL A   1      39.919  33.937  36.556  1.00  0.00     0.198 A 
ATOM     79  C   UNL A   1      38.346  32.197  37.056  1.00  0.00     0.198 A 
ATOM     80  F   UNL A   1      38.368  30.204  35.812  1.00  0.00    -0.203 F 
ATOM     81  F   UNL A   1      40.449  35.135  36.834  1.00  0.00    -0.200 F 
ATOM     82  C   UNL A   1      38.867  33.453  37.320  1.00  0.00     0.200 A 
ATOM     83  F   UNL A   1      37.314  31.731  37.772  1.00  0.00    -0.200 F 
ATOM     84  F   UNL A   1      38.359  34.194  38.314  1.00  0.00    -0.200 F 
ENDBRANCH  50  74
BRANCH  62  85
ATOM     85  C   UNL A   1      44.666  26.857  34.530  1.00  0.00     0.064 A 
ATOM     86  C   UNL A   1      45.940  27.396  34.762  1.00  0.00     0.173 A 
ATOM     87  C   UNL A   1      44.301  25.701  35.237  1.00  0.00     0.173 A 
ATOM     88  F   UNL A   1      46.343  28.487  34.094  1.00  0.00    -0.203 F 
ATOM     89  C   UNL A   1      46.826  26.781  35.642  1.00  0.00     0.198 A 
ATOM     90  C   UNL A   1      45.178  25.107  36.140  1.00  0.00     0.198 A 
ATOM     91  F   UNL A   1      43.093  25.148  35.052  1.00  0.00    -0.203 F 
ATOM     92  F   UNL A   1      48.060  27.278  35.803  1.00  0.00    -0.200 F 
ATOM     93  C   UNL A   1      46.442  25.642  36.334  1.00  0.00     0.200 A 
ATOM     94  F   UNL A   1      44.801  24.013  36.815  1.00  0.00    -0.200 F 
ATOM     95  F   UNL A   1      47.296  25.050  37.180  1.00  0.00    -0.200 F 
ENDBRANCH  62  85
ENDBRANCH  36  37
ENDBRANCH  29  31
ENDBRANCH  28  29
ENDBRANCH  27  28
ENDBRANCH   1  27
TORSDOF 14
ENDMDL
MODEL 2
REMARK VINA RESULT:     -13.1      0.335      1.162
REMARK SMILES COc1cccc(C[N@@H+]2C[C@H](C(=O)OCCOC(=O)c3ccc(-c4c5nc(c(-c6c(F)c(F)c(F)c(F)c6F)c6ccc([nH]6)c(-c6c(F)c(F)c(F)c(F)c6F)c6nc(c(-c7c(F)c(F)c(F)c(F)c7F)c7ccc4[nH]7)C=C6)C=C5)cc3)C3(CC[NH+](C)CC3)C2)c1
REMARK SMILES IDX 15 1 14 2 12 3 13 4 11 5 9 6 10 7 90 8 83 10 84 11 89 12
REMARK SMILES IDX 85 13 88 14 86 15 87 16 8 18 7 19 3 20 4 21 91 22 5 23 6 24
REMARK SMILES IDX 2 25 1 26 16 27 17 28 18 29 19 30 20 31 21 32 82 33 22 34
REMARK SMILES IDX 81 35 23 36 24 37 25 38 75 39 26 40 80 41 74 42 76 43 27 44
REMARK SMILES IDX 79 45 73 46 72 47 28 49 60 50 40 51 59 52 41 53 44 54 58 55
REMARK SMILES IDX 77 56 42 57 43 58 57 60 78 61 45 62 29 63 30 64 38 65 31 66
REMARK SMILES IDX 32 67 36 68 39 69 33 70 34 71 37 72 35 73 61 74 62 75 70 76
REMARK SMILES IDX 63 77 64 78 68 79 71 80 65 81 66 82 69 83 67 84 46 85 47 86
REMARK SMILES IDX 55 87 48 88 49 89 53 90 56 91 50 92 51 93 54 94 52 95
REMARK H PARENT 9 9 86 17 76 48 44 59
REMARK Flexibility Score: inf
ROOT
ATOM      1  C   UNL A   1      32.222  27.963  26.944  1.00  0.00     0.274 C 
ENDROOT
BRANCH   1   2
ATOM      2  O   UNL A   1      31.034  27.139  27.116  1.00  0.00    -0.462 OA
BRANCH   2   3
ATOM      3  C   UNL A   1      30.751  26.218  26.144  1.00  0.00     0.315 C 
ATOM      4  O   UNL A   1      29.713  25.569  26.110  1.00  0.00    -0.252 OA
BRANCH   3   5
ATOM      5  C   UNL A   1      31.875  26.130  25.089  1.00  0.00     0.166 C 
ATOM      6  N   UNL A   1      32.334  24.172  23.718  1.00  0.00    -0.330 N 
ATOM      7  C   UNL A   1      32.404  24.686  25.078  1.00  0.00     0.278 C 
ATOM      8  C   UNL A   1      31.666  25.120  22.844  1.00  0.00     0.271 C 
ATOM      9  H   UNL A   1      33.302  24.097  23.404  1.00  0.00     0.348 HD
ATOM     10  C   UNL A   1      31.499  26.450  23.607  1.00  0.00     0.049 C 
ATOM     11  C   UNL A   1      32.430  27.502  22.930  1.00  0.00     0.075 C 
ATOM     12  C   UNL A   1      30.060  26.957  23.444  1.00  0.00     0.075 C 
ATOM     13  C   UNL A   1      32.184  28.952  23.358  1.00  0.00     0.262 C 
ATOM     14  C   UNL A   1      29.939  28.392  23.939  1.00  0.00     0.262 C 
ATOM     15  N   UNL A   1      30.792  29.368  23.296  1.00  0.00    -0.337 N 
ATOM     16  C   UNL A   1      30.282  29.703  21.976  1.00  0.00     0.332 C 
ATOM     17  H   UNL A   1      30.770  30.253  23.804  1.00  0.00     0.347 HD
BRANCH   6  18
ATOM     18  C   UNL A   1      31.902  22.774  23.563  1.00  0.00     0.299 C 
BRANCH  18  19
ATOM     19  C   UNL A   1      32.914  21.701  23.938  1.00  0.00     0.010 A 
ATOM     20  C   UNL A   1      33.424  19.368  24.446  1.00  0.00     0.119 A 
ATOM     21  C   UNL A   1      34.717  19.728  24.820  1.00  0.00     0.046 A 
ATOM     22  C   UNL A   1      32.521  20.349  24.022  1.00  0.00     0.056 A 
ATOM     23  C   UNL A   1      35.127  21.054  24.712  1.00  0.00     0.004 A 
ATOM     24  C   UNL A   1      34.236  22.029  24.259  1.00  0.00     0.010 A 
BRANCH  20  25
ATOM     25  O   UNL A   1      33.103  18.046  24.594  1.00  0.00    -0.497 OA
ATOM     26  C   UNL A   1      33.315  17.276  23.413  1.00  0.00     0.278 C 
ENDBRANCH  20  25
ENDBRANCH  18  19
ENDBRANCH   6  18
ENDBRANCH   3   5
ENDBRANCH   2   3
ENDBRANCH   1   2
BRANCH   1  27
ATOM     27  C   UNL A   1      31.909  29.471  27.068  1.00  0.00     0.275 C 
BRANCH  27  28
ATOM     28  O   UNL A   1      32.958  30.271  26.472  1.00  0.00    -0.458 OA
BRANCH  28  29
ATOM     29  C   UNL A   1      33.470  31.270  27.250  1.00  0.00     0.338 C 
ATOM     30  O   UNL A   1      32.823  32.182  27.750  1.00  0.00    -0.246 OA
BRANCH  29  31
ATOM     31  C   UNL A   1      34.912  31.006  27.574  1.00  0.00     0.060 A 
ATOM     32  C   UNL A   1      35.369  29.697  27.706  1.00  0.00     0.016 A 
ATOM     33  C   UNL A   1      35.749  32.047  27.999  1.00  0.00     0.016 A 
ATOM     34  C   UNL A   1      36.495  29.441  28.496  1.00  0.00     0.010 A 
ATOM     35  C   UNL A   1      36.990  31.771  28.616  1.00  0.00     0.010 A 
ATOM     36  C   UNL A   1      37.364  30.454  28.934  1.00  0.00    -0.014 A 
BRANCH  36  37
ATOM     37  C   UNL A   1      38.623  30.125  29.704  1.00  0.00     0.031 A 
ATOM     38  C   UNL A   1      39.697  29.209  29.138  1.00  0.00     0.074 A 
ATOM     39  C   UNL A   1      38.856  30.672  30.922  1.00  0.00     0.049 A 
ATOM     40  N   UNL A   1      40.682  28.595  29.754  1.00  0.00    -0.248 NA
ATOM     41  C   UNL A   1      39.675  28.962  27.691  1.00  0.00     0.031 C 
ATOM     42  C   UNL A   1      38.011  31.662  31.594  1.00  0.00     0.029 A 
ATOM     43  N   UNL A   1      39.883  30.475  31.821  1.00  0.00    -0.354 N 
ATOM     44  C   UNL A   1      41.352  27.852  28.784  1.00  0.00     0.074 A 
ATOM     45  C   UNL A   1      40.684  28.116  27.529  1.00  0.00     0.031 C 
ATOM     46  C   UNL A   1      38.580  32.040  32.742  1.00  0.00     0.029 A 
ATOM     47  C   UNL A   1      39.710  31.165  33.000  1.00  0.00     0.049 A 
ATOM     48  H   UNL A   1      40.661  29.900  31.639  1.00  0.00     0.167 HD
ATOM     49  C   UNL A   1      42.405  27.005  28.933  1.00  0.00     0.037 A 
ATOM     50  C   UNL A   1      40.289  31.038  34.210  1.00  0.00     0.037 A 
ATOM     51  C   UNL A   1      43.074  26.758  30.188  1.00  0.00     0.049 A 
ATOM     52  C   UNL A   1      41.338  29.989  34.404  1.00  0.00     0.074 A 
ATOM     53  C   UNL A   1      44.101  25.872  30.468  1.00  0.00     0.029 A 
ATOM     54  N   UNL A   1      42.781  27.411  31.377  1.00  0.00    -0.354 N 
ATOM     55  N   UNL A   1      41.859  29.171  33.523  1.00  0.00    -0.248 NA
ATOM     56  C   UNL A   1      41.855  29.818  35.766  1.00  0.00     0.031 C 
ATOM     57  C   UNL A   1      44.388  25.947  31.835  1.00  0.00     0.029 A 
ATOM     58  C   UNL A   1      43.588  26.929  32.396  1.00  0.00     0.049 A 
ATOM     59  H   UNL A   1      42.099  28.113  31.482  1.00  0.00     0.167 HD
ATOM     60  C   UNL A   1      42.773  28.396  34.220  1.00  0.00     0.074 A 
ATOM     61  C   UNL A   1      42.748  28.855  35.594  1.00  0.00     0.031 C 
ATOM     62  C   UNL A   1      43.559  27.393  33.759  1.00  0.00     0.037 A 
BRANCH  49  63
ATOM     63  C   UNL A   1      42.850  26.208  27.734  1.00  0.00     0.064 A 
ATOM     64  C   UNL A   1      42.259  24.989  27.373  1.00  0.00     0.173 A 
ATOM     65  C   UNL A   1      43.867  26.708  26.900  1.00  0.00     0.173 A 
ATOM     66  F   UNL A   1      41.289  24.458  28.132  1.00  0.00    -0.203 F 
ATOM     67  C   UNL A   1      42.685  24.289  26.241  1.00  0.00     0.198 A 
ATOM     68  C   UNL A   1      44.270  26.022  25.756  1.00  0.00     0.198 A 
ATOM     69  F   UNL A   1      44.462  27.876  27.187  1.00  0.00    -0.203 F 
ATOM     70  F   UNL A   1      42.134  23.105  25.940  1.00  0.00    -0.200 F 
ATOM     71  C   UNL A   1      43.685  24.809  25.432  1.00  0.00     0.200 A 
ATOM     72  F   UNL A   1      45.224  26.537  24.969  1.00  0.00    -0.200 F 
ATOM     73  F   UNL A   1      44.088  24.138  24.343  1.00  0.00    -0.200 F 
ENDBRANCH  49  63
BRANCH  50  74
ATOM     74  C   UNL A   1      39.768  31.837  35.355  1.00  0.00     0.064 A 
ATOM     75  C   UNL A   1      40.232  33.131  35.617  1.00  0.00     0.173 A 
ATOM     76  C   UNL A   1      38.761  31.325  36.195  1.00  0.00     0.173 A 
ATOM     77  F   UNL A   1      41.217  33.653  34.871  1.00  0.00    -0.203 F 
ATOM     78  C   UNL A   1      39.703  33.886  36.664  1.00  0.00     0.198 A 
ATOM     79  C   UNL A   1      38.202  32.097  37.210  1.00  0.00     0.198 A 
ATOM     80  F   UNL A   1      38.285  30.087  35.999  1.00  0.00    -0.203 F 
ATOM     81  F   UNL A   1      40.192  35.108  36.917  1.00  0.00    -0.200 F 
ATOM     82  C   UNL A   1      38.679  33.376  37.448  1.00  0.00     0.200 A 
ATOM     83  F   UNL A   1      37.196  31.605  37.946  1.00  0.00    -0.200 F 
ATOM     84  F   UNL A   1      38.154  34.113  38.435  1.00  0.00    -0.200 F 
ENDBRANCH  50  74
BRANCH  62  85
ATOM     85  C   UNL A   1      44.497  26.763  34.744  1.00  0.00     0.064 A 
ATOM     86  C   UNL A   1      45.766  27.300  35.007  1.00  0.00     0.173 A 
ATOM     87  C   UNL A   1      44.117  25.602  35.435  1.00  0.00     0.173 A 
ATOM     88  F   UNL A   1      46.184  28.395  34.356  1.00  0.00    -0.203 F 
ATOM     89  C   UNL A   1      46.632  26.678  35.901  1.00  0.00     0.198 A 
ATOM     90  C   UNL A   1      44.974  25.001  36.352  1.00  0.00     0.198 A 
ATOM     91  F   UNL A   1      42.913  25.051  35.220  1.00  0.00    -0.203 F 
ATOM     92  F   UNL A   1      47.864  27.173  36.093  1.00  0.00    -0.200 F 
ATOM     93  C   UNL A   1      46.234  25.534  36.577  1.00  0.00     0.200 A 
ATOM     94  F   UNL A   1      44.582  23.902  37.010  1.00  0.00    -0.200 F 
ATOM     95  F   UNL A   1      47.070  24.935  37.436  1.00  0.00    -0.200 F 
ENDBRANCH  62  85
ENDBRANCH  36  37
ENDBRANCH  29  31
ENDBRANCH  28  29
ENDBRANCH  27  28
ENDBRANCH   1  27
TORSDOF 14
ENDMDL
MODEL 3
REMARK VINA RESULT:     -13.0      1.266      4.313
REMARK SMILES COc1cccc(C[N@@H+]2C[C@H](C(=O)OCCOC(=O)c3ccc(-c4c5nc(c(-c6c(F)c(F)c(F)c(F)c6F)c6ccc([nH]6)c(-c6c(F)c(F)c(F)c(F)c6F)c6nc(c(-c7c(F)c(F)c(F)c(F)c7F)c7ccc4[nH]7)C=C6)C=C5)cc3)C3(CC[NH+](C)CC3)C2)c1
REMARK SMILES IDX 15 1 14 2 12 3 13 4 11 5 9 6 10 7 90 8 83 10 84 11 89 12
REMARK SMILES IDX 85 13 88 14 86 15 87 16 8 18 7 19 3 20 4 21 91 22 5 23 6 24
REMARK SMILES IDX 2 25 1 26 16 27 17 28 18 29 19 30 20 31 21 32 82 33 22 34
REMARK SMILES IDX 81 35 23 36 24 37 25 38 75 39 26 40 80 41 74 42 76 43 27 44
REMARK SMILES IDX 79 45 73 46 72 47 28 49 60 50 40 51 59 52 41 53 44 54 58 55
REMARK SMILES IDX 77 56 42 57 43 58 57 60 78 61 45 62 29 63 30 64 38 65 31 66
REMARK SMILES IDX 32 67 36 68 39 69 33 70 34 71 37 72 35 73 61 74 62 75 70 76
REMARK SMILES IDX 63 77 64 78 68 79 71 80 65 81 66 82 69 83 67 84 46 85 47 86
REMARK SMILES IDX 55 87 48 88 49 89 53 90 56 91 50 92 51 93 54 94 52 95
REMARK H PARENT 9 9 86 17 76 48 44 59
REMARK Flexibility Score: inf
ROOT
ATOM      1  C   UNL A   1      31.764  27.583  26.968  1.00  0.00     0.274 C 
ENDROOT
BRANCH   1   2
ATOM      2  O   UNL A   1      30.640  27.150  26.149  1.00  0.00    -0.462 OA
BRANCH   2   3
ATOM      3  C   UNL A   1      30.592  25.834  25.780  1.00  0.00     0.315 C 
ATOM      4  O   UNL A   1      30.453  24.914  26.576  1.00  0.00    -0.252 OA
BRANCH   3   5
ATOM      5  C   UNL A   1      30.697  25.660  24.249  1.00  0.00     0.166 C 
ATOM      6  N   UNL A   1      31.248  27.445  22.689  1.00  0.00    -0.330 N 
ATOM      7  C   UNL A   1      30.211  26.961  23.589  1.00  0.00     0.278 C 
ATOM      8  C   UNL A   1      32.449  26.637  22.807  1.00  0.00     0.271 C 
ATOM      9  H   UNL A   1      30.878  27.309  21.748  1.00  0.00     0.348 HD
ATOM     10  C   UNL A   1      32.114  25.390  23.650  1.00  0.00     0.049 C 
ATOM     11  C   UNL A   1      32.177  24.151  22.706  1.00  0.00     0.075 C 
ATOM     12  C   UNL A   1      33.194  25.190  24.721  1.00  0.00     0.075 C 
ATOM     13  C   UNL A   1      32.165  22.795  23.417  1.00  0.00     0.262 C 
ATOM     14  C   UNL A   1      33.051  23.824  25.378  1.00  0.00     0.262 C 
ATOM     15  N   UNL A   1      33.128  22.677  24.501  1.00  0.00    -0.337 N 
ATOM     16  C   UNL A   1      34.505  22.424  24.108  1.00  0.00     0.332 C 
ATOM     17  H   UNL A   1      32.849  21.829  24.996  1.00  0.00     0.347 HD
BRANCH   6  18
ATOM     18  C   UNL A   1      31.478  28.899  22.671  1.00  0.00     0.299 C 
BRANCH  18  19
ATOM     19  C   UNL A   1      30.243  29.786  22.724  1.00  0.00     0.010 A 
ATOM     20  C   UNL A   1      28.412  30.926  21.580  1.00  0.00     0.119 A 
ATOM     21  C   UNL A   1      28.074  31.580  22.762  1.00  0.00     0.046 A 
ATOM     22  C   UNL A   1      29.499  30.046  21.555  1.00  0.00     0.056 A 
ATOM     23  C   UNL A   1      28.780  31.309  23.932  1.00  0.00     0.004 A 
ATOM     24  C   UNL A   1      29.845  30.407  23.915  1.00  0.00     0.010 A 
BRANCH  20  25
ATOM     25  O   UNL A   1      27.673  31.260  20.478  1.00  0.00    -0.497 OA
ATOM     26  C   UNL A   1      27.681  32.657  20.193  1.00  0.00     0.278 C 
ENDBRANCH  20  25
ENDBRANCH  18  19
ENDBRANCH   6  18
ENDBRANCH   3   5
ENDBRANCH   2   3
ENDBRANCH   1   2
BRANCH   1  27
ATOM     27  C   UNL A   1      31.702  29.093  27.294  1.00  0.00     0.275 C 
BRANCH  27  28
ATOM     28  O   UNL A   1      32.628  29.841  26.470  1.00  0.00    -0.458 OA
BRANCH  28  29
ATOM     29  C   UNL A   1      33.126  30.990  27.016  1.00  0.00     0.338 C 
ATOM     30  O   UNL A   1      32.462  31.967  27.342  1.00  0.00    -0.246 OA
BRANCH  29  31
ATOM     31  C   UNL A   1      34.583  30.835  27.344  1.00  0.00     0.060 A 
ATOM     32  C   UNL A   1      35.145  29.565  27.446  1.00  0.00     0.016 A 
ATOM     33  C   UNL A   1      35.331  31.930  27.802  1.00  0.00     0.016 A 
ATOM     34  C   UNL A   1      36.283  29.381  28.238  1.00  0.00     0.010 A 
ATOM     35  C   UNL A   1      36.587  31.739  28.420  1.00  0.00     0.010 A 
ATOM     36  C   UNL A   1      37.065  30.449  28.708  1.00  0.00    -0.014 A 
BRANCH  36  37
ATOM     37  C   UNL A   1      38.343  30.204  29.478  1.00  0.00     0.031 A 
ATOM     38  C   UNL A   1      39.462  29.335  28.926  1.00  0.00     0.074 A 
ATOM     39  C   UNL A   1      38.550  30.789  30.683  1.00  0.00     0.049 A 
ATOM     40  N   UNL A   1      40.480  28.788  29.550  1.00  0.00    -0.248 NA
ATOM     41  C   UNL A   1      39.447  29.057  27.484  1.00  0.00     0.031 C 
ATOM     42  C   UNL A   1      37.657  31.745  31.338  1.00  0.00     0.029 A 
ATOM     43  N   UNL A   1      39.590  30.665  31.581  1.00  0.00    -0.354 N 
ATOM     44  C   UNL A   1      41.186  28.061  28.592  1.00  0.00     0.074 A 
ATOM     45  C   UNL A   1      40.500  28.263  27.334  1.00  0.00     0.031 C 
ATOM     46  C   UNL A   1      38.209  32.177  32.475  1.00  0.00     0.029 A 
ATOM     47  C   UNL A   1      39.385  31.369  32.746  1.00  0.00     0.049 A 
ATOM     48  H   UNL A   1      40.397  30.128  31.407  1.00  0.00     0.167 HD
ATOM     49  C   UNL A   1      42.282  27.275  28.753  1.00  0.00     0.037 A 
ATOM     50  C   UNL A   1      39.974  31.298  33.955  1.00  0.00     0.037 A 
ATOM     51  C   UNL A   1      42.968  27.090  30.010  1.00  0.00     0.049 A 
ATOM     52  C   UNL A   1      41.079  30.311  34.167  1.00  0.00     0.074 A 
ATOM     53  C   UNL A   1      44.042  26.265  30.303  1.00  0.00     0.029 A 
ATOM     54  N   UNL A   1      42.645  27.751  31.186  1.00  0.00    -0.354 N 
ATOM     55  N   UNL A   1      41.639  29.503  33.300  1.00  0.00    -0.248 NA
ATOM     56  C   UNL A   1      41.609  30.196  35.529  1.00  0.00     0.031 C 
ATOM     57  C   UNL A   1      44.330  26.384  31.667  1.00  0.00     0.029 A 
ATOM     58  C   UNL A   1      43.481  27.333  32.211  1.00  0.00     0.049 A 
ATOM     59  H   UNL A   1      41.927  28.418  31.280  1.00  0.00     0.167 HD
ATOM     60  C   UNL A   1      42.595  28.793  34.008  1.00  0.00     0.074 A 
ATOM     61  C   UNL A   1      42.552  29.279  35.372  1.00  0.00     0.031 C 
ATOM     62  C   UNL A   1      43.432  27.824  33.565  1.00  0.00     0.037 A 
BRANCH  49  63
ATOM     63  C   UNL A   1      42.765  26.477  27.569  1.00  0.00     0.064 A 
ATOM     64  C   UNL A   1      43.784  26.925  26.717  1.00  0.00     0.173 A 
ATOM     65  C   UNL A   1      42.218  25.207  27.312  1.00  0.00     0.173 A 
ATOM     66  F   UNL A   1      44.341  28.131  26.907  1.00  0.00    -0.203 F 
ATOM     67  C   UNL A   1      44.220  26.147  25.642  1.00  0.00     0.198 A 
ATOM     68  C   UNL A   1      42.674  24.420  26.256  1.00  0.00     0.198 A 
ATOM     69  F   UNL A   1      41.248  24.717  28.099  1.00  0.00    -0.203 F 
ATOM     70  F   UNL A   1      45.167  26.616  24.817  1.00  0.00    -0.200 F 
ATOM     71  C   UNL A   1      43.669  24.895  25.416  1.00  0.00     0.200 A 
ATOM     72  F   UNL A   1      42.150  23.204  26.053  1.00  0.00    -0.200 F 
ATOM     73  F   UNL A   1      44.092  24.147  24.387  1.00  0.00    -0.200 F 
ENDBRANCH  49  63
BRANCH  50  74
ATOM     74  C   UNL A   1      39.416  32.092  35.087  1.00  0.00     0.064 A 
ATOM     75  C   UNL A   1      38.556  31.517  36.031  1.00  0.00     0.173 A 
ATOM     76  C   UNL A   1      39.765  33.443  35.264  1.00  0.00     0.173 A 
ATOM     77  F   UNL A   1      38.161  30.243  35.889  1.00  0.00    -0.203 F 
ATOM     78  C   UNL A   1      38.076  32.258  37.111  1.00  0.00     0.198 A 
ATOM     79  C   UNL A   1      39.322  34.168  36.368  1.00  0.00     0.198 A 
ATOM     80  F   UNL A   1      40.576  34.050  34.385  1.00  0.00    -0.203 F 
ATOM     81  F   UNL A   1      37.224  31.696  37.978  1.00  0.00    -0.200 F 
ATOM     82  C   UNL A   1      38.472  33.576  37.287  1.00  0.00     0.200 A 
ATOM     83  F   UNL A   1      39.730  35.431  36.543  1.00  0.00    -0.200 F 
ATOM     84  F   UNL A   1      38.032  34.276  38.341  1.00  0.00    -0.200 F 
ENDBRANCH  50  74
BRANCH  62  85
ATOM     85  C   UNL A   1      44.406  27.265  34.558  1.00  0.00     0.064 A 
ATOM     86  C   UNL A   1      45.657  27.859  34.783  1.00  0.00     0.173 A 
ATOM     87  C   UNL A   1      44.079  26.116  35.294  1.00  0.00     0.173 A 
ATOM     88  F   UNL A   1      46.024  28.945  34.088  1.00  0.00    -0.203 F 
ATOM     89  C   UNL A   1      46.558  27.302  35.687  1.00  0.00     0.198 A 
ATOM     90  C   UNL A   1      44.970  25.581  36.220  1.00  0.00     0.198 A 
ATOM     91  F   UNL A   1      42.895  25.513  35.116  1.00  0.00    -0.203 F 
ATOM     92  F   UNL A   1      47.772  27.849  35.843  1.00  0.00    -0.200 F 
ATOM     93  C   UNL A   1      46.212  26.169  36.408  1.00  0.00     0.200 A 
ATOM     94  F   UNL A   1      44.629  24.493  36.922  1.00  0.00    -0.200 F 
ATOM     95  F   UNL A   1      47.081  25.634  37.276  1.00  0.00    -0.200 F 
ENDBRANCH  62  85
ENDBRANCH  36  37
ENDBRANCH  29  31
ENDBRANCH  28  29
ENDBRANCH  27  28
ENDBRANCH   1  27
TORSDOF 14
ENDMDL
