MODEL 1
REMARK VINA RESULT:     -14.3      0.000      0.000
REMARK SMILES CC1=Nc2c(c(C)nn2-c2ccc(F)cc2)[C@H](c2ccc(C(=O)OCCOC(=O)c3ccc(-c4c5nc(c(-c6c(F)c(F)c(F)c(F)c6F)c6ccc([nH]6)c(-c6c(F)c(F)c(F)c(F)c6F)c6nc(c(-c7c(F)c(F)c(F)c(F)c7F)c7ccc4[nH]7)C=C6)C=C5)cc3)cc2)S1
REMARK SMILES IDX 25 1 24 2 22 3 23 4 21 5 18 6 19 7 94 8 20 9 93 10 17 11
REMARK SMILES IDX 1 12 2 13 3 14 95 15 4 16 5 17 9 18 6 19 8 20 7 21 10 22
REMARK SMILES IDX 11 23 16 24 12 25 15 26 13 27 14 28 26 29 27 30 28 31 29 32
REMARK SMILES IDX 30 33 31 34 92 35 32 36 91 37 33 38 34 39 35 40 85 41 36 42
REMARK SMILES IDX 90 43 84 44 86 45 37 46 89 47 83 48 82 49 38 51 70 52 50 53
REMARK SMILES IDX 69 54 51 55 54 56 68 57 87 58 52 59 53 60 67 62 88 63 55 64
REMARK SMILES IDX 39 65 40 66 48 67 41 68 42 69 46 70 49 71 43 72 44 73 47 74
REMARK SMILES IDX 45 75 71 76 72 77 80 78 73 79 74 80 78 81 81 82 75 83 76 84
REMARK SMILES IDX 79 85 77 86 56 87 57 88 65 89 58 90 59 91 63 92 66 93 60 94
REMARK SMILES IDX 61 95 64 96 62 97
REMARK H PARENT 86 50 54 61
REMARK Flexibility Score: inf
ROOT
ATOM      1  C   UNL A   1      32.110  30.119  26.247  1.00  0.00     0.275 C 
ENDROOT
BRANCH   1   2
ATOM      2  O   UNL A   1      32.784  29.922  24.992  1.00  0.00    -0.458 OA
BRANCH   2   3
ATOM      3  C   UNL A   1      32.260  28.945  24.202  1.00  0.00     0.338 C 
ATOM      4  O   UNL A   1      31.640  29.119  23.173  1.00  0.00    -0.246 OA
BRANCH   3   5
ATOM      5  C   UNL A   1      32.614  27.589  24.710  1.00  0.00     0.060 A 
ATOM      6  C   UNL A   1      33.259  25.079  25.863  1.00  0.00    -0.030 A 
ATOM      7  C   UNL A   1      32.210  25.867  26.369  1.00  0.00     0.006 A 
ATOM      8  C   UNL A   1      33.928  25.547  24.716  1.00  0.00     0.006 A 
ATOM      9  C   UNL A   1      31.883  27.098  25.794  1.00  0.00     0.016 A 
ATOM     10  C   UNL A   1      33.621  26.797  24.154  1.00  0.00     0.016 A 
BRANCH   6  11
ATOM     11  C   UNL A   1      33.651  23.813  26.619  1.00  0.00     0.119 C 
ATOM     12  C   UNL A   1      37.324  22.733  25.086  1.00  0.00     0.075 C 
ATOM     13  C   UNL A   1      35.897  22.593  25.545  1.00  0.00     0.074 C 
ATOM     14  N   UNL A   1      35.135  21.760  24.912  1.00  0.00    -0.227 NA
ATOM     15  S   UNL A   1      35.445  23.628  26.894  1.00  0.00    -0.098 SA
ATOM     16  C   UNL A   1      33.821  21.723  25.233  1.00  0.00     0.161 A 
ATOM     17  C   UNL A   1      33.065  22.641  25.929  1.00  0.00     0.038 A 
ATOM     18  N   UNL A   1      32.948  20.729  24.817  1.00  0.00    -0.215 N 
ATOM     19  C   UNL A   1      31.737  22.140  25.861  1.00  0.00     0.067 A 
ATOM     20  N   UNL A   1      31.656  21.048  25.089  1.00  0.00    -0.171 NA
ATOM     21  C   UNL A   1      30.506  22.662  26.505  1.00  0.00     0.069 C 
BRANCH  18  22
ATOM     22  C   UNL A   1      33.276  19.485  24.223  1.00  0.00     0.067 A 
ATOM     23  C   UNL A   1      32.461  18.953  23.212  1.00  0.00     0.031 A 
ATOM     24  C   UNL A   1      34.419  18.797  24.650  1.00  0.00     0.031 A 
ATOM     25  C   UNL A   1      32.784  17.724  22.638  1.00  0.00     0.041 A 
ATOM     26  C   UNL A   1      34.704  17.542  24.109  1.00  0.00     0.041 A 
ATOM     27  C   UNL A   1      33.889  17.020  23.108  1.00  0.00     0.123 A 
ATOM     28  F   UNL A   1      34.171  15.820  22.585  1.00  0.00    -0.207 F 
ENDBRANCH  18  22
ENDBRANCH   6  11
ENDBRANCH   3   5
ENDBRANCH   2   3
ENDBRANCH   1   2
BRANCH   1  29
ATOM     29  C   UNL A   1      32.927  31.001  27.184  1.00  0.00     0.275 C 
BRANCH  29  30
ATOM     30  O   UNL A   1      34.314  30.659  27.168  1.00  0.00    -0.458 OA
BRANCH  30  31
ATOM     31  C   UNL A   1      35.131  31.568  27.742  1.00  0.00     0.338 C 
ATOM     32  O   UNL A   1      35.151  32.775  27.543  1.00  0.00    -0.246 OA
BRANCH  31  33
ATOM     33  C   UNL A   1      36.192  30.877  28.481  1.00  0.00     0.060 A 
ATOM     34  C   UNL A   1      37.115  31.676  29.166  1.00  0.00     0.016 A 
ATOM     35  C   UNL A   1      36.428  29.517  28.243  1.00  0.00     0.016 A 
ATOM     36  C   UNL A   1      38.357  31.154  29.459  1.00  0.00     0.010 A 
ATOM     37  C   UNL A   1      37.671  29.001  28.527  1.00  0.00     0.010 A 
ATOM     38  C   UNL A   1      38.644  29.846  29.063  1.00  0.00    -0.014 A 
BRANCH  38  39
ATOM     39  C   UNL A   1      39.987  29.338  29.276  1.00  0.00     0.031 A 
ATOM     40  C   UNL A   1      40.352  29.122  30.701  1.00  0.00     0.074 A 
ATOM     41  C   UNL A   1      40.740  28.924  28.239  1.00  0.00     0.049 A 
ATOM     42  N   UNL A   1      41.433  29.467  31.322  1.00  0.00    -0.248 NA
ATOM     43  C   UNL A   1      39.338  28.492  31.567  1.00  0.00     0.031 C 
ATOM     44  C   UNL A   1      40.346  28.823  26.829  1.00  0.00     0.029 A 
ATOM     45  N   UNL A   1      41.980  28.366  28.252  1.00  0.00    -0.354 N 
ATOM     46  C   UNL A   1      41.299  28.973  32.617  1.00  0.00     0.074 A 
ATOM     47  C   UNL A   1      39.953  28.482  32.745  1.00  0.00     0.031 C 
ATOM     48  C   UNL A   1      41.228  28.032  26.180  1.00  0.00     0.029 A 
ATOM     49  C   UNL A   1      42.293  27.663  27.098  1.00  0.00     0.049 A 
ATOM     50  H   UNL A   1      42.600  28.454  29.011  1.00  0.00     0.167 HD
ATOM     51  C   UNL A   1      42.364  28.817  33.446  1.00  0.00     0.037 A 
ATOM     52  C   UNL A   1      43.294  26.761  26.957  1.00  0.00     0.037 A 
ATOM     53  C   UNL A   1      43.463  29.659  33.073  1.00  0.00     0.049 A 
ATOM     54  C   UNL A   1      44.249  26.975  28.075  1.00  0.00     0.074 A 
ATOM     55  C   UNL A   1      43.631  31.027  32.980  1.00  0.00     0.029 A 
ATOM     56  N   UNL A   1      44.520  29.108  32.396  1.00  0.00    -0.354 N 
ATOM     57  N   UNL A   1      45.014  28.022  28.203  1.00  0.00    -0.248 NA
ATOM     58  C   UNL A   1      44.056  26.192  29.288  1.00  0.00     0.031 C 
ATOM     59  C   UNL A   1      44.490  31.221  31.861  1.00  0.00     0.029 A 
ATOM     60  C   UNL A   1      44.819  29.960  31.363  1.00  0.00     0.049 A 
ATOM     61  H   UNL A   1      44.977  28.262  32.611  1.00  0.00     0.167 HD
ATOM     62  C   UNL A   1      45.061  28.261  29.567  1.00  0.00     0.074 A 
ATOM     63  C   UNL A   1      44.543  27.047  30.188  1.00  0.00     0.031 C 
ATOM     64  C   UNL A   1      45.247  29.522  30.056  1.00  0.00     0.037 A 
BRANCH  51  65
ATOM     65  C   UNL A   1      42.491  27.671  34.411  1.00  0.00     0.064 A 
ATOM     66  C   UNL A   1      41.859  27.658  35.675  1.00  0.00     0.173 A 
ATOM     67  C   UNL A   1      43.014  26.441  33.975  1.00  0.00     0.173 A 
ATOM     68  F   UNL A   1      41.213  28.727  36.156  1.00  0.00    -0.203 F 
ATOM     69  C   UNL A   1      41.771  26.505  36.451  1.00  0.00     0.198 A 
ATOM     70  C   UNL A   1      42.874  25.275  34.731  1.00  0.00     0.198 A 
ATOM     71  F   UNL A   1      43.598  26.337  32.772  1.00  0.00    -0.203 F 
ATOM     72  F   UNL A   1      41.146  26.554  37.636  1.00  0.00    -0.200 F 
ATOM     73  C   UNL A   1      42.254  25.307  35.968  1.00  0.00     0.200 A 
ATOM     74  F   UNL A   1      43.288  24.104  34.230  1.00  0.00    -0.200 F 
ATOM     75  F   UNL A   1      42.074  24.182  36.670  1.00  0.00    -0.200 F 
ENDBRANCH  51  65
BRANCH  52  76
ATOM     76  C   UNL A   1      43.316  25.533  26.123  1.00  0.00     0.064 A 
ATOM     77  C   UNL A   1      42.403  24.478  26.325  1.00  0.00     0.173 A 
ATOM     78  C   UNL A   1      44.407  25.256  25.282  1.00  0.00     0.173 A 
ATOM     79  F   UNL A   1      41.375  24.603  27.174  1.00  0.00    -0.203 F 
ATOM     80  C   UNL A   1      42.577  23.226  25.734  1.00  0.00     0.198 A 
ATOM     81  C   UNL A   1      44.589  23.996  24.705  1.00  0.00     0.198 A 
ATOM     82  F   UNL A   1      45.347  26.188  25.069  1.00  0.00    -0.203 F 
ATOM     83  F   UNL A   1      41.704  22.242  25.994  1.00  0.00    -0.200 F 
ATOM     84  C   UNL A   1      43.678  22.979  24.938  1.00  0.00     0.200 A 
ATOM     85  F   UNL A   1      45.681  23.751  23.966  1.00  0.00    -0.200 F 
ATOM     86  F   UNL A   1      43.883  21.755  24.433  1.00  0.00    -0.200 F 
ENDBRANCH  52  76
BRANCH  64  87
ATOM     87  C   UNL A   1      45.660  30.596  29.091  1.00  0.00     0.064 A 
ATOM     88  C   UNL A   1      44.665  31.266  28.368  1.00  0.00     0.173 A 
ATOM     89  C   UNL A   1      46.997  30.859  28.745  1.00  0.00     0.173 A 
ATOM     90  F   UNL A   1      43.369  31.011  28.614  1.00  0.00    -0.203 F 
ATOM     91  C   UNL A   1      44.988  32.157  27.348  1.00  0.00     0.198 A 
ATOM     92  C   UNL A   1      47.320  31.779  27.751  1.00  0.00     0.198 A 
ATOM     93  F   UNL A   1      48.002  30.183  29.315  1.00  0.00    -0.203 F 
ATOM     94  F   UNL A   1      44.013  32.736  26.634  1.00  0.00    -0.200 F 
ATOM     95  C   UNL A   1      46.315  32.420  27.047  1.00  0.00     0.200 A 
ATOM     96  F   UNL A   1      48.605  32.017  27.445  1.00  0.00    -0.200 F 
ATOM     97  F   UNL A   1      46.624  33.269  26.057  1.00  0.00    -0.200 F 
ENDBRANCH  64  87
ENDBRANCH  38  39
ENDBRANCH  31  33
ENDBRANCH  30  31
ENDBRANCH  29  30
ENDBRANCH   1  29
TORSDOF 13
ENDMDL
MODEL 2
REMARK VINA RESULT:     -14.1      4.679      9.237
REMARK SMILES CC1=Nc2c(c(C)nn2-c2ccc(F)cc2)[C@H](c2ccc(C(=O)OCCOC(=O)c3ccc(-c4c5nc(c(-c6c(F)c(F)c(F)c(F)c6F)c6ccc([nH]6)c(-c6c(F)c(F)c(F)c(F)c6F)c6nc(c(-c7c(F)c(F)c(F)c(F)c7F)c7ccc4[nH]7)C=C6)C=C5)cc3)cc2)S1
REMARK SMILES IDX 25 1 24 2 22 3 23 4 21 5 18 6 19 7 94 8 20 9 93 10 17 11
REMARK SMILES IDX 1 12 2 13 3 14 95 15 4 16 5 17 9 18 6 19 8 20 7 21 10 22
REMARK SMILES IDX 11 23 16 24 12 25 15 26 13 27 14 28 26 29 27 30 28 31 29 32
REMARK SMILES IDX 30 33 31 34 92 35 32 36 91 37 33 38 34 39 35 40 85 41 36 42
REMARK SMILES IDX 90 43 84 44 86 45 37 46 89 47 83 48 82 49 38 51 70 52 50 53
REMARK SMILES IDX 69 54 51 55 54 56 68 57 87 58 52 59 53 60 67 62 88 63 55 64
REMARK SMILES IDX 39 65 40 66 48 67 41 68 42 69 46 70 49 71 43 72 44 73 47 74
REMARK SMILES IDX 45 75 71 76 72 77 80 78 73 79 74 80 78 81 81 82 75 83 76 84
REMARK SMILES IDX 79 85 77 86 56 87 57 88 65 89 58 90 59 91 63 92 66 93 60 94
REMARK SMILES IDX 61 95 64 96 62 97
REMARK H PARENT 86 50 54 61
REMARK Flexibility Score: inf
ROOT
ATOM      1  C   UNL A   1      34.285  33.886  29.724  1.00  0.00     0.275 C 
ENDROOT
BRANCH   1   2
ATOM      2  O   UNL A   1      34.160  32.779  30.633  1.00  0.00    -0.458 OA
BRANCH   2   3
ATOM      3  C   UNL A   1      34.457  33.061  31.931  1.00  0.00     0.338 C 
ATOM      4  O   UNL A   1      33.657  33.356  32.796  1.00  0.00    -0.246 OA
BRANCH   3   5
ATOM      5  C   UNL A   1      35.910  32.880  32.208  1.00  0.00     0.060 A 
ATOM      6  C   UNL A   1      38.626  32.398  32.873  1.00  0.00    -0.030 A 
ATOM      7  C   UNL A   1      37.695  31.346  32.795  1.00  0.00     0.006 A 
ATOM      8  C   UNL A   1      38.176  33.689  32.536  1.00  0.00     0.006 A 
ATOM      9  C   UNL A   1      36.360  31.580  32.455  1.00  0.00     0.016 A 
ATOM     10  C   UNL A   1      36.829  33.932  32.222  1.00  0.00     0.016 A 
BRANCH   6  11
ATOM     11  C   UNL A   1      40.031  32.093  33.382  1.00  0.00     0.119 C 
ATOM     12  C   UNL A   1      40.064  33.372  37.302  1.00  0.00     0.075 C 
ATOM     13  C   UNL A   1      40.517  33.200  35.877  1.00  0.00     0.074 C 
ATOM     14  N   UNL A   1      41.133  34.189  35.312  1.00  0.00    -0.227 NA
ATOM     15  S   UNL A   1      40.111  31.650  35.150  1.00  0.00    -0.098 SA
ATOM     16  C   UNL A   1      41.427  34.092  33.994  1.00  0.00     0.161 A 
ATOM     17  C   UNL A   1      40.920  33.230  33.046  1.00  0.00     0.038 A 
ATOM     18  N   UNL A   1      42.283  34.953  33.325  1.00  0.00    -0.215 N 
ATOM     19  C   UNL A   1      41.499  33.659  31.822  1.00  0.00     0.067 A 
ATOM     20  N   UNL A   1      42.229  34.771  31.980  1.00  0.00    -0.171 NA
ATOM     21  C   UNL A   1      41.388  33.053  30.472  1.00  0.00     0.069 C 
BRANCH  18  22
ATOM     22  C   UNL A   1      43.175  35.896  33.892  1.00  0.00     0.067 A 
ATOM     23  C   UNL A   1      44.458  35.495  34.296  1.00  0.00     0.031 A 
ATOM     24  C   UNL A   1      42.768  37.228  34.042  1.00  0.00     0.031 A 
ATOM     25  C   UNL A   1      45.328  36.426  34.862  1.00  0.00     0.041 A 
ATOM     26  C   UNL A   1      43.625  38.140  34.660  1.00  0.00     0.041 A 
ATOM     27  C   UNL A   1      44.895  37.733  35.060  1.00  0.00     0.123 A 
ATOM     28  F   UNL A   1      45.718  38.614  35.644  1.00  0.00    -0.207 F 
ENDBRANCH  18  22
ENDBRANCH   6  11
ENDBRANCH   3   5
ENDBRANCH   2   3
ENDBRANCH   1   2
BRANCH   1  29
ATOM     29  C   UNL A   1      34.075  33.446  28.280  1.00  0.00     0.275 C 
BRANCH  29  30
ATOM     30  O   UNL A   1      35.231  32.802  27.743  1.00  0.00    -0.458 OA
BRANCH  30  31
ATOM     31  C   UNL A   1      35.158  31.454  27.689  1.00  0.00     0.338 C 
ATOM     32  O   UNL A   1      34.238  30.780  27.245  1.00  0.00    -0.246 OA
BRANCH  31  33
ATOM     33  C   UNL A   1      36.248  30.871  28.477  1.00  0.00     0.060 A 
ATOM     34  C   UNL A   1      37.246  31.744  28.926  1.00  0.00     0.016 A 
ATOM     35  C   UNL A   1      36.420  29.481  28.497  1.00  0.00     0.016 A 
ATOM     36  C   UNL A   1      38.489  31.231  29.232  1.00  0.00     0.010 A 
ATOM     37  C   UNL A   1      37.664  28.972  28.793  1.00  0.00     0.010 A 
ATOM     38  C   UNL A   1      38.702  29.858  29.084  1.00  0.00    -0.014 A 
BRANCH  38  39
ATOM     39  C   UNL A   1      40.040  29.339  29.303  1.00  0.00     0.031 A 
ATOM     40  C   UNL A   1      40.390  29.101  30.728  1.00  0.00     0.074 A 
ATOM     41  C   UNL A   1      40.799  28.934  28.266  1.00  0.00     0.049 A 
ATOM     42  N   UNL A   1      41.467  29.431  31.363  1.00  0.00    -0.248 NA
ATOM     43  C   UNL A   1      39.364  28.466  31.575  1.00  0.00     0.031 C 
ATOM     44  C   UNL A   1      40.418  28.855  26.852  1.00  0.00     0.029 A 
ATOM     45  N   UNL A   1      42.036  28.369  28.283  1.00  0.00    -0.354 N 
ATOM     46  C   UNL A   1      41.319  28.920  32.649  1.00  0.00     0.074 A 
ATOM     47  C   UNL A   1      39.969  28.436  32.759  1.00  0.00     0.031 C 
ATOM     48  C   UNL A   1      41.300  28.068  26.200  1.00  0.00     0.029 A 
ATOM     49  C   UNL A   1      42.354  27.680  27.122  1.00  0.00     0.049 A 
ATOM     50  H   UNL A   1      42.650  28.442  29.049  1.00  0.00     0.167 HD
ATOM     51  C   UNL A   1      42.376  28.746  33.486  1.00  0.00     0.037 A 
ATOM     52  C   UNL A   1      43.351  26.773  26.977  1.00  0.00     0.037 A 
ATOM     53  C   UNL A   1      43.483  29.586  33.134  1.00  0.00     0.049 A 
ATOM     54  C   UNL A   1      44.297  26.965  28.107  1.00  0.00     0.074 A 
ATOM     55  C   UNL A   1      43.660  30.954  33.062  1.00  0.00     0.029 A 
ATOM     56  N   UNL A   1      44.543  29.037  32.459  1.00  0.00    -0.354 N 
ATOM     57  N   UNL A   1      45.068  28.006  28.256  1.00  0.00    -0.248 NA
ATOM     58  C   UNL A   1      44.089  26.167  29.307  1.00  0.00     0.031 C 
ATOM     59  C   UNL A   1      44.531  31.157  31.953  1.00  0.00     0.029 A 
ATOM     60  C   UNL A   1      44.856  29.901  31.440  1.00  0.00     0.049 A 
ATOM     61  H   UNL A   1      44.993  28.186  32.666  1.00  0.00     0.167 HD
ATOM     62  C   UNL A   1      45.104  28.226  29.624  1.00  0.00     0.074 A 
ATOM     63  C   UNL A   1      44.573  27.007  30.223  1.00  0.00     0.031 C 
ATOM     64  C   UNL A   1      45.294  29.478  30.131  1.00  0.00     0.037 A 
BRANCH  51  65
ATOM     65  C   UNL A   1      42.487  27.586  34.436  1.00  0.00     0.064 A 
ATOM     66  C   UNL A   1      41.850  27.562  35.697  1.00  0.00     0.173 A 
ATOM     67  C   UNL A   1      42.999  26.357  33.986  1.00  0.00     0.173 A 
ATOM     68  F   UNL A   1      41.213  28.632  36.190  1.00  0.00    -0.203 F 
ATOM     69  C   UNL A   1      41.746  26.401  36.457  1.00  0.00     0.198 A 
ATOM     70  C   UNL A   1      42.844  25.181  34.726  1.00  0.00     0.198 A 
ATOM     71  F   UNL A   1      43.586  26.262  32.784  1.00  0.00    -0.203 F 
ATOM     72  F   UNL A   1      41.117  26.440  37.641  1.00  0.00    -0.200 F 
ATOM     73  C   UNL A   1      42.219  25.204  35.960  1.00  0.00     0.200 A 
ATOM     74  F   UNL A   1      43.247  24.013  34.210  1.00  0.00    -0.200 F 
ATOM     75  F   UNL A   1      42.024  24.071  36.646  1.00  0.00    -0.200 F 
ENDBRANCH  51  65
BRANCH  52  76
ATOM     76  C   UNL A   1      43.372  25.557  26.126  1.00  0.00     0.064 A 
ATOM     77  C   UNL A   1      42.437  24.515  26.290  1.00  0.00     0.173 A 
ATOM     78  C   UNL A   1      44.480  25.272  25.311  1.00  0.00     0.173 A 
ATOM     79  F   UNL A   1      41.389  24.648  27.114  1.00  0.00    -0.203 F 
ATOM     80  C   UNL A   1      42.604  23.268  25.686  1.00  0.00     0.198 A 
ATOM     81  C   UNL A   1      44.654  24.016  24.720  1.00  0.00     0.198 A 
ATOM     82  F   UNL A   1      45.442  26.189  25.135  1.00  0.00    -0.203 F 
ATOM     83  F   UNL A   1      41.706  22.297  25.910  1.00  0.00    -0.200 F 
ATOM     84  C   UNL A   1      43.721  23.013  24.915  1.00  0.00     0.200 A 
ATOM     85  F   UNL A   1      45.760  23.762  24.007  1.00  0.00    -0.200 F 
ATOM     86  F   UNL A   1      43.916  21.792  24.398  1.00  0.00    -0.200 F 
ENDBRANCH  52  76
BRANCH  64  87
ATOM     87  C   UNL A   1      45.722  30.563  29.185  1.00  0.00     0.064 A 
ATOM     88  C   UNL A   1      44.737  31.252  28.466  1.00  0.00     0.173 A 
ATOM     89  C   UNL A   1      47.063  30.820  28.851  1.00  0.00     0.173 A 
ATOM     90  F   UNL A   1      43.438  31.005  28.700  1.00  0.00    -0.203 F 
ATOM     91  C   UNL A   1      45.075  32.155  27.462  1.00  0.00     0.198 A 
ATOM     92  C   UNL A   1      47.401  31.751  27.873  1.00  0.00     0.198 A 
ATOM     93  F   UNL A   1      48.059  30.126  29.418  1.00  0.00    -0.203 F 
ATOM     94  F   UNL A   1      44.109  32.753  26.750  1.00  0.00    -0.200 F 
ATOM     95  C   UNL A   1      46.406  32.412  27.173  1.00  0.00     0.200 A 
ATOM     96  F   UNL A   1      48.690  31.983  27.579  1.00  0.00    -0.200 F 
ATOM     97  F   UNL A   1      46.728  33.272  26.197  1.00  0.00    -0.200 F 
ENDBRANCH  64  87
ENDBRANCH  38  39
ENDBRANCH  31  33
ENDBRANCH  30  31
ENDBRANCH  29  30
ENDBRANCH   1  29
TORSDOF 13
ENDMDL
MODEL 3
REMARK VINA RESULT:     -14.1      1.555      2.128
REMARK SMILES CC1=Nc2c(c(C)nn2-c2ccc(F)cc2)[C@H](c2ccc(C(=O)OCCOC(=O)c3ccc(-c4c5nc(c(-c6c(F)c(F)c(F)c(F)c6F)c6ccc([nH]6)c(-c6c(F)c(F)c(F)c(F)c6F)c6nc(c(-c7c(F)c(F)c(F)c(F)c7F)c7ccc4[nH]7)C=C6)C=C5)cc3)cc2)S1
REMARK SMILES IDX 25 1 24 2 22 3 23 4 21 5 18 6 19 7 94 8 20 9 93 10 17 11
REMARK SMILES IDX 1 12 2 13 3 14 95 15 4 16 5 17 9 18 6 19 8 20 7 21 10 22
REMARK SMILES IDX 11 23 16 24 12 25 15 26 13 27 14 28 26 29 27 30 28 31 29 32
REMARK SMILES IDX 30 33 31 34 92 35 32 36 91 37 33 38 34 39 35 40 85 41 36 42
REMARK SMILES IDX 90 43 84 44 86 45 37 46 89 47 83 48 82 49 38 51 70 52 50 53
REMARK SMILES IDX 69 54 51 55 54 56 68 57 87 58 52 59 53 60 67 62 88 63 55 64
REMARK SMILES IDX 39 65 40 66 48 67 41 68 42 69 46 70 49 71 43 72 44 73 47 74
REMARK SMILES IDX 45 75 71 76 72 77 80 78 73 79 74 80 78 81 81 82 75 83 76 84
REMARK SMILES IDX 79 85 77 86 56 87 57 88 65 89 58 90 59 91 63 92 66 93 60 94
REMARK SMILES IDX 61 95 64 96 62 97
REMARK H PARENT 86 50 54 61
REMARK Flexibility Score: inf
ROOT
ATOM      1  C   UNL A   1      31.964  30.468  26.822  1.00  0.00     0.275 C 
ENDROOT
BRANCH   1   2
ATOM      2  O   UNL A   1      32.368  29.744  25.647  1.00  0.00    -0.458 OA
BRANCH   2   3
ATOM      3  C   UNL A   1      31.348  29.313  24.855  1.00  0.00     0.338 C 
ATOM      4  O   UNL A   1      30.578  30.022  24.239  1.00  0.00    -0.246 OA
BRANCH   3   5
ATOM      5  C   UNL A   1      31.329  27.826  24.755  1.00  0.00     0.060 A 
ATOM      6  C   UNL A   1      31.487  24.997  24.616  1.00  0.00    -0.030 A 
ATOM      7  C   UNL A   1      32.141  25.717  25.634  1.00  0.00     0.006 A 
ATOM      8  C   UNL A   1      30.691  25.727  23.714  1.00  0.00     0.006 A 
ATOM      9  C   UNL A   1      32.053  27.108  25.711  1.00  0.00     0.016 A 
ATOM     10  C   UNL A   1      30.624  27.129  23.772  1.00  0.00     0.016 A 
BRANCH   6  11
ATOM     11  C   UNL A   1      31.735  23.495  24.509  1.00  0.00     0.119 C 
ATOM     12  C   UNL A   1      32.672  22.279  28.336  1.00  0.00     0.075 C 
ATOM     13  C   UNL A   1      32.784  22.427  26.842  1.00  0.00     0.074 C 
ATOM     14  N   UNL A   1      33.970  22.475  26.324  1.00  0.00    -0.227 NA
ATOM     15  S   UNL A   1      31.250  22.547  25.991  1.00  0.00    -0.098 SA
ATOM     16  C   UNL A   1      34.080  22.738  25.001  1.00  0.00     0.161 A 
ATOM     17  C   UNL A   1      33.149  23.267  24.134  1.00  0.00     0.038 A 
ATOM     18  N   UNL A   1      35.251  22.583  24.274  1.00  0.00    -0.215 N 
ATOM     19  C   UNL A   1      33.849  23.429  22.909  1.00  0.00     0.067 A 
ATOM     20  N   UNL A   1      35.147  23.123  23.033  1.00  0.00    -0.171 NA
ATOM     21  C   UNL A   1      33.335  23.876  21.590  1.00  0.00     0.069 C 
BRANCH  18  22
ATOM     22  C   UNL A   1      36.433  21.914  24.676  1.00  0.00     0.067 A 
ATOM     23  C   UNL A   1      36.534  20.520  24.535  1.00  0.00     0.031 A 
ATOM     24  C   UNL A   1      37.498  22.652  25.209  1.00  0.00     0.031 A 
ATOM     25  C   UNL A   1      37.696  19.866  24.941  1.00  0.00     0.041 A 
ATOM     26  C   UNL A   1      38.635  21.982  25.663  1.00  0.00     0.041 A 
ATOM     27  C   UNL A   1      38.726  20.600  25.522  1.00  0.00     0.123 A 
ATOM     28  F   UNL A   1      39.824  19.963  25.950  1.00  0.00    -0.207 F 
ENDBRANCH  18  22
ENDBRANCH   6  11
ENDBRANCH   3   5
ENDBRANCH   2   3
ENDBRANCH   1   2
BRANCH   1  29
ATOM     29  C   UNL A   1      33.037  31.457  27.261  1.00  0.00     0.275 C 
BRANCH  29  30
ATOM     30  O   UNL A   1      34.299  30.821  27.471  1.00  0.00    -0.458 OA
BRANCH  30  31
ATOM     31  C   UNL A   1      35.300  31.651  27.833  1.00  0.00     0.338 C 
ATOM     32  O   UNL A   1      35.469  32.809  27.475  1.00  0.00    -0.246 OA
BRANCH  31  33
ATOM     33  C   UNL A   1      36.333  30.892  28.545  1.00  0.00     0.060 A 
ATOM     34  C   UNL A   1      37.239  31.623  29.322  1.00  0.00     0.016 A 
ATOM     35  C   UNL A   1      36.569  29.554  28.202  1.00  0.00     0.016 A 
ATOM     36  C   UNL A   1      38.469  31.068  29.609  1.00  0.00     0.010 A 
ATOM     37  C   UNL A   1      37.799  29.005  28.480  1.00  0.00     0.010 A 
ATOM     38  C   UNL A   1      38.760  29.794  29.115  1.00  0.00    -0.014 A 
BRANCH  38  39
ATOM     39  C   UNL A   1      40.092  29.259  29.327  1.00  0.00     0.031 A 
ATOM     40  C   UNL A   1      40.451  29.028  30.751  1.00  0.00     0.074 A 
ATOM     41  C   UNL A   1      40.837  28.835  28.288  1.00  0.00     0.049 A 
ATOM     42  N   UNL A   1      41.537  29.349  31.375  1.00  0.00    -0.248 NA
ATOM     43  C   UNL A   1      39.423  28.414  31.612  1.00  0.00     0.031 C 
ATOM     44  C   UNL A   1      40.444  28.750  26.877  1.00  0.00     0.029 A 
ATOM     45  N   UNL A   1      42.067  28.253  28.300  1.00  0.00    -0.354 N 
ATOM     46  C   UNL A   1      41.392  28.850  32.667  1.00  0.00     0.074 A 
ATOM     47  C   UNL A   1      40.037  28.386  32.791  1.00  0.00     0.031 C 
ATOM     48  C   UNL A   1      41.310  27.945  26.225  1.00  0.00     0.029 A 
ATOM     49  C   UNL A   1      42.367  27.551  27.142  1.00  0.00     0.049 A 
ATOM     50  H   UNL A   1      42.688  28.325  29.060  1.00  0.00     0.167 HD
ATOM     51  C   UNL A   1      42.453  28.669  33.496  1.00  0.00     0.037 A 
ATOM     52  C   UNL A   1      43.350  26.629  26.997  1.00  0.00     0.037 A 
ATOM     53  C   UNL A   1      43.569  29.491  33.129  1.00  0.00     0.049 A 
ATOM     54  C   UNL A   1      44.308  26.818  28.117  1.00  0.00     0.074 A 
ATOM     55  C   UNL A   1      43.764  30.856  33.043  1.00  0.00     0.029 A 
ATOM     56  N   UNL A   1      44.616  28.922  32.450  1.00  0.00    -0.354 N 
ATOM     57  N   UNL A   1      45.094  27.849  28.251  1.00  0.00    -0.248 NA
ATOM     58  C   UNL A   1      44.098  26.032  29.326  1.00  0.00     0.031 C 
ATOM     59  C   UNL A   1      44.629  31.038  31.926  1.00  0.00     0.029 A 
ATOM     60  C   UNL A   1      44.933  29.774  31.422  1.00  0.00     0.049 A 
ATOM     61  H   UNL A   1      45.056  28.067  32.661  1.00  0.00     0.167 HD
ATOM     62  C   UNL A   1      45.143  28.080  29.618  1.00  0.00     0.074 A 
ATOM     63  C   UNL A   1      44.601  26.874  30.231  1.00  0.00     0.031 C 
ATOM     64  C   UNL A   1      45.354  29.334  30.113  1.00  0.00     0.037 A 
BRANCH  51  65
ATOM     65  C   UNL A   1      42.556  27.516  34.455  1.00  0.00     0.064 A 
ATOM     66  C   UNL A   1      41.924  27.508  35.719  1.00  0.00     0.173 A 
ATOM     67  C   UNL A   1      43.055  26.278  34.013  1.00  0.00     0.173 A 
ATOM     68  F   UNL A   1      41.300  28.589  36.205  1.00  0.00    -0.203 F 
ATOM     69  C   UNL A   1      41.812  26.354  36.489  1.00  0.00     0.198 A 
ATOM     70  C   UNL A   1      42.890  25.110  34.763  1.00  0.00     0.198 A 
ATOM     71  F   UNL A   1      43.636  26.167  32.810  1.00  0.00    -0.203 F 
ATOM     72  F   UNL A   1      41.187  26.409  37.674  1.00  0.00    -0.200 F 
ATOM     73  C   UNL A   1      42.271  25.149  35.999  1.00  0.00     0.200 A 
ATOM     74  F   UNL A   1      43.281  23.934  34.255  1.00  0.00    -0.200 F 
ATOM     75  F   UNL A   1      42.068  24.023  36.695  1.00  0.00    -0.200 F 
ENDBRANCH  51  65
BRANCH  52  76
ATOM     76  C   UNL A   1      43.348  25.406  26.156  1.00  0.00     0.064 A 
ATOM     77  C   UNL A   1      42.465  24.334  26.400  1.00  0.00     0.173 A 
ATOM     78  C   UNL A   1      44.398  25.151  25.259  1.00  0.00     0.173 A 
ATOM     79  F   UNL A   1      41.481  24.439  27.303  1.00  0.00    -0.203 F 
ATOM     80  C   UNL A   1      42.629  23.088  25.794  1.00  0.00     0.198 A 
ATOM     81  C   UNL A   1      44.570  23.896  24.666  1.00  0.00     0.198 A 
ATOM     82  F   UNL A   1      45.311  26.099  25.002  1.00  0.00    -0.203 F 
ATOM     83  F   UNL A   1      41.786  22.089  26.095  1.00  0.00    -0.200 F 
ATOM     84  C   UNL A   1      43.691  22.864  24.940  1.00  0.00     0.200 A 
ATOM     85  F   UNL A   1      45.626  23.673  23.870  1.00  0.00    -0.200 F 
ATOM     86  F   UNL A   1      43.888  21.645  24.419  1.00  0.00    -0.200 F 
ENDBRANCH  52  76
BRANCH  64  87
ATOM     87  C   UNL A   1      45.789  30.405  29.154  1.00  0.00     0.064 A 
ATOM     88  C   UNL A   1      44.808  31.098  28.434  1.00  0.00     0.173 A 
ATOM     89  C   UNL A   1      47.132  30.644  28.811  1.00  0.00     0.173 A 
ATOM     90  F   UNL A   1      43.508  30.867  28.676  1.00  0.00    -0.203 F 
ATOM     91  C   UNL A   1      45.150  31.988  27.419  1.00  0.00     0.198 A 
ATOM     92  C   UNL A   1      47.474  31.562  27.823  1.00  0.00     0.198 A 
ATOM     93  F   UNL A   1      48.122  29.945  29.379  1.00  0.00    -0.203 F 
ATOM     94  F   UNL A   1      44.188  32.590  26.707  1.00  0.00    -0.200 F 
ATOM     95  C   UNL A   1      46.483  32.227  27.121  1.00  0.00     0.200 A 
ATOM     96  F   UNL A   1      48.764  31.777  27.520  1.00  0.00    -0.200 F 
ATOM     97  F   UNL A   1      46.809  33.075  26.135  1.00  0.00    -0.200 F 
ENDBRANCH  64  87
ENDBRANCH  38  39
ENDBRANCH  31  33
ENDBRANCH  30  31
ENDBRANCH  29  30
ENDBRANCH   1  29
TORSDOF 13
ENDMDL
