MODEL 1
REMARK VINA RESULT:     -13.6      0.000      0.000
REMARK SMILES Cc1ccc2[nH]cc([C@@H](C(=O)OCCOC(=O)c3ccc(-c4c5nc(c(-c6c(F)c(F)c(F)c(F)c6F)c6ccc([nH]6)c(-c6c(F)c(F)c(F)c(F)c6F)c6nc(c(-c7c(F)c(F)c(F)c(F)c7F)c7ccc4[nH]7)C=C6)C=C5)cc3)[NH+]3CCN(c4cccc(Cl)c4)CC3)c2c1
REMARK SMILES IDX 13 1 12 2 10 3 11 4 9 5 8 6 1 7 2 8 3 9 95 10 4 11 94 12
REMARK SMILES IDX 5 13 6 14 7 15 81 17 82 18 93 19 83 21 92 22 84 23 85 24
REMARK SMILES IDX 86 25 91 26 87 27 89 28 88 29 90 30 14 31 15 32 16 33 17 34
REMARK SMILES IDX 18 35 19 36 80 37 20 38 79 39 21 40 22 41 23 42 73 43 24 44
REMARK SMILES IDX 78 45 72 46 74 47 25 48 77 49 71 50 70 51 26 53 58 54 38 55
REMARK SMILES IDX 57 56 39 57 42 58 56 59 75 60 40 61 41 62 55 64 76 65 43 66
REMARK SMILES IDX 27 67 28 68 36 69 29 70 30 71 34 72 37 73 31 74 32 75 35 76
REMARK SMILES IDX 33 77 59 78 60 79 68 80 61 81 62 82 66 83 69 84 63 85 64 86
REMARK SMILES IDX 67 87 65 88 44 89 45 90 53 91 46 92 47 93 51 94 54 95 48 96
REMARK SMILES IDX 49 97 52 98 50 99
REMARK H PARENT 6 16 81 20 74 52 42 63
REMARK Flexibility Score: inf
ROOT
ATOM      1  C   UNL A   1      31.960  28.374  27.026  1.00  0.00     0.274 C 
ENDROOT
BRANCH   1   2
ATOM      2  O   UNL A   1      31.429  27.415  26.088  1.00  0.00    -0.457 OA
BRANCH   2   3
ATOM      3  C   UNL A   1      32.194  27.139  24.992  1.00  0.00     0.370 C 
ATOM      4  O   UNL A   1      33.392  27.407  24.923  1.00  0.00    -0.245 OA
BRANCH   3   5
ATOM      5  C   UNL A   1      31.392  26.524  23.818  1.00  0.00     0.328 C 
BRANCH   5   6
ATOM      6  C   UNL A   1      29.905  26.763  23.824  1.00  0.00     0.046 A 
ATOM      7  C   UNL A   1      29.396  31.704  22.597  1.00  0.00     0.044 C 
ATOM      8  C   UNL A   1      28.864  30.324  22.850  1.00  0.00    -0.050 A 
ATOM      9  C   UNL A   1      27.494  30.056  22.799  1.00  0.00     0.005 A 
ATOM     10  C   UNL A   1      29.759  29.294  23.174  1.00  0.00     0.014 A 
ATOM     11  C   UNL A   1      26.985  28.788  23.107  1.00  0.00     0.027 A 
ATOM     12  C   UNL A   1      29.274  28.008  23.488  1.00  0.00     0.009 A 
ATOM     13  C   UNL A   1      27.898  27.795  23.474  1.00  0.00     0.046 A 
ATOM     14  N   UNL A   1      27.686  26.499  23.877  1.00  0.00    -0.361 N 
ATOM     15  C   UNL A   1      28.881  25.886  24.141  1.00  0.00     0.094 A 
ATOM     16  H   UNL A   1      26.803  26.073  23.964  1.00  0.00     0.166 HD
ENDBRANCH   5   6
BRANCH   5  17
ATOM     17  N   UNL A   1      31.731  25.095  23.631  1.00  0.00    -0.316 N 
ATOM     18  C   UNL A   1      32.764  24.767  22.645  1.00  0.00     0.284 C 
ATOM     19  C   UNL A   1      31.859  24.283  24.851  1.00  0.00     0.284 C 
ATOM     20  H   UNL A   1      30.858  24.800  23.193  1.00  0.00     0.349 HD
ATOM     21  C   UNL A   1      34.197  24.502  23.140  1.00  0.00     0.178 C 
ATOM     22  C   UNL A   1      33.293  24.033  25.388  1.00  0.00     0.178 C 
ATOM     23  N   UNL A   1      34.187  23.610  24.299  1.00  0.00    -0.360 N 
BRANCH  23  24
ATOM     24  C   UNL A   1      35.400  23.037  24.664  1.00  0.00     0.038 A 
ATOM     25  C   UNL A   1      35.659  21.665  24.522  1.00  0.00     0.026 A 
ATOM     26  C   UNL A   1      36.391  23.841  25.238  1.00  0.00     0.046 A 
ATOM     27  C   UNL A   1      36.858  21.104  24.969  1.00  0.00     0.004 A 
ATOM     28  C   UNL A   1      37.586  23.280  25.693  1.00  0.00     0.043 A 
ATOM     29  C   UNL A   1      37.821  21.913  25.565  1.00  0.00     0.020 A 
ATOM     30  Cl  UNL A   1      38.771  24.280  26.438  1.00  0.00    -0.084 Cl
ENDBRANCH  23  24
ENDBRANCH   5  17
ENDBRANCH   3   5
ENDBRANCH   2   3
ENDBRANCH   1   2
BRANCH   1  31
ATOM     31  C   UNL A   1      31.690  29.797  26.543  1.00  0.00     0.275 C 
BRANCH  31  32
ATOM     32  O   UNL A   1      32.939  30.436  26.231  1.00  0.00    -0.458 OA
BRANCH  32  33
ATOM     33  C   UNL A   1      33.337  31.422  27.061  1.00  0.00     0.338 C 
ATOM     34  O   UNL A   1      32.697  32.424  27.368  1.00  0.00    -0.246 OA
BRANCH  33  35
ATOM     35  C   UNL A   1      34.674  31.123  27.622  1.00  0.00     0.060 A 
ATOM     36  C   UNL A   1      35.038  29.820  27.967  1.00  0.00     0.016 A 
ATOM     37  C   UNL A   1      35.536  32.177  27.934  1.00  0.00     0.016 A 
ATOM     38  C   UNL A   1      36.193  29.588  28.716  1.00  0.00     0.010 A 
ATOM     39  C   UNL A   1      36.749  31.925  28.586  1.00  0.00     0.010 A 
ATOM     40  C   UNL A   1      37.081  30.629  29.017  1.00  0.00    -0.014 A 
BRANCH  40  41
ATOM     41  C   UNL A   1      38.341  30.384  29.781  1.00  0.00     0.031 A 
ATOM     42  C   UNL A   1      39.437  29.534  29.191  1.00  0.00     0.074 A 
ATOM     43  C   UNL A   1      38.516  30.898  31.015  1.00  0.00     0.049 A 
ATOM     44  N   UNL A   1      40.428  28.923  29.791  1.00  0.00    -0.248 NA
ATOM     45  C   UNL A   1      39.401  29.326  27.735  1.00  0.00     0.031 C 
ATOM     46  C   UNL A   1      37.594  31.801  31.704  1.00  0.00     0.029 A 
ATOM     47  N   UNL A   1      39.536  30.720  31.920  1.00  0.00    -0.354 N 
ATOM     48  C   UNL A   1      41.084  28.198  28.804  1.00  0.00     0.074 A 
ATOM     49  C   UNL A   1      40.394  28.463  27.558  1.00  0.00     0.031 C 
ATOM     50  C   UNL A   1      38.103  32.128  32.900  1.00  0.00     0.029 A 
ATOM     51  C   UNL A   1      39.325  31.363  33.115  1.00  0.00     0.049 A 
ATOM     52  H   UNL A   1      40.341  30.184  31.729  1.00  0.00     0.167 HD
ATOM     53  C   UNL A   1      42.155  27.377  28.934  1.00  0.00     0.037 A 
ATOM     54  C   UNL A   1      39.988  31.295  34.285  1.00  0.00     0.037 A 
ATOM     55  C   UNL A   1      42.888  27.185  30.160  1.00  0.00     0.049 A 
ATOM     56  C   UNL A   1      41.154  30.363  34.417  1.00  0.00     0.074 A 
ATOM     57  C   UNL A   1      43.986  26.374  30.395  1.00  0.00     0.029 A 
ATOM     58  N   UNL A   1      42.617  27.841  31.351  1.00  0.00    -0.354 N 
ATOM     59  N   UNL A   1      41.683  29.569  33.519  1.00  0.00    -0.248 NA
ATOM     60  C   UNL A   1      41.793  30.287  35.739  1.00  0.00     0.031 C 
ATOM     61  C   UNL A   1      44.366  26.524  31.733  1.00  0.00     0.029 A 
ATOM     62  C   UNL A   1      43.526  27.454  32.323  1.00  0.00     0.049 A 
ATOM     63  H   UNL A   1      41.885  28.486  31.488  1.00  0.00     0.167 HD
ATOM     64  C   UNL A   1      42.714  28.901  34.163  1.00  0.00     0.074 A 
ATOM     65  C   UNL A   1      42.751  29.396  35.523  1.00  0.00     0.031 C 
ATOM     66  C   UNL A   1      43.548  27.954  33.672  1.00  0.00     0.037 A 
BRANCH  53  67
ATOM     67  C   UNL A   1      42.583  26.585  27.735  1.00  0.00     0.064 A 
ATOM     68  C   UNL A   1      43.534  27.063  26.824  1.00  0.00     0.173 A 
ATOM     69  C   UNL A   1      42.077  25.289  27.537  1.00  0.00     0.173 A 
ATOM     70  F   UNL A   1      44.038  28.298  26.961  1.00  0.00    -0.203 F 
ATOM     71  C   UNL A   1      43.953  26.279  25.751  1.00  0.00     0.198 A 
ATOM     72  C   UNL A   1      42.518  24.499  26.479  1.00  0.00     0.198 A 
ATOM     73  F   UNL A   1      41.170  24.781  28.385  1.00  0.00    -0.203 F 
ATOM     74  F   UNL A   1      44.841  26.766  24.872  1.00  0.00    -0.200 F 
ATOM     75  C   UNL A   1      43.452  24.996  25.585  1.00  0.00     0.200 A 
ATOM     76  F   UNL A   1      42.040  23.255  26.328  1.00  0.00    -0.200 F 
ATOM     77  F   UNL A   1      43.868  24.239  24.560  1.00  0.00    -0.200 F 
ENDBRANCH  53  67
BRANCH  54  78
ATOM     78  C   UNL A   1      39.504  32.087  35.444  1.00  0.00     0.064 A 
ATOM     79  C   UNL A   1      38.594  31.541  36.358  1.00  0.00     0.173 A 
ATOM     80  C   UNL A   1      39.971  33.388  35.680  1.00  0.00     0.173 A 
ATOM     81  F   UNL A   1      38.098  30.312  36.156  1.00  0.00    -0.203 F 
ATOM     82  C   UNL A   1      38.172  32.268  37.469  1.00  0.00     0.198 A 
ATOM     83  C   UNL A   1      39.572  34.102  36.807  1.00  0.00     0.198 A 
ATOM     84  F   UNL A   1      40.841  33.955  34.832  1.00  0.00    -0.203 F 
ATOM     85  F   UNL A   1      37.280  31.736  38.315  1.00  0.00    -0.200 F 
ATOM     86  C   UNL A   1      38.670  33.542  37.699  1.00  0.00     0.200 A 
ATOM     87  F   UNL A   1      40.068  35.326  37.033  1.00  0.00    -0.200 F 
ATOM     88  F   UNL A   1      38.279  34.231  38.779  1.00  0.00    -0.200 F 
ENDBRANCH  54  78
BRANCH  66  89
ATOM     89  C   UNL A   1      44.583  27.410  34.607  1.00  0.00     0.064 A 
ATOM     90  C   UNL A   1      45.831  28.032  34.753  1.00  0.00     0.173 A 
ATOM     91  C   UNL A   1      44.317  26.269  35.376  1.00  0.00     0.173 A 
ATOM     92  F   UNL A   1      46.136  29.115  34.023  1.00  0.00    -0.203 F 
ATOM     93  C   UNL A   1      46.786  27.517  35.626  1.00  0.00     0.198 A 
ATOM     94  C   UNL A   1      45.267  25.768  36.262  1.00  0.00     0.198 A 
ATOM     95  F   UNL A   1      43.136  25.642  35.270  1.00  0.00    -0.203 F 
ATOM     96  F   UNL A   1      47.987  28.102  35.724  1.00  0.00    -0.200 F 
ATOM     97  C   UNL A   1      46.501  26.389  36.382  1.00  0.00     0.200 A 
ATOM     98  F   UNL A   1      44.990  24.681  36.996  1.00  0.00    -0.200 F 
ATOM     99  F   UNL A   1      47.422  25.893  37.220  1.00  0.00    -0.200 F 
ENDBRANCH  66  89
ENDBRANCH  40  41
ENDBRANCH  33  35
ENDBRANCH  32  33
ENDBRANCH  31  32
ENDBRANCH   1  31
TORSDOF 14
ENDMDL
MODEL 2
REMARK VINA RESULT:     -13.6      1.159      1.639
REMARK SMILES Cc1ccc2[nH]cc([C@@H](C(=O)OCCOC(=O)c3ccc(-c4c5nc(c(-c6c(F)c(F)c(F)c(F)c6F)c6ccc([nH]6)c(-c6c(F)c(F)c(F)c(F)c6F)c6nc(c(-c7c(F)c(F)c(F)c(F)c7F)c7ccc4[nH]7)C=C6)C=C5)cc3)[NH+]3CCN(c4cccc(Cl)c4)CC3)c2c1
REMARK SMILES IDX 13 1 12 2 10 3 11 4 9 5 8 6 1 7 2 8 3 9 95 10 4 11 94 12
REMARK SMILES IDX 5 13 6 14 7 15 81 17 82 18 93 19 83 21 92 22 84 23 85 24
REMARK SMILES IDX 86 25 91 26 87 27 89 28 88 29 90 30 14 31 15 32 16 33 17 34
REMARK SMILES IDX 18 35 19 36 80 37 20 38 79 39 21 40 22 41 23 42 73 43 24 44
REMARK SMILES IDX 78 45 72 46 74 47 25 48 77 49 71 50 70 51 26 53 58 54 38 55
REMARK SMILES IDX 57 56 39 57 42 58 56 59 75 60 40 61 41 62 55 64 76 65 43 66
REMARK SMILES IDX 27 67 28 68 36 69 29 70 30 71 34 72 37 73 31 74 32 75 35 76
REMARK SMILES IDX 33 77 59 78 60 79 68 80 61 81 62 82 66 83 69 84 63 85 64 86
REMARK SMILES IDX 67 87 65 88 44 89 45 90 53 91 46 92 47 93 51 94 54 95 48 96
REMARK SMILES IDX 49 97 52 98 50 99
REMARK H PARENT 6 16 81 20 74 52 42 63
REMARK Flexibility Score: inf
ROOT
ATOM      1  C   UNL A   1      31.760  28.633  27.420  1.00  0.00     0.274 C 
ENDROOT
BRANCH   1   2
ATOM      2  O   UNL A   1      32.269  27.474  26.729  1.00  0.00    -0.457 OA
BRANCH   2   3
ATOM      3  C   UNL A   1      31.367  26.738  26.017  1.00  0.00     0.370 C 
ATOM      4  O   UNL A   1      30.321  26.306  26.500  1.00  0.00    -0.245 OA
BRANCH   3   5
ATOM      5  C   UNL A   1      31.822  26.435  24.568  1.00  0.00     0.328 C 
BRANCH   5   6
ATOM      6  C   UNL A   1      31.647  27.545  23.565  1.00  0.00     0.046 A 
ATOM      7  C   UNL A   1      26.592  28.313  23.370  1.00  0.00     0.044 C 
ATOM      8  C   UNL A   1      28.016  28.670  23.057  1.00  0.00    -0.050 A 
ATOM      9  C   UNL A   1      28.326  29.770  22.252  1.00  0.00     0.005 A 
ATOM     10  C   UNL A   1      29.050  27.864  23.556  1.00  0.00     0.014 A 
ATOM     11  C   UNL A   1      29.647  30.065  21.895  1.00  0.00     0.027 A 
ATOM     12  C   UNL A   1      30.390  28.139  23.212  1.00  0.00     0.009 A 
ATOM     13  C   UNL A   1      30.652  29.215  22.368  1.00  0.00     0.046 A 
ATOM     14  N   UNL A   1      32.005  29.224  22.135  1.00  0.00    -0.361 N 
ATOM     15  C   UNL A   1      32.607  28.195  22.806  1.00  0.00     0.094 A 
ATOM     16  H   UNL A   1      32.475  29.878  21.567  1.00  0.00     0.166 HD
ENDBRANCH   5   6
BRANCH   5  17
ATOM     17  N   UNL A   1      31.258  25.151  24.089  1.00  0.00    -0.316 N 
ATOM     18  C   UNL A   1      31.904  24.517  22.936  1.00  0.00     0.284 C 
ATOM     19  C   UNL A   1      30.887  24.170  25.120  1.00  0.00     0.284 C 
ATOM     20  H   UNL A   1      30.379  25.513  23.721  1.00  0.00     0.349 HD
ATOM     21  C   UNL A   1      32.910  23.380  23.189  1.00  0.00     0.178 C 
ATOM     22  C   UNL A   1      31.902  23.034  25.416  1.00  0.00     0.178 C 
ATOM     23  N   UNL A   1      32.379  22.427  24.163  1.00  0.00    -0.360 N 
BRANCH  23  24
ATOM     24  C   UNL A   1      33.026  21.200  24.263  1.00  0.00     0.038 A 
ATOM     25  C   UNL A   1      32.343  19.978  24.172  1.00  0.00     0.026 A 
ATOM     26  C   UNL A   1      34.403  21.172  24.508  1.00  0.00     0.046 A 
ATOM     27  C   UNL A   1      33.007  18.762  24.353  1.00  0.00     0.004 A 
ATOM     28  C   UNL A   1      35.066  19.958  24.698  1.00  0.00     0.043 A 
ATOM     29  C   UNL A   1      34.372  18.752  24.626  1.00  0.00     0.020 A 
ATOM     30  Cl  UNL A   1      36.751  19.948  25.045  1.00  0.00    -0.084 Cl
ENDBRANCH  23  24
ENDBRANCH   5  17
ENDBRANCH   3   5
ENDBRANCH   2   3
ENDBRANCH   1   2
BRANCH   1  31
ATOM     31  C   UNL A   1      31.632  29.812  26.459  1.00  0.00     0.275 C 
BRANCH  31  32
ATOM     32  O   UNL A   1      32.936  30.361  26.206  1.00  0.00    -0.458 OA
BRANCH  32  33
ATOM     33  C   UNL A   1      33.339  31.360  27.018  1.00  0.00     0.338 C 
ATOM     34  O   UNL A   1      32.703  32.369  27.309  1.00  0.00    -0.246 OA
BRANCH  33  35
ATOM     35  C   UNL A   1      34.676  31.066  27.582  1.00  0.00     0.060 A 
ATOM     36  C   UNL A   1      35.051  29.761  27.909  1.00  0.00     0.016 A 
ATOM     37  C   UNL A   1      35.525  32.123  27.916  1.00  0.00     0.016 A 
ATOM     38  C   UNL A   1      36.204  29.529  28.661  1.00  0.00     0.010 A 
ATOM     39  C   UNL A   1      36.737  31.873  28.571  1.00  0.00     0.010 A 
ATOM     40  C   UNL A   1      37.079  30.573  28.984  1.00  0.00    -0.014 A 
BRANCH  40  41
ATOM     41  C   UNL A   1      38.338  30.330  29.751  1.00  0.00     0.031 A 
ATOM     42  C   UNL A   1      39.435  29.479  29.164  1.00  0.00     0.074 A 
ATOM     43  C   UNL A   1      38.509  30.844  30.986  1.00  0.00     0.049 A 
ATOM     44  N   UNL A   1      40.425  28.869  29.768  1.00  0.00    -0.248 NA
ATOM     45  C   UNL A   1      39.403  29.271  27.708  1.00  0.00     0.031 C 
ATOM     46  C   UNL A   1      37.585  31.748  31.671  1.00  0.00     0.029 A 
ATOM     47  N   UNL A   1      39.527  30.667  31.893  1.00  0.00    -0.354 N 
ATOM     48  C   UNL A   1      41.083  28.143  28.782  1.00  0.00     0.074 A 
ATOM     49  C   UNL A   1      40.396  28.408  27.535  1.00  0.00     0.031 C 
ATOM     50  C   UNL A   1      38.092  32.075  32.868  1.00  0.00     0.029 A 
ATOM     51  C   UNL A   1      39.313  31.311  33.087  1.00  0.00     0.049 A 
ATOM     52  H   UNL A   1      40.332  30.131  31.705  1.00  0.00     0.167 HD
ATOM     53  C   UNL A   1      42.154  27.323  28.916  1.00  0.00     0.037 A 
ATOM     54  C   UNL A   1      39.972  31.243  34.259  1.00  0.00     0.037 A 
ATOM     55  C   UNL A   1      42.884  27.132  30.144  1.00  0.00     0.049 A 
ATOM     56  C   UNL A   1      41.139  30.311  34.395  1.00  0.00     0.074 A 
ATOM     57  C   UNL A   1      43.982  26.321  30.382  1.00  0.00     0.029 A 
ATOM     58  N   UNL A   1      42.609  27.788  31.334  1.00  0.00    -0.354 N 
ATOM     59  N   UNL A   1      41.670  29.518  33.498  1.00  0.00    -0.248 NA
ATOM     60  C   UNL A   1      41.774  30.237  35.718  1.00  0.00     0.031 C 
ATOM     61  C   UNL A   1      44.358  26.472  31.721  1.00  0.00     0.029 A 
ATOM     62  C   UNL A   1      43.517  27.401  32.308  1.00  0.00     0.049 A 
ATOM     63  H   UNL A   1      41.878  28.433  31.468  1.00  0.00     0.167 HD
ATOM     64  C   UNL A   1      42.699  28.850  34.145  1.00  0.00     0.074 A 
ATOM     65  C   UNL A   1      42.732  29.346  35.505  1.00  0.00     0.031 C 
ATOM     66  C   UNL A   1      43.534  27.902  33.657  1.00  0.00     0.037 A 
BRANCH  53  67
ATOM     67  C   UNL A   1      42.586  26.530  27.718  1.00  0.00     0.064 A 
ATOM     68  C   UNL A   1      43.573  26.987  26.836  1.00  0.00     0.173 A 
ATOM     69  C   UNL A   1      42.043  25.253  27.493  1.00  0.00     0.173 A 
ATOM     70  F   UNL A   1      44.113  28.203  26.999  1.00  0.00    -0.203 F 
ATOM     71  C   UNL A   1      43.992  26.201  25.764  1.00  0.00     0.198 A 
ATOM     72  C   UNL A   1      42.484  24.461  26.437  1.00  0.00     0.198 A 
ATOM     73  F   UNL A   1      41.100  24.766  28.314  1.00  0.00    -0.203 F 
ATOM     74  F   UNL A   1      44.917  26.669  24.913  1.00  0.00    -0.200 F 
ATOM     75  C   UNL A   1      43.455  24.937  25.571  1.00  0.00     0.200 A 
ATOM     76  F   UNL A   1      41.970  23.234  26.261  1.00  0.00    -0.200 F 
ATOM     77  F   UNL A   1      43.871  24.177  24.548  1.00  0.00    -0.200 F 
ENDBRANCH  53  67
BRANCH  54  78
ATOM     78  C   UNL A   1      39.485  32.036  35.416  1.00  0.00     0.064 A 
ATOM     79  C   UNL A   1      38.560  31.497  36.318  1.00  0.00     0.173 A 
ATOM     80  C   UNL A   1      39.964  33.331  35.663  1.00  0.00     0.173 A 
ATOM     81  F   UNL A   1      38.052  30.273  36.106  1.00  0.00    -0.203 F 
ATOM     82  C   UNL A   1      38.134  32.223  37.428  1.00  0.00     0.198 A 
ATOM     83  C   UNL A   1      39.561  34.045  36.788  1.00  0.00     0.198 A 
ATOM     84  F   UNL A   1      40.850  33.891  34.826  1.00  0.00    -0.203 F 
ATOM     85  F   UNL A   1      37.228  31.698  38.263  1.00  0.00    -0.200 F 
ATOM     86  C   UNL A   1      38.645  33.491  37.668  1.00  0.00     0.200 A 
ATOM     87  F   UNL A   1      40.069  35.262  37.025  1.00  0.00    -0.200 F 
ATOM     88  F   UNL A   1      38.249  34.180  38.747  1.00  0.00    -0.200 F 
ENDBRANCH  54  78
BRANCH  66  89
ATOM     89  C   UNL A   1      44.567  27.360  34.595  1.00  0.00     0.064 A 
ATOM     90  C   UNL A   1      45.812  27.986  34.750  1.00  0.00     0.173 A 
ATOM     91  C   UNL A   1      44.303  26.214  35.358  1.00  0.00     0.173 A 
ATOM     92  F   UNL A   1      46.116  29.074  34.027  1.00  0.00    -0.203 F 
ATOM     93  C   UNL A   1      46.765  27.472  35.626  1.00  0.00     0.198 A 
ATOM     94  C   UNL A   1      45.250  25.714  36.247  1.00  0.00     0.198 A 
ATOM     95  F   UNL A   1      43.125  25.582  35.243  1.00  0.00    -0.203 F 
ATOM     96  F   UNL A   1      47.962  28.062  35.733  1.00  0.00    -0.200 F 
ATOM     97  C   UNL A   1      46.481  26.339  36.376  1.00  0.00     0.200 A 
ATOM     98  F   UNL A   1      44.974  24.622  36.974  1.00  0.00    -0.200 F 
ATOM     99  F   UNL A   1      47.400  25.844  37.217  1.00  0.00    -0.200 F 
ENDBRANCH  66  89
ENDBRANCH  40  41
ENDBRANCH  33  35
ENDBRANCH  32  33
ENDBRANCH  31  32
ENDBRANCH   1  31
TORSDOF 14
ENDMDL
MODEL 3
REMARK VINA RESULT:     -13.5      1.140      1.941
REMARK SMILES Cc1ccc2[nH]cc([C@@H](C(=O)OCCOC(=O)c3ccc(-c4c5nc(c(-c6c(F)c(F)c(F)c(F)c6F)c6ccc([nH]6)c(-c6c(F)c(F)c(F)c(F)c6F)c6nc(c(-c7c(F)c(F)c(F)c(F)c7F)c7ccc4[nH]7)C=C6)C=C5)cc3)[NH+]3CCN(c4cccc(Cl)c4)CC3)c2c1
REMARK SMILES IDX 13 1 12 2 10 3 11 4 9 5 8 6 1 7 2 8 3 9 95 10 4 11 94 12
REMARK SMILES IDX 5 13 6 14 7 15 81 17 82 18 93 19 83 21 92 22 84 23 85 24
REMARK SMILES IDX 86 25 91 26 87 27 89 28 88 29 90 30 14 31 15 32 16 33 17 34
REMARK SMILES IDX 18 35 19 36 80 37 20 38 79 39 21 40 22 41 23 42 73 43 24 44
REMARK SMILES IDX 78 45 72 46 74 47 25 48 77 49 71 50 70 51 26 53 58 54 38 55
REMARK SMILES IDX 57 56 39 57 42 58 56 59 75 60 40 61 41 62 55 64 76 65 43 66
REMARK SMILES IDX 27 67 28 68 36 69 29 70 30 71 34 72 37 73 31 74 32 75 35 76
REMARK SMILES IDX 33 77 59 78 60 79 68 80 61 81 62 82 66 83 69 84 63 85 64 86
REMARK SMILES IDX 67 87 65 88 44 89 45 90 53 91 46 92 47 93 51 94 54 95 48 96
REMARK SMILES IDX 49 97 52 98 50 99
REMARK H PARENT 6 16 81 20 74 52 42 63
REMARK Flexibility Score: inf
ROOT
ATOM      1  C   UNL A   1      31.819  28.702  27.359  1.00  0.00     0.274 C 
ENDROOT
BRANCH   1   2
ATOM      2  O   UNL A   1      32.326  27.525  26.698  1.00  0.00    -0.457 OA
BRANCH   2   3
ATOM      3  C   UNL A   1      31.423  26.777  25.999  1.00  0.00     0.370 C 
ATOM      4  O   UNL A   1      30.400  26.314  26.501  1.00  0.00    -0.245 OA
BRANCH   3   5
ATOM      5  C   UNL A   1      31.849  26.505  24.534  1.00  0.00     0.328 C 
BRANCH   5   6
ATOM      6  C   UNL A   1      31.607  27.617  23.549  1.00  0.00     0.046 A 
ATOM      7  C   UNL A   1      26.524  28.203  23.500  1.00  0.00     0.044 C 
ATOM      8  C   UNL A   1      27.924  28.615  23.152  1.00  0.00    -0.050 A 
ATOM      9  C   UNL A   1      28.172  29.732  22.350  1.00  0.00     0.005 A 
ATOM     10  C   UNL A   1      29.000  27.842  23.614  1.00  0.00     0.014 A 
ATOM     11  C   UNL A   1      29.471  30.078  21.961  1.00  0.00     0.027 A 
ATOM     12  C   UNL A   1      30.319  28.168  23.236  1.00  0.00     0.009 A 
ATOM     13  C   UNL A   1      30.519  29.260  22.396  1.00  0.00     0.046 A 
ATOM     14  N   UNL A   1      31.864  29.322  22.127  1.00  0.00    -0.361 N 
ATOM     15  C   UNL A   1      32.521  28.308  22.770  1.00  0.00     0.094 A 
ATOM     16  H   UNL A   1      32.294  29.997  21.553  1.00  0.00     0.166 HD
ENDBRANCH   5   6
BRANCH   5  17
ATOM     17  N   UNL A   1      31.319  25.206  24.058  1.00  0.00    -0.316 N 
ATOM     18  C   UNL A   1      31.984  24.584  22.909  1.00  0.00     0.284 C 
ATOM     19  C   UNL A   1      30.968  24.218  25.090  1.00  0.00     0.284 C 
ATOM     20  H   UNL A   1      30.432  25.545  23.686  1.00  0.00     0.349 HD
ATOM     21  C   UNL A   1      33.017  23.472  23.170  1.00  0.00     0.178 C 
ATOM     22  C   UNL A   1      32.010  23.110  25.394  1.00  0.00     0.178 C 
ATOM     23  N   UNL A   1      32.506  22.510  24.145  1.00  0.00    -0.360 N 
BRANCH  23  24
ATOM     24  C   UNL A   1      33.183  21.300  24.251  1.00  0.00     0.038 A 
ATOM     25  C   UNL A   1      32.528  20.061  24.182  1.00  0.00     0.026 A 
ATOM     26  C   UNL A   1      34.564  21.306  24.479  1.00  0.00     0.046 A 
ATOM     27  C   UNL A   1      33.222  18.863  24.369  1.00  0.00     0.004 A 
ATOM     28  C   UNL A   1      35.257  20.111  24.675  1.00  0.00     0.043 A 
ATOM     29  C   UNL A   1      34.590  18.888  24.626  1.00  0.00     0.020 A 
ATOM     30  Cl  UNL A   1      36.946  20.144  25.001  1.00  0.00    -0.084 Cl
ENDBRANCH  23  24
ENDBRANCH   5  17
ENDBRANCH   3   5
ENDBRANCH   2   3
ENDBRANCH   1   2
BRANCH   1  31
ATOM     31  C   UNL A   1      31.778  29.881  26.390  1.00  0.00     0.275 C 
BRANCH  31  32
ATOM     32  O   UNL A   1      33.106  30.406  26.226  1.00  0.00    -0.458 OA
BRANCH  32  33
ATOM     33  C   UNL A   1      33.497  31.349  27.108  1.00  0.00     0.338 C 
ATOM     34  O   UNL A   1      32.856  32.337  27.455  1.00  0.00    -0.246 OA
BRANCH  33  35
ATOM     35  C   UNL A   1      34.825  31.018  27.671  1.00  0.00     0.060 A 
ATOM     36  C   UNL A   1      35.163  29.704  28.001  1.00  0.00     0.016 A 
ATOM     37  C   UNL A   1      35.705  32.051  28.001  1.00  0.00     0.016 A 
ATOM     38  C   UNL A   1      36.310  29.441  28.752  1.00  0.00     0.010 A 
ATOM     39  C   UNL A   1      36.910  31.768  28.655  1.00  0.00     0.010 A 
ATOM     40  C   UNL A   1      37.215  30.460  29.071  1.00  0.00    -0.014 A 
BRANCH  40  41
ATOM     41  C   UNL A   1      38.467  30.183  29.837  1.00  0.00     0.031 A 
ATOM     42  C   UNL A   1      39.548  29.317  29.242  1.00  0.00     0.074 A 
ATOM     43  C   UNL A   1      38.646  30.679  31.078  1.00  0.00     0.049 A 
ATOM     44  N   UNL A   1      40.525  28.680  29.840  1.00  0.00    -0.248 NA
ATOM     45  C   UNL A   1      39.515  29.127  27.784  1.00  0.00     0.031 C 
ATOM     46  C   UNL A   1      37.739  31.592  31.773  1.00  0.00     0.029 A 
ATOM     47  N   UNL A   1      39.659  30.470  31.985  1.00  0.00    -0.354 N 
ATOM     48  C   UNL A   1      41.170  27.954  28.847  1.00  0.00     0.074 A 
ATOM     49  C   UNL A   1      40.491  28.246  27.602  1.00  0.00     0.031 C 
ATOM     50  C   UNL A   1      38.250  31.896  32.974  1.00  0.00     0.029 A 
ATOM     51  C   UNL A   1      39.455  31.104  33.186  1.00  0.00     0.049 A 
ATOM     52  H   UNL A   1      40.454  29.921  31.792  1.00  0.00     0.167 HD
ATOM     53  C   UNL A   1      42.224  27.110  28.973  1.00  0.00     0.037 A 
ATOM     54  C   UNL A   1      40.111  31.010  34.358  1.00  0.00     0.037 A 
ATOM     55  C   UNL A   1      42.948  26.890  30.200  1.00  0.00     0.049 A 
ATOM     56  C   UNL A   1      41.259  30.054  34.485  1.00  0.00     0.074 A 
ATOM     57  C   UNL A   1      44.029  26.055  30.430  1.00  0.00     0.029 A 
ATOM     58  N   UNL A   1      42.684  27.538  31.397  1.00  0.00    -0.354 N 
ATOM     59  N   UNL A   1      41.776  29.260  33.580  1.00  0.00    -0.248 NA
ATOM     60  C   UNL A   1      41.890  29.951  35.809  1.00  0.00     0.031 C 
ATOM     61  C   UNL A   1      44.406  26.183  31.771  1.00  0.00     0.029 A 
ATOM     62  C   UNL A   1      43.582  27.122  32.368  1.00  0.00     0.049 A 
ATOM     63  H   UNL A   1      41.965  28.195  31.538  1.00  0.00     0.167 HD
ATOM     64  C   UNL A   1      42.790  28.564  34.221  1.00  0.00     0.074 A 
ATOM     65  C   UNL A   1      42.831  29.043  35.587  1.00  0.00     0.031 C 
ATOM     66  C   UNL A   1      43.607  27.606  33.722  1.00  0.00     0.037 A 
BRANCH  53  67
ATOM     67  C   UNL A   1      42.642  26.323  27.766  1.00  0.00     0.064 A 
ATOM     68  C   UNL A   1      43.662  26.756  26.908  1.00  0.00     0.173 A 
ATOM     69  C   UNL A   1      42.052  25.074  27.508  1.00  0.00     0.173 A 
ATOM     70  F   UNL A   1      44.248  27.945  27.104  1.00  0.00    -0.203 F 
ATOM     71  C   UNL A   1      44.066  25.974  25.828  1.00  0.00     0.198 A 
ATOM     72  C   UNL A   1      42.476  24.285  26.444  1.00  0.00     0.198 A 
ATOM     73  F   UNL A   1      41.076  24.611  28.305  1.00  0.00    -0.203 F 
ATOM     74  F   UNL A   1      45.022  26.419  25.000  1.00  0.00    -0.200 F 
ATOM     75  C   UNL A   1      43.480  24.736  25.602  1.00  0.00     0.200 A 
ATOM     76  F   UNL A   1      41.916  23.084  26.236  1.00  0.00    -0.200 F 
ATOM     77  F   UNL A   1      43.881  23.980  24.571  1.00  0.00    -0.200 F 
ENDBRANCH  53  67
BRANCH  54  78
ATOM     78  C   UNL A   1      39.638  31.799  35.524  1.00  0.00     0.064 A 
ATOM     79  C   UNL A   1      40.141  33.081  35.776  1.00  0.00     0.173 A 
ATOM     80  C   UNL A   1      38.647  31.302  36.384  1.00  0.00     0.173 A 
ATOM     81  F   UNL A   1      41.111  33.584  34.998  1.00  0.00    -0.203 F 
ATOM     82  C   UNL A   1      39.667  33.839  36.845  1.00  0.00     0.198 A 
ATOM     83  C   UNL A   1      38.153  32.072  37.433  1.00  0.00     0.198 A 
ATOM     84  F   UNL A   1      38.136  30.078  36.184  1.00  0.00    -0.203 F 
ATOM     85  F   UNL A   1      40.183  35.052  37.083  1.00  0.00    -0.200 F 
ATOM     86  C   UNL A   1      38.666  33.339  37.664  1.00  0.00     0.200 A 
ATOM     87  F   UNL A   1      37.175  31.591  38.211  1.00  0.00    -0.200 F 
ATOM     88  F   UNL A   1      38.197  34.078  38.679  1.00  0.00    -0.200 F 
ENDBRANCH  54  78
BRANCH  66  89
ATOM     89  C   UNL A   1      44.627  27.032  34.656  1.00  0.00     0.064 A 
ATOM     90  C   UNL A   1      45.885  27.629  34.818  1.00  0.00     0.173 A 
ATOM     91  C   UNL A   1      44.337  25.885  35.408  1.00  0.00     0.173 A 
ATOM     92  F   UNL A   1      46.213  28.717  34.105  1.00  0.00    -0.203 F 
ATOM     93  C   UNL A   1      46.826  27.086  35.689  1.00  0.00     0.198 A 
ATOM     94  C   UNL A   1      45.273  25.356  36.292  1.00  0.00     0.198 A 
ATOM     95  F   UNL A   1      43.146  25.280  35.287  1.00  0.00    -0.203 F 
ATOM     96  F   UNL A   1      48.036  27.648  35.802  1.00  0.00    -0.200 F 
ATOM     97  C   UNL A   1      46.517  25.953  36.428  1.00  0.00     0.200 A 
ATOM     98  F   UNL A   1      44.973  24.263  37.009  1.00  0.00    -0.200 F 
ATOM     99  F   UNL A   1      47.424  25.429  37.264  1.00  0.00    -0.200 F 
ENDBRANCH  66  89
ENDBRANCH  40  41
ENDBRANCH  33  35
ENDBRANCH  32  33
ENDBRANCH  31  32
ENDBRANCH   1  31
TORSDOF 14
ENDMDL
