MODEL 1
REMARK VINA RESULT:     -13.0      0.000      0.000
REMARK SMILES O=C(OCCOC(=O)[C@@H](Cc1ccncc1)c1ccc(Cl)cc1)c1ccc(-c2c3nc(c(-c4c(F)c(F)c(F)c(F)c4F)c4ccc([nH]4)c(-c4c(F)c(F)c(F)c(F)c4F)c4nc(c(-c5c(F)c(F)c(F)c(F)c5F)c5ccc2[nH]5)C=C4)C=C3)cc1
REMARK SMILES IDX 4 1 3 2 2 3 1 4 24 5 25 6 86 7 26 8 85 9 27 10 28 11 29 12
REMARK SMILES IDX 79 13 30 14 84 15 78 16 80 17 31 18 83 19 77 20 76 21 32 23
REMARK SMILES IDX 64 24 44 25 63 26 45 27 48 28 62 29 81 30 46 31 47 32 61 34
REMARK SMILES IDX 82 35 49 36 33 37 34 38 42 39 35 40 36 41 40 42 43 43 37 44
REMARK SMILES IDX 38 45 41 46 39 47 65 48 66 49 74 50 67 51 68 52 72 53 75 54
REMARK SMILES IDX 69 55 70 56 73 57 71 58 50 59 51 60 59 61 52 62 53 63 57 64
REMARK SMILES IDX 60 65 54 66 55 67 58 68 56 69 5 70 6 71 7 72 8 73 9 74 10 75
REMARK SMILES IDX 11 76 12 77 16 78 13 79 15 80 14 81 17 82 18 83 23 84 19 85
REMARK SMILES IDX 22 86 20 87 21 88
REMARK H PARENT 80 22 48 33
REMARK Flexibility Score: inf
ROOT
ATOM      1  C   UNL A   1      32.199  29.708  25.401  1.00  0.00     0.275 C 
ENDROOT
BRANCH   1   2
ATOM      2  O   UNL A   1      32.359  30.157  26.769  1.00  0.00    -0.458 OA
BRANCH   2   3
ATOM      3  C   UNL A   1      32.986  31.258  27.260  1.00  0.00     0.338 C 
ATOM      4  O   UNL A   1      32.433  32.354  27.221  1.00  0.00    -0.246 OA
BRANCH   3   5
ATOM      5  C   UNL A   1      34.441  31.260  27.570  1.00  0.00     0.060 A 
ATOM      6  C   UNL A   1      35.294  32.753  27.795  1.00  0.00     0.016 A 
ATOM      7  C   UNL A   1      35.097  29.666  28.079  1.00  0.00     0.016 A 
ATOM      8  C   UNL A   1      36.837  32.724  28.669  1.00  0.00     0.010 A 
ATOM      9  C   UNL A   1      36.605  29.485  29.005  1.00  0.00     0.010 A 
ATOM     10  C   UNL A   1      37.585  30.972  29.374  1.00  0.00    -0.014 A 
BRANCH  10  11
ATOM     11  C   UNL A   1      38.922  30.388  30.035  1.00  0.00     0.031 A 
ATOM     12  C   UNL A   1      39.308  30.885  31.415  1.00  0.00     0.074 A 
ATOM     13  C   UNL A   1      39.806  29.556  29.428  1.00  0.00     0.049 A 
ATOM     14  N   UNL A   1      40.064  30.313  32.318  1.00  0.00    -0.248 NA
ATOM     15  C   UNL A   1      38.783  32.194  31.850  1.00  0.00     0.031 C 
ATOM     16  C   UNL A   1      39.744  29.126  28.045  1.00  0.00     0.029 A 
ATOM     17  N   UNL A   1      40.905  28.865  29.893  1.00  0.00    -0.354 N 
ATOM     18  C   UNL A   1      39.951  31.103  33.453  1.00  0.00     0.074 A 
ATOM     19  C   UNL A   1      39.162  32.254  33.114  1.00  0.00     0.031 C 
ATOM     20  C   UNL A   1      40.618  28.148  27.799  1.00  0.00     0.029 A 
ATOM     21  C   UNL A   1      41.427  27.968  28.980  1.00  0.00     0.049 A 
ATOM     22  H   UNL A   1      41.283  28.998  30.793  1.00  0.00     0.167 HD
ATOM     23  C   UNL A   1      40.457  30.880  34.686  1.00  0.00     0.037 A 
ATOM     24  C   UNL A   1      42.438  27.084  29.051  1.00  0.00     0.037 A 
ATOM     25  C   UNL A   1      41.440  29.869  34.943  1.00  0.00     0.049 A 
ATOM     26  C   UNL A   1      43.095  26.921  30.381  1.00  0.00     0.074 A 
ATOM     27  C   UNL A   1      42.105  29.584  36.118  1.00  0.00     0.029 A 
ATOM     28  N   UNL A   1      41.963  29.034  33.963  1.00  0.00    -0.354 N 
ATOM     29  N   UNL A   1      42.823  27.546  31.500  1.00  0.00    -0.248 NA
ATOM     30  C   UNL A   1      44.157  25.918  30.479  1.00  0.00     0.031 C 
ATOM     31  C   UNL A   1      43.103  28.650  35.823  1.00  0.00     0.029 A 
ATOM     32  C   UNL A   1      42.996  28.282  34.489  1.00  0.00     0.049 A 
ATOM     33  H   UNL A   1      41.644  28.985  33.033  1.00  0.00     0.167 HD
ATOM     34  C   UNL A   1      43.657  26.994  32.452  1.00  0.00     0.074 A 
ATOM     35  C   UNL A   1      44.432  25.968  31.776  1.00  0.00     0.031 C 
ATOM     36  C   UNL A   1      43.767  27.300  33.768  1.00  0.00     0.037 A 
BRANCH  23  37
ATOM     37  C   UNL A   1      39.997  31.800  35.778  1.00  0.00     0.064 A 
ATOM     38  C   UNL A   1      38.796  31.562  36.471  1.00  0.00     0.173 A 
ATOM     39  C   UNL A   1      40.716  32.959  36.096  1.00  0.00     0.173 A 
ATOM     40  F   UNL A   1      38.046  30.489  36.179  1.00  0.00    -0.203 F 
ATOM     41  C   UNL A   1      38.326  32.462  37.426  1.00  0.00     0.198 A 
ATOM     42  C   UNL A   1      40.252  33.846  37.066  1.00  0.00     0.198 A 
ATOM     43  F   UNL A   1      41.850  33.251  35.444  1.00  0.00    -0.203 F 
ATOM     44  F   UNL A   1      37.148  32.244  38.029  1.00  0.00    -0.200 F 
ATOM     45  C   UNL A   1      39.055  33.602  37.723  1.00  0.00     0.200 A 
ATOM     46  F   UNL A   1      40.953  34.954  37.346  1.00  0.00    -0.200 F 
ATOM     47  F   UNL A   1      38.596  34.476  38.629  1.00  0.00    -0.200 F 
ENDBRANCH  23  37
BRANCH  24  48
ATOM     48  C   UNL A   1      42.828  26.288  27.847  1.00  0.00     0.064 A 
ATOM     49  C   UNL A   1      42.210  25.070  27.530  1.00  0.00     0.173 A 
ATOM     50  C   UNL A   1      43.790  26.771  26.939  1.00  0.00     0.173 A 
ATOM     51  F   UNL A   1      41.288  24.553  28.356  1.00  0.00    -0.203 F 
ATOM     52  C   UNL A   1      42.540  24.366  26.369  1.00  0.00     0.198 A 
ATOM     53  C   UNL A   1      44.101  26.081  25.767  1.00  0.00     0.198 A 
ATOM     54  F   UNL A   1      44.396  27.946  27.170  1.00  0.00    -0.203 F 
ATOM     55  F   UNL A   1      41.948  23.193  26.107  1.00  0.00    -0.200 F 
ATOM     56  C   UNL A   1      43.478  24.877  25.484  1.00  0.00     0.200 A 
ATOM     57  F   UNL A   1      44.993  26.592  24.908  1.00  0.00    -0.200 F 
ATOM     58  F   UNL A   1      43.781  24.208  24.363  1.00  0.00    -0.200 F 
ENDBRANCH  24  48
BRANCH  36  59
ATOM     59  C   UNL A   1      44.765  26.508  34.545  1.00  0.00     0.064 A 
ATOM     60  C   UNL A   1      44.424  25.290  35.150  1.00  0.00     0.173 A 
ATOM     61  C   UNL A   1      46.084  26.968  34.663  1.00  0.00     0.173 A 
ATOM     62  F   UNL A   1      43.168  24.823  35.074  1.00  0.00    -0.203 F 
ATOM     63  C   UNL A   1      45.365  24.579  35.884  1.00  0.00     0.198 A 
ATOM     64  C   UNL A   1      47.031  26.231  35.360  1.00  0.00     0.198 A 
ATOM     65  F   UNL A   1      46.452  28.126  34.093  1.00  0.00    -0.203 F 
ATOM     66  F   UNL A   1      45.004  23.453  36.514  1.00  0.00    -0.200 F 
ATOM     67  C   UNL A   1      46.668  25.045  35.980  1.00  0.00     0.200 A 
ATOM     68  F   UNL A   1      48.293  26.672  35.438  1.00  0.00    -0.200 F 
ATOM     69  F   UNL A   1      47.575  24.354  36.683  1.00  0.00    -0.200 F 
ENDBRANCH  36  59
ENDBRANCH  10  11
ENDBRANCH   3   5
ENDBRANCH   2   3
ENDBRANCH   1   2
BRANCH   1  70
ATOM     70  C   UNL A   1      33.395  28.945  24.808  1.00  0.00     0.274 C 
BRANCH  70  71
ATOM     71  O   UNL A   1      33.544  29.142  23.400  1.00  0.00    -0.462 OA
BRANCH  71  72
ATOM     72  C   UNL A   1      33.614  28.026  22.630  1.00  0.00     0.313 C 
ATOM     73  O   UNL A   1      34.270  27.934  21.600  1.00  0.00    -0.252 OA
BRANCH  72  74
ATOM     74  C   UNL A   1      32.787  26.891  23.203  1.00  0.00     0.133 C 
BRANCH  74  75
ATOM     75  C   UNL A   1      31.392  26.874  22.535  1.00  0.00     0.055 C 
BRANCH  75  76
ATOM     76  C   UNL A   1      30.053  27.735  23.011  1.00  0.00    -0.044 A 
ATOM     77  C   UNL A   1      28.198  27.240  23.677  1.00  0.00     0.024 A 
ATOM     78  C   UNL A   1      30.241  29.388  22.322  1.00  0.00     0.024 A 
ATOM     79  C   UNL A   1      26.885  28.440  23.471  1.00  0.00     0.111 A 
ATOM     80  C   UNL A   1      28.806  30.380  22.187  1.00  0.00     0.111 A 
ATOM     81  N   UNL A   1      27.212  29.942  22.720  1.00  0.00    -0.265 NA
ENDBRANCH  75  76
ENDBRANCH  74  75
BRANCH  74  82
ATOM     82  C   UNL A   1      33.491  25.572  23.488  1.00  0.00    -0.033 A 
ATOM     83  C   UNL A   1      34.304  25.410  24.626  1.00  0.00     0.006 A 
ATOM     84  C   UNL A   1      33.442  24.509  22.575  1.00  0.00     0.006 A 
ATOM     85  C   UNL A   1      34.902  24.181  24.924  1.00  0.00     0.021 A 
ATOM     86  C   UNL A   1      34.046  23.282  22.866  1.00  0.00     0.021 A 
ATOM     87  C   UNL A   1      34.732  23.108  24.062  1.00  0.00     0.041 A 
ATOM     88  Cl  UNL A   1      35.345  21.560  24.489  1.00  0.00    -0.084 Cl
ENDBRANCH  74  82
ENDBRANCH  72  74
ENDBRANCH  71  72
ENDBRANCH  70  71
ENDBRANCH   1  70
TORSDOF 14
ENDMDL
MODEL 2
REMARK VINA RESULT:     -12.8      2.360      3.690
REMARK SMILES O=C(OCCOC(=O)[C@@H](Cc1ccncc1)c1ccc(Cl)cc1)c1ccc(-c2c3nc(c(-c4c(F)c(F)c(F)c(F)c4F)c4ccc([nH]4)c(-c4c(F)c(F)c(F)c(F)c4F)c4nc(c(-c5c(F)c(F)c(F)c(F)c5F)c5ccc2[nH]5)C=C4)C=C3)cc1
REMARK SMILES IDX 4 1 3 2 2 3 1 4 24 5 25 6 86 7 26 8 85 9 27 10 28 11 29 12
REMARK SMILES IDX 79 13 30 14 84 15 78 16 80 17 31 18 83 19 77 20 76 21 32 23
REMARK SMILES IDX 64 24 44 25 63 26 45 27 48 28 62 29 81 30 46 31 47 32 61 34
REMARK SMILES IDX 82 35 49 36 33 37 34 38 42 39 35 40 36 41 40 42 43 43 37 44
REMARK SMILES IDX 38 45 41 46 39 47 65 48 66 49 74 50 67 51 68 52 72 53 75 54
REMARK SMILES IDX 69 55 70 56 73 57 71 58 50 59 51 60 59 61 52 62 53 63 57 64
REMARK SMILES IDX 60 65 54 66 55 67 58 68 56 69 5 70 6 71 7 72 8 73 9 74 10 75
REMARK SMILES IDX 11 76 12 77 16 78 13 79 15 80 14 81 17 82 18 83 23 84 19 85
REMARK SMILES IDX 22 86 20 87 21 88
REMARK H PARENT 80 22 48 33
REMARK Flexibility Score: inf
ROOT
ATOM      1  C   UNL A   1      31.429  28.607  27.281  1.00  0.00     0.275 C 
ENDROOT
BRANCH   1   2
ATOM      2  O   UNL A   1      31.982  29.726  26.546  1.00  0.00    -0.458 OA
BRANCH   2   3
ATOM      3  C   UNL A   1      32.504  30.897  26.998  1.00  0.00     0.338 C 
ATOM      4  O   UNL A   1      31.867  31.941  26.885  1.00  0.00    -0.246 OA
BRANCH   3   5
ATOM      5  C   UNL A   1      33.942  31.030  27.352  1.00  0.00     0.060 A 
ATOM      6  C   UNL A   1      34.601  32.570  27.799  1.00  0.00     0.016 A 
ATOM      7  C   UNL A   1      34.781  29.473  27.668  1.00  0.00     0.016 A 
ATOM      8  C   UNL A   1      36.122  32.609  28.711  1.00  0.00     0.010 A 
ATOM      9  C   UNL A   1      36.284  29.350  28.610  1.00  0.00     0.010 A 
ATOM     10  C   UNL A   1      37.068  30.880  29.204  1.00  0.00    -0.014 A 
BRANCH  10  11
ATOM     11  C   UNL A   1      38.456  30.376  29.824  1.00  0.00     0.031 A 
ATOM     12  C   UNL A   1      38.864  30.916  31.182  1.00  0.00     0.074 A 
ATOM     13  C   UNL A   1      39.360  29.581  29.199  1.00  0.00     0.049 A 
ATOM     14  N   UNL A   1      39.680  30.399  32.065  1.00  0.00    -0.248 NA
ATOM     15  C   UNL A   1      38.288  32.204  31.615  1.00  0.00     0.031 C 
ATOM     16  C   UNL A   1      39.272  29.124  27.826  1.00  0.00     0.029 A 
ATOM     17  N   UNL A   1      40.509  28.954  29.635  1.00  0.00    -0.354 N 
ATOM     18  C   UNL A   1      39.567  31.201  33.192  1.00  0.00     0.074 A 
ATOM     19  C   UNL A   1      38.708  32.305  32.863  1.00  0.00     0.031 C 
ATOM     20  C   UNL A   1      40.185  28.188  27.564  1.00  0.00     0.029 A 
ATOM     21  C   UNL A   1      41.043  28.069  28.717  1.00  0.00     0.049 A 
ATOM     22  H   UNL A   1      40.911  29.122  30.518  1.00  0.00     0.167 HD
ATOM     23  C   UNL A   1      40.127  31.026  34.409  1.00  0.00     0.037 A 
ATOM     24  C   UNL A   1      42.101  27.239  28.765  1.00  0.00     0.037 A 
ATOM     25  C   UNL A   1      41.168  30.072  34.646  1.00  0.00     0.049 A 
ATOM     26  C   UNL A   1      42.812  27.133  30.073  1.00  0.00     0.074 A 
ATOM     27  C   UNL A   1      41.888  29.841  35.800  1.00  0.00     0.029 A 
ATOM     28  N   UNL A   1      41.699  29.247  33.660  1.00  0.00    -0.354 N 
ATOM     29  N   UNL A   1      42.547  27.762  31.191  1.00  0.00    -0.248 NA
ATOM     30  C   UNL A   1      43.927  26.187  30.149  1.00  0.00     0.031 C 
ATOM     31  C   UNL A   1      42.923  28.954  35.484  1.00  0.00     0.029 A 
ATOM     32  C   UNL A   1      42.787  28.558  34.161  1.00  0.00     0.049 A 
ATOM     33  H   UNL A   1      41.351  29.166  32.743  1.00  0.00     0.167 HD
ATOM     34  C   UNL A   1      43.442  27.270  32.121  1.00  0.00     0.074 A 
ATOM     35  C   UNL A   1      44.244  26.273  31.433  1.00  0.00     0.031 C 
ATOM     36  C   UNL A   1      43.582  27.605  33.427  1.00  0.00     0.037 A 
BRANCH  23  37
ATOM     37  C   UNL A   1      39.659  31.941  35.503  1.00  0.00     0.064 A 
ATOM     38  C   UNL A   1      38.618  31.562  36.371  1.00  0.00     0.173 A 
ATOM     39  C   UNL A   1      40.199  33.224  35.651  1.00  0.00     0.173 A 
ATOM     40  F   UNL A   1      38.036  30.360  36.248  1.00  0.00    -0.203 F 
ATOM     41  C   UNL A   1      38.126  32.444  37.331  1.00  0.00     0.198 A 
ATOM     42  C   UNL A   1      39.717  34.095  36.626  1.00  0.00     0.198 A 
ATOM     43  F   UNL A   1      41.170  33.648  34.830  1.00  0.00    -0.203 F 
ATOM     44  F   UNL A   1      37.093  32.082  38.106  1.00  0.00    -0.200 F 
ATOM     45  C   UNL A   1      38.677  33.708  37.459  1.00  0.00     0.200 A 
ATOM     46  F   UNL A   1      40.244  35.323  36.743  1.00  0.00    -0.200 F 
ATOM     47  F   UNL A   1      38.194  34.563  38.371  1.00  0.00    -0.200 F 
ENDBRANCH  23  37
BRANCH  24  48
ATOM     48  C   UNL A   1      42.489  26.443  27.560  1.00  0.00     0.064 A 
ATOM     49  C   UNL A   1      43.503  26.864  26.688  1.00  0.00     0.173 A 
ATOM     50  C   UNL A   1      41.893  25.196  27.294  1.00  0.00     0.173 A 
ATOM     51  F   UNL A   1      44.108  28.044  26.884  1.00  0.00    -0.203 F 
ATOM     52  C   UNL A   1      43.898  26.081  25.600  1.00  0.00     0.198 A 
ATOM     53  C   UNL A   1      42.305  24.403  26.222  1.00  0.00     0.198 A 
ATOM     54  F   UNL A   1      40.937  24.724  28.108  1.00  0.00    -0.203 F 
ATOM     55  F   UNL A   1      44.855  26.522  24.771  1.00  0.00    -0.200 F 
ATOM     56  C   UNL A   1      43.306  24.847  25.374  1.00  0.00     0.200 A 
ATOM     57  F   UNL A   1      41.741  23.204  26.024  1.00  0.00    -0.200 F 
ATOM     58  F   UNL A   1      43.697  24.090  24.340  1.00  0.00    -0.200 F 
ENDBRANCH  24  48
BRANCH  36  59
ATOM     59  C   UNL A   1      44.646  26.877  34.180  1.00  0.00     0.064 A 
ATOM     60  C   UNL A   1      44.397  25.644  34.797  1.00  0.00     0.173 A 
ATOM     61  C   UNL A   1      45.938  27.417  34.262  1.00  0.00     0.173 A 
ATOM     62  F   UNL A   1      43.170  25.102  34.756  1.00  0.00    -0.203 F 
ATOM     63  C   UNL A   1      45.397  24.994  35.508  1.00  0.00     0.198 A 
ATOM     64  C   UNL A   1      46.946  26.743  34.936  1.00  0.00     0.198 A 
ATOM     65  F   UNL A   1      46.220  28.592  33.679  1.00  0.00    -0.203 F 
ATOM     66  F   UNL A   1      45.122  23.851  36.151  1.00  0.00    -0.200 F 
ATOM     67  C   UNL A   1      46.672  25.539  35.569  1.00  0.00     0.200 A 
ATOM     68  F   UNL A   1      48.181  27.259  34.979  1.00  0.00    -0.200 F 
ATOM     69  F   UNL A   1      47.637  24.907  36.249  1.00  0.00    -0.200 F 
ENDBRANCH  36  59
ENDBRANCH  10  11
ENDBRANCH   3   5
ENDBRANCH   2   3
ENDBRANCH   1   2
BRANCH   1  70
ATOM     70  C   UNL A   1      32.170  27.269  27.112  1.00  0.00     0.274 C 
BRANCH  70  71
ATOM     71  O   UNL A   1      31.343  26.234  26.575  1.00  0.00    -0.462 OA
BRANCH  71  72
ATOM     72  C   UNL A   1      31.833  24.970  26.629  1.00  0.00     0.313 C 
ATOM     73  O   UNL A   1      31.296  24.042  27.220  1.00  0.00    -0.252 OA
BRANCH  72  74
ATOM     74  C   UNL A   1      33.132  24.833  25.859  1.00  0.00     0.133 C 
BRANCH  74  75
ATOM     75  C   UNL A   1      33.984  23.695  26.470  1.00  0.00     0.055 C 
BRANCH  75  76
ATOM     76  C   UNL A   1      35.285  22.939  25.765  1.00  0.00    -0.044 A 
ATOM     77  C   UNL A   1      35.635  21.072  25.045  1.00  0.00     0.024 A 
ATOM     78  C   UNL A   1      36.734  23.915  26.199  1.00  0.00     0.024 A 
ATOM     79  C   UNL A   1      37.334  20.511  24.961  1.00  0.00     0.111 A 
ATOM     80  C   UNL A   1      38.301  23.146  26.067  1.00  0.00     0.111 A 
ATOM     81  N   UNL A   1      38.598  21.535  25.490  1.00  0.00    -0.265 NA
ENDBRANCH  75  76
ENDBRANCH  74  75
BRANCH  74  82
ATOM     82  C   UNL A   1      33.082  24.993  24.346  1.00  0.00    -0.033 A 
ATOM     83  C   UNL A   1      32.721  23.919  23.510  1.00  0.00     0.006 A 
ATOM     84  C   UNL A   1      33.496  26.180  23.726  1.00  0.00     0.006 A 
ATOM     85  C   UNL A   1      32.613  24.079  22.125  1.00  0.00     0.021 A 
ATOM     86  C   UNL A   1      33.398  26.341  22.340  1.00  0.00     0.021 A 
ATOM     87  C   UNL A   1      32.911  25.306  21.551  1.00  0.00     0.041 A 
ATOM     88  Cl  UNL A   1      32.648  25.552  19.870  1.00  0.00    -0.084 Cl
ENDBRANCH  74  82
ENDBRANCH  72  74
ENDBRANCH  71  72
ENDBRANCH  70  71
ENDBRANCH   1  70
TORSDOF 14
ENDMDL
MODEL 3
REMARK VINA RESULT:     -12.7      1.941      3.488
REMARK SMILES O=C(OCCOC(=O)[C@@H](Cc1ccncc1)c1ccc(Cl)cc1)c1ccc(-c2c3nc(c(-c4c(F)c(F)c(F)c(F)c4F)c4ccc([nH]4)c(-c4c(F)c(F)c(F)c(F)c4F)c4nc(c(-c5c(F)c(F)c(F)c(F)c5F)c5ccc2[nH]5)C=C4)C=C3)cc1
REMARK SMILES IDX 4 1 3 2 2 3 1 4 24 5 25 6 86 7 26 8 85 9 27 10 28 11 29 12
REMARK SMILES IDX 79 13 30 14 84 15 78 16 80 17 31 18 83 19 77 20 76 21 32 23
REMARK SMILES IDX 64 24 44 25 63 26 45 27 48 28 62 29 81 30 46 31 47 32 61 34
REMARK SMILES IDX 82 35 49 36 33 37 34 38 42 39 35 40 36 41 40 42 43 43 37 44
REMARK SMILES IDX 38 45 41 46 39 47 65 48 66 49 74 50 67 51 68 52 72 53 75 54
REMARK SMILES IDX 69 55 70 56 73 57 71 58 50 59 51 60 59 61 52 62 53 63 57 64
REMARK SMILES IDX 60 65 54 66 55 67 58 68 56 69 5 70 6 71 7 72 8 73 9 74 10 75
REMARK SMILES IDX 11 76 12 77 16 78 13 79 15 80 14 81 17 82 18 83 23 84 19 85
REMARK SMILES IDX 22 86 20 87 21 88
REMARK H PARENT 80 22 48 33
REMARK Flexibility Score: inf
ROOT
ATOM      1  C   UNL A   1      32.213  28.671  24.636  1.00  0.00     0.275 C 
ENDROOT
BRANCH   1   2
ATOM      2  O   UNL A   1      32.336  29.987  25.228  1.00  0.00    -0.458 OA
BRANCH   2   3
ATOM      3  C   UNL A   1      32.616  30.346  26.509  1.00  0.00     0.338 C 
ATOM      4  O   UNL A   1      31.719  30.739  27.251  1.00  0.00    -0.246 OA
BRANCH   3   5
ATOM      5  C   UNL A   1      34.009  30.579  26.972  1.00  0.00     0.060 A 
ATOM      6  C   UNL A   1      34.477  32.116  27.626  1.00  0.00     0.016 A 
ATOM      7  C   UNL A   1      34.988  29.086  27.174  1.00  0.00     0.016 A 
ATOM      8  C   UNL A   1      35.932  32.199  28.637  1.00  0.00     0.010 A 
ATOM      9  C   UNL A   1      36.441  29.004  28.197  1.00  0.00     0.010 A 
ATOM     10  C   UNL A   1      37.026  30.526  29.003  1.00  0.00    -0.014 A 
BRANCH  10  11
ATOM     11  C   UNL A   1      38.422  30.094  29.658  1.00  0.00     0.031 A 
ATOM     12  C   UNL A   1      38.776  30.668  31.017  1.00  0.00     0.074 A 
ATOM     13  C   UNL A   1      39.374  29.334  29.061  1.00  0.00     0.049 A 
ATOM     14  N   UNL A   1      39.596  30.199  31.923  1.00  0.00    -0.248 NA
ATOM     15  C   UNL A   1      38.133  31.933  31.422  1.00  0.00     0.031 C 
ATOM     16  C   UNL A   1      39.335  28.858  27.693  1.00  0.00     0.029 A 
ATOM     17  N   UNL A   1      40.540  28.765  29.528  1.00  0.00    -0.354 N 
ATOM     18  C   UNL A   1      39.423  31.008  33.037  1.00  0.00     0.074 A 
ATOM     19  C   UNL A   1      38.521  32.067  32.677  1.00  0.00     0.031 C 
ATOM     20  C   UNL A   1      40.295  27.962  27.461  1.00  0.00     0.029 A 
ATOM     21  C   UNL A   1      41.134  27.896  28.633  1.00  0.00     0.049 A 
ATOM     22  H   UNL A   1      40.916  28.962  30.417  1.00  0.00     0.167 HD
ATOM     23  C   UNL A   1      39.964  30.872  34.267  1.00  0.00     0.037 A 
ATOM     24  C   UNL A   1      42.227  27.116  28.712  1.00  0.00     0.037 A 
ATOM     25  C   UNL A   1      41.043  29.969  34.538  1.00  0.00     0.049 A 
ATOM     26  C   UNL A   1      42.915  27.057  30.035  1.00  0.00     0.074 A 
ATOM     27  C   UNL A   1      41.749  29.785  35.709  1.00  0.00     0.029 A 
ATOM     28  N   UNL A   1      41.632  29.159  33.573  1.00  0.00    -0.354 N 
ATOM     29  N   UNL A   1      42.598  27.686  31.141  1.00  0.00    -0.248 NA
ATOM     30  C   UNL A   1      44.070  26.164  30.146  1.00  0.00     0.031 C 
ATOM     31  C   UNL A   1      42.829  28.943  35.425  1.00  0.00     0.029 A 
ATOM     32  C   UNL A   1      42.739  28.526  34.104  1.00  0.00     0.049 A 
ATOM     33  H   UNL A   1      41.307  29.052  32.650  1.00  0.00     0.167 HD
ATOM     34  C   UNL A   1      43.494  27.246  32.095  1.00  0.00     0.074 A 
ATOM     35  C   UNL A   1      44.356  26.280  31.435  1.00  0.00     0.031 C 
ATOM     36  C   UNL A   1      43.592  27.602  33.399  1.00  0.00     0.037 A 
BRANCH  23  37
ATOM     37  C   UNL A   1      39.433  31.777  35.340  1.00  0.00     0.064 A 
ATOM     38  C   UNL A   1      39.928  33.084  35.500  1.00  0.00     0.173 A 
ATOM     39  C   UNL A   1      38.474  31.326  36.256  1.00  0.00     0.173 A 
ATOM     40  F   UNL A   1      40.878  33.554  34.676  1.00  0.00    -0.203 F 
ATOM     41  C   UNL A   1      39.497  33.895  36.548  1.00  0.00     0.198 A 
ATOM     42  C   UNL A   1      38.030  32.147  37.290  1.00  0.00     0.198 A 
ATOM     43  F   UNL A   1      37.992  30.078  36.169  1.00  0.00    -0.203 F 
ATOM     44  F   UNL A   1      40.028  35.114  36.715  1.00  0.00    -0.200 F 
ATOM     45  C   UNL A   1      38.547  33.425  37.441  1.00  0.00     0.200 A 
ATOM     46  F   UNL A   1      37.118  31.689  38.161  1.00  0.00    -0.200 F 
ATOM     47  F   UNL A   1      38.143  34.198  38.459  1.00  0.00    -0.200 F 
ENDBRANCH  23  37
BRANCH  24  48
ATOM     48  C   UNL A   1      42.676  26.325  27.525  1.00  0.00     0.064 A 
ATOM     49  C   UNL A   1      43.708  26.768  26.685  1.00  0.00     0.173 A 
ATOM     50  C   UNL A   1      42.122  25.061  27.246  1.00  0.00     0.173 A 
ATOM     51  F   UNL A   1      44.275  27.965  26.895  1.00  0.00    -0.203 F 
ATOM     52  C   UNL A   1      44.160  25.990  25.616  1.00  0.00     0.198 A 
ATOM     53  C   UNL A   1      42.591  24.274  26.193  1.00  0.00     0.198 A 
ATOM     54  F   UNL A   1      41.152  24.568  28.030  1.00  0.00    -0.203 F 
ATOM     55  F   UNL A   1      45.132  26.453  24.817  1.00  0.00    -0.200 F 
ATOM     56  C   UNL A   1      43.608  24.741  25.377  1.00  0.00     0.200 A 
ATOM     57  F   UNL A   1      42.066  23.060  25.983  1.00  0.00    -0.200 F 
ATOM     58  F   UNL A   1      44.054  23.990  24.360  1.00  0.00    -0.200 F 
ENDBRANCH  24  48
BRANCH  36  59
ATOM     59  C   UNL A   1      44.672  26.933  34.182  1.00  0.00     0.064 A 
ATOM     60  C   UNL A   1      45.948  27.500  34.307  1.00  0.00     0.173 A 
ATOM     61  C   UNL A   1      44.414  25.718  34.833  1.00  0.00     0.173 A 
ATOM     62  F   UNL A   1      46.240  28.653  33.686  1.00  0.00    -0.203 F 
ATOM     63  C   UNL A   1      46.943  26.850  35.026  1.00  0.00     0.198 A 
ATOM     64  C   UNL A   1      45.399  25.094  35.586  1.00  0.00     0.198 A 
ATOM     65  F   UNL A   1      43.204  25.144  34.743  1.00  0.00    -0.203 F 
ATOM     66  F   UNL A   1      48.176  27.372  35.076  1.00  0.00    -0.200 F 
ATOM     67  C   UNL A   1      46.665  25.654  35.671  1.00  0.00     0.200 A 
ATOM     68  F   UNL A   1      45.125  23.949  36.224  1.00  0.00    -0.200 F 
ATOM     69  F   UNL A   1      47.624  25.032  36.369  1.00  0.00    -0.200 F 
ENDBRANCH  36  59
ENDBRANCH  10  11
ENDBRANCH   3   5
ENDBRANCH   2   3
ENDBRANCH   1   2
BRANCH   1  70
ATOM     70  C   UNL A   1      33.435  28.184  23.838  1.00  0.00     0.274 C 
BRANCH  70  71
ATOM     71  O   UNL A   1      33.891  26.892  24.243  1.00  0.00    -0.462 OA
BRANCH  71  72
ATOM     72  C   UNL A   1      33.701  25.874  23.365  1.00  0.00     0.313 C 
ATOM     73  O   UNL A   1      33.580  26.014  22.155  1.00  0.00    -0.252 OA
BRANCH  72  74
ATOM     74  C   UNL A   1      33.667  24.527  24.060  1.00  0.00     0.133 C 
BRANCH  74  75
ATOM     75  C   UNL A   1      32.573  23.638  23.422  1.00  0.00     0.055 C 
BRANCH  75  76
ATOM     76  C   UNL A   1      32.257  22.045  23.773  1.00  0.00    -0.044 A 
ATOM     77  C   UNL A   1      32.586  20.843  25.377  1.00  0.00     0.024 A 
ATOM     78  C   UNL A   1      31.997  21.220  22.194  1.00  0.00     0.024 A 
ATOM     79  C   UNL A   1      32.664  19.075  25.099  1.00  0.00     0.111 A 
ATOM     80  C   UNL A   1      32.153  19.477  22.153  1.00  0.00     0.111 A 
ATOM     81  N   UNL A   1      32.475  18.451  23.517  1.00  0.00    -0.265 NA
ENDBRANCH  75  76
ENDBRANCH  74  75
BRANCH  74  82
ATOM     82  C   UNL A   1      34.994  23.899  24.460  1.00  0.00    -0.033 A 
ATOM     83  C   UNL A   1      35.554  24.125  25.732  1.00  0.00     0.006 A 
ATOM     84  C   UNL A   1      35.757  23.163  23.543  1.00  0.00     0.006 A 
ATOM     85  C   UNL A   1      36.742  23.500  26.126  1.00  0.00     0.021 A 
ATOM     86  C   UNL A   1      36.950  22.544  23.930  1.00  0.00     0.021 A 
ATOM     87  C   UNL A   1      37.412  22.676  25.235  1.00  0.00     0.041 A 
ATOM     88  Cl  UNL A   1      38.794  21.796  25.754  1.00  0.00    -0.084 Cl
ENDBRANCH  74  82
ENDBRANCH  72  74
ENDBRANCH  71  72
ENDBRANCH  70  71
ENDBRANCH   1  70
TORSDOF 14
ENDMDL
