MODEL 1
REMARK VINA RESULT:     -12.6      0.000      0.000
REMARK SMILES CC1(C)[C@H](C(=O)Nc2cccc3[nH]ccc23)[C@H]1C(=O)OCCOC(=O)c1ccc(-c2c3nc(c(-c4c(F)c(F)c(F)c(F)c4F)c4ccc([nH]4)c(-c4c(F)c(F)c(F)c(F)c4F)c4nc(c(-c5c(F)c(F)c(F)c(F)c5F)c5ccc2[nH]5)C=C4)C=C3)cc1
REMARK SMILES IDX 21 1 20 2 18 3 19 4 17 5 1 6 2 7 3 8 4 9 5 10 6 11 7 12 8 14
REMARK SMILES IDX 9 15 16 16 10 17 12 18 15 19 11 20 13 21 14 22 22 24 23 25
REMARK SMILES IDX 24 26 25 27 26 28 27 29 88 30 28 31 87 32 29 33 30 34 31 35
REMARK SMILES IDX 81 36 32 37 86 38 80 39 82 40 33 41 85 42 79 43 78 44 34 46
REMARK SMILES IDX 66 47 46 48 65 49 47 50 50 51 64 52 83 53 48 54 49 55 63 57
REMARK SMILES IDX 84 58 51 59 35 60 36 61 44 62 37 63 38 64 42 65 45 66 39 67
REMARK SMILES IDX 40 68 43 69 41 70 67 71 68 72 76 73 69 74 70 75 74 76 77 77
REMARK SMILES IDX 71 78 72 79 75 80 73 81 52 82 53 83 61 84 54 85 55 86 59 87
REMARK SMILES IDX 62 88 56 89 57 90 60 91 58 92
REMARK H PARENT 7 13 13 23 82 45 50 56
REMARK Flexibility Score: inf
ROOT
ATOM      1  C   UNL A   1      35.653  20.395  24.992  1.00  0.00     0.274 C 
ENDROOT
BRANCH   1   2
ATOM      2  O   UNL A   1      35.266  21.754  25.255  1.00  0.00    -0.462 OA
BRANCH   2   3
ATOM      3  C   UNL A   1      34.345  21.961  26.226  1.00  0.00     0.310 C 
ATOM      4  O   UNL A   1      34.456  21.664  27.406  1.00  0.00    -0.252 OA
BRANCH   3   5
ATOM      5  C   UNL A   1      33.185  22.745  25.747  1.00  0.00     0.118 C 
ATOM      6  C   UNL A   1      32.173  20.840  24.213  1.00  0.00     0.013 C 
ATOM      7  C   UNL A   1      32.158  22.255  24.739  1.00  0.00    -0.009 C 
ATOM      8  C   UNL A   1      31.807  23.248  23.660  1.00  0.00     0.013 C 
ATOM      9  C   UNL A   1      31.802  22.414  26.223  1.00  0.00     0.100 C 
BRANCH   9  10
ATOM     10  C   UNL A   1      30.856  23.406  26.823  1.00  0.00     0.228 C 
ATOM     11  O   UNL A   1      29.928  22.982  27.504  1.00  0.00    -0.274 OA
ATOM     12  N   UNL A   1      31.246  24.726  26.880  1.00  0.00    -0.325 N 
ATOM     13  H   UNL A   1      31.708  25.022  27.697  1.00  0.00     0.169 HD
BRANCH  12  14
ATOM     14  C   UNL A   1      31.043  25.691  25.871  1.00  0.00     0.050 A 
ATOM     15  C   UNL A   1      29.824  25.800  25.196  1.00  0.00     0.027 A 
ATOM     16  C   UNL A   1      32.065  26.617  25.543  1.00  0.00     0.023 A 
ATOM     17  C   UNL A   1      29.656  26.661  24.115  1.00  0.00     0.004 A 
ATOM     18  C   UNL A   1      31.864  27.487  24.464  1.00  0.00     0.047 A 
ATOM     19  C   UNL A   1      33.364  26.905  26.057  1.00  0.00     0.030 A 
ATOM     20  C   UNL A   1      30.691  27.499  23.705  1.00  0.00     0.027 A 
ATOM     21  N   UNL A   1      33.005  28.248  24.326  1.00  0.00    -0.361 N 
ATOM     22  C   UNL A   1      33.903  27.925  25.307  1.00  0.00     0.083 A 
ATOM     23  H   UNL A   1      33.151  28.924  23.625  1.00  0.00     0.166 HD
ENDBRANCH  12  14
ENDBRANCH   9  10
ENDBRANCH   3   5
ENDBRANCH   2   3
ENDBRANCH   1   2
BRANCH   1  24
ATOM     24  C   UNL A   1      37.176  20.318  24.883  1.00  0.00     0.275 C 
BRANCH  24  25
ATOM     25  O   UNL A   1      37.779  21.443  25.555  1.00  0.00    -0.458 OA
BRANCH  25  26
ATOM     26  C   UNL A   1      39.015  21.215  26.053  1.00  0.00     0.338 C 
ATOM     27  O   UNL A   1      39.685  20.200  25.968  1.00  0.00    -0.246 OA
BRANCH  26  28
ATOM     28  C   UNL A   1      39.532  22.446  26.662  1.00  0.00     0.060 A 
ATOM     29  C   UNL A   1      39.022  23.659  26.215  1.00  0.00     0.016 A 
ATOM     30  C   UNL A   1      40.615  22.418  27.539  1.00  0.00     0.016 A 
ATOM     31  C   UNL A   1      39.655  24.846  26.558  1.00  0.00     0.010 A 
ATOM     32  C   UNL A   1      41.201  23.625  27.947  1.00  0.00     0.010 A 
ATOM     33  C   UNL A   1      40.758  24.852  27.421  1.00  0.00    -0.014 A 
BRANCH  33  34
ATOM     34  C   UNL A   1      41.463  26.138  27.699  1.00  0.00     0.031 A 
ATOM     35  C   UNL A   1      40.808  27.202  28.541  1.00  0.00     0.074 A 
ATOM     36  C   UNL A   1      42.725  26.333  27.261  1.00  0.00     0.049 A 
ATOM     37  N   UNL A   1      41.232  28.408  28.831  1.00  0.00    -0.248 NA
ATOM     38  C   UNL A   1      39.502  26.872  29.133  1.00  0.00     0.031 C 
ATOM     39  C   UNL A   1      43.502  25.376  26.475  1.00  0.00     0.029 A 
ATOM     40  N   UNL A   1      43.582  27.393  27.435  1.00  0.00    -0.354 N 
ATOM     41  C   UNL A   1      40.222  28.998  29.581  1.00  0.00     0.074 A 
ATOM     42  C   UNL A   1      39.166  28.017  29.707  1.00  0.00     0.031 C 
ATOM     43  C   UNL A   1      44.733  25.869  26.273  1.00  0.00     0.029 A 
ATOM     44  C   UNL A   1      44.811  27.208  26.845  1.00  0.00     0.049 A 
ATOM     45  H   UNL A   1      43.341  28.206  27.935  1.00  0.00     0.167 HD
ATOM     46  C   UNL A   1      40.177  30.244  30.116  1.00  0.00     0.037 A 
ATOM     47  C   UNL A   1      45.871  28.032  26.746  1.00  0.00     0.037 A 
ATOM     48  C   UNL A   1      41.248  31.205  30.038  1.00  0.00     0.049 A 
ATOM     49  C   UNL A   1      45.793  29.412  27.337  1.00  0.00     0.074 A 
ATOM     50  C   UNL A   1      41.297  32.485  30.564  1.00  0.00     0.029 A 
ATOM     51  N   UNL A   1      42.461  30.989  29.404  1.00  0.00    -0.354 N 
ATOM     52  N   UNL A   1      44.817  29.967  28.014  1.00  0.00    -0.248 NA
ATOM     53  C   UNL A   1      46.958  30.285  27.137  1.00  0.00     0.031 C 
ATOM     54  C   UNL A   1      42.526  33.056  30.218  1.00  0.00     0.029 A 
ATOM     55  C   UNL A   1      43.262  32.115  29.519  1.00  0.00     0.049 A 
ATOM     56  H   UNL A   1      42.717  30.159  28.941  1.00  0.00     0.167 HD
ATOM     57  C   UNL A   1      45.253  31.247  28.328  1.00  0.00     0.074 A 
ATOM     58  C   UNL A   1      46.592  31.377  27.794  1.00  0.00     0.031 C 
ATOM     59  C   UNL A   1      44.597  32.230  28.991  1.00  0.00     0.037 A 
BRANCH  46  60
ATOM     60  C   UNL A   1      38.912  30.659  30.810  1.00  0.00     0.064 A 
ATOM     61  C   UNL A   1      38.766  30.578  32.202  1.00  0.00     0.173 A 
ATOM     62  C   UNL A   1      37.846  31.193  30.068  1.00  0.00     0.173 A 
ATOM     63  F   UNL A   1      39.750  30.064  32.954  1.00  0.00    -0.203 F 
ATOM     64  C   UNL A   1      37.591  30.993  32.824  1.00  0.00     0.198 A 
ATOM     65  C   UNL A   1      36.683  31.634  30.696  1.00  0.00     0.198 A 
ATOM     66  F   UNL A   1      37.937  31.300  28.734  1.00  0.00    -0.203 F 
ATOM     67  F   UNL A   1      37.456  30.866  34.152  1.00  0.00    -0.200 F 
ATOM     68  C   UNL A   1      36.554  31.529  32.072  1.00  0.00     0.200 A 
ATOM     69  F   UNL A   1      35.691  32.164  29.968  1.00  0.00    -0.200 F 
ATOM     70  F   UNL A   1      35.428  31.936  32.674  1.00  0.00    -0.200 F 
ENDBRANCH  46  60
BRANCH  47  71
ATOM     71  C   UNL A   1      47.098  27.580  26.039  1.00  0.00     0.064 A 
ATOM     72  C   UNL A   1      47.208  27.690  24.646  1.00  0.00     0.173 A 
ATOM     73  C   UNL A   1      48.183  27.027  26.736  1.00  0.00     0.173 A 
ATOM     74  F   UNL A   1      46.187  28.191  23.933  1.00  0.00    -0.203 F 
ATOM     75  C   UNL A   1      48.347  27.251  23.976  1.00  0.00     0.198 A 
ATOM     76  C   UNL A   1      49.336  26.620  26.069  1.00  0.00     0.198 A 
ATOM     77  F   UNL A   1      48.129  26.899  28.070  1.00  0.00    -0.203 F 
ATOM     78  F   UNL A   1      48.406  27.325  22.639  1.00  0.00    -0.200 F 
ATOM     79  C   UNL A   1      49.414  26.725  24.689  1.00  0.00     0.200 A 
ATOM     80  F   UNL A   1      50.370  26.127  26.764  1.00  0.00    -0.200 F 
ATOM     81  F   UNL A   1      50.514  26.311  24.046  1.00  0.00    -0.200 F 
ENDBRANCH  47  71
BRANCH  59  82
ATOM     82  C   UNL A   1      45.331  33.522  29.208  1.00  0.00     0.064 A 
ATOM     83  C   UNL A   1      45.238  34.584  28.298  1.00  0.00     0.173 A 
ATOM     84  C   UNL A   1      46.117  33.707  30.356  1.00  0.00     0.173 A 
ATOM     85  F   UNL A   1      44.513  34.451  27.177  1.00  0.00    -0.203 F 
ATOM     86  C   UNL A   1      45.927  35.775  28.514  1.00  0.00     0.198 A 
ATOM     87  C   UNL A   1      46.781  34.909  30.583  1.00  0.00     0.198 A 
ATOM     88  F   UNL A   1      46.234  32.724  31.261  1.00  0.00    -0.203 F 
ATOM     89  F   UNL A   1      45.863  36.759  27.606  1.00  0.00    -0.200 F 
ATOM     90  C   UNL A   1      46.692  35.938  29.659  1.00  0.00     0.200 A 
ATOM     91  F   UNL A   1      47.511  35.070  31.696  1.00  0.00    -0.200 F 
ATOM     92  F   UNL A   1      47.352  37.086  29.866  1.00  0.00    -0.200 F 
ENDBRANCH  59  82
ENDBRANCH  33  34
ENDBRANCH  26  28
ENDBRANCH  25  26
ENDBRANCH  24  25
ENDBRANCH   1  24
TORSDOF 13
ENDMDL
MODEL 2
REMARK VINA RESULT:     -12.6      0.140      1.607
REMARK SMILES CC1(C)[C@H](C(=O)Nc2cccc3[nH]ccc23)[C@H]1C(=O)OCCOC(=O)c1ccc(-c2c3nc(c(-c4c(F)c(F)c(F)c(F)c4F)c4ccc([nH]4)c(-c4c(F)c(F)c(F)c(F)c4F)c4nc(c(-c5c(F)c(F)c(F)c(F)c5F)c5ccc2[nH]5)C=C4)C=C3)cc1
REMARK SMILES IDX 21 1 20 2 18 3 19 4 17 5 1 6 2 7 3 8 4 9 5 10 6 11 7 12 8 14
REMARK SMILES IDX 9 15 16 16 10 17 12 18 15 19 11 20 13 21 14 22 22 24 23 25
REMARK SMILES IDX 24 26 25 27 26 28 27 29 88 30 28 31 87 32 29 33 30 34 31 35
REMARK SMILES IDX 81 36 32 37 86 38 80 39 82 40 33 41 85 42 79 43 78 44 34 46
REMARK SMILES IDX 66 47 46 48 65 49 47 50 50 51 64 52 83 53 48 54 49 55 63 57
REMARK SMILES IDX 84 58 51 59 35 60 36 61 44 62 37 63 38 64 42 65 45 66 39 67
REMARK SMILES IDX 40 68 43 69 41 70 67 71 68 72 76 73 69 74 70 75 74 76 77 77
REMARK SMILES IDX 71 78 72 79 75 80 73 81 52 82 53 83 61 84 54 85 55 86 59 87
REMARK SMILES IDX 62 88 56 89 57 90 60 91 58 92
REMARK H PARENT 7 13 13 23 82 45 50 56
REMARK Flexibility Score: inf
ROOT
ATOM      1  C   UNL A   1      35.615  20.635  24.982  1.00  0.00     0.274 C 
ENDROOT
BRANCH   1   2
ATOM      2  O   UNL A   1      35.326  21.925  25.546  1.00  0.00    -0.462 OA
BRANCH   2   3
ATOM      3  C   UNL A   1      34.301  22.002  26.429  1.00  0.00     0.310 C 
ATOM      4  O   UNL A   1      34.317  21.631  27.592  1.00  0.00    -0.252 OA
BRANCH   3   5
ATOM      5  C   UNL A   1      33.140  22.739  25.883  1.00  0.00     0.118 C 
ATOM      6  C   UNL A   1      32.199  20.742  24.423  1.00  0.00     0.013 C 
ATOM      7  C   UNL A   1      32.146  22.181  24.876  1.00  0.00    -0.009 C 
ATOM      8  C   UNL A   1      31.805  23.111  23.741  1.00  0.00     0.013 C 
ATOM      9  C   UNL A   1      31.751  22.407  26.342  1.00  0.00     0.100 C 
BRANCH   9  10
ATOM     10  C   UNL A   1      30.773  23.409  26.869  1.00  0.00     0.228 C 
ATOM     11  O   UNL A   1      29.815  22.999  27.514  1.00  0.00    -0.274 OA
ATOM     12  N   UNL A   1      31.156  24.732  26.910  1.00  0.00    -0.325 N 
ATOM     13  H   UNL A   1      31.576  25.052  27.740  1.00  0.00     0.169 HD
BRANCH  12  14
ATOM     14  C   UNL A   1      30.999  25.670  25.866  1.00  0.00     0.050 A 
ATOM     15  C   UNL A   1      29.781  25.826  25.199  1.00  0.00     0.027 A 
ATOM     16  C   UNL A   1      32.070  26.520  25.495  1.00  0.00     0.023 A 
ATOM     17  C   UNL A   1      29.653  26.655  24.087  1.00  0.00     0.004 A 
ATOM     18  C   UNL A   1      31.909  27.359  24.385  1.00  0.00     0.047 A 
ATOM     19  C   UNL A   1      33.390  26.749  25.986  1.00  0.00     0.030 A 
ATOM     20  C   UNL A   1      30.730  27.414  23.637  1.00  0.00     0.027 A 
ATOM     21  N   UNL A   1      33.092  28.045  24.208  1.00  0.00    -0.361 N 
ATOM     22  C   UNL A   1      33.981  27.706  25.192  1.00  0.00     0.083 A 
ATOM     23  H   UNL A   1      33.270  28.685  23.481  1.00  0.00     0.166 HD
ENDBRANCH  12  14
ENDBRANCH   9  10
ENDBRANCH   3   5
ENDBRANCH   2   3
ENDBRANCH   1   2
BRANCH   1  24
ATOM     24  C   UNL A   1      37.128  20.422  24.965  1.00  0.00     0.275 C 
BRANCH  24  25
ATOM     25  O   UNL A   1      37.799  21.579  25.505  1.00  0.00    -0.458 OA
BRANCH  25  26
ATOM     26  C   UNL A   1      39.008  21.333  26.057  1.00  0.00     0.338 C 
ATOM     27  O   UNL A   1      39.658  20.302  26.016  1.00  0.00    -0.246 OA
BRANCH  26  28
ATOM     28  C   UNL A   1      39.527  22.561  26.668  1.00  0.00     0.060 A 
ATOM     29  C   UNL A   1      39.032  23.777  26.210  1.00  0.00     0.016 A 
ATOM     30  C   UNL A   1      40.599  22.528  27.559  1.00  0.00     0.016 A 
ATOM     31  C   UNL A   1      39.670  24.960  26.557  1.00  0.00     0.010 A 
ATOM     32  C   UNL A   1      41.189  23.733  27.970  1.00  0.00     0.010 A 
ATOM     33  C   UNL A   1      40.763  24.961  27.434  1.00  0.00    -0.014 A 
BRANCH  33  34
ATOM     34  C   UNL A   1      41.474  26.242  27.716  1.00  0.00     0.031 A 
ATOM     35  C   UNL A   1      40.830  27.301  28.572  1.00  0.00     0.074 A 
ATOM     36  C   UNL A   1      42.732  26.437  27.268  1.00  0.00     0.049 A 
ATOM     37  N   UNL A   1      41.261  28.503  28.868  1.00  0.00    -0.248 NA
ATOM     38  C   UNL A   1      39.529  26.971  29.173  1.00  0.00     0.031 C 
ATOM     39  C   UNL A   1      43.499  25.484  26.467  1.00  0.00     0.029 A 
ATOM     40  N   UNL A   1      43.594  27.493  27.443  1.00  0.00    -0.354 N 
ATOM     41  C   UNL A   1      40.259  29.091  29.632  1.00  0.00     0.074 A 
ATOM     42  C   UNL A   1      39.201  28.112  29.760  1.00  0.00     0.031 C 
ATOM     43  C   UNL A   1      44.730  25.975  26.258  1.00  0.00     0.029 A 
ATOM     44  C   UNL A   1      44.817  27.309  26.840  1.00  0.00     0.049 A 
ATOM     45  H   UNL A   1      43.360  28.302  27.952  1.00  0.00     0.167 HD
ATOM     46  C   UNL A   1      40.223  30.332  30.177  1.00  0.00     0.037 A 
ATOM     47  C   UNL A   1      45.879  28.131  26.738  1.00  0.00     0.037 A 
ATOM     48  C   UNL A   1      41.296  31.291  30.098  1.00  0.00     0.049 A 
ATOM     49  C   UNL A   1      45.810  29.506  27.341  1.00  0.00     0.074 A 
ATOM     50  C   UNL A   1      41.354  32.566  30.634  1.00  0.00     0.029 A 
ATOM     51  N   UNL A   1      42.502  31.076  29.451  1.00  0.00    -0.354 N 
ATOM     52  N   UNL A   1      44.843  30.058  28.031  1.00  0.00    -0.248 NA
ATOM     53  C   UNL A   1      46.976  30.377  27.137  1.00  0.00     0.031 C 
ATOM     54  C   UNL A   1      42.581  33.137  30.281  1.00  0.00     0.029 A 
ATOM     55  C   UNL A   1      43.308  32.199  29.567  1.00  0.00     0.049 A 
ATOM     56  H   UNL A   1      42.751  30.249  28.979  1.00  0.00     0.167 HD
ATOM     57  C   UNL A   1      45.285  31.334  28.351  1.00  0.00     0.074 A 
ATOM     58  C   UNL A   1      46.620  31.465  27.806  1.00  0.00     0.031 C 
ATOM     59  C   UNL A   1      44.639  32.315  29.028  1.00  0.00     0.037 A 
BRANCH  46  60
ATOM     60  C   UNL A   1      38.966  30.746  30.886  1.00  0.00     0.064 A 
ATOM     61  C   UNL A   1      38.815  30.610  32.274  1.00  0.00     0.173 A 
ATOM     62  C   UNL A   1      37.913  31.333  30.166  1.00  0.00     0.173 A 
ATOM     63  F   UNL A   1      39.786  30.044  33.005  1.00  0.00    -0.203 F 
ATOM     64  C   UNL A   1      37.647  31.025  32.910  1.00  0.00     0.198 A 
ATOM     65  C   UNL A   1      36.759  31.773  30.810  1.00  0.00     0.198 A 
ATOM     66  F   UNL A   1      38.010  31.493  28.838  1.00  0.00    -0.203 F 
ATOM     67  F   UNL A   1      37.507  30.846  34.232  1.00  0.00    -0.200 F 
ATOM     68  C   UNL A   1      36.624  31.613  32.180  1.00  0.00     0.200 A 
ATOM     69  F   UNL A   1      35.779  32.354  30.103  1.00  0.00    -0.200 F 
ATOM     70  F   UNL A   1      35.506  32.020  32.797  1.00  0.00    -0.200 F 
ENDBRANCH  46  60
BRANCH  47  71
ATOM     71  C   UNL A   1      47.098  27.681  26.016  1.00  0.00     0.064 A 
ATOM     72  C   UNL A   1      48.208  27.187  26.715  1.00  0.00     0.173 A 
ATOM     73  C   UNL A   1      47.182  27.738  24.616  1.00  0.00     0.173 A 
ATOM     74  F   UNL A   1      48.184  27.136  28.055  1.00  0.00    -0.203 F 
ATOM     75  C   UNL A   1      49.360  26.782  26.044  1.00  0.00     0.198 A 
ATOM     76  C   UNL A   1      48.321  27.300  23.944  1.00  0.00     0.198 A 
ATOM     77  F   UNL A   1      46.148  28.202  23.900  1.00  0.00    -0.203 F 
ATOM     78  F   UNL A   1      50.423  26.358  26.740  1.00  0.00    -0.200 F 
ATOM     79  C   UNL A   1      49.412  26.830  24.659  1.00  0.00     0.200 A 
ATOM     80  F   UNL A   1      48.360  27.334  22.605  1.00  0.00    -0.200 F 
ATOM     81  F   UNL A   1      50.516  26.432  24.013  1.00  0.00    -0.200 F 
ENDBRANCH  47  71
BRANCH  59  82
ATOM     82  C   UNL A   1      45.379  33.602  29.249  1.00  0.00     0.064 A 
ATOM     83  C   UNL A   1      46.202  33.795  30.367  1.00  0.00     0.173 A 
ATOM     84  C   UNL A   1      45.281  34.645  28.315  1.00  0.00     0.173 A 
ATOM     85  F   UNL A   1      46.316  32.835  31.296  1.00  0.00    -0.203 F 
ATOM     86  C   UNL A   1      46.881  34.997  30.557  1.00  0.00     0.198 A 
ATOM     87  C   UNL A   1      45.984  35.834  28.494  1.00  0.00     0.198 A 
ATOM     88  F   UNL A   1      44.512  34.509  27.226  1.00  0.00    -0.203 F 
ATOM     89  F   UNL A   1      47.623  35.178  31.658  1.00  0.00    -0.200 F 
ATOM     90  C   UNL A   1      46.775  36.012  29.618  1.00  0.00     0.200 A 
ATOM     91  F   UNL A   1      45.890  36.810  27.579  1.00  0.00    -0.200 F 
ATOM     92  F   UNL A   1      47.430  37.167  29.801  1.00  0.00    -0.200 F 
ENDBRANCH  59  82
ENDBRANCH  33  34
ENDBRANCH  26  28
ENDBRANCH  25  26
ENDBRANCH  24  25
ENDBRANCH   1  24
TORSDOF 13
ENDMDL
MODEL 3
REMARK VINA RESULT:     -12.5      4.450      9.628
REMARK SMILES CC1(C)[C@H](C(=O)Nc2cccc3[nH]ccc23)[C@H]1C(=O)OCCOC(=O)c1ccc(-c2c3nc(c(-c4c(F)c(F)c(F)c(F)c4F)c4ccc([nH]4)c(-c4c(F)c(F)c(F)c(F)c4F)c4nc(c(-c5c(F)c(F)c(F)c(F)c5F)c5ccc2[nH]5)C=C4)C=C3)cc1
REMARK SMILES IDX 21 1 20 2 18 3 19 4 17 5 1 6 2 7 3 8 4 9 5 10 6 11 7 12 8 14
REMARK SMILES IDX 9 15 16 16 10 17 12 18 15 19 11 20 13 21 14 22 22 24 23 25
REMARK SMILES IDX 24 26 25 27 26 28 27 29 88 30 28 31 87 32 29 33 30 34 31 35
REMARK SMILES IDX 81 36 32 37 86 38 80 39 82 40 33 41 85 42 79 43 78 44 34 46
REMARK SMILES IDX 66 47 46 48 65 49 47 50 50 51 64 52 83 53 48 54 49 55 63 57
REMARK SMILES IDX 84 58 51 59 35 60 36 61 44 62 37 63 38 64 42 65 45 66 39 67
REMARK SMILES IDX 40 68 43 69 41 70 67 71 68 72 76 73 69 74 70 75 74 76 77 77
REMARK SMILES IDX 71 78 72 79 75 80 73 81 52 82 53 83 61 84 54 85 55 86 59 87
REMARK SMILES IDX 62 88 56 89 57 90 60 91 58 92
REMARK H PARENT 7 13 13 23 82 45 50 56
REMARK Flexibility Score: inf
ROOT
ATOM      1  C   UNL A   1      31.384  29.374  25.145  1.00  0.00     0.274 C 
ENDROOT
BRANCH   1   2
ATOM      2  O   UNL A   1      32.234  28.237  25.373  1.00  0.00    -0.462 OA
BRANCH   2   3
ATOM      3  C   UNL A   1      31.655  27.118  25.870  1.00  0.00     0.310 C 
ATOM      4  O   UNL A   1      31.023  27.030  26.911  1.00  0.00    -0.252 OA
BRANCH   3   5
ATOM      5  C   UNL A   1      31.736  25.976  24.932  1.00  0.00     0.118 C 
ATOM      6  C   UNL A   1      29.945  26.897  23.214  1.00  0.00     0.013 C 
ATOM      7  C   UNL A   1      30.888  25.814  23.679  1.00  0.00    -0.009 C 
ATOM      8  C   UNL A   1      30.298  24.440  23.488  1.00  0.00     0.013 C 
ATOM      9  C   UNL A   1      32.384  26.145  23.590  1.00  0.00     0.100 C 
BRANCH   9  10
ATOM     10  C   UNL A   1      33.473  25.266  23.061  1.00  0.00     0.228 C 
ATOM     11  O   UNL A   1      34.014  25.585  22.008  1.00  0.00    -0.274 OA
ATOM     12  N   UNL A   1      34.048  24.355  23.920  1.00  0.00    -0.325 N 
ATOM     13  H   UNL A   1      34.845  24.649  24.417  1.00  0.00     0.169 HD
BRANCH  12  14
ATOM     14  C   UNL A   1      33.595  23.038  24.150  1.00  0.00     0.050 A 
ATOM     15  C   UNL A   1      33.083  22.248  23.117  1.00  0.00     0.027 A 
ATOM     16  C   UNL A   1      33.693  22.458  25.439  1.00  0.00     0.023 A 
ATOM     17  C   UNL A   1      32.518  20.999  23.358  1.00  0.00     0.004 A 
ATOM     18  C   UNL A   1      33.135  21.191  25.652  1.00  0.00     0.047 A 
ATOM     19  C   UNL A   1      34.241  22.872  26.690  1.00  0.00     0.030 A 
ATOM     20  C   UNL A   1      32.502  20.460  24.643  1.00  0.00     0.027 A 
ATOM     21  N   UNL A   1      33.322  20.871  26.979  1.00  0.00    -0.361 N 
ATOM     22  C   UNL A   1      34.020  21.868  27.606  1.00  0.00     0.083 A 
ATOM     23  H   UNL A   1      33.002  20.047  27.412  1.00  0.00     0.166 HD
ENDBRANCH  12  14
ENDBRANCH   9  10
ENDBRANCH   3   5
ENDBRANCH   2   3
ENDBRANCH   1   2
BRANCH   1  24
ATOM     24  C   UNL A   1      31.773  30.494  26.108  1.00  0.00     0.275 C 
BRANCH  24  25
ATOM     25  O   UNL A   1      33.194  30.468  26.352  1.00  0.00    -0.458 OA
BRANCH  25  26
ATOM     26  C   UNL A   1      33.650  31.431  27.184  1.00  0.00     0.338 C 
ATOM     27  O   UNL A   1      33.071  32.437  27.559  1.00  0.00    -0.246 OA
BRANCH  26  28
ATOM     28  C   UNL A   1      34.972  31.053  27.695  1.00  0.00     0.060 A 
ATOM     29  C   UNL A   1      35.193  29.716  28.006  1.00  0.00     0.016 A 
ATOM     30  C   UNL A   1      35.925  32.017  28.018  1.00  0.00     0.016 A 
ATOM     31  C   UNL A   1      36.317  29.349  28.733  1.00  0.00     0.010 A 
ATOM     32  C   UNL A   1      37.098  31.629  28.682  1.00  0.00     0.010 A 
ATOM     33  C   UNL A   1      37.285  30.297  29.092  1.00  0.00    -0.014 A 
BRANCH  33  34
ATOM     34  C   UNL A   1      38.435  29.881  29.946  1.00  0.00     0.031 A 
ATOM     35  C   UNL A   1      39.510  28.980  29.394  1.00  0.00     0.074 A 
ATOM     36  C   UNL A   1      38.566  30.366  31.198  1.00  0.00     0.049 A 
ATOM     37  N   UNL A   1      40.545  28.455  30.003  1.00  0.00    -0.248 NA
ATOM     38  C   UNL A   1      39.407  28.616  27.973  1.00  0.00     0.031 C 
ATOM     39  C   UNL A   1      37.631  31.281  31.851  1.00  0.00     0.029 A 
ATOM     40  N   UNL A   1      39.551  30.173  32.138  1.00  0.00    -0.354 N 
ATOM     41  C   UNL A   1      41.176  27.652  29.059  1.00  0.00     0.074 A 
ATOM     42  C   UNL A   1      40.412  27.763  27.836  1.00  0.00     0.031 C 
ATOM     43  C   UNL A   1      38.106  31.607  33.062  1.00  0.00     0.029 A 
ATOM     44  C   UNL A   1      39.337  30.864  33.307  1.00  0.00     0.049 A 
ATOM     45  H   UNL A   1      40.334  29.596  31.988  1.00  0.00     0.167 HD
ATOM     46  C   UNL A   1      42.290  26.892  29.200  1.00  0.00     0.037 A 
ATOM     47  C   UNL A   1      40.033  30.879  34.460  1.00  0.00     0.037 A 
ATOM     48  C   UNL A   1      43.085  26.819  30.399  1.00  0.00     0.049 A 
ATOM     49  C   UNL A   1      41.258  30.018  34.594  1.00  0.00     0.074 A 
ATOM     50  C   UNL A   1      44.238  26.089  30.627  1.00  0.00     0.029 A 
ATOM     51  N   UNL A   1      42.815  27.510  31.570  1.00  0.00    -0.354 N 
ATOM     52  N   UNL A   1      41.823  29.239  33.704  1.00  0.00    -0.248 NA
ATOM     53  C   UNL A   1      41.934  30.028  35.899  1.00  0.00     0.031 C 
ATOM     54  C   UNL A   1      44.647  26.309  31.946  1.00  0.00     0.029 A 
ATOM     55  C   UNL A   1      43.776  27.216  32.525  1.00  0.00     0.049 A 
ATOM     56  H   UNL A   1      42.054  28.120  31.703  1.00  0.00     0.167 HD
ATOM     57  C   UNL A   1      42.922  28.675  34.336  1.00  0.00     0.074 A 
ATOM     58  C   UNL A   1      42.964  29.223  35.676  1.00  0.00     0.031 C 
ATOM     59  C   UNL A   1      43.812  27.774  33.853  1.00  0.00     0.037 A 
BRANCH  46  60
ATOM     60  C   UNL A   1      42.706  26.044  28.032  1.00  0.00     0.064 A 
ATOM     61  C   UNL A   1      42.215  24.744  27.844  1.00  0.00     0.173 A 
ATOM     62  C   UNL A   1      43.575  26.564  27.059  1.00  0.00     0.173 A 
ATOM     63  F   UNL A   1      41.392  24.196  28.752  1.00  0.00    -0.203 F 
ATOM     64  C   UNL A   1      42.597  23.987  26.740  1.00  0.00     0.198 A 
ATOM     65  C   UNL A   1      43.932  25.814  25.940  1.00  0.00     0.198 A 
ATOM     66  F   UNL A   1      44.067  27.805  27.186  1.00  0.00    -0.203 F 
ATOM     67  F   UNL A   1      42.150  22.730  26.603  1.00  0.00    -0.200 F 
ATOM     68  C   UNL A   1      43.448  24.525  25.784  1.00  0.00     0.200 A 
ATOM     69  F   UNL A   1      44.742  26.343  25.013  1.00  0.00    -0.200 F 
ATOM     70  F   UNL A   1      43.806  23.798  24.717  1.00  0.00    -0.200 F 
ENDBRANCH  46  60
BRANCH  47  71
ATOM     71  C   UNL A   1      39.575  31.726  35.593  1.00  0.00     0.064 A 
ATOM     72  C   UNL A   1      38.578  31.277  36.470  1.00  0.00     0.173 A 
ATOM     73  C   UNL A   1      40.119  32.999  35.820  1.00  0.00     0.173 A 
ATOM     74  F   UNL A   1      38.011  30.077  36.279  1.00  0.00    -0.203 F 
ATOM     75  C   UNL A   1      38.132  32.074  37.522  1.00  0.00     0.198 A 
ATOM     76  C   UNL A   1      39.697  33.781  36.893  1.00  0.00     0.198 A 
ATOM     77  F   UNL A   1      41.075  33.475  35.010  1.00  0.00    -0.203 F 
ATOM     78  F   UNL A   1      37.145  31.640  38.317  1.00  0.00    -0.200 F 
ATOM     79  C   UNL A   1      38.698  33.322  37.738  1.00  0.00     0.200 A 
ATOM     80  F   UNL A   1      40.258  34.979  37.107  1.00  0.00    -0.200 F 
ATOM     81  F   UNL A   1      38.276  34.085  38.754  1.00  0.00    -0.200 F 
ENDBRANCH  47  71
BRANCH  59  82
ATOM     82  C   UNL A   1      44.928  27.352  34.764  1.00  0.00     0.064 A 
ATOM     83  C   UNL A   1      46.135  28.063  34.829  1.00  0.00     0.173 A 
ATOM     84  C   UNL A   1      44.776  26.236  35.601  1.00  0.00     0.173 A 
ATOM     85  F   UNL A   1      46.335  29.127  34.037  1.00  0.00    -0.203 F 
ATOM     86  C   UNL A   1      47.160  27.656  35.679  1.00  0.00     0.198 A 
ATOM     87  C   UNL A   1      45.793  25.850  36.470  1.00  0.00     0.198 A 
ATOM     88  F   UNL A   1      43.639  25.525  35.582  1.00  0.00    -0.203 F 
ATOM     89  F   UNL A   1      48.324  28.321  35.689  1.00  0.00    -0.200 F 
ATOM     90  C   UNL A   1      46.986  26.554  36.502  1.00  0.00     0.200 A 
ATOM     91  F   UNL A   1      45.618  24.791  37.275  1.00  0.00    -0.200 F 
ATOM     92  F   UNL A   1      47.973  26.166  37.322  1.00  0.00    -0.200 F 
ENDBRANCH  59  82
ENDBRANCH  33  34
ENDBRANCH  26  28
ENDBRANCH  25  26
ENDBRANCH  24  25
ENDBRANCH   1  24
TORSDOF 13
ENDMDL
