MODEL 1
REMARK VINA RESULT:     -13.1      0.000      0.000
REMARK SMILES Cc1ccc(O[C@H](C)C(=O)Nc2ccsc2C(=O)OCCOC(=O)c2ccc(-c3c4nc(c(-c5c(F)c(F)c(F)c(F)c5F)c5ccc([nH]5)c(-c5c(F)c(F)c(F)c(F)c5F)c5nc(c(-c6c(F)c(F)c(F)c(F)c6F)c6ccc3[nH]6)C=C5)C=C4)cc2)cc1
REMARK SMILES IDX 20 1 19 2 17 3 18 4 16 5 12 6 13 7 14 8 15 9 11 10 9 11
REMARK SMILES IDX 10 12 7 14 8 15 6 16 5 17 1 18 2 19 3 20 89 21 4 22 88 23
REMARK SMILES IDX 21 24 22 25 23 26 24 27 25 28 26 29 87 30 27 31 86 32 28 33
REMARK SMILES IDX 29 34 30 35 80 36 31 37 85 38 79 39 81 40 32 41 84 42 78 43
REMARK SMILES IDX 77 44 33 46 65 47 45 48 64 49 46 50 49 51 63 52 82 53 47 54
REMARK SMILES IDX 48 55 62 57 83 58 50 59 34 60 35 61 43 62 36 63 37 64 41 65
REMARK SMILES IDX 44 66 38 67 39 68 42 69 40 70 66 71 67 72 75 73 68 74 69 75
REMARK SMILES IDX 73 76 76 77 70 78 71 79 74 80 72 81 51 82 52 83 60 84 53 85
REMARK SMILES IDX 54 86 58 87 61 88 55 89 56 90 59 91 57 92
REMARK H PARENT 11 13 81 45 49 56
REMARK Flexibility Score: inf
ROOT
ATOM      1  C   UNL A   1      36.806  22.751  25.731  1.00  0.00     0.275 C 
ENDROOT
BRANCH   1   2
ATOM      2  O   UNL A   1      35.485  23.303  25.804  1.00  0.00    -0.458 OA
BRANCH   2   3
ATOM      3  C   UNL A   1      34.661  22.568  26.606  1.00  0.00     0.350 C 
ATOM      4  O   UNL A   1      34.720  22.588  27.835  1.00  0.00    -0.245 OA
BRANCH   3   5
ATOM      5  C   UNL A   1      33.724  21.727  25.889  1.00  0.00     0.136 A 
ATOM      6  C   UNL A   1      32.351  21.873  25.951  1.00  0.00     0.066 A 
ATOM      7  C   UNL A   1      31.672  21.143  24.942  1.00  0.00     0.039 A 
ATOM      8  C   UNL A   1      32.529  20.290  24.284  1.00  0.00     0.068 A 
ATOM      9  S   UNL A   1      34.123  20.406  24.892  1.00  0.00    -0.135 S 
BRANCH   6  10
ATOM     10  N   UNL A   1      31.765  22.630  26.959  1.00  0.00    -0.321 N 
ATOM     11  C   UNL A   1      31.063  23.771  26.587  1.00  0.00     0.265 C 
ATOM     12  O   UNL A   1      29.991  24.022  27.142  1.00  0.00    -0.270 OA
ATOM     13  H   UNL A   1      31.845  22.368  27.904  1.00  0.00     0.170 HD
BRANCH  11  14
ATOM     14  C   UNL A   1      31.687  24.723  25.528  1.00  0.00     0.259 C 
ATOM     15  C   UNL A   1      30.514  25.298  24.744  1.00  0.00     0.064 C 
BRANCH  14  16
ATOM     16  O   UNL A   1      32.684  25.562  26.116  1.00  0.00    -0.481 OA
BRANCH  16  17
ATOM     17  C   UNL A   1      32.648  26.902  26.355  1.00  0.00     0.120 A 
ATOM     18  C   UNL A   1      33.254  31.061  27.447  1.00  0.00     0.044 C 
ATOM     19  C   UNL A   1      33.042  29.644  27.004  1.00  0.00    -0.051 A 
ATOM     20  C   UNL A   1      31.868  28.976  27.356  1.00  0.00     0.007 A 
ATOM     21  C   UNL A   1      34.010  28.943  26.285  1.00  0.00     0.007 A 
ATOM     22  C   UNL A   1      31.670  27.628  27.021  1.00  0.00     0.047 A 
ATOM     23  C   UNL A   1      33.807  27.591  25.961  1.00  0.00     0.047 A 
ENDBRANCH  16  17
ENDBRANCH  14  16
ENDBRANCH  11  14
ENDBRANCH   6  10
ENDBRANCH   3   5
ENDBRANCH   2   3
ENDBRANCH   1   2
BRANCH   1  24
ATOM     24  C   UNL A   1      37.914  23.782  25.977  1.00  0.00     0.275 C 
BRANCH  24  25
ATOM     25  O   UNL A   1      39.129  23.361  26.656  1.00  0.00    -0.458 OA
BRANCH  25  26
ATOM     26  C   UNL A   1      40.292  24.021  26.862  1.00  0.00     0.338 C 
ATOM     27  O   UNL A   1      41.374  23.504  26.596  1.00  0.00    -0.246 OA
BRANCH  26  28
ATOM     28  C   UNL A   1      40.252  25.401  27.377  1.00  0.00     0.060 A 
ATOM     29  C   UNL A   1      40.593  26.461  26.521  1.00  0.00     0.016 A 
ATOM     30  C   UNL A   1      39.790  25.662  28.657  1.00  0.00     0.016 A 
ATOM     31  C   UNL A   1      40.323  27.778  26.878  1.00  0.00     0.010 A 
ATOM     32  C   UNL A   1      39.403  26.939  28.974  1.00  0.00     0.010 A 
ATOM     33  C   UNL A   1      39.714  27.996  28.105  1.00  0.00    -0.014 A 
BRANCH  33  34
ATOM     34  C   UNL A   1      39.735  29.278  28.776  1.00  0.00     0.031 A 
ATOM     35  C   UNL A   1      38.673  30.275  28.630  1.00  0.00     0.074 A 
ATOM     36  C   UNL A   1      40.712  29.305  29.709  1.00  0.00     0.049 A 
ATOM     37  N   UNL A   1      38.828  31.513  28.944  1.00  0.00    -0.248 NA
ATOM     38  C   UNL A   1      37.348  29.992  28.088  1.00  0.00     0.031 C 
ATOM     39  C   UNL A   1      40.882  30.120  30.892  1.00  0.00     0.029 A 
ATOM     40  N   UNL A   1      41.870  28.504  29.679  1.00  0.00    -0.354 N 
ATOM     41  C   UNL A   1      37.573  32.083  28.990  1.00  0.00     0.074 A 
ATOM     42  C   UNL A   1      36.709  31.151  28.307  1.00  0.00     0.031 C 
ATOM     43  C   UNL A   1      42.161  30.000  31.306  1.00  0.00     0.029 A 
ATOM     44  C   UNL A   1      42.888  29.237  30.298  1.00  0.00     0.049 A 
ATOM     45  H   UNL A   1      41.947  27.600  29.297  1.00  0.00     0.167 HD
ATOM     46  C   UNL A   1      37.393  33.183  29.776  1.00  0.00     0.037 A 
ATOM     47  C   UNL A   1      43.878  29.708  29.479  1.00  0.00     0.037 A 
ATOM     48  C   UNL A   1      38.654  33.531  30.432  1.00  0.00     0.049 A 
ATOM     49  C   UNL A   1      43.774  31.202  29.247  1.00  0.00     0.074 A 
ATOM     50  C   UNL A   1      39.201  33.215  31.665  1.00  0.00     0.029 A 
ATOM     51  N   UNL A   1      39.710  33.948  29.648  1.00  0.00    -0.354 N 
ATOM     52  N   UNL A   1      42.805  31.954  29.695  1.00  0.00    -0.248 NA
ATOM     53  C   UNL A   1      44.716  31.949  28.420  1.00  0.00     0.031 C 
ATOM     54  C   UNL A   1      40.609  33.435  31.595  1.00  0.00     0.029 A 
ATOM     55  C   UNL A   1      40.911  33.897  30.327  1.00  0.00     0.049 A 
ATOM     56  H   UNL A   1      39.617  34.247  28.715  1.00  0.00     0.167 HD
ATOM     57  C   UNL A   1      42.969  33.235  29.256  1.00  0.00     0.074 A 
ATOM     58  C   UNL A   1      44.162  33.172  28.427  1.00  0.00     0.031 C 
ATOM     59  C   UNL A   1      42.118  34.250  29.596  1.00  0.00     0.037 A 
BRANCH  46  60
ATOM     60  C   UNL A   1      36.066  33.779  30.181  1.00  0.00     0.064 A 
ATOM     61  C   UNL A   1      35.194  34.301  29.198  1.00  0.00     0.173 A 
ATOM     62  C   UNL A   1      35.585  33.864  31.501  1.00  0.00     0.173 A 
ATOM     63  F   UNL A   1      35.482  34.227  27.892  1.00  0.00    -0.203 F 
ATOM     64  C   UNL A   1      33.986  34.927  29.513  1.00  0.00     0.198 A 
ATOM     65  C   UNL A   1      34.386  34.520  31.820  1.00  0.00     0.198 A 
ATOM     66  F   UNL A   1      36.233  33.278  32.516  1.00  0.00    -0.203 F 
ATOM     67  F   UNL A   1      33.210  35.406  28.529  1.00  0.00    -0.200 F 
ATOM     68  C   UNL A   1      33.590  35.057  30.826  1.00  0.00     0.200 A 
ATOM     69  F   UNL A   1      34.002  34.622  33.101  1.00  0.00    -0.200 F 
ATOM     70  F   UNL A   1      32.441  35.676  31.130  1.00  0.00    -0.200 F 
ENDBRANCH  46  60
BRANCH  47  71
ATOM     71  C   UNL A   1      44.269  28.695  28.437  1.00  0.00     0.064 A 
ATOM     72  C   UNL A   1      44.780  27.454  28.880  1.00  0.00     0.173 A 
ATOM     73  C   UNL A   1      43.788  28.749  27.122  1.00  0.00     0.173 A 
ATOM     74  F   UNL A   1      45.273  27.338  30.124  1.00  0.00    -0.203 F 
ATOM     75  C   UNL A   1      44.659  26.297  28.111  1.00  0.00     0.198 A 
ATOM     76  C   UNL A   1      43.709  27.596  26.337  1.00  0.00     0.198 A 
ATOM     77  F   UNL A   1      43.285  29.888  26.624  1.00  0.00    -0.203 F 
ATOM     78  F   UNL A   1      45.000  25.109  28.632  1.00  0.00    -0.200 F 
ATOM     79  C   UNL A   1      44.100  26.366  26.849  1.00  0.00     0.200 A 
ATOM     80  F   UNL A   1      43.148  27.657  25.120  1.00  0.00    -0.200 F 
ATOM     81  F   UNL A   1      43.885  25.244  26.147  1.00  0.00    -0.200 F 
ENDBRANCH  47  71
BRANCH  59  82
ATOM     82  C   UNL A   1      42.360  35.687  29.218  1.00  0.00     0.064 A 
ATOM     83  C   UNL A   1      41.862  36.234  28.026  1.00  0.00     0.173 A 
ATOM     84  C   UNL A   1      43.185  36.544  29.982  1.00  0.00     0.173 A 
ATOM     85  F   UNL A   1      41.207  35.474  27.136  1.00  0.00    -0.203 F 
ATOM     86  C   UNL A   1      42.047  37.576  27.699  1.00  0.00     0.198 A 
ATOM     87  C   UNL A   1      43.424  37.865  29.621  1.00  0.00     0.198 A 
ATOM     88  F   UNL A   1      43.779  36.148  31.115  1.00  0.00    -0.203 F 
ATOM     89  F   UNL A   1      41.469  38.075  26.599  1.00  0.00    -0.200 F 
ATOM     90  C   UNL A   1      42.826  38.393  28.498  1.00  0.00     0.200 A 
ATOM     91  F   UNL A   1      44.229  38.623  30.380  1.00  0.00    -0.200 F 
ATOM     92  F   UNL A   1      43.007  39.680  28.182  1.00  0.00    -0.200 F 
ENDBRANCH  59  82
ENDBRANCH  33  34
ENDBRANCH  26  28
ENDBRANCH  25  26
ENDBRANCH  24  25
ENDBRANCH   1  24
TORSDOF 15
ENDMDL
MODEL 2
REMARK VINA RESULT:     -12.9      4.069     10.239
REMARK SMILES Cc1ccc(O[C@H](C)C(=O)Nc2ccsc2C(=O)OCCOC(=O)c2ccc(-c3c4nc(c(-c5c(F)c(F)c(F)c(F)c5F)c5ccc([nH]5)c(-c5c(F)c(F)c(F)c(F)c5F)c5nc(c(-c6c(F)c(F)c(F)c(F)c6F)c6ccc3[nH]6)C=C5)C=C4)cc2)cc1
REMARK SMILES IDX 20 1 19 2 17 3 18 4 16 5 12 6 13 7 14 8 15 9 11 10 9 11
REMARK SMILES IDX 10 12 7 14 8 15 6 16 5 17 1 18 2 19 3 20 89 21 4 22 88 23
REMARK SMILES IDX 21 24 22 25 23 26 24 27 25 28 26 29 87 30 27 31 86 32 28 33
REMARK SMILES IDX 29 34 30 35 80 36 31 37 85 38 79 39 81 40 32 41 84 42 78 43
REMARK SMILES IDX 77 44 33 46 65 47 45 48 64 49 46 50 49 51 63 52 82 53 47 54
REMARK SMILES IDX 48 55 62 57 83 58 50 59 34 60 35 61 43 62 36 63 37 64 41 65
REMARK SMILES IDX 44 66 38 67 39 68 42 69 40 70 66 71 67 72 75 73 68 74 69 75
REMARK SMILES IDX 73 76 76 77 70 78 71 79 74 80 72 81 51 82 52 83 60 84 53 85
REMARK SMILES IDX 54 86 58 87 61 88 55 89 56 90 59 91 57 92
REMARK H PARENT 11 13 81 45 49 56
REMARK Flexibility Score: inf
ROOT
ATOM      1  C   UNL A   1      32.727  30.160  26.263  1.00  0.00     0.275 C 
ENDROOT
BRANCH   1   2
ATOM      2  O   UNL A   1      32.886  29.406  25.054  1.00  0.00    -0.458 OA
BRANCH   2   3
ATOM      3  C   UNL A   1      31.781  28.662  24.761  1.00  0.00     0.350 C 
ATOM      4  O   UNL A   1      30.764  29.132  24.253  1.00  0.00    -0.245 OA
BRANCH   3   5
ATOM      5  C   UNL A   1      31.889  27.264  25.128  1.00  0.00     0.136 A 
ATOM      6  C   UNL A   1      33.004  26.485  24.884  1.00  0.00     0.066 A 
ATOM      7  C   UNL A   1      32.987  25.258  25.596  1.00  0.00     0.039 A 
ATOM      8  C   UNL A   1      31.761  25.042  26.184  1.00  0.00     0.068 A 
ATOM      9  S   UNL A   1      30.677  26.327  25.871  1.00  0.00    -0.135 S 
BRANCH   6  10
ATOM     10  N   UNL A   1      33.974  26.903  23.981  1.00  0.00    -0.321 N 
ATOM     11  C   UNL A   1      33.720  26.722  22.626  1.00  0.00     0.265 C 
ATOM     12  O   UNL A   1      34.017  27.620  21.835  1.00  0.00    -0.270 OA
ATOM     13  H   UNL A   1      34.814  27.312  24.290  1.00  0.00     0.170 HD
BRANCH  11  14
ATOM     14  C   UNL A   1      33.126  25.366  22.150  1.00  0.00     0.259 C 
ATOM     15  C   UNL A   1      32.422  25.661  20.832  1.00  0.00     0.064 C 
BRANCH  14  16
ATOM     16  O   UNL A   1      34.087  24.315  22.272  1.00  0.00    -0.481 OA
BRANCH  16  17
ATOM     17  C   UNL A   1      33.987  23.133  22.941  1.00  0.00     0.120 A 
ATOM     18  C   UNL A   1      32.949  19.636  25.297  1.00  0.00     0.044 C 
ATOM     19  C   UNL A   1      33.312  20.803  24.428  1.00  0.00    -0.051 A 
ATOM     20  C   UNL A   1      34.526  21.462  24.623  1.00  0.00     0.007 A 
ATOM     21  C   UNL A   1      32.445  21.292  23.451  1.00  0.00     0.007 A 
ATOM     22  C   UNL A   1      34.863  22.602  23.878  1.00  0.00     0.047 A 
ATOM     23  C   UNL A   1      32.787  22.439  22.715  1.00  0.00     0.047 A 
ENDBRANCH  16  17
ENDBRANCH  14  16
ENDBRANCH  11  14
ENDBRANCH   6  10
ENDBRANCH   3   5
ENDBRANCH   2   3
ENDBRANCH   1   2
BRANCH   1  24
ATOM     24  C   UNL A   1      33.807  29.870  27.312  1.00  0.00     0.275 C 
BRANCH  24  25
ATOM     25  O   UNL A   1      35.123  30.466  27.150  1.00  0.00    -0.458 OA
BRANCH  25  26
ATOM     26  C   UNL A   1      36.039  30.835  28.076  1.00  0.00     0.338 C 
ATOM     27  O   UNL A   1      35.892  31.852  28.748  1.00  0.00    -0.246 OA
BRANCH  26  28
ATOM     28  C   UNL A   1      37.213  29.974  28.306  1.00  0.00     0.060 A 
ATOM     29  C   UNL A   1      37.258  29.172  29.459  1.00  0.00     0.016 A 
ATOM     30  C   UNL A   1      38.215  29.880  27.354  1.00  0.00     0.016 A 
ATOM     31  C   UNL A   1      38.208  28.166  29.587  1.00  0.00     0.010 A 
ATOM     32  C   UNL A   1      39.079  28.816  27.404  1.00  0.00     0.010 A 
ATOM     33  C   UNL A   1      39.103  27.994  28.541  1.00  0.00    -0.014 A 
BRANCH  33  34
ATOM     34  C   UNL A   1      40.358  27.289  28.687  1.00  0.00     0.031 A 
ATOM     35  C   UNL A   1      40.514  25.862  28.394  1.00  0.00     0.074 A 
ATOM     36  C   UNL A   1      41.369  28.163  28.885  1.00  0.00     0.049 A 
ATOM     37  N   UNL A   1      41.507  25.165  28.821  1.00  0.00    -0.248 NA
ATOM     38  C   UNL A   1      39.560  25.072  27.624  1.00  0.00     0.031 C 
ATOM     39  C   UNL A   1      42.794  28.042  28.668  1.00  0.00     0.029 A 
ATOM     40  N   UNL A   1      41.217  29.454  29.426  1.00  0.00    -0.354 N 
ATOM     41  C   UNL A   1      41.513  23.984  28.110  1.00  0.00     0.074 A 
ATOM     42  C   UNL A   1      40.210  23.906  27.496  1.00  0.00     0.031 C 
ATOM     43  C   UNL A   1      43.407  29.053  29.318  1.00  0.00     0.029 A 
ATOM     44  C   UNL A   1      42.400  29.752  30.108  1.00  0.00     0.049 A 
ATOM     45  H   UNL A   1      40.427  30.036  29.337  1.00  0.00     0.167 HD
ATOM     46  C   UNL A   1      42.696  23.318  27.975  1.00  0.00     0.037 A 
ATOM     47  C   UNL A   1      42.318  29.786  31.474  1.00  0.00     0.037 A 
ATOM     48  C   UNL A   1      43.758  24.056  28.661  1.00  0.00     0.049 A 
ATOM     49  C   UNL A   1      42.964  28.577  32.121  1.00  0.00     0.074 A 
ATOM     50  C   UNL A   1      44.681  24.999  28.241  1.00  0.00     0.029 A 
ATOM     51  N   UNL A   1      43.690  24.180  30.033  1.00  0.00    -0.354 N 
ATOM     52  N   UNL A   1      43.464  27.565  31.464  1.00  0.00    -0.248 NA
ATOM     53  C   UNL A   1      43.020  28.380  33.566  1.00  0.00     0.031 C 
ATOM     54  C   UNL A   1      45.152  25.701  29.391  1.00  0.00     0.029 A 
ATOM     55  C   UNL A   1      44.524  25.175  30.505  1.00  0.00     0.049 A 
ATOM     56  H   UNL A   1      43.116  23.625  30.608  1.00  0.00     0.167 HD
ATOM     57  C   UNL A   1      43.904  26.615  32.338  1.00  0.00     0.074 A 
ATOM     58  C   UNL A   1      43.567  27.156  33.645  1.00  0.00     0.031 C 
ATOM     59  C   UNL A   1      44.504  25.455  31.932  1.00  0.00     0.037 A 
BRANCH  46  60
ATOM     60  C   UNL A   1      42.972  22.181  27.020  1.00  0.00     0.064 A 
ATOM     61  C   UNL A   1      42.278  20.957  27.155  1.00  0.00     0.173 A 
ATOM     62  C   UNL A   1      43.891  22.224  25.954  1.00  0.00     0.173 A 
ATOM     63  F   UNL A   1      41.322  20.790  28.078  1.00  0.00    -0.203 F 
ATOM     64  C   UNL A   1      42.537  19.847  26.349  1.00  0.00     0.198 A 
ATOM     65  C   UNL A   1      44.173  21.099  25.165  1.00  0.00     0.198 A 
ATOM     66  F   UNL A   1      44.509  23.362  25.614  1.00  0.00    -0.203 F 
ATOM     67  F   UNL A   1      41.845  18.714  26.538  1.00  0.00    -0.200 F 
ATOM     68  C   UNL A   1      43.501  19.909  25.367  1.00  0.00     0.200 A 
ATOM     69  F   UNL A   1      45.099  21.178  24.198  1.00  0.00    -0.200 F 
ATOM     70  F   UNL A   1      43.765  18.837  24.607  1.00  0.00    -0.200 F 
ENDBRANCH  46  60
BRANCH  47  71
ATOM     71  C   UNL A   1      41.048  30.444  31.940  1.00  0.00     0.064 A 
ATOM     72  C   UNL A   1      40.003  29.611  32.403  1.00  0.00     0.173 A 
ATOM     73  C   UNL A   1      40.997  31.793  32.316  1.00  0.00     0.173 A 
ATOM     74  F   UNL A   1      39.982  28.311  32.065  1.00  0.00    -0.203 F 
ATOM     75  C   UNL A   1      39.061  30.065  33.326  1.00  0.00     0.198 A 
ATOM     76  C   UNL A   1      40.024  32.255  33.206  1.00  0.00     0.198 A 
ATOM     77  F   UNL A   1      41.949  32.649  31.920  1.00  0.00    -0.203 F 
ATOM     78  F   UNL A   1      38.191  29.203  33.870  1.00  0.00    -0.200 F 
ATOM     79  C   UNL A   1      39.088  31.382  33.745  1.00  0.00     0.200 A 
ATOM     80  F   UNL A   1      40.061  33.527  33.630  1.00  0.00    -0.200 F 
ATOM     81  F   UNL A   1      38.254  31.798  34.708  1.00  0.00    -0.200 F 
ENDBRANCH  47  71
BRANCH  59  82
ATOM     82  C   UNL A   1      45.103  24.460  32.890  1.00  0.00     0.064 A 
ATOM     83  C   UNL A   1      44.378  23.352  33.356  1.00  0.00     0.173 A 
ATOM     84  C   UNL A   1      46.386  24.630  33.458  1.00  0.00     0.173 A 
ATOM     85  F   UNL A   1      43.092  23.175  33.020  1.00  0.00    -0.203 F 
ATOM     86  C   UNL A   1      44.948  22.407  34.206  1.00  0.00     0.198 A 
ATOM     87  C   UNL A   1      46.928  23.721  34.358  1.00  0.00     0.198 A 
ATOM     88  F   UNL A   1      47.174  25.670  33.156  1.00  0.00    -0.203 F 
ATOM     89  F   UNL A   1      44.249  21.316  34.545  1.00  0.00    -0.200 F 
ATOM     90  C   UNL A   1      46.224  22.589  34.706  1.00  0.00     0.200 A 
ATOM     91  F   UNL A   1      48.145  23.947  34.875  1.00  0.00    -0.200 F 
ATOM     92  F   UNL A   1      46.770  21.683  35.526  1.00  0.00    -0.200 F 
ENDBRANCH  59  82
ENDBRANCH  33  34
ENDBRANCH  26  28
ENDBRANCH  25  26
ENDBRANCH  24  25
ENDBRANCH   1  24
TORSDOF 15
ENDMDL
MODEL 3
REMARK VINA RESULT:     -12.9      4.062     10.296
REMARK SMILES Cc1ccc(O[C@H](C)C(=O)Nc2ccsc2C(=O)OCCOC(=O)c2ccc(-c3c4nc(c(-c5c(F)c(F)c(F)c(F)c5F)c5ccc([nH]5)c(-c5c(F)c(F)c(F)c(F)c5F)c5nc(c(-c6c(F)c(F)c(F)c(F)c6F)c6ccc3[nH]6)C=C5)C=C4)cc2)cc1
REMARK SMILES IDX 20 1 19 2 17 3 18 4 16 5 12 6 13 7 14 8 15 9 11 10 9 11
REMARK SMILES IDX 10 12 7 14 8 15 6 16 5 17 1 18 2 19 3 20 89 21 4 22 88 23
REMARK SMILES IDX 21 24 22 25 23 26 24 27 25 28 26 29 87 30 27 31 86 32 28 33
REMARK SMILES IDX 29 34 30 35 80 36 31 37 85 38 79 39 81 40 32 41 84 42 78 43
REMARK SMILES IDX 77 44 33 46 65 47 45 48 64 49 46 50 49 51 63 52 82 53 47 54
REMARK SMILES IDX 48 55 62 57 83 58 50 59 34 60 35 61 43 62 36 63 37 64 41 65
REMARK SMILES IDX 44 66 38 67 39 68 42 69 40 70 66 71 67 72 75 73 68 74 69 75
REMARK SMILES IDX 73 76 76 77 70 78 71 79 74 80 72 81 51 82 52 83 60 84 53 85
REMARK SMILES IDX 54 86 58 87 61 88 55 89 56 90 59 91 57 92
REMARK H PARENT 11 13 81 45 49 56
REMARK Flexibility Score: inf
ROOT
ATOM      1  C   UNL A   1      33.310  29.162  26.758  1.00  0.00     0.275 C 
ENDROOT
BRANCH   1   2
ATOM      2  O   UNL A   1      33.156  28.043  25.876  1.00  0.00    -0.458 OA
BRANCH   2   3
ATOM      3  C   UNL A   1      33.274  28.399  24.564  1.00  0.00     0.350 C 
ATOM      4  O   UNL A   1      34.344  28.703  24.039  1.00  0.00    -0.245 OA
BRANCH   3   5
ATOM      5  C   UNL A   1      32.021  28.422  23.838  1.00  0.00     0.136 A 
ATOM      6  C   UNL A   1      31.784  27.701  22.683  1.00  0.00     0.066 A 
ATOM      7  C   UNL A   1      30.409  27.651  22.336  1.00  0.00     0.039 A 
ATOM      8  C   UNL A   1      29.669  28.518  23.108  1.00  0.00     0.068 A 
ATOM      9  S   UNL A   1      30.650  29.352  24.233  1.00  0.00    -0.135 S 
BRANCH   6  10
ATOM     10  N   UNL A   1      32.838  27.155  21.961  1.00  0.00    -0.321 N 
ATOM     11  C   UNL A   1      32.952  25.770  21.929  1.00  0.00     0.265 C 
ATOM     12  O   UNL A   1      33.245  25.217  20.866  1.00  0.00    -0.270 OA
ATOM     13  H   UNL A   1      33.483  27.729  21.489  1.00  0.00     0.170 HD
BRANCH  11  14
ATOM     14  C   UNL A   1      32.769  24.972  23.250  1.00  0.00     0.259 C 
ATOM     15  C   UNL A   1      32.176  23.628  22.845  1.00  0.00     0.064 C 
BRANCH  14  16
ATOM     16  O   UNL A   1      33.935  25.064  24.071  1.00  0.00    -0.481 OA
BRANCH  16  17
ATOM     17  C   UNL A   1      34.895  24.129  24.309  1.00  0.00     0.120 A 
ATOM     18  C   UNL A   1      38.345  21.743  25.433  1.00  0.00     0.044 C 
ATOM     19  C   UNL A   1      37.114  22.525  25.084  1.00  0.00    -0.051 A 
ATOM     20  C   UNL A   1      36.654  22.540  23.767  1.00  0.00     0.007 A 
ATOM     21  C   UNL A   1      36.432  23.289  26.030  1.00  0.00     0.007 A 
ATOM     22  C   UNL A   1      35.550  23.320  23.390  1.00  0.00     0.047 A 
ATOM     23  C   UNL A   1      35.332  24.074  25.643  1.00  0.00     0.047 A 
ENDBRANCH  16  17
ENDBRANCH  14  16
ENDBRANCH  11  14
ENDBRANCH   6  10
ENDBRANCH   3   5
ENDBRANCH   2   3
ENDBRANCH   1   2
BRANCH   1  24
ATOM     24  C   UNL A   1      34.739  29.332  27.287  1.00  0.00     0.275 C 
BRANCH  24  25
ATOM     25  O   UNL A   1      35.120  30.599  27.892  1.00  0.00    -0.458 OA
BRANCH  25  26
ATOM     26  C   UNL A   1      35.996  30.867  28.888  1.00  0.00     0.338 C 
ATOM     27  O   UNL A   1      35.800  31.784  29.680  1.00  0.00    -0.246 OA
BRANCH  26  28
ATOM     28  C   UNL A   1      37.187  30.013  29.043  1.00  0.00     0.060 A 
ATOM     29  C   UNL A   1      37.219  29.066  30.081  1.00  0.00     0.016 A 
ATOM     30  C   UNL A   1      38.220  30.071  28.122  1.00  0.00     0.016 A 
ATOM     31  C   UNL A   1      38.194  28.075  30.109  1.00  0.00     0.010 A 
ATOM     32  C   UNL A   1      39.113  29.030  28.062  1.00  0.00     0.010 A 
ATOM     33  C   UNL A   1      39.126  28.066  29.081  1.00  0.00    -0.014 A 
BRANCH  33  34
ATOM     34  C   UNL A   1      40.396  27.379  29.177  1.00  0.00     0.031 A 
ATOM     35  C   UNL A   1      40.597  26.001  28.724  1.00  0.00     0.074 A 
ATOM     36  C   UNL A   1      41.378  28.248  29.501  1.00  0.00     0.049 A 
ATOM     37  N   UNL A   1      41.598  25.282  29.093  1.00  0.00    -0.248 NA
ATOM     38  C   UNL A   1      39.682  25.283  27.842  1.00  0.00     0.031 C 
ATOM     39  C   UNL A   1      42.810  28.187  29.308  1.00  0.00     0.029 A 
ATOM     40  N   UNL A   1      41.179  29.463  30.184  1.00  0.00    -0.354 N 
ATOM     41  C   UNL A   1      41.652  24.193  28.249  1.00  0.00     0.074 A 
ATOM     42  C   UNL A   1      40.366  24.156  27.596  1.00  0.00     0.031 C 
ATOM     43  C   UNL A   1      43.380  29.130  30.087  1.00  0.00     0.029 A 
ATOM     44  C   UNL A   1      42.337  29.707  30.928  1.00  0.00     0.049 A 
ATOM     45  H   UNL A   1      40.376  30.032  30.144  1.00  0.00     0.167 HD
ATOM     46  C   UNL A   1      42.856  23.577  28.068  1.00  0.00     0.037 A 
ATOM     47  C   UNL A   1      42.223  29.579  32.285  1.00  0.00     0.037 A 
ATOM     48  C   UNL A   1      43.881  24.254  28.863  1.00  0.00     0.049 A 
ATOM     49  C   UNL A   1      42.886  28.319  32.804  1.00  0.00     0.074 A 
ATOM     50  C   UNL A   1      44.788  25.262  28.580  1.00  0.00     0.029 A 
ATOM     51  N   UNL A   1      43.778  24.215  30.238  1.00  0.00    -0.354 N 
ATOM     52  N   UNL A   1      43.428  27.403  32.047  1.00  0.00    -0.248 NA
ATOM     53  C   UNL A   1      42.914  27.956  34.217  1.00  0.00     0.031 C 
ATOM     54  C   UNL A   1      45.213  25.836  29.815  1.00  0.00     0.029 A 
ATOM     55  C   UNL A   1      44.574  25.168  30.844  1.00  0.00     0.049 A 
ATOM     56  H   UNL A   1      43.206  23.583  30.729  1.00  0.00     0.167 HD
ATOM     57  C   UNL A   1      43.873  26.368  32.815  1.00  0.00     0.074 A 
ATOM     58  C   UNL A   1      43.492  26.744  34.167  1.00  0.00     0.031 C 
ATOM     59  C   UNL A   1      44.514  25.279  32.293  1.00  0.00     0.037 A 
BRANCH  46  60
ATOM     60  C   UNL A   1      43.184  22.566  26.995  1.00  0.00     0.064 A 
ATOM     61  C   UNL A   1      42.624  21.269  27.046  1.00  0.00     0.173 A 
ATOM     62  C   UNL A   1      44.028  22.801  25.892  1.00  0.00     0.173 A 
ATOM     63  F   UNL A   1      41.747  20.920  27.997  1.00  0.00    -0.203 F 
ATOM     64  C   UNL A   1      42.942  20.269  26.125  1.00  0.00     0.198 A 
ATOM     65  C   UNL A   1      44.371  21.788  24.984  1.00  0.00     0.198 A 
ATOM     66  F   UNL A   1      44.508  24.023  25.632  1.00  0.00    -0.203 F 
ATOM     67  F   UNL A   1      42.378  19.058  26.238  1.00  0.00    -0.200 F 
ATOM     68  C   UNL A   1      43.833  20.521  25.105  1.00  0.00     0.200 A 
ATOM     69  F   UNL A   1      45.224  22.051  23.983  1.00  0.00    -0.200 F 
ATOM     70  F   UNL A   1      44.155  19.555  24.233  1.00  0.00    -0.200 F 
ENDBRANCH  46  60
BRANCH  47  71
ATOM     71  C   UNL A   1      40.925  30.147  32.792  1.00  0.00     0.064 A 
ATOM     72  C   UNL A   1      40.692  31.529  32.609  1.00  0.00     0.173 A 
ATOM     73  C   UNL A   1      39.807  29.343  33.050  1.00  0.00     0.173 A 
ATOM     74  F   UNL A   1      41.722  32.358  32.376  1.00  0.00    -0.203 F 
ATOM     75  C   UNL A   1      39.399  32.046  32.520  1.00  0.00     0.198 A 
ATOM     76  C   UNL A   1      38.514  29.874  33.004  1.00  0.00     0.198 A 
ATOM     77  F   UNL A   1      39.941  28.022  33.233  1.00  0.00    -0.203 F 
ATOM     78  F   UNL A   1      39.215  33.329  32.178  1.00  0.00    -0.200 F 
ATOM     79  C   UNL A   1      38.311  31.212  32.694  1.00  0.00     0.200 A 
ATOM     80  F   UNL A   1      37.457  29.062  33.152  1.00  0.00    -0.200 F 
ATOM     81  F   UNL A   1      37.069  31.679  32.507  1.00  0.00    -0.200 F 
ENDBRANCH  47  71
BRANCH  59  82
ATOM     82  C   UNL A   1      45.117  24.192  33.143  1.00  0.00     0.064 A 
ATOM     83  C   UNL A   1      44.362  23.099  33.593  1.00  0.00     0.173 A 
ATOM     84  C   UNL A   1      46.444  24.256  33.627  1.00  0.00     0.173 A 
ATOM     85  F   UNL A   1      43.048  23.014  33.340  1.00  0.00    -0.203 F 
ATOM     86  C   UNL A   1      44.932  22.071  34.342  1.00  0.00     0.198 A 
ATOM     87  C   UNL A   1      46.992  23.262  34.430  1.00  0.00     0.198 A 
ATOM     88  F   UNL A   1      47.269  25.268  33.332  1.00  0.00    -0.203 F 
ATOM     89  F   UNL A   1      44.194  21.000  34.663  1.00  0.00    -0.200 F 
ATOM     90  C   UNL A   1      46.248  22.150  34.758  1.00  0.00     0.200 A 
ATOM     91  F   UNL A   1      48.253  23.388  34.870  1.00  0.00    -0.200 F 
ATOM     92  F   UNL A   1      46.793  21.166  35.481  1.00  0.00    -0.200 F 
ENDBRANCH  59  82
ENDBRANCH  33  34
ENDBRANCH  26  28
ENDBRANCH  25  26
ENDBRANCH  24  25
ENDBRANCH   1  24
TORSDOF 15
ENDMDL
