MODEL 1
REMARK VINA RESULT:     -10.6      0.000      0.000
REMARK SMILES CC(C)(C[S@@](=O)c1ccc(C(C)(C)C)cc1)C(=O)OCCOC(=O)c1ccc(-c2c3nc(c(-c4c(F)c(F)c(F)c(F)c4F)c4ccc([nH]4)c(-c4c(F)c(F)c(F)c(F)c4F)c4nc(c(-c5c(F)c(F)c(F)c(F)c5F)c5ccc2[nH]5)C=C4)C=C3)cc1
REMARK SMILES IDX 20 1 19 2 17 3 18 4 2 5 1 6 3 7 4 8 5 9 6 10 7 11 8 12 16 13
REMARK SMILES IDX 9 14 15 15 10 16 11 17 12 18 13 19 14 20 21 21 22 22 23 23
REMARK SMILES IDX 24 24 25 25 26 26 87 27 27 28 86 29 28 30 29 31 30 32 80 33
REMARK SMILES IDX 31 34 85 35 79 36 81 37 32 38 84 39 78 40 77 41 33 43 65 44
REMARK SMILES IDX 45 45 64 46 46 47 49 48 63 49 82 50 47 51 48 52 62 54 83 55
REMARK SMILES IDX 50 56 34 57 35 58 43 59 36 60 37 61 41 62 44 63 38 64 39 65
REMARK SMILES IDX 42 66 40 67 66 68 67 69 75 70 68 71 69 72 73 73 76 74 70 75
REMARK SMILES IDX 71 76 74 77 72 78 51 79 52 80 60 81 53 82 54 83 58 84 61 85
REMARK SMILES IDX 55 86 56 87 59 88 57 89
REMARK H PARENT 81 42 49 53
REMARK Flexibility Score: inf
ROOT
ATOM      1  C   UNL A   1      41.885  19.382  26.284  1.00  0.00     0.274 C 
ENDROOT
BRANCH   1   2
ATOM      2  O   UNL A   1      42.640  19.203  25.066  1.00  0.00    -0.462 OA
BRANCH   2   3
ATOM      3  C   UNL A   1      43.938  18.834  25.227  1.00  0.00     0.312 C 
ATOM      4  O   UNL A   1      44.319  17.970  26.009  1.00  0.00    -0.252 OA
BRANCH   3   5
ATOM      5  C   UNL A   1      44.902  19.705  24.423  1.00  0.00     0.074 C 
ATOM      6  C   UNL A   1      44.938  19.204  22.968  1.00  0.00     0.024 C 
ATOM      7  C   UNL A   1      46.299  19.430  25.025  1.00  0.00     0.024 C 
BRANCH   5   8
ATOM      8  C   UNL A   1      44.652  21.222  24.503  1.00  0.00     0.128 C 
BRANCH   8   9
ATOM      9  S   UNL A   1      46.067  22.332  24.752  1.00  0.00     0.054 S 
ATOM     10  O   UNL A   1      45.860  23.493  23.824  1.00  0.00    -0.254 OA
BRANCH   9  11
ATOM     11  C   UNL A   1      45.791  23.021  26.391  1.00  0.00     0.039 A 
ATOM     12  C   UNL A   1      46.676  23.883  27.036  1.00  0.00     0.018 A 
ATOM     13  C   UNL A   1      44.620  22.649  27.052  1.00  0.00     0.018 A 
ATOM     14  C   UNL A   1      46.329  24.463  28.263  1.00  0.00     0.005 A 
ATOM     15  C   UNL A   1      44.285  23.212  28.287  1.00  0.00     0.005 A 
ATOM     16  C   UNL A   1      45.112  24.165  28.903  1.00  0.00    -0.043 A 
BRANCH  16  17
ATOM     17  C   UNL A   1      44.721  24.884  30.206  1.00  0.00    -0.013 C 
ATOM     18  C   UNL A   1      44.155  23.886  31.233  1.00  0.00     0.016 C 
ATOM     19  C   UNL A   1      45.961  25.591  30.796  1.00  0.00     0.016 C 
ATOM     20  C   UNL A   1      43.655  25.969  29.996  1.00  0.00     0.016 C 
ENDBRANCH  16  17
ENDBRANCH   9  11
ENDBRANCH   8   9
ENDBRANCH   5   8
ENDBRANCH   3   5
ENDBRANCH   2   3
ENDBRANCH   1   2
BRANCH   1  21
ATOM     21  C   UNL A   1      40.394  19.569  26.011  1.00  0.00     0.275 C 
BRANCH  21  22
ATOM     22  O   UNL A   1      39.849  20.567  26.892  1.00  0.00    -0.458 OA
BRANCH  22  23
ATOM     23  C   UNL A   1      39.062  21.498  26.315  1.00  0.00     0.338 C 
ATOM     24  O   UNL A   1      38.080  21.315  25.612  1.00  0.00    -0.246 OA
BRANCH  23  25
ATOM     25  C   UNL A   1      39.520  22.845  26.685  1.00  0.00     0.060 A 
ATOM     26  C   UNL A   1      39.068  23.936  25.949  1.00  0.00     0.016 A 
ATOM     27  C   UNL A   1      40.522  23.011  27.643  1.00  0.00     0.016 A 
ATOM     28  C   UNL A   1      39.676  25.180  26.108  1.00  0.00     0.010 A 
ATOM     29  C   UNL A   1      41.080  24.281  27.855  1.00  0.00     0.010 A 
ATOM     30  C   UNL A   1      40.698  25.370  27.057  1.00  0.00    -0.014 A 
BRANCH  30  31
ATOM     31  C   UNL A   1      41.353  26.707  27.142  1.00  0.00     0.031 A 
ATOM     32  C   UNL A   1      40.699  27.852  27.877  1.00  0.00     0.074 A 
ATOM     33  C   UNL A   1      42.619  26.849  26.702  1.00  0.00     0.049 A 
ATOM     34  N   UNL A   1      41.242  28.967  28.305  1.00  0.00    -0.248 NA
ATOM     35  C   UNL A   1      39.277  27.712  28.230  1.00  0.00     0.031 C 
ATOM     36  C   UNL A   1      43.379  25.829  25.979  1.00  0.00     0.029 A 
ATOM     37  N   UNL A   1      43.502  27.895  26.830  1.00  0.00    -0.354 N 
ATOM     38  C   UNL A   1      40.267  29.597  29.069  1.00  0.00     0.074 A 
ATOM     39  C   UNL A   1      39.061  28.807  28.947  1.00  0.00     0.031 C 
ATOM     40  C   UNL A   1      44.622  26.285  25.754  1.00  0.00     0.029 A 
ATOM     41  C   UNL A   1      44.739  27.636  26.291  1.00  0.00     0.049 A 
ATOM     42  H   UNL A   1      43.270  28.747  27.265  1.00  0.00     0.167 HD
ATOM     43  C   UNL A   1      40.395  30.678  29.875  1.00  0.00     0.037 A 
ATOM     44  C   UNL A   1      45.847  28.402  26.231  1.00  0.00     0.037 A 
ATOM     45  C   UNL A   1      41.577  31.488  29.984  1.00  0.00     0.049 A 
ATOM     46  C   UNL A   1      45.848  29.755  26.883  1.00  0.00     0.074 A 
ATOM     47  C   UNL A   1      41.806  32.580  30.806  1.00  0.00     0.029 A 
ATOM     48  N   UNL A   1      42.720  31.315  29.223  1.00  0.00    -0.354 N 
ATOM     49  N   UNL A   1      44.952  30.291  27.672  1.00  0.00    -0.248 NA
ATOM     50  C   UNL A   1      47.017  30.611  26.630  1.00  0.00     0.031 C 
ATOM     51  C   UNL A   1      43.073  33.095  30.506  1.00  0.00     0.029 A 
ATOM     52  C   UNL A   1      43.638  32.313  29.512  1.00  0.00     0.049 A 
ATOM     53  H   UNL A   1      42.862  30.589  28.573  1.00  0.00     0.167 HD
ATOM     54  C   UNL A   1      45.455  31.534  28.031  1.00  0.00     0.074 A 
ATOM     55  C   UNL A   1      46.738  31.672  27.376  1.00  0.00     0.031 C 
ATOM     56  C   UNL A   1      44.900  32.468  28.840  1.00  0.00     0.037 A 
BRANCH  43  57
ATOM     57  C   UNL A   1      39.243  31.008  30.771  1.00  0.00     0.064 A 
ATOM     58  C   UNL A   1      38.234  31.880  30.332  1.00  0.00     0.173 A 
ATOM     59  C   UNL A   1      39.097  30.410  32.028  1.00  0.00     0.173 A 
ATOM     60  F   UNL A   1      38.314  32.452  29.123  1.00  0.00    -0.203 F 
ATOM     61  C   UNL A   1      37.128  32.158  31.128  1.00  0.00     0.198 A 
ATOM     62  C   UNL A   1      37.982  30.681  32.819  1.00  0.00     0.198 A 
ATOM     63  F   UNL A   1      40.029  29.562  32.484  1.00  0.00    -0.203 F 
ATOM     64  F   UNL A   1      36.183  33.001  30.690  1.00  0.00    -0.200 F 
ATOM     65  C   UNL A   1      37.001  31.555  32.370  1.00  0.00     0.200 A 
ATOM     66  F   UNL A   1      37.851  30.093  34.016  1.00  0.00    -0.200 F 
ATOM     67  F   UNL A   1      35.930  31.815  33.133  1.00  0.00    -0.200 F 
ENDBRANCH  43  57
BRANCH  44  68
ATOM     68  C   UNL A   1      47.042  27.914  25.499  1.00  0.00     0.064 A 
ATOM     69  C   UNL A   1      48.132  27.349  26.173  1.00  0.00     0.173 A 
ATOM     70  C   UNL A   1      47.120  28.021  24.102  1.00  0.00     0.173 A 
ATOM     71  F   UNL A   1      48.116  27.253  27.511  1.00  0.00    -0.203 F 
ATOM     72  C   UNL A   1      49.259  26.915  25.478  1.00  0.00     0.198 A 
ATOM     73  C   UNL A   1      48.235  27.564  23.406  1.00  0.00     0.198 A 
ATOM     74  F   UNL A   1      46.107  28.567  23.414  1.00  0.00    -0.203 F 
ATOM     75  F   UNL A   1      50.305  26.412  26.147  1.00  0.00    -0.200 F 
ATOM     76  C   UNL A   1      49.306  27.017  24.095  1.00  0.00     0.200 A 
ATOM     77  F   UNL A   1      48.273  27.660  22.070  1.00  0.00    -0.200 F 
ATOM     78  F   UNL A   1      50.389  26.596  23.426  1.00  0.00    -0.200 F 
ENDBRANCH  44  68
BRANCH  56  79
ATOM     79  C   UNL A   1      45.674  33.733  29.055  1.00  0.00     0.064 A 
ATOM     80  C   UNL A   1      45.443  34.866  28.262  1.00  0.00     0.173 A 
ATOM     81  C   UNL A   1      46.643  33.823  30.066  1.00  0.00     0.173 A 
ATOM     82  F   UNL A   1      44.542  34.822  27.270  1.00  0.00    -0.203 F 
ATOM     83  C   UNL A   1      46.171  36.038  28.459  1.00  0.00     0.198 A 
ATOM     84  C   UNL A   1      47.351  35.004  30.276  1.00  0.00     0.198 A 
ATOM     85  F   UNL A   1      46.900  32.767  30.852  1.00  0.00    -0.203 F 
ATOM     86  F   UNL A   1      45.964  37.094  27.660  1.00  0.00    -0.200 F 
ATOM     87  C   UNL A   1      47.119  36.107  29.468  1.00  0.00     0.200 A 
ATOM     88  F   UNL A   1      48.263  35.071  31.256  1.00  0.00    -0.200 F 
ATOM     89  F   UNL A   1      47.818  37.235  29.656  1.00  0.00    -0.200 F 
ENDBRANCH  56  79
ENDBRANCH  30  31
ENDBRANCH  23  25
ENDBRANCH  22  23
ENDBRANCH  21  22
ENDBRANCH   1  21
TORSDOF 15
ENDMDL
MODEL 2
REMARK VINA RESULT:     -10.5      0.175      2.032
REMARK SMILES CC(C)(C[S@@](=O)c1ccc(C(C)(C)C)cc1)C(=O)OCCOC(=O)c1ccc(-c2c3nc(c(-c4c(F)c(F)c(F)c(F)c4F)c4ccc([nH]4)c(-c4c(F)c(F)c(F)c(F)c4F)c4nc(c(-c5c(F)c(F)c(F)c(F)c5F)c5ccc2[nH]5)C=C4)C=C3)cc1
REMARK SMILES IDX 20 1 19 2 17 3 18 4 2 5 1 6 3 7 4 8 5 9 6 10 7 11 8 12 16 13
REMARK SMILES IDX 9 14 15 15 10 16 11 17 12 18 13 19 14 20 21 21 22 22 23 23
REMARK SMILES IDX 24 24 25 25 26 26 87 27 27 28 86 29 28 30 29 31 30 32 80 33
REMARK SMILES IDX 31 34 85 35 79 36 81 37 32 38 84 39 78 40 77 41 33 43 65 44
REMARK SMILES IDX 45 45 64 46 46 47 49 48 63 49 82 50 47 51 48 52 62 54 83 55
REMARK SMILES IDX 50 56 34 57 35 58 43 59 36 60 37 61 41 62 44 63 38 64 39 65
REMARK SMILES IDX 42 66 40 67 66 68 67 69 75 70 68 71 69 72 73 73 76 74 70 75
REMARK SMILES IDX 71 76 74 77 72 78 51 79 52 80 60 81 53 82 54 83 58 84 61 85
REMARK SMILES IDX 55 86 56 87 59 88 57 89
REMARK H PARENT 81 42 49 53
REMARK Flexibility Score: inf
ROOT
ATOM      1  C   UNL A   1      41.941  19.730  26.273  1.00  0.00     0.274 C 
ENDROOT
BRANCH   1   2
ATOM      2  O   UNL A   1      42.666  19.382  25.073  1.00  0.00    -0.462 OA
BRANCH   2   3
ATOM      3  C   UNL A   1      43.940  18.948  25.260  1.00  0.00     0.312 C 
ATOM      4  O   UNL A   1      44.263  18.074  26.057  1.00  0.00    -0.252 OA
BRANCH   3   5
ATOM      5  C   UNL A   1      44.962  19.760  24.465  1.00  0.00     0.074 C 
ATOM      6  C   UNL A   1      45.064  19.184  23.041  1.00  0.00     0.024 C 
ATOM      7  C   UNL A   1      46.320  19.493  25.154  1.00  0.00     0.024 C 
BRANCH   5   8
ATOM      8  C   UNL A   1      44.738  21.283  24.455  1.00  0.00     0.128 C 
BRANCH   8   9
ATOM      9  S   UNL A   1      46.159  22.381  24.721  1.00  0.00     0.054 S 
ATOM     10  O   UNL A   1      45.964  23.553  23.806  1.00  0.00    -0.254 OA
BRANCH   9  11
ATOM     11  C   UNL A   1      45.882  23.053  26.367  1.00  0.00     0.039 A 
ATOM     12  C   UNL A   1      46.750  23.934  27.008  1.00  0.00     0.018 A 
ATOM     13  C   UNL A   1      44.728  22.646  27.038  1.00  0.00     0.018 A 
ATOM     14  C   UNL A   1      46.401  24.499  28.242  1.00  0.00     0.005 A 
ATOM     15  C   UNL A   1      44.391  23.194  28.280  1.00  0.00     0.005 A 
ATOM     16  C   UNL A   1      45.199  24.165  28.892  1.00  0.00    -0.043 A 
BRANCH  16  17
ATOM     17  C   UNL A   1      44.802  24.866  30.203  1.00  0.00    -0.013 C 
ATOM     18  C   UNL A   1      43.700  25.911  29.953  1.00  0.00     0.016 C 
ATOM     19  C   UNL A   1      44.301  23.814  31.217  1.00  0.00     0.016 C 
ATOM     20  C   UNL A   1      45.974  25.598  30.871  1.00  0.00     0.016 C 
ENDBRANCH  16  17
ENDBRANCH   9  11
ENDBRANCH   8   9
ENDBRANCH   5   8
ENDBRANCH   3   5
ENDBRANCH   2   3
ENDBRANCH   1   2
BRANCH   1  21
ATOM     21  C   UNL A   1      40.429  19.638  26.076  1.00  0.00     0.275 C 
BRANCH  21  22
ATOM     22  O   UNL A   1      39.762  20.616  26.893  1.00  0.00    -0.458 OA
BRANCH  22  23
ATOM     23  C   UNL A   1      39.057  21.557  26.232  1.00  0.00     0.338 C 
ATOM     24  O   UNL A   1      38.142  21.386  25.440  1.00  0.00    -0.246 OA
BRANCH  23  25
ATOM     25  C   UNL A   1      39.511  22.898  26.628  1.00  0.00     0.060 A 
ATOM     26  C   UNL A   1      39.095  23.997  25.883  1.00  0.00     0.016 A 
ATOM     27  C   UNL A   1      40.477  23.050  27.624  1.00  0.00     0.016 A 
ATOM     28  C   UNL A   1      39.706  25.235  26.073  1.00  0.00     0.010 A 
ATOM     29  C   UNL A   1      41.036  24.314  27.866  1.00  0.00     0.010 A 
ATOM     30  C   UNL A   1      40.692  25.411  27.061  1.00  0.00    -0.014 A 
BRANCH  30  31
ATOM     31  C   UNL A   1      41.354  26.743  27.180  1.00  0.00     0.031 A 
ATOM     32  C   UNL A   1      40.695  27.878  27.924  1.00  0.00     0.074 A 
ATOM     33  C   UNL A   1      42.628  26.884  26.763  1.00  0.00     0.049 A 
ATOM     34  N   UNL A   1      41.237  28.983  28.380  1.00  0.00    -0.248 NA
ATOM     35  C   UNL A   1      39.267  27.741  28.252  1.00  0.00     0.031 C 
ATOM     36  C   UNL A   1      43.393  25.872  26.034  1.00  0.00     0.029 A 
ATOM     37  N   UNL A   1      43.514  27.922  26.923  1.00  0.00    -0.354 N 
ATOM     38  C   UNL A   1      40.254  29.605  29.139  1.00  0.00     0.074 A 
ATOM     39  C   UNL A   1      39.045  28.825  28.984  1.00  0.00     0.031 C 
ATOM     40  C   UNL A   1      44.642  26.324  25.837  1.00  0.00     0.029 A 
ATOM     41  C   UNL A   1      44.758  27.666  26.399  1.00  0.00     0.049 A 
ATOM     42  H   UNL A   1      43.281  28.768  27.369  1.00  0.00     0.167 HD
ATOM     43  C   UNL A   1      40.375  30.671  29.965  1.00  0.00     0.037 A 
ATOM     44  C   UNL A   1      45.871  28.426  26.370  1.00  0.00     0.037 A 
ATOM     45  C   UNL A   1      41.560  31.472  30.108  1.00  0.00     0.049 A 
ATOM     46  C   UNL A   1      45.871  29.767  27.046  1.00  0.00     0.074 A 
ATOM     47  C   UNL A   1      41.782  32.548  30.952  1.00  0.00     0.029 A 
ATOM     48  N   UNL A   1      42.714  31.305  29.362  1.00  0.00    -0.354 N 
ATOM     49  N   UNL A   1      44.965  30.295  27.830  1.00  0.00    -0.248 NA
ATOM     50  C   UNL A   1      47.047  30.620  26.826  1.00  0.00     0.031 C 
ATOM     51  C   UNL A   1      43.057  33.061  30.682  1.00  0.00     0.029 A 
ATOM     52  C   UNL A   1      43.633  32.293  29.683  1.00  0.00     0.049 A 
ATOM     53  H   UNL A   1      42.862  30.590  28.702  1.00  0.00     0.167 HD
ATOM     54  C   UNL A   1      45.469  31.528  28.218  1.00  0.00     0.074 A 
ATOM     55  C   UNL A   1      46.764  31.670  27.586  1.00  0.00     0.031 C 
ATOM     56  C   UNL A   1      44.907  32.452  29.034  1.00  0.00     0.037 A 
BRANCH  43  57
ATOM     57  C   UNL A   1      39.211  30.993  30.849  1.00  0.00     0.064 A 
ATOM     58  C   UNL A   1      39.121  30.428  32.131  1.00  0.00     0.173 A 
ATOM     59  C   UNL A   1      38.228  31.911  30.463  1.00  0.00     0.173 A 
ATOM     60  F   UNL A   1      40.055  29.568  32.558  1.00  0.00    -0.203 F 
ATOM     61  C   UNL A   1      38.076  30.756  32.990  1.00  0.00     0.198 A 
ATOM     62  C   UNL A   1      37.189  32.246  31.329  1.00  0.00     0.198 A 
ATOM     63  F   UNL A   1      38.280  32.484  29.252  1.00  0.00    -0.203 F 
ATOM     64  F   UNL A   1      38.008  30.195  34.205  1.00  0.00    -0.200 F 
ATOM     65  C   UNL A   1      37.112  31.668  32.589  1.00  0.00     0.200 A 
ATOM     66  F   UNL A   1      36.261  33.135  30.948  1.00  0.00    -0.200 F 
ATOM     67  F   UNL A   1      36.112  31.991  33.419  1.00  0.00    -0.200 F 
ENDBRANCH  43  57
BRANCH  44  68
ATOM     68  C   UNL A   1      47.076  27.943  25.649  1.00  0.00     0.064 A 
ATOM     69  C   UNL A   1      47.161  27.995  24.252  1.00  0.00     0.173 A 
ATOM     70  C   UNL A   1      48.161  27.399  26.352  1.00  0.00     0.173 A 
ATOM     71  F   UNL A   1      46.135  28.478  23.535  1.00  0.00    -0.203 F 
ATOM     72  C   UNL A   1      48.287  27.518  23.584  1.00  0.00     0.198 A 
ATOM     73  C   UNL A   1      49.296  26.946  25.686  1.00  0.00     0.198 A 
ATOM     74  F   UNL A   1      48.120  27.316  27.689  1.00  0.00    -0.203 F 
ATOM     75  F   UNL A   1      48.332  27.544  22.246  1.00  0.00    -0.200 F 
ATOM     76  C   UNL A   1      49.356  27.000  24.302  1.00  0.00     0.200 A 
ATOM     77  F   UNL A   1      50.327  26.452  26.385  1.00  0.00    -0.200 F 
ATOM     78  F   UNL A   1      50.440  26.543  23.660  1.00  0.00    -0.200 F 
ENDBRANCH  44  68
BRANCH  56  79
ATOM     79  C   UNL A   1      45.684  33.708  29.283  1.00  0.00     0.064 A 
ATOM     80  C   UNL A   1      46.649  33.773  30.298  1.00  0.00     0.173 A 
ATOM     81  C   UNL A   1      45.475  34.852  28.499  1.00  0.00     0.173 A 
ATOM     82  F   UNL A   1      46.869  32.711  31.088  1.00  0.00    -0.203 F 
ATOM     83  C   UNL A   1      47.364  34.945  30.533  1.00  0.00     0.198 A 
ATOM     84  C   UNL A   1      46.209  36.016  28.721  1.00  0.00     0.198 A 
ATOM     85  F   UNL A   1      44.563  34.842  27.515  1.00  0.00    -0.203 F 
ATOM     86  F   UNL A   1      48.250  34.997  31.537  1.00  0.00    -0.200 F 
ATOM     87  C   UNL A   1      47.147  36.063  29.741  1.00  0.00     0.200 A 
ATOM     88  F   UNL A   1      46.002  37.093  27.951  1.00  0.00    -0.200 F 
ATOM     89  F   UNL A   1      47.835  37.190  29.969  1.00  0.00    -0.200 F 
ENDBRANCH  56  79
ENDBRANCH  30  31
ENDBRANCH  23  25
ENDBRANCH  22  23
ENDBRANCH  21  22
ENDBRANCH   1  21
TORSDOF 15
ENDMDL
MODEL 3
REMARK VINA RESULT:      -9.9      6.438     10.465
REMARK SMILES CC(C)(C[S@@](=O)c1ccc(C(C)(C)C)cc1)C(=O)OCCOC(=O)c1ccc(-c2c3nc(c(-c4c(F)c(F)c(F)c(F)c4F)c4ccc([nH]4)c(-c4c(F)c(F)c(F)c(F)c4F)c4nc(c(-c5c(F)c(F)c(F)c(F)c5F)c5ccc2[nH]5)C=C4)C=C3)cc1
REMARK SMILES IDX 20 1 19 2 17 3 18 4 2 5 1 6 3 7 4 8 5 9 6 10 7 11 8 12 16 13
REMARK SMILES IDX 9 14 15 15 10 16 11 17 12 18 13 19 14 20 21 21 22 22 23 23
REMARK SMILES IDX 24 24 25 25 26 26 87 27 27 28 86 29 28 30 29 31 30 32 80 33
REMARK SMILES IDX 31 34 85 35 79 36 81 37 32 38 84 39 78 40 77 41 33 43 65 44
REMARK SMILES IDX 45 45 64 46 46 47 49 48 63 49 82 50 47 51 48 52 62 54 83 55
REMARK SMILES IDX 50 56 34 57 35 58 43 59 36 60 37 61 41 62 44 63 38 64 39 65
REMARK SMILES IDX 42 66 40 67 66 68 67 69 75 70 68 71 69 72 73 73 76 74 70 75
REMARK SMILES IDX 71 76 74 77 72 78 51 79 52 80 60 81 53 82 54 83 58 84 61 85
REMARK SMILES IDX 55 86 56 87 59 88 57 89
REMARK H PARENT 81 42 49 53
REMARK Flexibility Score: inf
ROOT
ATOM      1  C   UNL A   1      31.780  32.028  26.920  1.00  0.00     0.274 C 
ENDROOT
BRANCH   1   2
ATOM      2  O   UNL A   1      32.452  30.778  26.650  1.00  0.00    -0.462 OA
BRANCH   2   3
ATOM      3  C   UNL A   1      31.783  29.911  25.845  1.00  0.00     0.312 C 
ATOM      4  O   UNL A   1      30.991  30.249  24.972  1.00  0.00    -0.252 OA
BRANCH   3   5
ATOM      5  C   UNL A   1      32.016  28.450  26.230  1.00  0.00     0.074 C 
ATOM      6  C   UNL A   1      31.486  28.215  27.655  1.00  0.00     0.024 C 
ATOM      7  C   UNL A   1      33.552  28.285  26.290  1.00  0.00     0.024 C 
BRANCH   5   8
ATOM      8  C   UNL A   1      31.475  27.407  25.235  1.00  0.00     0.128 C 
BRANCH   8   9
ATOM      9  S   UNL A   1      31.158  25.718  25.821  1.00  0.00     0.054 S 
ATOM     10  O   UNL A   1      30.250  25.084  24.809  1.00  0.00    -0.254 OA
BRANCH   9  11
ATOM     11  C   UNL A   1      32.733  24.880  25.591  1.00  0.00     0.039 A 
ATOM     12  C   UNL A   1      33.281  23.982  26.505  1.00  0.00     0.018 A 
ATOM     13  C   UNL A   1      33.445  25.166  24.427  1.00  0.00     0.018 A 
ATOM     14  C   UNL A   1      34.457  23.286  26.194  1.00  0.00     0.005 A 
ATOM     15  C   UNL A   1      34.631  24.487  24.128  1.00  0.00     0.005 A 
ATOM     16  C   UNL A   1      35.143  23.500  24.985  1.00  0.00    -0.043 A 
BRANCH  16  17
ATOM     17  C   UNL A   1      36.382  22.659  24.633  1.00  0.00    -0.013 C 
ATOM     18  C   UNL A   1      37.604  23.116  25.451  1.00  0.00     0.016 C 
ATOM     19  C   UNL A   1      36.092  21.169  24.921  1.00  0.00     0.016 C 
ATOM     20  C   UNL A   1      36.771  22.753  23.151  1.00  0.00     0.016 C 
ENDBRANCH  16  17
ENDBRANCH   9  11
ENDBRANCH   8   9
ENDBRANCH   5   8
ENDBRANCH   3   5
ENDBRANCH   2   3
ENDBRANCH   1   2
BRANCH   1  21
ATOM     21  C   UNL A   1      32.754  33.118  27.360  1.00  0.00     0.275 C 
BRANCH  21  22
ATOM     22  O   UNL A   1      32.247  33.798  28.522  1.00  0.00    -0.458 OA
BRANCH  22  23
ATOM     23  C   UNL A   1      32.903  34.920  28.884  1.00  0.00     0.338 C 
ATOM     24  O   UNL A   1      32.545  36.077  28.729  1.00  0.00    -0.246 OA
BRANCH  23  25
ATOM     25  C   UNL A   1      34.157  34.571  29.567  1.00  0.00     0.060 A 
ATOM     26  C   UNL A   1      35.362  34.742  28.892  1.00  0.00     0.016 A 
ATOM     27  C   UNL A   1      34.131  33.922  30.802  1.00  0.00     0.016 A 
ATOM     28  C   UNL A   1      36.531  34.188  29.409  1.00  0.00     0.010 A 
ATOM     29  C   UNL A   1      35.322  33.431  31.358  1.00  0.00     0.010 A 
ATOM     30  C   UNL A   1      36.529  33.516  30.645  1.00  0.00    -0.014 A 
BRANCH  30  31
ATOM     31  C   UNL A   1      37.797  32.892  31.121  1.00  0.00     0.031 A 
ATOM     32  C   UNL A   1      38.465  33.354  32.393  1.00  0.00     0.074 A 
ATOM     33  C   UNL A   1      38.262  31.791  30.499  1.00  0.00     0.049 A 
ATOM     34  N   UNL A   1      39.382  32.742  33.106  1.00  0.00    -0.248 NA
ATOM     35  C   UNL A   1      38.015  34.628  32.976  1.00  0.00     0.031 C 
ATOM     36  C   UNL A   1      37.716  31.227  29.264  1.00  0.00     0.029 A 
ATOM     37  N   UNL A   1      39.278  30.929  30.839  1.00  0.00    -0.354 N 
ATOM     38  C   UNL A   1      39.528  33.494  34.264  1.00  0.00     0.074 A 
ATOM     39  C   UNL A   1      38.702  34.671  34.110  1.00  0.00     0.031 C 
ATOM     40  C   UNL A   1      38.380  30.098  28.966  1.00  0.00     0.029 A 
ATOM     41  C   UNL A   1      39.414  29.873  29.971  1.00  0.00     0.049 A 
ATOM     42  H   UNL A   1      39.852  31.057  31.628  1.00  0.00     0.167 HD
ATOM     43  C   UNL A   1      40.212  33.182  35.391  1.00  0.00     0.037 A 
ATOM     44  C   UNL A   1      40.278  28.838  29.978  1.00  0.00     0.037 A 
ATOM     45  C   UNL A   1      41.059  32.031  35.549  1.00  0.00     0.049 A 
ATOM     46  C   UNL A   1      41.253  28.694  31.111  1.00  0.00     0.074 A 
ATOM     47  C   UNL A   1      41.759  31.618  36.670  1.00  0.00     0.029 A 
ATOM     48  N   UNL A   1      41.348  31.126  34.542  1.00  0.00    -0.354 N 
ATOM     49  N   UNL A   1      41.315  29.362  32.235  1.00  0.00    -0.248 NA
ATOM     50  C   UNL A   1      42.283  27.654  30.971  1.00  0.00     0.031 C 
ATOM     51  C   UNL A   1      42.509  30.486  36.325  1.00  0.00     0.029 A 
ATOM     52  C   UNL A   1      42.262  30.188  34.996  1.00  0.00     0.049 A 
ATOM     53  H   UNL A   1      40.962  31.146  33.636  1.00  0.00     0.167 HD
ATOM     54  C   UNL A   1      42.370  28.810  32.948  1.00  0.00     0.074 A 
ATOM     55  C   UNL A   1      42.919  27.749  32.131  1.00  0.00     0.031 C 
ATOM     56  C   UNL A   1      42.831  29.152  34.176  1.00  0.00     0.037 A 
BRANCH  43  57
ATOM     57  C   UNL A   1      40.011  34.063  36.584  1.00  0.00     0.064 A 
ATOM     58  C   UNL A   1      39.089  33.702  37.580  1.00  0.00     0.173 A 
ATOM     59  C   UNL A   1      40.777  35.217  36.782  1.00  0.00     0.173 A 
ATOM     60  F   UNL A   1      38.355  32.589  37.451  1.00  0.00    -0.203 F 
ATOM     61  C   UNL A   1      38.926  34.478  38.723  1.00  0.00     0.198 A 
ATOM     62  C   UNL A   1      40.621  35.986  37.933  1.00  0.00     0.198 A 
ATOM     63  F   UNL A   1      41.679  35.593  35.863  1.00  0.00    -0.203 F 
ATOM     64  F   UNL A   1      38.032  34.118  39.654  1.00  0.00    -0.200 F 
ATOM     65  C   UNL A   1      39.695  35.618  38.901  1.00  0.00     0.200 A 
ATOM     66  F   UNL A   1      41.369  37.083  38.112  1.00  0.00    -0.200 F 
ATOM     67  F   UNL A   1      39.545  36.359  40.006  1.00  0.00    -0.200 F 
ENDBRANCH  43  57
BRANCH  44  68
ATOM     68  C   UNL A   1      40.276  27.869  28.854  1.00  0.00     0.064 A 
ATOM     69  C   UNL A   1      39.596  26.647  28.943  1.00  0.00     0.173 A 
ATOM     70  C   UNL A   1      40.975  28.143  27.669  1.00  0.00     0.173 A 
ATOM     71  F   UNL A   1      38.938  26.327  30.068  1.00  0.00    -0.203 F 
ATOM     72  C   UNL A   1      39.619  25.735  27.891  1.00  0.00     0.198 A 
ATOM     73  C   UNL A   1      40.977  27.242  26.609  1.00  0.00     0.198 A 
ATOM     74  F   UNL A   1      41.652  29.293  27.541  1.00  0.00    -0.203 F 
ATOM     75  F   UNL A   1      38.992  24.557  28.013  1.00  0.00    -0.200 F 
ATOM     76  C   UNL A   1      40.304  26.036  26.722  1.00  0.00     0.200 A 
ATOM     77  F   UNL A   1      41.636  27.541  25.480  1.00  0.00    -0.200 F 
ATOM     78  F   UNL A   1      40.324  25.159  25.709  1.00  0.00    -0.200 F 
ENDBRANCH  44  68
BRANCH  56  79
ATOM     79  C   UNL A   1      43.997  28.378  34.709  1.00  0.00     0.064 A 
ATOM     80  C   UNL A   1      43.813  27.159  35.377  1.00  0.00     0.173 A 
ATOM     81  C   UNL A   1      45.309  28.846  34.542  1.00  0.00     0.173 A 
ATOM     82  F   UNL A   1      42.576  26.682  35.578  1.00  0.00    -0.203 F 
ATOM     83  C   UNL A   1      44.899  26.446  35.879  1.00  0.00     0.198 A 
ATOM     84  C   UNL A   1      46.395  28.118  35.025  1.00  0.00     0.198 A 
ATOM     85  F   UNL A   1      45.539  30.006  33.910  1.00  0.00    -0.203 F 
ATOM     86  F   UNL A   1      44.695  25.306  36.553  1.00  0.00    -0.200 F 
ATOM     87  C   UNL A   1      46.188  26.923  35.698  1.00  0.00     0.200 A 
ATOM     88  F   UNL A   1      47.641  28.577  34.843  1.00  0.00    -0.200 F 
ATOM     89  F   UNL A   1      47.232  26.236  36.181  1.00  0.00    -0.200 F 
ENDBRANCH  56  79
ENDBRANCH  30  31
ENDBRANCH  23  25
ENDBRANCH  22  23
ENDBRANCH  21  22
ENDBRANCH   1  21
TORSDOF 15
ENDMDL
