MODEL 1
REMARK VINA RESULT:     -13.4      0.000      0.000
REMARK SMILES O=C(C[C@]12CSc3[nH]c(=O)sc3[C@H]1c1cc(Cl)ccc1OC2=O)OCCOC(=O)c1ccc(-c2c3nc(c(-c4c(F)c(F)c(F)c(F)c4F)c4ccc([nH]4)c(-c4c(F)c(F)c(F)c(F)c4F)c4nc(c(-c5c(F)c(F)c(F)c(F)c5F)c5ccc2[nH]5)C=C4)C=C3)cc1
REMARK SMILES IDX 26 1 25 2 24 3 2 4 1 5 3 6 4 7 5 8 13 9 22 10 6 11 12 12
REMARK SMILES IDX 14 13 21 14 23 15 7 16 11 17 15 18 20 19 8 20 9 21 16 22
REMARK SMILES IDX 19 23 10 25 17 26 18 27 27 28 28 29 29 30 30 31 31 32 92 33
REMARK SMILES IDX 32 34 91 35 33 36 34 37 35 38 85 39 36 40 90 41 84 42 86 43
REMARK SMILES IDX 37 44 89 45 83 46 82 47 38 49 70 50 50 51 69 52 51 53 54 54
REMARK SMILES IDX 68 55 87 56 52 57 53 58 67 60 88 61 55 62 39 63 40 64 48 65
REMARK SMILES IDX 41 66 42 67 46 68 49 69 43 70 44 71 47 72 45 73 71 74 72 75
REMARK SMILES IDX 80 76 73 77 74 78 78 79 81 80 75 81 76 82 79 83 77 84 56 85
REMARK SMILES IDX 57 86 65 87 58 88 59 89 63 90 66 91 60 92 61 93 64 94 62 95
REMARK H PARENT 8 24 86 48 54 59
REMARK Flexibility Score: inf
ROOT
ATOM      1  C   UNL A   1      36.882  22.158  24.681  1.00  0.00     0.275 C 
ENDROOT
BRANCH   1   2
ATOM      2  C   UNL A   1      35.985  23.333  24.258  1.00  0.00     0.274 C 
BRANCH   2   3
ATOM      3  O   UNL A   1      35.510  24.111  25.381  1.00  0.00    -0.462 OA
BRANCH   3   4
ATOM      4  C   UNL A   1      34.441  24.942  25.334  1.00  0.00     0.307 C 
ATOM      5  O   UNL A   1      34.439  25.915  24.586  1.00  0.00    -0.252 OA
BRANCH   4   6
ATOM      6  C   UNL A   1      33.365  24.756  26.362  1.00  0.00     0.143 C 
BRANCH   6   7
ATOM      7  C   UNL A   1      32.378  23.559  26.373  1.00  0.00     0.100 C 
ATOM      8  C   UNL A   1      32.699  22.579  27.526  1.00  0.00     0.097 C 
ATOM      9  C   UNL A   1      32.512  22.970  24.910  1.00  0.00     0.085 C 
ATOM     10  C   UNL A   1      30.904  23.917  26.556  1.00  0.00     0.319 C 
ATOM     11  S   UNL A   1      34.094  21.494  27.155  1.00  0.00    -0.106 SA
ATOM     12  C   UNL A   1      32.667  21.478  24.839  1.00  0.00     0.049 A 
ATOM     13  C   UNL A   1      31.764  23.861  23.899  1.00  0.00     0.006 A 
ATOM     14  O   UNL A   1      30.385  24.834  25.679  1.00  0.00    -0.426 OA
ATOM     15  O   UNL A   1      30.179  23.441  27.422  1.00  0.00    -0.251 OA
ATOM     16  C   UNL A   1      33.416  20.820  25.745  1.00  0.00     0.090 A 
ATOM     17  S   UNL A   1      32.342  20.437  23.480  1.00  0.00    -0.077 S 
ATOM     18  C   UNL A   1      32.242  24.048  22.590  1.00  0.00     0.028 A 
ATOM     19  C   UNL A   1      30.865  24.831  24.369  1.00  0.00     0.134 A 
ATOM     20  N   UNL A   1      33.718  19.539  25.433  1.00  0.00    -0.307 N 
ATOM     21  C   UNL A   1      33.253  19.094  24.228  1.00  0.00     0.305 A 
ATOM     22  C   UNL A   1      31.912  25.207  21.862  1.00  0.00     0.041 A 
ATOM     23  C   UNL A   1      30.476  25.951  23.624  1.00  0.00     0.049 A 
ATOM     24  H   UNL A   1      34.241  18.963  26.037  1.00  0.00     0.171 HD
ATOM     25  O   UNL A   1      33.419  17.992  23.736  1.00  0.00    -0.257 OA
ATOM     26  Cl  UNL A   1      32.716  25.539  20.376  1.00  0.00    -0.084 Cl
ATOM     27  C   UNL A   1      31.037  26.162  22.376  1.00  0.00     0.024 A 
ENDBRANCH   6   7
ENDBRANCH   4   6
ENDBRANCH   3   4
ENDBRANCH   2   3
ENDBRANCH   1   2
BRANCH   1  28
ATOM     28  O   UNL A   1      37.435  22.389  25.988  1.00  0.00    -0.458 OA
BRANCH  28  29
ATOM     29  C   UNL A   1      38.736  22.030  26.165  1.00  0.00     0.338 C 
ATOM     30  O   UNL A   1      39.275  21.018  25.787  1.00  0.00    -0.246 OA
BRANCH  29  31
ATOM     31  C   UNL A   1      39.447  23.236  26.650  1.00  0.00     0.060 A 
ATOM     32  C   UNL A   1      40.636  23.153  27.375  1.00  0.00     0.016 A 
ATOM     33  C   UNL A   1      38.813  24.466  26.484  1.00  0.00     0.016 A 
ATOM     34  C   UNL A   1      41.116  24.277  28.051  1.00  0.00     0.010 A 
ATOM     35  C   UNL A   1      39.320  25.595  27.125  1.00  0.00     0.010 A 
ATOM     36  C   UNL A   1      40.429  25.498  27.977  1.00  0.00    -0.014 A 
BRANCH  36  37
ATOM     37  C   UNL A   1      40.957  26.673  28.712  1.00  0.00     0.031 A 
ATOM     38  C   UNL A   1      42.249  27.242  28.213  1.00  0.00     0.074 A 
ATOM     39  C   UNL A   1      40.258  27.349  29.657  1.00  0.00     0.049 A 
ATOM     40  N   UNL A   1      43.273  27.647  28.901  1.00  0.00    -0.248 NA
ATOM     41  C   UNL A   1      42.436  27.342  26.754  1.00  0.00     0.031 C 
ATOM     42  C   UNL A   1      38.890  27.063  30.100  1.00  0.00     0.029 A 
ATOM     43  N   UNL A   1      40.551  28.525  30.315  1.00  0.00    -0.354 N 
ATOM     44  C   UNL A   1      44.159  28.199  27.976  1.00  0.00     0.074 A 
ATOM     45  C   UNL A   1      43.650  27.887  26.668  1.00  0.00     0.031 C 
ATOM     46  C   UNL A   1      38.380  28.155  30.703  1.00  0.00     0.029 A 
ATOM     47  C   UNL A   1      39.421  29.164  30.816  1.00  0.00     0.049 A 
ATOM     48  H   UNL A   1      41.465  28.876  30.418  1.00  0.00     0.167 HD
ATOM     49  C   UNL A   1      45.120  29.093  28.332  1.00  0.00     0.037 A 
ATOM     50  C   UNL A   1      39.293  30.447  31.236  1.00  0.00     0.037 A 
ATOM     51  C   UNL A   1      45.396  29.111  29.737  1.00  0.00     0.049 A 
ATOM     52  C   UNL A   1      40.619  30.976  31.625  1.00  0.00     0.074 A 
ATOM     53  C   UNL A   1      46.266  28.513  30.617  1.00  0.00     0.029 A 
ATOM     54  N   UNL A   1      44.483  29.802  30.474  1.00  0.00    -0.354 N 
ATOM     55  N   UNL A   1      41.287  30.583  32.672  1.00  0.00    -0.248 NA
ATOM     56  C   UNL A   1      41.344  31.857  30.712  1.00  0.00     0.031 C 
ATOM     57  C   UNL A   1      45.801  28.828  31.931  1.00  0.00     0.029 A 
ATOM     58  C   UNL A   1      44.655  29.604  31.815  1.00  0.00     0.049 A 
ATOM     59  H   UNL A   1      43.783  30.375  30.086  1.00  0.00     0.167 HD
ATOM     60  C   UNL A   1      42.601  30.825  32.340  1.00  0.00     0.074 A 
ATOM     61  C   UNL A   1      42.568  31.769  31.235  1.00  0.00     0.031 C 
ATOM     62  C   UNL A   1      43.582  29.955  32.708  1.00  0.00     0.037 A 
BRANCH  49  63
ATOM     63  C   UNL A   1      45.489  30.295  27.493  1.00  0.00     0.064 A 
ATOM     64  C   UNL A   1      46.844  30.576  27.223  1.00  0.00     0.173 A 
ATOM     65  C   UNL A   1      44.584  31.351  27.253  1.00  0.00     0.173 A 
ATOM     66  F   UNL A   1      47.792  29.657  27.458  1.00  0.00    -0.203 F 
ATOM     67  C   UNL A   1      47.260  31.838  26.783  1.00  0.00     0.198 A 
ATOM     68  C   UNL A   1      44.996  32.590  26.765  1.00  0.00     0.198 A 
ATOM     69  F   UNL A   1      43.292  31.258  27.596  1.00  0.00    -0.203 F 
ATOM     70  F   UNL A   1      48.567  32.098  26.640  1.00  0.00    -0.200 F 
ATOM     71  C   UNL A   1      46.336  32.842  26.554  1.00  0.00     0.200 A 
ATOM     72  F   UNL A   1      44.089  33.560  26.579  1.00  0.00    -0.200 F 
ATOM     73  F   UNL A   1      46.736  34.064  26.180  1.00  0.00    -0.200 F 
ENDBRANCH  49  63
BRANCH  50  74
ATOM     74  C   UNL A   1      38.097  31.327  31.186  1.00  0.00     0.064 A 
ATOM     75  C   UNL A   1      37.571  31.767  29.958  1.00  0.00     0.173 A 
ATOM     76  C   UNL A   1      37.288  31.546  32.320  1.00  0.00     0.173 A 
ATOM     77  F   UNL A   1      38.250  31.565  28.819  1.00  0.00    -0.203 F 
ATOM     78  C   UNL A   1      36.306  32.356  29.865  1.00  0.00     0.198 A 
ATOM     79  C   UNL A   1      36.034  32.153  32.228  1.00  0.00     0.198 A 
ATOM     80  F   UNL A   1      37.652  31.089  33.526  1.00  0.00    -0.203 F 
ATOM     81  F   UNL A   1      35.812  32.690  28.665  1.00  0.00    -0.200 F 
ATOM     82  C   UNL A   1      35.536  32.542  31.000  1.00  0.00     0.200 A 
ATOM     83  F   UNL A   1      35.287  32.301  33.332  1.00  0.00    -0.200 F 
ATOM     84  F   UNL A   1      34.301  33.053  30.905  1.00  0.00    -0.200 F 
ENDBRANCH  50  74
BRANCH  62  85
ATOM     85  C   UNL A   1      43.384  29.150  33.946  1.00  0.00     0.064 A 
ATOM     86  C   UNL A   1      42.733  27.910  33.973  1.00  0.00     0.173 A 
ATOM     87  C   UNL A   1      43.949  29.620  35.140  1.00  0.00     0.173 A 
ATOM     88  F   UNL A   1      42.261  27.355  32.848  1.00  0.00    -0.203 F 
ATOM     89  C   UNL A   1      42.610  27.194  35.161  1.00  0.00     0.198 A 
ATOM     90  C   UNL A   1      43.860  28.884  36.316  1.00  0.00     0.198 A 
ATOM     91  F   UNL A   1      44.624  30.781  35.155  1.00  0.00    -0.203 F 
ATOM     92  F   UNL A   1      41.975  26.013  35.167  1.00  0.00    -0.200 F 
ATOM     93  C   UNL A   1      43.179  27.678  36.329  1.00  0.00     0.200 A 
ATOM     94  F   UNL A   1      44.451  29.334  37.432  1.00  0.00    -0.200 F 
ATOM     95  F   UNL A   1      43.093  26.967  37.462  1.00  0.00    -0.200 F 
ENDBRANCH  62  85
ENDBRANCH  36  37
ENDBRANCH  29  31
ENDBRANCH  28  29
ENDBRANCH   1  28
TORSDOF 12
ENDMDL
MODEL 2
REMARK VINA RESULT:     -13.3      3.142      8.088
REMARK SMILES O=C(C[C@]12CSc3[nH]c(=O)sc3[C@H]1c1cc(Cl)ccc1OC2=O)OCCOC(=O)c1ccc(-c2c3nc(c(-c4c(F)c(F)c(F)c(F)c4F)c4ccc([nH]4)c(-c4c(F)c(F)c(F)c(F)c4F)c4nc(c(-c5c(F)c(F)c(F)c(F)c5F)c5ccc2[nH]5)C=C4)C=C3)cc1
REMARK SMILES IDX 26 1 25 2 24 3 2 4 1 5 3 6 4 7 5 8 13 9 22 10 6 11 12 12
REMARK SMILES IDX 14 13 21 14 23 15 7 16 11 17 15 18 20 19 8 20 9 21 16 22
REMARK SMILES IDX 19 23 10 25 17 26 18 27 27 28 28 29 29 30 30 31 31 32 92 33
REMARK SMILES IDX 32 34 91 35 33 36 34 37 35 38 85 39 36 40 90 41 84 42 86 43
REMARK SMILES IDX 37 44 89 45 83 46 82 47 38 49 70 50 50 51 69 52 51 53 54 54
REMARK SMILES IDX 68 55 87 56 52 57 53 58 67 60 88 61 55 62 39 63 40 64 48 65
REMARK SMILES IDX 41 66 42 67 46 68 49 69 43 70 44 71 47 72 45 73 71 74 72 75
REMARK SMILES IDX 80 76 73 77 74 78 78 79 81 80 75 81 76 82 79 83 77 84 56 85
REMARK SMILES IDX 57 86 65 87 58 88 59 89 63 90 66 91 60 92 61 93 64 94 62 95
REMARK H PARENT 8 24 86 48 54 59
REMARK Flexibility Score: inf
ROOT
ATOM      1  C   UNL A   1      32.931  30.757  26.875  1.00  0.00     0.275 C 
ENDROOT
BRANCH   1   2
ATOM      2  C   UNL A   1      32.642  29.701  25.795  1.00  0.00     0.274 C 
BRANCH   2   3
ATOM      3  O   UNL A   1      33.735  28.770  25.612  1.00  0.00    -0.462 OA
BRANCH   3   4
ATOM      4  C   UNL A   1      33.934  28.042  24.488  1.00  0.00     0.307 C 
ATOM      5  O   UNL A   1      34.031  28.592  23.395  1.00  0.00    -0.252 OA
BRANCH   4   6
ATOM      6  C   UNL A   1      33.823  26.549  24.593  1.00  0.00     0.143 C 
BRANCH   6   7
ATOM      7  C   UNL A   1      32.608  25.735  24.077  1.00  0.00     0.100 C 
ATOM      8  C   UNL A   1      31.292  26.534  24.228  1.00  0.00     0.097 C 
ATOM      9  C   UNL A   1      32.697  24.391  24.910  1.00  0.00     0.085 C 
ATOM     10  C   UNL A   1      32.658  25.329  22.605  1.00  0.00     0.319 C 
ATOM     11  S   UNL A   1      30.653  26.519  25.918  1.00  0.00    -0.106 SA
ATOM     12  C   UNL A   1      31.402  23.934  25.517  1.00  0.00     0.049 A 
ATOM     13  C   UNL A   1      33.817  23.488  24.356  1.00  0.00     0.006 A 
ATOM     14  O   UNL A   1      33.777  24.650  22.197  1.00  0.00    -0.426 OA
ATOM     15  O   UNL A   1      31.775  25.573  21.790  1.00  0.00    -0.251 OA
ATOM     16  C   UNL A   1      30.536  24.823  26.040  1.00  0.00     0.090 A 
ATOM     17  S   UNL A   1      30.980  22.327  26.041  1.00  0.00    -0.077 S 
ATOM     18  C   UNL A   1      34.588  22.672  25.203  1.00  0.00     0.028 A 
ATOM     19  C   UNL A   1      34.377  23.775  23.102  1.00  0.00     0.134 A 
ATOM     20  N   UNL A   1      29.550  24.298  26.803  1.00  0.00    -0.307 N 
ATOM     21  C   UNL A   1      29.584  22.943  26.970  1.00  0.00     0.305 A 
ATOM     22  C   UNL A   1      35.889  22.279  24.833  1.00  0.00     0.041 A 
ATOM     23  C   UNL A   1      35.642  23.329  22.698  1.00  0.00     0.049 A 
ATOM     24  H   UNL A   1      28.852  24.860  27.213  1.00  0.00     0.171 HD
ATOM     25  O   UNL A   1      28.815  22.263  27.626  1.00  0.00    -0.257 OA
ATOM     26  Cl  UNL A   1      36.908  21.509  25.988  1.00  0.00    -0.084 Cl
ATOM     27  C   UNL A   1      36.421  22.609  23.588  1.00  0.00     0.024 A 
ENDBRANCH   6   7
ENDBRANCH   4   6
ENDBRANCH   3   4
ENDBRANCH   2   3
ENDBRANCH   1   2
BRANCH   1  28
ATOM     28  O   UNL A   1      34.142  30.439  27.582  1.00  0.00    -0.458 OA
BRANCH  28  29
ATOM     29  C   UNL A   1      35.038  31.452  27.730  1.00  0.00     0.338 C 
ATOM     30  O   UNL A   1      34.830  32.637  27.627  1.00  0.00    -0.246 OA
BRANCH  29  31
ATOM     31  C   UNL A   1      36.256  30.858  28.328  1.00  0.00     0.060 A 
ATOM     32  C   UNL A   1      37.247  31.639  28.922  1.00  0.00     0.016 A 
ATOM     33  C   UNL A   1      36.456  29.489  28.153  1.00  0.00     0.016 A 
ATOM     34  C   UNL A   1      38.492  31.078  29.213  1.00  0.00     0.010 A 
ATOM     35  C   UNL A   1      37.685  28.923  28.486  1.00  0.00     0.010 A 
ATOM     36  C   UNL A   1      38.741  29.723  28.944  1.00  0.00    -0.014 A 
BRANCH  36  37
ATOM     37  C   UNL A   1      40.075  29.155  29.255  1.00  0.00     0.031 A 
ATOM     38  C   UNL A   1      40.425  29.039  30.707  1.00  0.00     0.074 A 
ATOM     39  C   UNL A   1      40.886  28.580  28.333  1.00  0.00     0.049 A 
ATOM     40  N   UNL A   1      41.548  29.320  31.293  1.00  0.00    -0.248 NA
ATOM     41  C   UNL A   1      39.372  28.579  31.631  1.00  0.00     0.031 C 
ATOM     42  C   UNL A   1      40.595  28.406  26.907  1.00  0.00     0.029 A 
ATOM     43  N   UNL A   1      42.070  27.893  28.488  1.00  0.00    -0.354 N 
ATOM     44  C   UNL A   1      41.397  28.921  32.621  1.00  0.00     0.074 A 
ATOM     45  C   UNL A   1      40.011  28.578  32.801  1.00  0.00     0.031 C 
ATOM     46  C   UNL A   1      41.396  27.445  26.404  1.00  0.00     0.029 A 
ATOM     47  C   UNL A   1      42.346  27.037  27.426  1.00  0.00     0.049 A 
ATOM     48  H   UNL A   1      42.659  27.995  29.270  1.00  0.00     0.167 HD
ATOM     49  C   UNL A   1      42.459  28.655  33.428  1.00  0.00     0.037 A 
ATOM     50  C   UNL A   1      43.233  26.013  27.375  1.00  0.00     0.037 A 
ATOM     51  C   UNL A   1      43.696  29.185  32.943  1.00  0.00     0.049 A 
ATOM     52  C   UNL A   1      44.288  26.218  28.391  1.00  0.00     0.074 A 
ATOM     53  C   UNL A   1      44.450  30.325  33.089  1.00  0.00     0.029 A 
ATOM     54  N   UNL A   1      44.266  28.447  31.950  1.00  0.00    -0.354 N 
ATOM     55  N   UNL A   1      45.194  27.151  28.328  1.00  0.00    -0.248 NA
ATOM     56  C   UNL A   1      44.237  25.475  29.648  1.00  0.00     0.031 C 
ATOM     57  C   UNL A   1      45.475  30.270  32.097  1.00  0.00     0.029 A 
ATOM     58  C   UNL A   1      45.314  29.101  31.366  1.00  0.00     0.049 A 
ATOM     59  H   UNL A   1      43.960  27.549  31.686  1.00  0.00     0.167 HD
ATOM     60  C   UNL A   1      45.533  27.376  29.643  1.00  0.00     0.074 A 
ATOM     61  C   UNL A   1      45.075  26.210  30.381  1.00  0.00     0.031 C 
ATOM     62  C   UNL A   1      45.791  28.637  30.089  1.00  0.00     0.037 A 
BRANCH  49  63
ATOM     63  C   UNL A   1      42.484  27.512  34.419  1.00  0.00     0.064 A 
ATOM     64  C   UNL A   1      42.912  26.234  34.008  1.00  0.00     0.173 A 
ATOM     65  C   UNL A   1      41.775  27.560  35.638  1.00  0.00     0.173 A 
ATOM     66  F   UNL A   1      43.555  26.071  32.842  1.00  0.00    -0.203 F 
ATOM     67  C   UNL A   1      42.615  25.085  34.750  1.00  0.00     0.198 A 
ATOM     68  C   UNL A   1      41.526  26.420  36.401  1.00  0.00     0.198 A 
ATOM     69  F   UNL A   1      41.198  28.689  36.070  1.00  0.00    -0.203 F 
ATOM     70  F   UNL A   1      42.947  23.877  34.273  1.00  0.00    -0.200 F 
ATOM     71  C   UNL A   1      41.924  25.180  35.945  1.00  0.00     0.200 A 
ATOM     72  F   UNL A   1      40.829  26.528  37.540  1.00  0.00    -0.200 F 
ATOM     73  F   UNL A   1      41.596  24.078  36.632  1.00  0.00    -0.200 F 
ENDBRANCH  49  63
BRANCH  50  74
ATOM     74  C   UNL A   1      43.154  24.753  26.590  1.00  0.00     0.064 A 
ATOM     75  C   UNL A   1      43.964  24.552  25.458  1.00  0.00     0.173 A 
ATOM     76  C   UNL A   1      42.477  23.616  27.076  1.00  0.00     0.173 A 
ATOM     77  F   UNL A   1      44.679  25.567  24.947  1.00  0.00    -0.203 F 
ATOM     78  C   UNL A   1      44.113  23.292  24.871  1.00  0.00     0.198 A 
ATOM     79  C   UNL A   1      42.611  22.362  26.477  1.00  0.00     0.198 A 
ATOM     80  F   UNL A   1      41.749  23.675  28.200  1.00  0.00    -0.203 F 
ATOM     81  F   UNL A   1      44.956  23.131  23.840  1.00  0.00    -0.200 F 
ATOM     82  C   UNL A   1      43.442  22.196  25.386  1.00  0.00     0.200 A 
ATOM     83  F   UNL A   1      41.977  21.305  27.003  1.00  0.00    -0.200 F 
ATOM     84  F   UNL A   1      43.629  20.978  24.860  1.00  0.00    -0.200 F 
ENDBRANCH  50  74
BRANCH  62  85
ATOM     85  C   UNL A   1      46.335  29.630  29.121  1.00  0.00     0.064 A 
ATOM     86  C   UNL A   1      47.696  29.753  28.812  1.00  0.00     0.173 A 
ATOM     87  C   UNL A   1      45.428  30.437  28.418  1.00  0.00     0.173 A 
ATOM     88  F   UNL A   1      48.605  28.942  29.371  1.00  0.00    -0.203 F 
ATOM     89  C   UNL A   1      48.134  30.683  27.872  1.00  0.00     0.198 A 
ATOM     90  C   UNL A   1      45.864  31.336  27.452  1.00  0.00     0.198 A 
ATOM     91  F   UNL A   1      44.110  30.323  28.646  1.00  0.00    -0.203 F 
ATOM     92  F   UNL A   1      49.441  30.791  27.598  1.00  0.00    -0.200 F 
ATOM     93  C   UNL A   1      47.218  31.468  27.189  1.00  0.00     0.200 A 
ATOM     94  F   UNL A   1      44.972  32.060  26.761  1.00  0.00    -0.200 F 
ATOM     95  F   UNL A   1      47.640  32.334  26.257  1.00  0.00    -0.200 F 
ENDBRANCH  62  85
ENDBRANCH  36  37
ENDBRANCH  29  31
ENDBRANCH  28  29
ENDBRANCH   1  28
TORSDOF 12
ENDMDL
MODEL 3
REMARK VINA RESULT:     -13.3      1.765      2.607
REMARK SMILES O=C(C[C@]12CSc3[nH]c(=O)sc3[C@H]1c1cc(Cl)ccc1OC2=O)OCCOC(=O)c1ccc(-c2c3nc(c(-c4c(F)c(F)c(F)c(F)c4F)c4ccc([nH]4)c(-c4c(F)c(F)c(F)c(F)c4F)c4nc(c(-c5c(F)c(F)c(F)c(F)c5F)c5ccc2[nH]5)C=C4)C=C3)cc1
REMARK SMILES IDX 26 1 25 2 24 3 2 4 1 5 3 6 4 7 5 8 13 9 22 10 6 11 12 12
REMARK SMILES IDX 14 13 21 14 23 15 7 16 11 17 15 18 20 19 8 20 9 21 16 22
REMARK SMILES IDX 19 23 10 25 17 26 18 27 27 28 28 29 29 30 30 31 31 32 92 33
REMARK SMILES IDX 32 34 91 35 33 36 34 37 35 38 85 39 36 40 90 41 84 42 86 43
REMARK SMILES IDX 37 44 89 45 83 46 82 47 38 49 70 50 50 51 69 52 51 53 54 54
REMARK SMILES IDX 68 55 87 56 52 57 53 58 67 60 88 61 55 62 39 63 40 64 48 65
REMARK SMILES IDX 41 66 42 67 46 68 49 69 43 70 44 71 47 72 45 73 71 74 72 75
REMARK SMILES IDX 80 76 73 77 74 78 78 79 81 80 75 81 76 82 79 83 77 84 56 85
REMARK SMILES IDX 57 86 65 87 58 88 59 89 63 90 66 91 60 92 61 93 64 94 62 95
REMARK H PARENT 8 24 86 48 54 59
REMARK Flexibility Score: inf
ROOT
ATOM      1  C   UNL A   1      37.116  21.146  25.107  1.00  0.00     0.275 C 
ENDROOT
BRANCH   1   2
ATOM      2  C   UNL A   1      35.735  21.282  25.769  1.00  0.00     0.274 C 
BRANCH   2   3
ATOM      3  O   UNL A   1      35.567  22.538  26.467  1.00  0.00    -0.462 OA
BRANCH   3   4
ATOM      4  C   UNL A   1      34.385  22.985  26.956  1.00  0.00     0.307 C 
ATOM      5  O   UNL A   1      33.786  22.353  27.820  1.00  0.00    -0.252 OA
BRANCH   4   6
ATOM      6  C   UNL A   1      33.740  24.151  26.266  1.00  0.00     0.143 C 
BRANCH   6   7
ATOM      7  C   UNL A   1      32.535  24.023  25.297  1.00  0.00     0.100 C 
ATOM      8  C   UNL A   1      32.606  22.708  24.486  1.00  0.00     0.097 C 
ATOM      9  C   UNL A   1      32.611  25.360  24.451  1.00  0.00     0.085 C 
ATOM     10  C   UNL A   1      31.155  24.010  25.952  1.00  0.00     0.319 C 
ATOM     11  S   UNL A   1      33.772  22.795  23.110  1.00  0.00    -0.106 SA
ATOM     12  C   UNL A   1      32.469  25.180  22.968  1.00  0.00     0.049 A 
ATOM     13  C   UNL A   1      32.098  26.552  25.282  1.00  0.00     0.006 A 
ATOM     14  O   UNL A   1      30.867  25.059  26.788  1.00  0.00    -0.426 OA
ATOM     15  O   UNL A   1      30.314  23.136  25.778  1.00  0.00    -0.251 OA
ATOM     16  C   UNL A   1      33.034  24.127  22.345  1.00  0.00     0.090 A 
ATOM     17  S   UNL A   1      32.001  26.375  21.790  1.00  0.00    -0.077 S 
ATOM     18  C   UNL A   1      32.659  27.835  25.148  1.00  0.00     0.028 A 
ATOM     19  C   UNL A   1      31.391  26.312  26.469  1.00  0.00     0.134 A 
ATOM     20  N   UNL A   1      33.088  24.207  20.996  1.00  0.00    -0.307 N 
ATOM     21  C   UNL A   1      32.595  25.357  20.447  1.00  0.00     0.305 A 
ATOM     22  C   UNL A   1      32.597  28.761  26.207  1.00  0.00     0.041 A 
ATOM     23  C   UNL A   1      31.264  27.253  27.499  1.00  0.00     0.049 A 
ATOM     24  H   UNL A   1      33.460  23.481  20.444  1.00  0.00     0.171 HD
ATOM     25  O   UNL A   1      32.560  25.652  19.266  1.00  0.00    -0.257 OA
ATOM     26  Cl  UNL A   1      33.512  30.217  26.121  1.00  0.00    -0.084 Cl
ATOM     27  C   UNL A   1      31.907  28.474  27.383  1.00  0.00     0.024 A 
ENDBRANCH   6   7
ENDBRANCH   4   6
ENDBRANCH   3   4
ENDBRANCH   2   3
ENDBRANCH   1   2
BRANCH   1  28
ATOM     28  O   UNL A   1      37.987  22.209  25.532  1.00  0.00    -0.458 OA
BRANCH  28  29
ATOM     29  C   UNL A   1      39.132  21.835  26.164  1.00  0.00     0.338 C 
ATOM     30  O   UNL A   1      39.654  20.746  26.153  1.00  0.00    -0.246 OA
BRANCH  29  31
ATOM     31  C   UNL A   1      39.785  23.079  26.632  1.00  0.00     0.060 A 
ATOM     32  C   UNL A   1      40.975  23.063  27.359  1.00  0.00     0.016 A 
ATOM     33  C   UNL A   1      39.094  24.276  26.448  1.00  0.00     0.016 A 
ATOM     34  C   UNL A   1      41.401  24.218  28.018  1.00  0.00     0.010 A 
ATOM     35  C   UNL A   1      39.546  25.436  27.073  1.00  0.00     0.010 A 
ATOM     36  C   UNL A   1      40.657  25.405  27.927  1.00  0.00    -0.014 A 
BRANCH  36  37
ATOM     37  C   UNL A   1      41.128  26.613  28.645  1.00  0.00     0.031 A 
ATOM     38  C   UNL A   1      42.405  27.222  28.153  1.00  0.00     0.074 A 
ATOM     39  C   UNL A   1      40.389  27.282  29.565  1.00  0.00     0.049 A 
ATOM     40  N   UNL A   1      43.402  27.680  28.847  1.00  0.00    -0.248 NA
ATOM     41  C   UNL A   1      42.610  27.300  26.695  1.00  0.00     0.031 C 
ATOM     42  C   UNL A   1      39.027  26.951  29.994  1.00  0.00     0.029 A 
ATOM     43  N   UNL A   1      40.626  28.480  30.203  1.00  0.00    -0.354 N 
ATOM     44  C   UNL A   1      44.280  28.248  27.924  1.00  0.00     0.074 A 
ATOM     45  C   UNL A   1      43.804  27.890  26.615  1.00  0.00     0.031 C 
ATOM     46  C   UNL A   1      38.466  28.035  30.566  1.00  0.00     0.029 A 
ATOM     47  C   UNL A   1      39.465  29.085  30.673  1.00  0.00     0.049 A 
ATOM     48  H   UNL A   1      41.524  28.868  30.312  1.00  0.00     0.167 HD
ATOM     49  C   UNL A   1      45.201  29.185  28.276  1.00  0.00     0.037 A 
ATOM     50  C   UNL A   1      39.282  30.370  31.065  1.00  0.00     0.037 A 
ATOM     51  C   UNL A   1      45.454  29.242  29.683  1.00  0.00     0.049 A 
ATOM     52  C   UNL A   1      40.580  30.958  31.463  1.00  0.00     0.074 A 
ATOM     53  C   UNL A   1      46.332  28.697  30.589  1.00  0.00     0.029 A 
ATOM     54  N   UNL A   1      44.503  29.912  30.393  1.00  0.00    -0.354 N 
ATOM     55  N   UNL A   1      41.246  30.613  32.527  1.00  0.00    -0.248 NA
ATOM     56  C   UNL A   1      41.284  31.848  30.542  1.00  0.00     0.031 C 
ATOM     57  C   UNL A   1      45.835  29.020  31.888  1.00  0.00     0.029 A 
ATOM     58  C   UNL A   1      44.662  29.748  31.740  1.00  0.00     0.049 A 
ATOM     59  H   UNL A   1      43.788  30.449  29.983  1.00  0.00     0.167 HD
ATOM     60  C   UNL A   1      42.555  30.899  32.210  1.00  0.00     0.074 A 
ATOM     61  C   UNL A   1      42.503  31.818  31.085  1.00  0.00     0.031 C 
ATOM     62  C   UNL A   1      43.563  30.075  32.610  1.00  0.00     0.037 A 
BRANCH  49  63
ATOM     63  C   UNL A   1      45.536  30.384  27.417  1.00  0.00     0.064 A 
ATOM     64  C   UNL A   1      46.883  30.713  27.163  1.00  0.00     0.173 A 
ATOM     65  C   UNL A   1      44.594  31.398  27.141  1.00  0.00     0.173 A 
ATOM     66  F   UNL A   1      47.862  29.837  27.433  1.00  0.00    -0.203 F 
ATOM     67  C   UNL A   1      47.256  31.981  26.703  1.00  0.00     0.198 A 
ATOM     68  C   UNL A   1      44.964  32.642  26.633  1.00  0.00     0.198 A 
ATOM     69  F   UNL A   1      43.301  31.260  27.464  1.00  0.00    -0.203 F 
ATOM     70  F   UNL A   1      48.554  32.290  26.576  1.00  0.00    -0.200 F 
ATOM     71  C   UNL A   1      46.297  32.942  26.439  1.00  0.00     0.200 A 
ATOM     72  F   UNL A   1      44.024  33.571  26.412  1.00  0.00    -0.200 F 
ATOM     73  F   UNL A   1      46.655  34.172  26.045  1.00  0.00    -0.200 F 
ENDBRANCH  49  63
BRANCH  50  74
ATOM     74  C   UNL A   1      38.053  31.203  30.980  1.00  0.00     0.064 A 
ATOM     75  C   UNL A   1      37.496  31.546  29.735  1.00  0.00     0.173 A 
ATOM     76  C   UNL A   1      37.252  31.462  32.110  1.00  0.00     0.173 A 
ATOM     77  F   UNL A   1      38.167  31.299  28.600  1.00  0.00    -0.203 F 
ATOM     78  C   UNL A   1      36.209  32.083  29.625  1.00  0.00     0.198 A 
ATOM     79  C   UNL A   1      35.975  32.017  32.000  1.00  0.00     0.198 A 
ATOM     80  F   UNL A   1      37.648  31.094  33.336  1.00  0.00    -0.203 F 
ATOM     81  F   UNL A   1      35.687  32.323  28.414  1.00  0.00    -0.200 F 
ATOM     82  C   UNL A   1      35.447  32.311  30.758  1.00  0.00     0.200 A 
ATOM     83  F   UNL A   1      35.238  32.206  33.104  1.00  0.00    -0.200 F 
ATOM     84  F   UNL A   1      34.193  32.771  30.651  1.00  0.00    -0.200 F 
ENDBRANCH  50  74
BRANCH  62  85
ATOM     85  C   UNL A   1      43.377  29.289  33.861  1.00  0.00     0.064 A 
ATOM     86  C   UNL A   1      43.711  29.763  35.136  1.00  0.00     0.173 A 
ATOM     87  C   UNL A   1      42.763  28.032  33.769  1.00  0.00     0.173 A 
ATOM     88  F   UNL A   1      44.206  30.997  35.304  1.00  0.00    -0.203 F 
ATOM     89  C   UNL A   1      43.481  28.987  36.270  1.00  0.00     0.198 A 
ATOM     90  C   UNL A   1      42.499  27.276  34.906  1.00  0.00     0.198 A 
ATOM     91  F   UNL A   1      42.383  27.554  32.573  1.00  0.00    -0.203 F 
ATOM     92  F   UNL A   1      43.815  29.456  37.480  1.00  0.00    -0.200 F 
ATOM     93  C   UNL A   1      42.870  27.748  36.154  1.00  0.00     0.200 A 
ATOM     94  F   UNL A   1      41.866  26.100  34.794  1.00  0.00    -0.200 F 
ATOM     95  F   UNL A   1      42.614  27.021  37.250  1.00  0.00    -0.200 F 
ENDBRANCH  62  85
ENDBRANCH  36  37
ENDBRANCH  29  31
ENDBRANCH  28  29
ENDBRANCH   1  28
TORSDOF 12
ENDMDL
