MODEL 1
REMARK VINA RESULT:     -11.5      0.000      0.000
REMARK SMILES CCc1ccsc1Cn1cccc1C(=O)OCCOC(=O)c1ccc(-c2c3nc(c(-c4c(F)c(F)c(F)c(F)c4F)c4ccc([nH]4)c(-c4c(F)c(F)c(F)c(F)c4F)c4nc(c(-c5c(F)c(F)c(F)c(F)c5F)c5ccc2[nH]5)C=C4)C=C3)cc1
REMARK SMILES IDX 17 1 16 2 14 3 15 4 13 5 9 6 10 7 11 8 12 9 8 10 7 11 3 12
REMARK SMILES IDX 4 13 5 14 6 15 2 16 1 17 18 18 19 19 20 20 21 21 22 22 23 23
REMARK SMILES IDX 84 24 24 25 83 26 25 27 26 28 27 29 77 30 28 31 82 32 76 33
REMARK SMILES IDX 78 34 29 35 81 36 75 37 74 38 30 40 62 41 42 42 61 43 43 44
REMARK SMILES IDX 46 45 60 46 79 47 44 48 45 49 59 51 80 52 47 53 31 54 32 55
REMARK SMILES IDX 40 56 33 57 34 58 38 59 41 60 35 61 36 62 39 63 37 64 63 65
REMARK SMILES IDX 64 66 72 67 65 68 66 69 70 70 73 71 67 72 68 73 71 74 69 75
REMARK SMILES IDX 48 76 49 77 57 78 50 79 51 80 55 81 58 82 52 83 53 84 56 85
REMARK SMILES IDX 54 86
REMARK H PARENT 78 39 46 50
REMARK Flexibility Score: inf
ROOT
ATOM      1  C   UNL A   1      33.107  28.238  27.143  1.00  0.00     0.275 C 
ENDROOT
BRANCH   1   2
ATOM      2  O   UNL A   1      33.608  27.148  26.349  1.00  0.00    -0.457 OA
BRANCH   2   3
ATOM      3  C   UNL A   1      32.676  26.228  25.979  1.00  0.00     0.355 C 
ATOM      4  O   UNL A   1      31.697  25.940  26.668  1.00  0.00    -0.244 OA
BRANCH   3   5
ATOM      5  C   UNL A   1      32.898  25.704  24.643  1.00  0.00     0.127 A 
ATOM      6  N   UNL A   1      33.892  24.872  24.138  1.00  0.00    -0.337 N 
ATOM      7  C   UNL A   1      33.599  24.591  22.813  1.00  0.00     0.087 A 
ATOM      8  C   UNL A   1      32.514  25.332  22.424  1.00  0.00     0.020 A 
ATOM      9  C   UNL A   1      32.070  26.017  23.565  1.00  0.00     0.035 A 
BRANCH   6  10
ATOM     10  C   UNL A   1      34.954  24.169  24.869  1.00  0.00     0.169 C 
BRANCH  10  11
ATOM     11  C   UNL A   1      34.774  22.667  24.942  1.00  0.00     0.027 A 
ATOM     12  C   UNL A   1      35.689  21.635  24.739  1.00  0.00    -0.033 A 
ATOM     13  C   UNL A   1      35.072  20.348  24.932  1.00  0.00     0.016 A 
ATOM     14  C   UNL A   1      33.754  20.431  25.304  1.00  0.00     0.065 A 
ATOM     15  S   UNL A   1      33.253  22.044  25.474  1.00  0.00    -0.147 S 
BRANCH  12  16
ATOM     16  C   UNL A   1      37.131  21.761  24.336  1.00  0.00     0.033 C 
ATOM     17  C   UNL A   1      38.105  21.769  25.504  1.00  0.00     0.009 C 
ENDBRANCH  12  16
ENDBRANCH  10  11
ENDBRANCH   6  10
ENDBRANCH   3   5
ENDBRANCH   2   3
ENDBRANCH   1   2
BRANCH   1  18
ATOM     18  C   UNL A   1      34.102  29.396  27.251  1.00  0.00     0.275 C 
BRANCH  18  19
ATOM     19  O   UNL A   1      35.431  29.010  27.626  1.00  0.00    -0.458 OA
BRANCH  19  20
ATOM     20  C   UNL A   1      36.234  30.064  27.892  1.00  0.00     0.338 C 
ATOM     21  O   UNL A   1      35.998  31.242  27.679  1.00  0.00    -0.246 OA
BRANCH  20  22
ATOM     22  C   UNL A   1      37.590  29.644  28.236  1.00  0.00     0.060 A 
ATOM     23  C   UNL A   1      38.554  29.715  27.225  1.00  0.00     0.016 A 
ATOM     24  C   UNL A   1      37.796  28.897  29.402  1.00  0.00     0.016 A 
ATOM     25  C   UNL A   1      39.707  28.961  27.346  1.00  0.00     0.010 A 
ATOM     26  C   UNL A   1      38.935  28.115  29.509  1.00  0.00     0.010 A 
ATOM     27  C   UNL A   1      39.878  28.144  28.473  1.00  0.00    -0.014 A 
BRANCH  27  28
ATOM     28  C   UNL A   1      41.214  27.555  28.674  1.00  0.00     0.031 A 
ATOM     29  C   UNL A   1      41.149  26.056  28.221  1.00  0.00     0.074 A 
ATOM     30  C   UNL A   1      42.168  28.372  29.238  1.00  0.00     0.049 A 
ATOM     31  N   UNL A   1      41.787  25.011  28.654  1.00  0.00    -0.248 NA
ATOM     32  C   UNL A   1      40.155  25.648  27.176  1.00  0.00     0.031 C 
ATOM     33  C   UNL A   1      42.005  29.822  29.528  1.00  0.00     0.029 A 
ATOM     34  N   UNL A   1      43.460  28.176  29.691  1.00  0.00    -0.354 N 
ATOM     35  C   UNL A   1      41.452  23.916  27.813  1.00  0.00     0.074 A 
ATOM     36  C   UNL A   1      40.343  24.337  27.022  1.00  0.00     0.031 C 
ATOM     37  C   UNL A   1      43.084  30.326  30.177  1.00  0.00     0.029 A 
ATOM     38  C   UNL A   1      44.067  29.278  30.378  1.00  0.00     0.049 A 
ATOM     39  H   UNL A   1      43.937  27.327  29.549  1.00  0.00     0.167 HD
ATOM     40  C   UNL A   1      42.239  22.804  27.699  1.00  0.00     0.037 A 
ATOM     41  C   UNL A   1      45.239  29.300  31.104  1.00  0.00     0.037 A 
ATOM     42  C   UNL A   1      43.315  22.908  28.620  1.00  0.00     0.049 A 
ATOM     43  C   UNL A   1      45.795  27.962  30.884  1.00  0.00     0.074 A 
ATOM     44  C   UNL A   1      43.385  22.785  29.979  1.00  0.00     0.029 A 
ATOM     45  N   UNL A   1      44.428  23.561  28.158  1.00  0.00    -0.354 N 
ATOM     46  N   UNL A   1      46.324  27.552  29.771  1.00  0.00    -0.248 NA
ATOM     47  C   UNL A   1      45.597  26.961  31.937  1.00  0.00     0.031 C 
ATOM     48  C   UNL A   1      44.270  23.824  30.334  1.00  0.00     0.029 A 
ATOM     49  C   UNL A   1      44.905  24.323  29.190  1.00  0.00     0.049 A 
ATOM     50  H   UNL A   1      44.813  23.495  27.254  1.00  0.00     0.167 HD
ATOM     51  C   UNL A   1      46.204  26.189  29.888  1.00  0.00     0.074 A 
ATOM     52  C   UNL A   1      46.064  25.896  31.297  1.00  0.00     0.031 C 
ATOM     53  C   UNL A   1      45.717  25.462  28.854  1.00  0.00     0.037 A 
BRANCH  40  54
ATOM     54  C   UNL A   1      42.387  21.743  26.635  1.00  0.00     0.064 A 
ATOM     55  C   UNL A   1      42.002  20.419  26.985  1.00  0.00     0.173 A 
ATOM     56  C   UNL A   1      43.266  21.860  25.552  1.00  0.00     0.173 A 
ATOM     57  F   UNL A   1      41.103  20.199  27.958  1.00  0.00    -0.203 F 
ATOM     58  C   UNL A   1      42.629  19.301  26.443  1.00  0.00     0.198 A 
ATOM     59  C   UNL A   1      43.842  20.729  24.963  1.00  0.00     0.198 A 
ATOM     60  F   UNL A   1      43.677  23.054  25.113  1.00  0.00    -0.203 F 
ATOM     61  F   UNL A   1      42.386  18.085  26.954  1.00  0.00    -0.200 F 
ATOM     62  C   UNL A   1      43.570  19.458  25.447  1.00  0.00     0.200 A 
ATOM     63  F   UNL A   1      44.741  20.881  23.981  1.00  0.00    -0.200 F 
ATOM     64  F   UNL A   1      44.243  18.397  24.983  1.00  0.00    -0.200 F 
ENDBRANCH  40  54
BRANCH  41  65
ATOM     65  C   UNL A   1      45.999  30.168  32.106  1.00  0.00     0.064 A 
ATOM     66  C   UNL A   1      45.522  30.649  33.331  1.00  0.00     0.173 A 
ATOM     67  C   UNL A   1      47.374  30.494  31.869  1.00  0.00     0.173 A 
ATOM     68  F   UNL A   1      44.219  30.568  33.632  1.00  0.00    -0.203 F 
ATOM     69  C   UNL A   1      46.377  31.257  34.282  1.00  0.00     0.198 A 
ATOM     70  C   UNL A   1      48.234  31.022  32.833  1.00  0.00     0.198 A 
ATOM     71  F   UNL A   1      47.946  30.315  30.672  1.00  0.00    -0.203 F 
ATOM     72  F   UNL A   1      45.875  31.708  35.441  1.00  0.00    -0.200 F 
ATOM     73  C   UNL A   1      47.739  31.388  34.056  1.00  0.00     0.200 A 
ATOM     74  F   UNL A   1      49.542  31.152  32.559  1.00  0.00    -0.200 F 
ATOM     75  F   UNL A   1      48.560  31.880  34.995  1.00  0.00    -0.200 F 
ENDBRANCH  41  65
BRANCH  53  76
ATOM     76  C   UNL A   1      45.808  26.132  27.492  1.00  0.00     0.064 A 
ATOM     77  C   UNL A   1      47.063  26.415  26.937  1.00  0.00     0.173 A 
ATOM     78  C   UNL A   1      44.701  26.580  26.749  1.00  0.00     0.173 A 
ATOM     79  F   UNL A   1      48.174  26.002  27.563  1.00  0.00    -0.203 F 
ATOM     80  C   UNL A   1      47.196  27.105  25.726  1.00  0.00     0.198 A 
ATOM     81  C   UNL A   1      44.826  27.277  25.543  1.00  0.00     0.198 A 
ATOM     82  F   UNL A   1      43.464  26.336  27.167  1.00  0.00    -0.203 F 
ATOM     83  F   UNL A   1      48.416  27.336  25.223  1.00  0.00    -0.200 F 
ATOM     84  C   UNL A   1      46.079  27.540  25.031  1.00  0.00     0.200 A 
ATOM     85  F   UNL A   1      43.730  27.674  24.877  1.00  0.00    -0.200 F 
ATOM     86  F   UNL A   1      46.209  28.186  23.864  1.00  0.00    -0.200 F 
ENDBRANCH  53  76
ENDBRANCH  27  28
ENDBRANCH  20  22
ENDBRANCH  19  20
ENDBRANCH  18  19
ENDBRANCH   1  18
TORSDOF 14
ENDMDL
MODEL 2
REMARK VINA RESULT:     -11.5      1.397      2.201
REMARK SMILES CCc1ccsc1Cn1cccc1C(=O)OCCOC(=O)c1ccc(-c2c3nc(c(-c4c(F)c(F)c(F)c(F)c4F)c4ccc([nH]4)c(-c4c(F)c(F)c(F)c(F)c4F)c4nc(c(-c5c(F)c(F)c(F)c(F)c5F)c5ccc2[nH]5)C=C4)C=C3)cc1
REMARK SMILES IDX 17 1 16 2 14 3 15 4 13 5 9 6 10 7 11 8 12 9 8 10 7 11 3 12
REMARK SMILES IDX 4 13 5 14 6 15 2 16 1 17 18 18 19 19 20 20 21 21 22 22 23 23
REMARK SMILES IDX 84 24 24 25 83 26 25 27 26 28 27 29 77 30 28 31 82 32 76 33
REMARK SMILES IDX 78 34 29 35 81 36 75 37 74 38 30 40 62 41 42 42 61 43 43 44
REMARK SMILES IDX 46 45 60 46 79 47 44 48 45 49 59 51 80 52 47 53 31 54 32 55
REMARK SMILES IDX 40 56 33 57 34 58 38 59 41 60 35 61 36 62 39 63 37 64 63 65
REMARK SMILES IDX 64 66 72 67 65 68 66 69 70 70 73 71 67 72 68 73 71 74 69 75
REMARK SMILES IDX 48 76 49 77 57 78 50 79 51 80 55 81 58 82 52 83 53 84 56 85
REMARK SMILES IDX 54 86
REMARK H PARENT 78 39 46 50
REMARK Flexibility Score: inf
ROOT
ATOM      1  C   UNL A   1      33.336  28.519  26.143  1.00  0.00     0.275 C 
ENDROOT
BRANCH   1   2
ATOM      2  O   UNL A   1      33.174  27.097  26.295  1.00  0.00    -0.457 OA
BRANCH   2   3
ATOM      3  C   UNL A   1      31.925  26.693  26.649  1.00  0.00     0.355 C 
ATOM      4  O   UNL A   1      31.141  27.396  27.288  1.00  0.00    -0.244 OA
BRANCH   3   5
ATOM      5  C   UNL A   1      31.573  25.395  26.103  1.00  0.00     0.127 A 
ATOM      6  N   UNL A   1      30.913  25.040  24.931  1.00  0.00    -0.337 N 
ATOM      7  C   UNL A   1      30.910  23.659  24.827  1.00  0.00     0.087 A 
ATOM      8  C   UNL A   1      31.434  23.120  25.973  1.00  0.00     0.020 A 
ATOM      9  C   UNL A   1      31.857  24.199  26.763  1.00  0.00     0.035 A 
BRANCH   6  10
ATOM     10  C   UNL A   1      30.489  25.908  23.824  1.00  0.00     0.169 C 
BRANCH  10  11
ATOM     11  C   UNL A   1      31.580  26.808  23.281  1.00  0.00     0.027 A 
ATOM     12  C   UNL A   1      32.834  26.497  22.759  1.00  0.00    -0.033 A 
ATOM     13  C   UNL A   1      33.535  27.685  22.346  1.00  0.00     0.016 A 
ATOM     14  C   UNL A   1      32.804  28.833  22.524  1.00  0.00     0.065 A 
ATOM     15  S   UNL A   1      31.257  28.499  23.139  1.00  0.00    -0.147 S 
BRANCH  12  16
ATOM     16  C   UNL A   1      33.460  25.136  22.638  1.00  0.00     0.033 C 
ATOM     17  C   UNL A   1      34.373  24.766  23.797  1.00  0.00     0.009 C 
ENDBRANCH  12  16
ENDBRANCH  10  11
ENDBRANCH   6  10
ENDBRANCH   3   5
ENDBRANCH   2   3
ENDBRANCH   1   2
BRANCH   1  18
ATOM     18  C   UNL A   1      34.116  29.151  27.299  1.00  0.00     0.275 C 
BRANCH  18  19
ATOM     19  O   UNL A   1      35.534  28.944  27.248  1.00  0.00    -0.458 OA
BRANCH  19  20
ATOM     20  C   UNL A   1      36.238  29.954  27.805  1.00  0.00     0.338 C 
ATOM     21  O   UNL A   1      35.930  31.135  27.839  1.00  0.00    -0.246 OA
BRANCH  20  22
ATOM     22  C   UNL A   1      37.596  29.546  28.155  1.00  0.00     0.060 A 
ATOM     23  C   UNL A   1      38.568  29.643  27.153  1.00  0.00     0.016 A 
ATOM     24  C   UNL A   1      37.801  28.785  29.312  1.00  0.00     0.016 A 
ATOM     25  C   UNL A   1      39.728  28.902  27.274  1.00  0.00     0.010 A 
ATOM     26  C   UNL A   1      38.948  28.016  29.418  1.00  0.00     0.010 A 
ATOM     27  C   UNL A   1      39.900  28.071  28.391  1.00  0.00    -0.014 A 
BRANCH  27  28
ATOM     28  C   UNL A   1      41.242  27.495  28.595  1.00  0.00     0.031 A 
ATOM     29  C   UNL A   1      41.190  25.992  28.153  1.00  0.00     0.074 A 
ATOM     30  C   UNL A   1      42.188  28.325  29.152  1.00  0.00     0.049 A 
ATOM     31  N   UNL A   1      41.837  24.956  28.593  1.00  0.00    -0.248 NA
ATOM     32  C   UNL A   1      40.199  25.568  27.111  1.00  0.00     0.031 C 
ATOM     33  C   UNL A   1      42.012  29.775  29.432  1.00  0.00     0.029 A 
ATOM     34  N   UNL A   1      43.482  28.144  29.606  1.00  0.00    -0.354 N 
ATOM     35  C   UNL A   1      41.512  23.853  27.760  1.00  0.00     0.074 A 
ATOM     36  C   UNL A   1      40.398  24.258  26.967  1.00  0.00     0.031 C 
ATOM     37  C   UNL A   1      43.087  30.294  30.077  1.00  0.00     0.029 A 
ATOM     38  C   UNL A   1      44.079  29.257  30.285  1.00  0.00     0.049 A 
ATOM     39  H   UNL A   1      43.967  27.298  29.470  1.00  0.00     0.167 HD
ATOM     40  C   UNL A   1      42.309  22.747  27.654  1.00  0.00     0.037 A 
ATOM     41  C   UNL A   1      45.251  29.294  31.010  1.00  0.00     0.037 A 
ATOM     42  C   UNL A   1      43.385  22.867  28.573  1.00  0.00     0.049 A 
ATOM     43  C   UNL A   1      45.820  27.960  30.800  1.00  0.00     0.074 A 
ATOM     44  C   UNL A   1      43.456  22.754  29.933  1.00  0.00     0.029 A 
ATOM     45  N   UNL A   1      44.491  23.527  28.107  1.00  0.00    -0.354 N 
ATOM     46  N   UNL A   1      46.351  27.546  29.690  1.00  0.00    -0.248 NA
ATOM     47  C   UNL A   1      45.631  26.964  31.860  1.00  0.00     0.031 C 
ATOM     48  C   UNL A   1      44.331  23.804  30.281  1.00  0.00     0.029 A 
ATOM     49  C   UNL A   1      44.962  24.300  29.133  1.00  0.00     0.049 A 
ATOM     50  H   UNL A   1      44.876  23.458  27.203  1.00  0.00     0.167 HD
ATOM     51  C   UNL A   1      46.244  26.183  29.816  1.00  0.00     0.074 A 
ATOM     52  C   UNL A   1      46.107  25.899  31.228  1.00  0.00     0.031 C 
ATOM     53  C   UNL A   1      45.763  25.444  28.788  1.00  0.00     0.037 A 
BRANCH  40  54
ATOM     54  C   UNL A   1      42.466  21.679  26.597  1.00  0.00     0.064 A 
ATOM     55  C   UNL A   1      42.087  20.356  26.955  1.00  0.00     0.173 A 
ATOM     56  C   UNL A   1      43.347  21.794  25.516  1.00  0.00     0.173 A 
ATOM     57  F   UNL A   1      41.186  20.137  27.927  1.00  0.00    -0.203 F 
ATOM     58  C   UNL A   1      42.722  19.237  26.423  1.00  0.00     0.198 A 
ATOM     59  C   UNL A   1      43.931  20.662  24.936  1.00  0.00     0.198 A 
ATOM     60  F   UNL A   1      43.753  22.988  25.071  1.00  0.00    -0.203 F 
ATOM     61  F   UNL A   1      42.484  18.024  26.941  1.00  0.00    -0.200 F 
ATOM     62  C   UNL A   1      43.664  19.393  25.428  1.00  0.00     0.200 A 
ATOM     63  F   UNL A   1      44.832  20.813  23.956  1.00  0.00    -0.200 F 
ATOM     64  F   UNL A   1      44.345  18.333  24.973  1.00  0.00    -0.200 F 
ENDBRANCH  40  54
BRANCH  41  65
ATOM     65  C   UNL A   1      46.004  30.176  32.006  1.00  0.00     0.064 A 
ATOM     66  C   UNL A   1      45.776  30.269  33.383  1.00  0.00     0.173 A 
ATOM     67  C   UNL A   1      47.124  30.954  31.565  1.00  0.00     0.173 A 
ATOM     68  F   UNL A   1      44.676  29.732  33.928  1.00  0.00    -0.203 F 
ATOM     69  C   UNL A   1      46.671  30.947  34.247  1.00  0.00     0.198 A 
ATOM     70  C   UNL A   1      48.047  31.557  32.421  1.00  0.00     0.198 A 
ATOM     71  F   UNL A   1      47.368  31.168  30.267  1.00  0.00    -0.203 F 
ATOM     72  F   UNL A   1      46.409  31.015  35.562  1.00  0.00    -0.200 F 
ATOM     73  C   UNL A   1      47.832  31.536  33.773  1.00  0.00     0.200 A 
ATOM     74  F   UNL A   1      49.147  32.137  31.913  1.00  0.00    -0.200 F 
ATOM     75  F   UNL A   1      48.723  32.097  34.605  1.00  0.00    -0.200 F 
ENDBRANCH  41  65
BRANCH  53  76
ATOM     76  C   UNL A   1      45.847  26.105  27.421  1.00  0.00     0.064 A 
ATOM     77  C   UNL A   1      47.099  26.387  26.859  1.00  0.00     0.173 A 
ATOM     78  C   UNL A   1      44.737  26.547  26.680  1.00  0.00     0.173 A 
ATOM     79  F   UNL A   1      48.214  25.979  27.483  1.00  0.00    -0.203 F 
ATOM     80  C   UNL A   1      47.227  27.068  25.643  1.00  0.00     0.198 A 
ATOM     81  C   UNL A   1      44.856  27.236  25.468  1.00  0.00     0.198 A 
ATOM     82  F   UNL A   1      43.501  26.304  27.105  1.00  0.00    -0.203 F 
ATOM     83  F   UNL A   1      48.444  27.298  25.133  1.00  0.00    -0.200 F 
ATOM     84  C   UNL A   1      46.106  27.497  24.950  1.00  0.00     0.200 A 
ATOM     85  F   UNL A   1      43.756  27.626  24.804  1.00  0.00    -0.200 F 
ATOM     86  F   UNL A   1      46.231  28.135  23.777  1.00  0.00    -0.200 F 
ENDBRANCH  53  76
ENDBRANCH  27  28
ENDBRANCH  20  22
ENDBRANCH  19  20
ENDBRANCH  18  19
ENDBRANCH   1  18
TORSDOF 14
ENDMDL
MODEL 3
REMARK VINA RESULT:     -11.5      3.068      5.587
REMARK SMILES CCc1ccsc1Cn1cccc1C(=O)OCCOC(=O)c1ccc(-c2c3nc(c(-c4c(F)c(F)c(F)c(F)c4F)c4ccc([nH]4)c(-c4c(F)c(F)c(F)c(F)c4F)c4nc(c(-c5c(F)c(F)c(F)c(F)c5F)c5ccc2[nH]5)C=C4)C=C3)cc1
REMARK SMILES IDX 17 1 16 2 14 3 15 4 13 5 9 6 10 7 11 8 12 9 8 10 7 11 3 12
REMARK SMILES IDX 4 13 5 14 6 15 2 16 1 17 18 18 19 19 20 20 21 21 22 22 23 23
REMARK SMILES IDX 84 24 24 25 83 26 25 27 26 28 27 29 77 30 28 31 82 32 76 33
REMARK SMILES IDX 78 34 29 35 81 36 75 37 74 38 30 40 62 41 42 42 61 43 43 44
REMARK SMILES IDX 46 45 60 46 79 47 44 48 45 49 59 51 80 52 47 53 31 54 32 55
REMARK SMILES IDX 40 56 33 57 34 58 38 59 41 60 35 61 36 62 39 63 37 64 63 65
REMARK SMILES IDX 64 66 72 67 65 68 66 69 70 70 73 71 67 72 68 73 71 74 69 75
REMARK SMILES IDX 48 76 49 77 57 78 50 79 51 80 55 81 58 82 52 83 53 84 56 85
REMARK SMILES IDX 54 86
REMARK H PARENT 78 39 46 50
REMARK Flexibility Score: inf
ROOT
ATOM      1  C   UNL A   1      34.282  33.128  28.140  1.00  0.00     0.275 C 
ENDROOT
BRANCH   1   2
ATOM      2  O   UNL A   1      33.688  33.364  29.430  1.00  0.00    -0.457 OA
BRANCH   2   3
ATOM      3  C   UNL A   1      34.083  34.510  30.045  1.00  0.00     0.355 C 
ATOM      4  O   UNL A   1      34.025  35.620  29.514  1.00  0.00    -0.244 OA
BRANCH   3   5
ATOM      5  C   UNL A   1      34.478  34.304  31.427  1.00  0.00     0.127 A 
ATOM      6  N   UNL A   1      35.019  33.195  32.071  1.00  0.00    -0.337 N 
ATOM      7  C   UNL A   1      35.304  33.542  33.381  1.00  0.00     0.087 A 
ATOM      8  C   UNL A   1      34.834  34.806  33.625  1.00  0.00     0.020 A 
ATOM      9  C   UNL A   1      34.329  35.285  32.407  1.00  0.00     0.035 A 
BRANCH   6  10
ATOM     10  C   UNL A   1      35.473  31.929  31.482  1.00  0.00     0.169 C 
BRANCH  10  11
ATOM     11  C   UNL A   1      36.977  31.745  31.476  1.00  0.00     0.027 A 
ATOM     12  C   UNL A   1      37.967  32.406  30.752  1.00  0.00    -0.033 A 
ATOM     13  C   UNL A   1      39.276  31.905  31.083  1.00  0.00     0.016 A 
ATOM     14  C   UNL A   1      39.253  30.933  32.051  1.00  0.00     0.065 A 
ATOM     15  S   UNL A   1      37.676  30.641  32.607  1.00  0.00    -0.147 S 
BRANCH  12  16
ATOM     16  C   UNL A   1      37.777  33.482  29.719  1.00  0.00     0.033 C 
ATOM     17  C   UNL A   1      38.820  34.588  29.774  1.00  0.00     0.009 C 
ENDBRANCH  12  16
ENDBRANCH  10  11
ENDBRANCH   6  10
ENDBRANCH   3   5
ENDBRANCH   2   3
ENDBRANCH   1   2
BRANCH   1  18
ATOM     18  C   UNL A   1      34.583  31.648  27.891  1.00  0.00     0.275 C 
BRANCH  18  19
ATOM     19  O   UNL A   1      35.974  31.303  27.945  1.00  0.00    -0.458 OA
BRANCH  19  20
ATOM     20  C   UNL A   1      36.207  29.996  27.692  1.00  0.00     0.338 C 
ATOM     21  O   UNL A   1      35.384  29.146  27.391  1.00  0.00    -0.246 OA
BRANCH  20  22
ATOM     22  C   UNL A   1      37.556  29.596  28.081  1.00  0.00     0.060 A 
ATOM     23  C   UNL A   1      38.553  29.682  27.104  1.00  0.00     0.016 A 
ATOM     24  C   UNL A   1      37.733  28.849  29.253  1.00  0.00     0.016 A 
ATOM     25  C   UNL A   1      39.711  28.945  27.263  1.00  0.00     0.010 A 
ATOM     26  C   UNL A   1      38.879  28.084  29.397  1.00  0.00     0.010 A 
ATOM     27  C   UNL A   1      39.856  28.128  28.394  1.00  0.00    -0.014 A 
BRANCH  27  28
ATOM     28  C   UNL A   1      41.193  27.558  28.639  1.00  0.00     0.031 A 
ATOM     29  C   UNL A   1      41.180  26.073  28.139  1.00  0.00     0.074 A 
ATOM     30  C   UNL A   1      42.103  28.375  29.272  1.00  0.00     0.049 A 
ATOM     31  N   UNL A   1      41.817  25.027  28.569  1.00  0.00    -0.248 NA
ATOM     32  C   UNL A   1      40.244  25.680  27.036  1.00  0.00     0.031 C 
ATOM     33  C   UNL A   1      41.898  29.811  29.598  1.00  0.00     0.029 A 
ATOM     34  N   UNL A   1      43.377  28.189  29.780  1.00  0.00    -0.354 N 
ATOM     35  C   UNL A   1      41.544  23.954  27.680  1.00  0.00     0.074 A 
ATOM     36  C   UNL A   1      40.465  24.378  26.851  1.00  0.00     0.031 C 
ATOM     37  C   UNL A   1      42.935  30.315  30.313  1.00  0.00     0.029 A 
ATOM     38  C   UNL A   1      43.928  29.281  30.528  1.00  0.00     0.049 A 
ATOM     39  H   UNL A   1      43.876  27.354  29.634  1.00  0.00     0.167 HD
ATOM     40  C   UNL A   1      42.358  22.861  27.570  1.00  0.00     0.037 A 
ATOM     41  C   UNL A   1      45.064  29.302  31.308  1.00  0.00     0.037 A 
ATOM     42  C   UNL A   1      43.388  22.955  28.542  1.00  0.00     0.049 A 
ATOM     43  C   UNL A   1      45.657  27.982  31.074  1.00  0.00     0.074 A 
ATOM     44  C   UNL A   1      43.397  22.791  29.899  1.00  0.00     0.029 A 
ATOM     45  N   UNL A   1      44.507  23.644  28.154  1.00  0.00    -0.354 N 
ATOM     46  N   UNL A   1      46.245  27.617  29.976  1.00  0.00    -0.248 NA
ATOM     47  C   UNL A   1      45.430  26.944  32.086  1.00  0.00     0.031 C 
ATOM     48  C   UNL A   1      44.243  23.835  30.327  1.00  0.00     0.029 A 
ATOM     49  C   UNL A   1      44.921  24.381  29.230  1.00  0.00     0.049 A 
ATOM     50  H   UNL A   1      44.935  23.613  27.267  1.00  0.00     0.167 HD
ATOM     51  C   UNL A   1      46.148  26.249  30.045  1.00  0.00     0.074 A 
ATOM     52  C   UNL A   1      45.948  25.908  31.436  1.00  0.00     0.031 C 
ATOM     53  C   UNL A   1      45.724  25.546  28.967  1.00  0.00     0.037 A 
BRANCH  40  54
ATOM     54  C   UNL A   1      42.577  21.836  26.481  1.00  0.00     0.064 A 
ATOM     55  C   UNL A   1      42.132  20.511  26.743  1.00  0.00     0.173 A 
ATOM     56  C   UNL A   1      43.552  21.970  25.487  1.00  0.00     0.173 A 
ATOM     57  F   UNL A   1      41.143  20.278  27.623  1.00  0.00    -0.203 F 
ATOM     58  C   UNL A   1      42.779  19.398  26.215  1.00  0.00     0.198 A 
ATOM     59  C   UNL A   1      44.153  20.847  24.907  1.00  0.00     0.198 A 
ATOM     60  F   UNL A   1      44.028  23.169  25.134  1.00  0.00    -0.203 F 
ATOM     61  F   UNL A   1      42.463  18.170  26.654  1.00  0.00    -0.200 F 
ATOM     62  C   UNL A   1      43.808  19.567  25.314  1.00  0.00     0.200 A 
ATOM     63  F   UNL A   1      45.140  21.012  24.016  1.00  0.00    -0.200 F 
ATOM     64  F   UNL A   1      44.496  18.507  24.870  1.00  0.00    -0.200 F 
ENDBRANCH  40  54
BRANCH  41  65
ATOM     65  C   UNL A   1      45.759  30.151  32.372  1.00  0.00     0.064 A 
ATOM     66  C   UNL A   1      47.065  30.650  32.325  1.00  0.00     0.173 A 
ATOM     67  C   UNL A   1      45.029  30.586  33.526  1.00  0.00     0.173 A 
ATOM     68  F   UNL A   1      47.927  30.213  31.399  1.00  0.00    -0.203 F 
ATOM     69  C   UNL A   1      47.536  31.608  33.257  1.00  0.00     0.198 A 
ATOM     70  C   UNL A   1      45.463  31.585  34.400  1.00  0.00     0.198 A 
ATOM     71  F   UNL A   1      43.850  30.048  33.861  1.00  0.00    -0.203 F 
ATOM     72  F   UNL A   1      48.799  32.054  33.177  1.00  0.00    -0.200 F 
ATOM     73  C   UNL A   1      46.717  32.116  34.253  1.00  0.00     0.200 A 
ATOM     74  F   UNL A   1      44.642  32.029  35.365  1.00  0.00    -0.200 F 
ATOM     75  F   UNL A   1      47.136  33.088  35.076  1.00  0.00    -0.200 F 
ENDBRANCH  41  65
BRANCH  53  76
ATOM     76  C   UNL A   1      45.865  26.260  27.632  1.00  0.00     0.064 A 
ATOM     77  C   UNL A   1      44.721  26.578  26.888  1.00  0.00     0.173 A 
ATOM     78  C   UNL A   1      47.092  26.570  27.021  1.00  0.00     0.173 A 
ATOM     79  F   UNL A   1      43.506  26.342  27.404  1.00  0.00    -0.203 F 
ATOM     80  C   UNL A   1      44.805  27.159  25.617  1.00  0.00     0.198 A 
ATOM     81  C   UNL A   1      47.185  27.143  25.748  1.00  0.00     0.198 A 
ATOM     82  F   UNL A   1      48.239  26.340  27.652  1.00  0.00    -0.203 F 
ATOM     83  F   UNL A   1      43.684  27.464  24.950  1.00  0.00    -0.200 F 
ATOM     84  C   UNL A   1      46.036  27.437  25.045  1.00  0.00     0.200 A 
ATOM     85  F   UNL A   1      48.387  27.421  25.220  1.00  0.00    -0.200 F 
ATOM     86  F   UNL A   1      46.113  28.009  23.835  1.00  0.00    -0.200 F 
ENDBRANCH  53  76
ENDBRANCH  27  28
ENDBRANCH  20  22
ENDBRANCH  19  20
ENDBRANCH  18  19
ENDBRANCH   1  18
TORSDOF 14
ENDMDL
