MODEL 1
REMARK VINA RESULT:     -11.8      0.000      0.000
REMARK SMILES CO[C@H]1C[C@H](C(=O)OCCOC(=O)c2ccc(-c3c4nc(c(-c5c(F)c(F)c(F)c(F)c5F)c5ccc([nH]5)c(-c5c(F)c(F)c(F)c(F)c5F)c5nc(c(-c6c(F)c(F)c(F)c(F)c6F)c6ccc3[nH]6)C=C5)C=C4)cc2)N(C(=O)[C@H]2C=C[C@@H]([NH3+])C2)C1
REMARK SMILES IDX 9 1 8 2 6 3 7 4 5 5 3 6 4 7 86 8 77 9 2 10 1 11 78 12 79 13
REMARK SMILES IDX 80 14 81 15 85 16 82 17 83 18 84 19 10 23 11 24 12 25 13 26
REMARK SMILES IDX 14 27 15 28 76 29 16 30 75 31 17 32 18 33 19 34 69 35 20 36
REMARK SMILES IDX 74 37 68 38 70 39 21 40 73 41 67 42 66 43 22 45 54 46 34 47
REMARK SMILES IDX 53 48 35 49 38 50 52 51 71 52 36 53 37 54 51 56 72 57 39 58
REMARK SMILES IDX 23 59 24 60 32 61 25 62 26 63 30 64 33 65 27 66 28 67 31 68
REMARK SMILES IDX 29 69 55 70 56 71 64 72 57 73 58 74 62 75 65 76 59 77 60 78
REMARK SMILES IDX 63 79 61 80 40 81 41 82 49 83 42 84 43 85 47 86 50 87 44 88
REMARK SMILES IDX 45 89 48 90 46 91
REMARK H PARENT 84 20 84 21 84 22 70 44 38 55
REMARK Flexibility Score: inf
ROOT
ATOM      1  C   UNL A   1      36.027  20.245  24.957  1.00  0.00     0.274 C 
ENDROOT
BRANCH   1   2
ATOM      2  O   UNL A   1      35.641  21.599  24.648  1.00  0.00    -0.461 OA
BRANCH   2   3
ATOM      3  C   UNL A   1      34.945  22.246  25.622  1.00  0.00     0.329 C 
ATOM      4  O   UNL A   1      35.319  23.295  26.132  1.00  0.00    -0.250 OA
BRANCH   3   5
ATOM      5  C   UNL A   1      33.638  21.529  26.020  1.00  0.00     0.197 C 
ATOM      6  C   UNL A   1      31.944  23.172  26.481  1.00  0.00     0.140 C 
ATOM      7  C   UNL A   1      32.903  22.207  27.181  1.00  0.00     0.071 C 
ATOM      8  C   UNL A   1      31.548  22.413  25.215  1.00  0.00     0.152 C 
ATOM      9  N   UNL A   1      32.601  21.423  24.982  1.00  0.00    -0.326 N 
BRANCH   6  10
ATOM     10  O   UNL A   1      30.845  23.646  27.252  1.00  0.00    -0.380 OA
ATOM     11  C   UNL A   1      29.665  22.859  27.250  1.00  0.00     0.195 C 
ENDBRANCH   6  10
BRANCH   9  12
ATOM     12  C   UNL A   1      32.408  20.507  23.972  1.00  0.00     0.230 C 
ATOM     13  O   UNL A   1      32.318  20.910  22.803  1.00  0.00    -0.274 OA
BRANCH  12  14
ATOM     14  C   UNL A   1      32.249  19.000  24.207  1.00  0.00     0.107 C 
ATOM     15  C   UNL A   1      32.757  18.098  23.134  1.00  0.00    -0.012 C 
ATOM     16  C   UNL A   1      32.904  18.444  25.475  1.00  0.00     0.087 C 
ATOM     17  C   UNL A   1      33.296  16.987  23.649  1.00  0.00     0.033 C 
ATOM     18  C   UNL A   1      33.220  16.978  25.138  1.00  0.00     0.205 C 
BRANCH  18  19
ATOM     19  N   UNL A   1      34.456  16.518  25.729  1.00  0.00    -0.352 N 
ATOM     20  H   UNL A   1      35.237  17.043  25.335  1.00  0.00     0.345 HD
ATOM     21  H   UNL A   1      34.579  15.525  25.532  1.00  0.00     0.345 HD
ATOM     22  H   UNL A   1      34.425  16.663  26.739  1.00  0.00     0.345 HD
ENDBRANCH  18  19
ENDBRANCH  12  14
ENDBRANCH   9  12
ENDBRANCH   3   5
ENDBRANCH   2   3
ENDBRANCH   1   2
BRANCH   1  23
ATOM     23  C   UNL A   1      37.551  20.082  25.000  1.00  0.00     0.275 C 
BRANCH  23  24
ATOM     24  O   UNL A   1      38.213  21.270  25.482  1.00  0.00    -0.458 OA
BRANCH  24  25
ATOM     25  C   UNL A   1      39.386  21.055  26.119  1.00  0.00     0.338 C 
ATOM     26  O   UNL A   1      40.016  20.005  26.156  1.00  0.00    -0.246 OA
BRANCH  25  27
ATOM     27  C   UNL A   1      39.939  22.310  26.661  1.00  0.00     0.060 A 
ATOM     28  C   UNL A   1      39.461  23.512  26.126  1.00  0.00     0.016 A 
ATOM     29  C   UNL A   1      40.951  22.325  27.626  1.00  0.00     0.016 A 
ATOM     30  C   UNL A   1      39.982  24.729  26.559  1.00  0.00     0.010 A 
ATOM     31  C   UNL A   1      41.489  23.549  28.046  1.00  0.00     0.010 A 
ATOM     32  C   UNL A   1      41.008  24.755  27.513  1.00  0.00    -0.014 A 
BRANCH  32  33
ATOM     33  C   UNL A   1      41.598  26.065  27.881  1.00  0.00     0.031 A 
ATOM     34  C   UNL A   1      42.961  26.429  27.374  1.00  0.00     0.074 A 
ATOM     35  C   UNL A   1      40.880  26.955  28.587  1.00  0.00     0.049 A 
ATOM     36  N   UNL A   1      43.614  27.557  27.486  1.00  0.00    -0.248 NA
ATOM     37  C   UNL A   1      43.683  25.382  26.635  1.00  0.00     0.031 C 
ATOM     38  C   UNL A   1      39.530  26.728  29.094  1.00  0.00     0.029 A 
ATOM     39  N   UNL A   1      41.169  28.244  28.963  1.00  0.00    -0.354 N 
ATOM     40  C   UNL A   1      44.824  27.358  26.837  1.00  0.00     0.074 A 
ATOM     41  C   UNL A   1      44.817  26.000  26.335  1.00  0.00     0.031 C 
ATOM     42  C   UNL A   1      39.086  27.855  29.675  1.00  0.00     0.029 A 
ATOM     43  C   UNL A   1      40.134  28.870  29.614  1.00  0.00     0.049 A 
ATOM     44  H   UNL A   1      42.035  28.676  28.783  1.00  0.00     0.167 HD
ATOM     45  C   UNL A   1      45.852  28.228  26.688  1.00  0.00     0.037 A 
ATOM     46  C   UNL A   1      40.044  30.123  30.100  1.00  0.00     0.037 A 
ATOM     47  C   UNL A   1      45.871  29.565  27.219  1.00  0.00     0.049 A 
ATOM     48  C   UNL A   1      41.218  31.055  29.950  1.00  0.00     0.074 A 
ATOM     49  C   UNL A   1      46.886  30.505  27.158  1.00  0.00     0.029 A 
ATOM     50  N   UNL A   1      44.828  30.151  27.921  1.00  0.00    -0.354 N 
ATOM     51  N   UNL A   1      42.357  30.862  29.330  1.00  0.00    -0.248 NA
ATOM     52  C   UNL A   1      41.095  32.380  30.576  1.00  0.00     0.031 C 
ATOM     53  C   UNL A   1      46.474  31.642  27.862  1.00  0.00     0.029 A 
ATOM     54  C   UNL A   1      45.182  31.431  28.316  1.00  0.00     0.049 A 
ATOM     55  H   UNL A   1      43.964  29.720  28.111  1.00  0.00     0.167 HD
ATOM     56  C   UNL A   1      43.079  32.039  29.482  1.00  0.00     0.074 A 
ATOM     57  C   UNL A   1      42.239  32.952  30.226  1.00  0.00     0.031 C 
ATOM     58  C   UNL A   1      44.332  32.331  29.053  1.00  0.00     0.037 A 
BRANCH  45  59
ATOM     59  C   UNL A   1      47.069  27.728  25.969  1.00  0.00     0.064 A 
ATOM     60  C   UNL A   1      47.160  27.753  24.570  1.00  0.00     0.173 A 
ATOM     61  C   UNL A   1      48.162  27.227  26.692  1.00  0.00     0.173 A 
ATOM     62  F   UNL A   1      46.134  28.205  23.833  1.00  0.00    -0.203 F 
ATOM     63  C   UNL A   1      48.295  27.272  23.920  1.00  0.00     0.198 A 
ATOM     64  C   UNL A   1      49.303  26.770  26.041  1.00  0.00     0.198 A 
ATOM     65  F   UNL A   1      48.121  27.182  28.033  1.00  0.00    -0.203 F 
ATOM     66  F   UNL A   1      48.345  27.263  22.580  1.00  0.00    -0.200 F 
ATOM     67  C   UNL A   1      49.366  26.786  24.656  1.00  0.00     0.200 A 
ATOM     68  F   UNL A   1      50.339  26.307  26.753  1.00  0.00    -0.200 F 
ATOM     69  F   UNL A   1      50.456  26.324  24.029  1.00  0.00    -0.200 F 
ENDBRANCH  45  59
BRANCH  46  70
ATOM     70  C   UNL A   1      38.800  30.576  30.775  1.00  0.00     0.064 A 
ATOM     71  C   UNL A   1      37.730  31.107  30.041  1.00  0.00     0.173 A 
ATOM     72  C   UNL A   1      38.664  30.516  32.171  1.00  0.00     0.173 A 
ATOM     73  F   UNL A   1      37.822  31.215  28.706  1.00  0.00    -0.203 F 
ATOM     74  C   UNL A   1      36.582  31.577  30.676  1.00  0.00     0.198 A 
ATOM     75  C   UNL A   1      37.504  30.957  32.802  1.00  0.00     0.198 A 
ATOM     76  F   UNL A   1      39.661  30.025  32.922  1.00  0.00    -0.203 F 
ATOM     77  F   UNL A   1      35.598  32.130  29.954  1.00  0.00    -0.200 F 
ATOM     78  C   UNL A   1      36.467  31.497  32.055  1.00  0.00     0.200 A 
ATOM     79  F   UNL A   1      37.394  30.872  34.134  1.00  0.00    -0.200 F 
ATOM     80  F   UNL A   1      35.365  31.952  32.666  1.00  0.00    -0.200 F 
ENDBRANCH  46  70
BRANCH  58  81
ATOM     81  C   UNL A   1      44.863  33.700  29.362  1.00  0.00     0.064 A 
ATOM     82  C   UNL A   1      45.608  33.956  30.524  1.00  0.00     0.173 A 
ATOM     83  C   UNL A   1      44.661  34.761  28.465  1.00  0.00     0.173 A 
ATOM     84  F   UNL A   1      45.817  32.980  31.419  1.00  0.00    -0.203 F 
ATOM     85  C   UNL A   1      46.108  35.228  30.788  1.00  0.00     0.198 A 
ATOM     86  C   UNL A   1      45.187  36.024  28.719  1.00  0.00     0.198 A 
ATOM     87  F   UNL A   1      43.963  34.567  27.337  1.00  0.00    -0.203 F 
ATOM     88  F   UNL A   1      46.777  35.459  31.926  1.00  0.00    -0.200 F 
ATOM     89  C   UNL A   1      45.903  36.259  29.883  1.00  0.00     0.200 A 
ATOM     90  F   UNL A   1      44.999  37.016  27.838  1.00  0.00    -0.200 F 
ATOM     91  F   UNL A   1      46.392  37.481  30.136  1.00  0.00    -0.200 F 
ENDBRANCH  58  81
ENDBRANCH  32  33
ENDBRANCH  25  27
ENDBRANCH  24  25
ENDBRANCH  23  24
ENDBRANCH   1  23
TORSDOF 15
ENDMDL
MODEL 2
REMARK VINA RESULT:     -11.7      4.994     10.134
REMARK SMILES CO[C@H]1C[C@H](C(=O)OCCOC(=O)c2ccc(-c3c4nc(c(-c5c(F)c(F)c(F)c(F)c5F)c5ccc([nH]5)c(-c5c(F)c(F)c(F)c(F)c5F)c5nc(c(-c6c(F)c(F)c(F)c(F)c6F)c6ccc3[nH]6)C=C5)C=C4)cc2)N(C(=O)[C@H]2C=C[C@@H]([NH3+])C2)C1
REMARK SMILES IDX 9 1 8 2 6 3 7 4 5 5 3 6 4 7 86 8 77 9 2 10 1 11 78 12 79 13
REMARK SMILES IDX 80 14 81 15 85 16 82 17 83 18 84 19 10 23 11 24 12 25 13 26
REMARK SMILES IDX 14 27 15 28 76 29 16 30 75 31 17 32 18 33 19 34 69 35 20 36
REMARK SMILES IDX 74 37 68 38 70 39 21 40 73 41 67 42 66 43 22 45 54 46 34 47
REMARK SMILES IDX 53 48 35 49 38 50 52 51 71 52 36 53 37 54 51 56 72 57 39 58
REMARK SMILES IDX 23 59 24 60 32 61 25 62 26 63 30 64 33 65 27 66 28 67 31 68
REMARK SMILES IDX 29 69 55 70 56 71 64 72 57 73 58 74 62 75 65 76 59 77 60 78
REMARK SMILES IDX 63 79 61 80 40 81 41 82 49 83 42 84 43 85 47 86 50 87 44 88
REMARK SMILES IDX 45 89 48 90 46 91
REMARK H PARENT 84 20 84 21 84 22 70 44 38 55
REMARK Flexibility Score: inf
ROOT
ATOM      1  C   UNL A   1      32.916  29.532  25.067  1.00  0.00     0.274 C 
ENDROOT
BRANCH   1   2
ATOM      2  O   UNL A   1      32.751  28.139  25.402  1.00  0.00    -0.461 OA
BRANCH   2   3
ATOM      3  C   UNL A   1      33.033  27.260  24.403  1.00  0.00     0.329 C 
ATOM      4  O   UNL A   1      34.028  27.343  23.694  1.00  0.00    -0.250 OA
BRANCH   3   5
ATOM      5  C   UNL A   1      31.975  26.146  24.251  1.00  0.00     0.197 C 
ATOM      6  C   UNL A   1      31.503  25.204  26.412  1.00  0.00     0.140 C 
ATOM      7  C   UNL A   1      32.262  24.915  25.115  1.00  0.00     0.071 C 
ATOM      8  C   UNL A   1      30.259  25.950  25.928  1.00  0.00     0.152 C 
ATOM      9  N   UNL A   1      30.592  26.496  24.611  1.00  0.00    -0.326 N 
BRANCH   6  10
ATOM     10  O   UNL A   1      31.231  24.088  27.251  1.00  0.00    -0.380 OA
ATOM     11  C   UNL A   1      30.326  23.112  26.759  1.00  0.00     0.195 C 
ENDBRANCH   6  10
BRANCH   9  12
ATOM     12  C   UNL A   1      29.583  27.097  23.892  1.00  0.00     0.230 C 
ATOM     13  O   UNL A   1      28.629  26.408  23.502  1.00  0.00    -0.274 OA
BRANCH  12  14
ATOM     14  C   UNL A   1      29.582  28.579  23.500  1.00  0.00     0.107 C 
ATOM     15  C   UNL A   1      30.496  28.978  22.392  1.00  0.00    -0.012 C 
ATOM     16  C   UNL A   1      28.232  29.161  23.071  1.00  0.00     0.087 C 
ATOM     17  C   UNL A   1      29.946  29.929  21.628  1.00  0.00     0.033 C 
ATOM     18  C   UNL A   1      28.591  30.312  22.117  1.00  0.00     0.205 C 
BRANCH  18  19
ATOM     19  N   UNL A   1      27.653  30.452  21.026  1.00  0.00    -0.352 N 
ATOM     20  H   UNL A   1      27.387  29.528  20.686  1.00  0.00     0.345 HD
ATOM     21  H   UNL A   1      28.087  30.981  20.270  1.00  0.00     0.345 HD
ATOM     22  H   UNL A   1      26.822  30.946  21.353  1.00  0.00     0.345 HD
ENDBRANCH  18  19
ENDBRANCH  12  14
ENDBRANCH   9  12
ENDBRANCH   3   5
ENDBRANCH   2   3
ENDBRANCH   1   2
BRANCH   1  23
ATOM     23  C   UNL A   1      31.971  30.429  25.875  1.00  0.00     0.275 C 
BRANCH  23  24
ATOM     24  O   UNL A   1      32.444  30.647  27.221  1.00  0.00    -0.458 OA
BRANCH  24  25
ATOM     25  C   UNL A   1      33.215  31.745  27.388  1.00  0.00     0.338 C 
ATOM     26  O   UNL A   1      32.865  32.912  27.249  1.00  0.00    -0.246 OA
BRANCH  25  27
ATOM     27  C   UNL A   1      34.540  31.393  27.929  1.00  0.00     0.060 A 
ATOM     28  C   UNL A   1      34.724  30.082  28.388  1.00  0.00     0.016 A 
ATOM     29  C   UNL A   1      35.570  32.330  28.053  1.00  0.00     0.016 A 
ATOM     30  C   UNL A   1      35.936  29.703  28.959  1.00  0.00     0.010 A 
ATOM     31  C   UNL A   1      36.782  31.952  28.647  1.00  0.00     0.010 A 
ATOM     32  C   UNL A   1      36.969  30.638  29.103  1.00  0.00    -0.014 A 
BRANCH  32  33
ATOM     33  C   UNL A   1      38.210  30.219  29.797  1.00  0.00     0.031 A 
ATOM     34  C   UNL A   1      38.452  30.661  31.209  1.00  0.00     0.074 A 
ATOM     35  C   UNL A   1      39.067  29.375  29.198  1.00  0.00     0.049 A 
ATOM     36  N   UNL A   1      39.411  30.324  32.033  1.00  0.00    -0.248 NA
ATOM     37  C   UNL A   1      37.475  31.607  31.773  1.00  0.00     0.031 C 
ATOM     38  C   UNL A   1      38.914  28.845  27.847  1.00  0.00     0.029 A 
ATOM     39  N   UNL A   1      40.215  28.782  29.665  1.00  0.00    -0.354 N 
ATOM     40  C   UNL A   1      39.160  31.015  33.208  1.00  0.00     0.074 A 
ATOM     41  C   UNL A   1      37.958  31.794  32.993  1.00  0.00     0.031 C 
ATOM     42  C   UNL A   1      39.902  27.968  27.606  1.00  0.00     0.029 A 
ATOM     43  C   UNL A   1      40.780  27.904  28.772  1.00  0.00     0.049 A 
ATOM     44  H   UNL A   1      40.596  28.970  30.553  1.00  0.00     0.167 HD
ATOM     45  C   UNL A   1      39.877  31.011  34.357  1.00  0.00     0.037 A 
ATOM     46  C   UNL A   1      41.877  27.131  28.888  1.00  0.00     0.037 A 
ATOM     47  C   UNL A   1      41.091  30.264  34.557  1.00  0.00     0.049 A 
ATOM     48  C   UNL A   1      42.674  27.175  30.166  1.00  0.00     0.074 A 
ATOM     49  C   UNL A   1      41.912  30.231  35.671  1.00  0.00     0.029 A 
ATOM     50  N   UNL A   1      41.666  29.426  33.613  1.00  0.00    -0.354 N 
ATOM     51  N   UNL A   1      42.428  27.828  31.276  1.00  0.00    -0.248 NA
ATOM     52  C   UNL A   1      43.910  26.378  30.202  1.00  0.00     0.031 C 
ATOM     53  C   UNL A   1      43.007  29.408  35.384  1.00  0.00     0.029 A 
ATOM     54  C   UNL A   1      42.841  28.887  34.112  1.00  0.00     0.049 A 
ATOM     55  H   UNL A   1      41.294  29.241  32.721  1.00  0.00     0.167 HD
ATOM     56  C   UNL A   1      43.466  27.514  32.143  1.00  0.00     0.074 A 
ATOM     57  C   UNL A   1      44.331  26.588  31.442  1.00  0.00     0.031 C 
ATOM     58  C   UNL A   1      43.689  27.962  33.403  1.00  0.00     0.037 A 
BRANCH  45  59
ATOM     59  C   UNL A   1      39.392  31.894  35.467  1.00  0.00     0.064 A 
ATOM     60  C   UNL A   1      39.791  33.233  35.572  1.00  0.00     0.173 A 
ATOM     61  C   UNL A   1      38.506  31.392  36.433  1.00  0.00     0.173 A 
ATOM     62  F   UNL A   1      40.652  33.754  34.685  1.00  0.00    -0.203 F 
ATOM     63  C   UNL A   1      39.338  34.034  36.619  1.00  0.00     0.198 A 
ATOM     64  C   UNL A   1      38.036  32.201  37.463  1.00  0.00     0.198 A 
ATOM     65  F   UNL A   1      38.095  30.116  36.375  1.00  0.00    -0.203 F 
ATOM     66  F   UNL A   1      39.767  35.299  36.727  1.00  0.00    -0.200 F 
ATOM     67  C   UNL A   1      38.458  33.519  37.560  1.00  0.00     0.200 A 
ATOM     68  F   UNL A   1      37.181  31.704  38.367  1.00  0.00    -0.200 F 
ATOM     69  F   UNL A   1      38.024  34.290  38.566  1.00  0.00    -0.200 F 
ENDBRANCH  45  59
BRANCH  46  70
ATOM     70  C   UNL A   1      42.293  26.249  27.766  1.00  0.00     0.064 A 
ATOM     71  C   UNL A   1      43.261  26.664  26.841  1.00  0.00     0.173 A 
ATOM     72  C   UNL A   1      41.712  24.986  27.577  1.00  0.00     0.173 A 
ATOM     73  F   UNL A   1      43.825  27.876  26.959  1.00  0.00    -0.203 F 
ATOM     74  C   UNL A   1      43.618  25.859  25.760  1.00  0.00     0.198 A 
ATOM     75  C   UNL A   1      42.091  24.170  26.515  1.00  0.00     0.198 A 
ATOM     76  F   UNL A   1      40.774  24.544  28.428  1.00  0.00    -0.203 F 
ATOM     77  F   UNL A   1      44.505  26.304  24.860  1.00  0.00    -0.200 F 
ATOM     78  C   UNL A   1      43.037  24.610  25.601  1.00  0.00     0.200 A 
ATOM     79  F   UNL A   1      41.532  22.961  26.368  1.00  0.00    -0.200 F 
ATOM     80  F   UNL A   1      43.376  23.838  24.560  1.00  0.00    -0.200 F 
ENDBRANCH  46  70
BRANCH  58  81
ATOM     81  C   UNL A   1      44.906  27.444  34.112  1.00  0.00     0.064 A 
ATOM     82  C   UNL A   1      44.867  26.270  34.880  1.00  0.00     0.173 A 
ATOM     83  C   UNL A   1      46.137  28.107  33.989  1.00  0.00     0.173 A 
ATOM     84  F   UNL A   1      43.711  25.608  35.040  1.00  0.00    -0.203 F 
ATOM     85  C   UNL A   1      46.008  25.793  35.518  1.00  0.00     0.198 A 
ATOM     86  C   UNL A   1      47.283  27.611  34.606  1.00  0.00     0.198 A 
ATOM     87  F   UNL A   1      46.230  29.229  33.261  1.00  0.00    -0.203 F 
ATOM     88  F   UNL A   1      45.936  24.695  36.284  1.00  0.00    -0.200 F 
ATOM     89  C   UNL A   1      47.216  26.460  35.375  1.00  0.00     0.200 A 
ATOM     90  F   UNL A   1      48.451  28.249  34.456  1.00  0.00    -0.200 F 
ATOM     91  F   UNL A   1      48.316  25.995  35.985  1.00  0.00    -0.200 F 
ENDBRANCH  58  81
ENDBRANCH  32  33
ENDBRANCH  25  27
ENDBRANCH  24  25
ENDBRANCH  23  24
ENDBRANCH   1  23
TORSDOF 15
ENDMDL
MODEL 3
REMARK VINA RESULT:     -11.6      4.558      9.654
REMARK SMILES CO[C@H]1C[C@H](C(=O)OCCOC(=O)c2ccc(-c3c4nc(c(-c5c(F)c(F)c(F)c(F)c5F)c5ccc([nH]5)c(-c5c(F)c(F)c(F)c(F)c5F)c5nc(c(-c6c(F)c(F)c(F)c(F)c6F)c6ccc3[nH]6)C=C5)C=C4)cc2)N(C(=O)[C@H]2C=C[C@@H]([NH3+])C2)C1
REMARK SMILES IDX 9 1 8 2 6 3 7 4 5 5 3 6 4 7 86 8 77 9 2 10 1 11 78 12 79 13
REMARK SMILES IDX 80 14 81 15 85 16 82 17 83 18 84 19 10 23 11 24 12 25 13 26
REMARK SMILES IDX 14 27 15 28 76 29 16 30 75 31 17 32 18 33 19 34 69 35 20 36
REMARK SMILES IDX 74 37 68 38 70 39 21 40 73 41 67 42 66 43 22 45 54 46 34 47
REMARK SMILES IDX 53 48 35 49 38 50 52 51 71 52 36 53 37 54 51 56 72 57 39 58
REMARK SMILES IDX 23 59 24 60 32 61 25 62 26 63 30 64 33 65 27 66 28 67 31 68
REMARK SMILES IDX 29 69 55 70 56 71 64 72 57 73 58 74 62 75 65 76 59 77 60 78
REMARK SMILES IDX 63 79 61 80 40 81 41 82 49 83 42 84 43 85 47 86 50 87 44 88
REMARK SMILES IDX 45 89 48 90 46 91
REMARK H PARENT 84 20 84 21 84 22 70 44 38 55
REMARK Flexibility Score: inf
ROOT
ATOM      1  C   UNL A   1      31.718  28.660  27.119  1.00  0.00     0.274 C 
ENDROOT
BRANCH   1   2
ATOM      2  O   UNL A   1      31.518  27.717  26.048  1.00  0.00    -0.461 OA
BRANCH   2   3
ATOM      3  C   UNL A   1      32.576  26.905  25.778  1.00  0.00     0.329 C 
ATOM      4  O   UNL A   1      33.682  27.053  26.282  1.00  0.00    -0.250 OA
BRANCH   3   5
ATOM      5  C   UNL A   1      32.244  25.779  24.776  1.00  0.00     0.197 C 
ATOM      6  C   UNL A   1      33.516  26.110  22.763  1.00  0.00     0.140 C 
ATOM      7  C   UNL A   1      32.105  26.271  23.332  1.00  0.00     0.071 C 
ATOM      8  C   UNL A   1      34.030  24.848  23.456  1.00  0.00     0.152 C 
ATOM      9  N   UNL A   1      33.222  24.685  24.666  1.00  0.00    -0.326 N 
BRANCH   6  10
ATOM     10  O   UNL A   1      33.629  26.091  21.345  1.00  0.00    -0.380 OA
ATOM     11  C   UNL A   1      32.529  25.576  20.613  1.00  0.00     0.195 C 
ENDBRANCH   6  10
BRANCH   9  12
ATOM     12  C   UNL A   1      33.394  23.532  25.400  1.00  0.00     0.230 C 
ATOM     13  O   UNL A   1      33.607  23.619  26.618  1.00  0.00    -0.274 OA
BRANCH  12  14
ATOM     14  C   UNL A   1      33.381  22.125  24.790  1.00  0.00     0.107 C 
ATOM     15  C   UNL A   1      34.683  21.399  24.756  1.00  0.00    -0.012 C 
ATOM     16  C   UNL A   1      32.432  21.117  25.443  1.00  0.00     0.087 C 
ATOM     17  C   UNL A   1      34.514  20.090  24.976  1.00  0.00     0.033 C 
ATOM     18  C   UNL A   1      33.077  19.747  25.180  1.00  0.00     0.205 C 
BRANCH  18  19
ATOM     19  N   UNL A   1      32.903  18.821  26.276  1.00  0.00    -0.352 N 
ATOM     20  H   UNL A   1      33.809  18.434  26.540  1.00  0.00     0.345 HD
ATOM     21  H   UNL A   1      32.281  18.066  25.988  1.00  0.00     0.345 HD
ATOM     22  H   UNL A   1      32.497  19.312  27.074  1.00  0.00     0.345 HD
ENDBRANCH  18  19
ENDBRANCH  12  14
ENDBRANCH   9  12
ENDBRANCH   3   5
ENDBRANCH   2   3
ENDBRANCH   1   2
BRANCH   1  23
ATOM     23  C   UNL A   1      31.810  30.100  26.603  1.00  0.00     0.275 C 
BRANCH  23  24
ATOM     24  O   UNL A   1      33.176  30.522  26.405  1.00  0.00    -0.458 OA
BRANCH  24  25
ATOM     25  C   UNL A   1      33.604  31.495  27.241  1.00  0.00     0.338 C 
ATOM     26  O   UNL A   1      32.968  32.477  27.605  1.00  0.00    -0.246 OA
BRANCH  25  27
ATOM     27  C   UNL A   1      34.917  31.162  27.824  1.00  0.00     0.060 A 
ATOM     28  C   UNL A   1      35.116  29.846  28.260  1.00  0.00     0.016 A 
ATOM     29  C   UNL A   1      35.918  32.120  28.007  1.00  0.00     0.016 A 
ATOM     30  C   UNL A   1      36.315  29.482  28.868  1.00  0.00     0.010 A 
ATOM     31  C   UNL A   1      37.116  31.758  28.638  1.00  0.00     0.010 A 
ATOM     32  C   UNL A   1      37.318  30.438  29.071  1.00  0.00    -0.014 A 
BRANCH  32  33
ATOM     33  C   UNL A   1      38.543  30.033  29.802  1.00  0.00     0.031 A 
ATOM     34  C   UNL A   1      38.744  30.489  31.216  1.00  0.00     0.074 A 
ATOM     35  C   UNL A   1      39.421  29.189  29.234  1.00  0.00     0.049 A 
ATOM     36  N   UNL A   1      39.683  30.166  32.067  1.00  0.00    -0.248 NA
ATOM     37  C   UNL A   1      37.748  31.434  31.744  1.00  0.00     0.031 C 
ATOM     38  C   UNL A   1      39.307  28.646  27.883  1.00  0.00     0.029 A 
ATOM     39  N   UNL A   1      40.559  28.607  29.736  1.00  0.00    -0.354 N 
ATOM     40  C   UNL A   1      39.397  30.866  33.229  1.00  0.00     0.074 A 
ATOM     41  C   UNL A   1      38.197  31.636  32.975  1.00  0.00     0.031 C 
ATOM     42  C   UNL A   1      40.306  27.773  27.678  1.00  0.00     0.029 A 
ATOM     43  C   UNL A   1      41.153  27.725  28.867  1.00  0.00     0.049 A 
ATOM     44  H   UNL A   1      40.916  28.806  30.632  1.00  0.00     0.167 HD
ATOM     45  C   UNL A   1      40.084  30.877  34.397  1.00  0.00     0.037 A 
ATOM     46  C   UNL A   1      42.251  26.960  29.019  1.00  0.00     0.037 A 
ATOM     47  C   UNL A   1      41.296  30.139  34.636  1.00  0.00     0.049 A 
ATOM     48  C   UNL A   1      43.014  27.021  30.317  1.00  0.00     0.074 A 
ATOM     49  C   UNL A   1      42.087  30.121  35.772  1.00  0.00     0.029 A 
ATOM     50  N   UNL A   1      41.900  29.296  33.716  1.00  0.00    -0.354 N 
ATOM     51  N   UNL A   1      42.734  27.681  31.414  1.00  0.00    -0.248 NA
ATOM     52  C   UNL A   1      44.253  26.231  30.393  1.00  0.00     0.031 C 
ATOM     53  C   UNL A   1      43.194  29.302  35.521  1.00  0.00     0.029 A 
ATOM     54  C   UNL A   1      43.065  28.768  34.250  1.00  0.00     0.049 A 
ATOM     55  H   UNL A   1      41.554  29.101  32.815  1.00  0.00     0.167 HD
ATOM     56  C   UNL A   1      43.751  27.381  32.311  1.00  0.00     0.074 A 
ATOM     57  C   UNL A   1      44.639  26.455  31.642  1.00  0.00     0.031 C 
ATOM     58  C   UNL A   1      43.938  27.843  33.573  1.00  0.00     0.037 A 
BRANCH  45  59
ATOM     59  C   UNL A   1      39.564  31.766  35.486  1.00  0.00     0.064 A 
ATOM     60  C   UNL A   1      38.608  31.320  36.409  1.00  0.00     0.173 A 
ATOM     61  C   UNL A   1      40.038  33.081  35.611  1.00  0.00     0.173 A 
ATOM     62  F   UNL A   1      38.110  30.078  36.319  1.00  0.00    -0.203 F 
ATOM     63  C   UNL A   1      38.128  32.167  37.407  1.00  0.00     0.198 A 
ATOM     64  C   UNL A   1      39.575  33.916  36.623  1.00  0.00     0.198 A 
ATOM     65  F   UNL A   1      40.952  33.554  34.751  1.00  0.00    -0.203 F 
ATOM     66  F   UNL A   1      37.182  31.736  38.252  1.00  0.00    -0.200 F 
ATOM     67  C   UNL A   1      38.616  33.462  37.515  1.00  0.00     0.200 A 
ATOM     68  F   UNL A   1      40.051  35.164  36.730  1.00  0.00    -0.200 F 
ATOM     69  F   UNL A   1      38.153  34.275  38.474  1.00  0.00    -0.200 F 
ENDBRANCH  45  59
BRANCH  46  70
ATOM     70  C   UNL A   1      42.702  26.071  27.917  1.00  0.00     0.064 A 
ATOM     71  C   UNL A   1      42.253  24.745  27.827  1.00  0.00     0.173 A 
ATOM     72  C   UNL A   1      43.614  26.515  26.947  1.00  0.00     0.173 A 
ATOM     73  F   UNL A   1      41.405  24.262  28.747  1.00  0.00    -0.203 F 
ATOM     74  C   UNL A   1      42.713  23.894  26.823  1.00  0.00     0.198 A 
ATOM     75  C   UNL A   1      44.049  25.673  25.926  1.00  0.00     0.198 A 
ATOM     76  F   UNL A   1      44.083  27.771  26.992  1.00  0.00    -0.203 F 
ATOM     77  F   UNL A   1      42.309  22.617  26.793  1.00  0.00    -0.200 F 
ATOM     78  C   UNL A   1      43.605  24.361  25.870  1.00  0.00     0.200 A 
ATOM     79  F   UNL A   1      44.906  26.130  25.003  1.00  0.00    -0.200 F 
ATOM     80  F   UNL A   1      44.049  23.542  24.907  1.00  0.00    -0.200 F 
ENDBRANCH  46  70
BRANCH  58  81
ATOM     81  C   UNL A   1      45.138  27.339  34.319  1.00  0.00     0.064 A 
ATOM     82  C   UNL A   1      46.366  28.019  34.283  1.00  0.00     0.173 A 
ATOM     83  C   UNL A   1      45.050  26.185  35.113  1.00  0.00     0.173 A 
ATOM     84  F   UNL A   1      46.506  29.119  33.528  1.00  0.00    -0.203 F 
ATOM     85  C   UNL A   1      47.466  27.548  34.993  1.00  0.00     0.198 A 
ATOM     86  C   UNL A   1      46.145  25.733  35.845  1.00  0.00     0.198 A 
ATOM     87  F   UNL A   1      43.898  25.503  35.187  1.00  0.00    -0.203 F 
ATOM     88  F   UNL A   1      48.641  28.188  34.908  1.00  0.00    -0.200 F 
ATOM     89  C   UNL A   1      47.353  26.410  35.779  1.00  0.00     0.200 A 
ATOM     90  F   UNL A   1      46.031  24.641  36.612  1.00  0.00    -0.200 F 
ATOM     91  F   UNL A   1      48.412  25.962  36.468  1.00  0.00    -0.200 F 
ENDBRANCH  58  81
ENDBRANCH  32  33
ENDBRANCH  25  27
ENDBRANCH  24  25
ENDBRANCH  23  24
ENDBRANCH   1  23
TORSDOF 15
ENDMDL
