MODEL 1
REMARK VINA RESULT:     -12.4      0.000      0.000
REMARK SMILES Cc1cc(C)c(C(N)=O)c(N[C@H]2C=C[C@H](C(=O)OCCOC(=O)c3ccc(-c4c5nc(c(-c6c(F)c(F)c(F)c(F)c6F)c6ccc([nH]6)c(-c6c(F)c(F)c(F)c(F)c6F)c6nc(c(-c7c(F)c(F)c(F)c(F)c7F)c7ccc4[nH]7)C=C6)C=C5)cc3)C2)n1
REMARK SMILES IDX 19 1 18 2 16 3 17 4 15 5 12 6 13 7 87 8 14 9 11 10 10 12
REMARK SMILES IDX 1 13 2 14 3 15 88 16 4 17 5 18 6 19 7 20 8 21 9 22 20 25
REMARK SMILES IDX 21 26 22 27 23 28 24 29 25 30 86 31 26 32 85 33 27 34 28 35
REMARK SMILES IDX 29 36 79 37 30 38 84 39 78 40 80 41 31 42 83 43 77 44 76 45
REMARK SMILES IDX 32 47 64 48 44 49 63 50 45 51 48 52 62 53 81 54 46 55 47 56
REMARK SMILES IDX 61 58 82 59 49 60 33 61 34 62 42 63 35 64 36 65 40 66 43 67
REMARK SMILES IDX 37 68 38 69 41 70 39 71 65 72 66 73 74 74 67 75 68 76 72 77
REMARK SMILES IDX 75 78 69 79 70 80 73 81 71 82 50 83 51 84 59 85 52 86 53 87
REMARK SMILES IDX 57 88 60 89 54 90 55 91 58 92 56 93
REMARK H PARENT 11 11 8 23 8 24 80 46 48 57
REMARK Flexibility Score: inf
ROOT
ATOM      1  C   UNL A   1      31.216  28.934  25.044  1.00  0.00     0.274 C 
ENDROOT
BRANCH   1   2
ATOM      2  O   UNL A   1      31.589  27.544  25.082  1.00  0.00    -0.462 OA
BRANCH   2   3
ATOM      3  C   UNL A   1      31.143  26.829  26.151  1.00  0.00     0.312 C 
ATOM      4  O   UNL A   1      31.212  27.201  27.318  1.00  0.00    -0.252 OA
BRANCH   3   5
ATOM      5  C   UNL A   1      30.510  25.515  25.705  1.00  0.00     0.124 C 
ATOM      6  C   UNL A   1      32.290  23.875  25.748  1.00  0.00     0.104 C 
ATOM      7  C   UNL A   1      31.928  24.218  24.340  1.00  0.00    -0.006 C 
ATOM      8  C   UNL A   1      31.061  24.348  26.537  1.00  0.00     0.048 C 
ATOM      9  C   UNL A   1      30.957  25.143  24.315  1.00  0.00    -0.014 C 
BRANCH   6  10
ATOM     10  N   UNL A   1      32.688  22.496  25.923  1.00  0.00    -0.363 N 
ATOM     11  H   UNL A   1      32.010  21.878  26.281  1.00  0.00     0.162 HD
BRANCH  10  12
ATOM     12  C   UNL A   1      33.934  21.964  25.635  1.00  0.00     0.139 A 
ATOM     13  C   UNL A   1      37.293  23.381  25.148  1.00  0.00     0.067 C 
ATOM     14  C   UNL A   1      36.204  22.359  25.259  1.00  0.00     0.040 A 
ATOM     15  C   UNL A   1      36.444  21.029  24.955  1.00  0.00     0.028 A 
ATOM     16  N   UNL A   1      34.986  22.808  25.621  1.00  0.00    -0.236 NA
ATOM     17  C   UNL A   1      35.391  20.113  25.034  1.00  0.00    -0.033 A 
ATOM     18  C   UNL A   1      35.665  18.670  24.710  1.00  0.00     0.045 C 
ATOM     19  C   UNL A   1      34.110  20.592  25.374  1.00  0.00     0.084 A 
BRANCH  19  20
ATOM     20  C   UNL A   1      32.958  19.648  25.416  1.00  0.00     0.252 C 
ATOM     21  N   UNL A   1      32.887  18.799  26.486  1.00  0.00    -0.365 N 
ATOM     22  O   UNL A   1      32.109  19.610  24.535  1.00  0.00    -0.269 OA
ATOM     23  H   UNL A   1      33.574  18.835  27.190  1.00  0.00     0.159 HD
ATOM     24  H   UNL A   1      32.148  18.151  26.551  1.00  0.00     0.159 HD
ENDBRANCH  19  20
ENDBRANCH  10  12
ENDBRANCH   6  10
ENDBRANCH   3   5
ENDBRANCH   2   3
ENDBRANCH   1   2
BRANCH   1  25
ATOM     25  C   UNL A   1      32.395  29.841  25.397  1.00  0.00     0.275 C 
BRANCH  25  26
ATOM     26  O   UNL A   1      32.441  30.113  26.811  1.00  0.00    -0.458 OA
BRANCH  26  27
ATOM     27  C   UNL A   1      33.059  31.264  27.152  1.00  0.00     0.338 C 
ATOM     28  O   UNL A   1      32.597  32.392  27.141  1.00  0.00    -0.246 OA
BRANCH  27  29
ATOM     29  C   UNL A   1      34.429  30.985  27.604  1.00  0.00     0.060 A 
ATOM     30  C   UNL A   1      34.778  29.672  27.909  1.00  0.00     0.016 A 
ATOM     31  C   UNL A   1      35.299  32.034  27.900  1.00  0.00     0.016 A 
ATOM     32  C   UNL A   1      35.947  29.411  28.620  1.00  0.00     0.010 A 
ATOM     33  C   UNL A   1      36.520  31.757  28.525  1.00  0.00     0.010 A 
ATOM     34  C   UNL A   1      36.838  30.448  28.932  1.00  0.00    -0.014 A 
BRANCH  34  35
ATOM     35  C   UNL A   1      38.074  30.172  29.718  1.00  0.00     0.031 A 
ATOM     36  C   UNL A   1      39.184  29.348  29.121  1.00  0.00     0.074 A 
ATOM     37  C   UNL A   1      38.222  30.671  30.961  1.00  0.00     0.049 A 
ATOM     38  N   UNL A   1      40.230  28.818  29.705  1.00  0.00    -0.248 NA
ATOM     39  C   UNL A   1      39.101  29.071  27.678  1.00  0.00     0.031 C 
ATOM     40  C   UNL A   1      37.260  31.530  31.652  1.00  0.00     0.029 A 
ATOM     41  N   UNL A   1      39.250  30.536  31.862  1.00  0.00    -0.354 N 
ATOM     42  C   UNL A   1      40.886  28.090  28.722  1.00  0.00     0.074 A 
ATOM     43  C   UNL A   1      40.135  28.260  27.496  1.00  0.00     0.031 C 
ATOM     44  C   UNL A   1      37.762  31.882  32.845  1.00  0.00     0.029 A 
ATOM     45  C   UNL A   1      39.040  31.207  33.041  1.00  0.00     0.049 A 
ATOM     46  H   UNL A   1      40.061  30.008  31.679  1.00  0.00     0.167 HD
ATOM     47  C   UNL A   1      42.006  27.336  28.838  1.00  0.00     0.037 A 
ATOM     48  C   UNL A   1      39.772  31.245  34.170  1.00  0.00     0.037 A 
ATOM     49  C   UNL A   1      42.795  27.227  30.037  1.00  0.00     0.049 A 
ATOM     50  C   UNL A   1      41.026  30.425  34.267  1.00  0.00     0.074 A 
ATOM     51  C   UNL A   1      43.932  26.468  30.260  1.00  0.00     0.029 A 
ATOM     52  N   UNL A   1      42.548  27.930  31.205  1.00  0.00    -0.354 N 
ATOM     53  N   UNL A   1      41.570  29.641  33.369  1.00  0.00    -0.248 NA
ATOM     54  C   UNL A   1      41.751  30.470  35.545  1.00  0.00     0.031 C 
ATOM     55  C   UNL A   1      44.368  26.706  31.569  1.00  0.00     0.029 A 
ATOM     56  C   UNL A   1      43.516  27.631  32.150  1.00  0.00     0.049 A 
ATOM     57  H   UNL A   1      41.796  28.550  31.343  1.00  0.00     0.167 HD
ATOM     58  C   UNL A   1      42.697  29.099  33.971  1.00  0.00     0.074 A 
ATOM     59  C   UNL A   1      42.772  29.660  35.303  1.00  0.00     0.031 C 
ATOM     60  C   UNL A   1      43.580  28.205  33.467  1.00  0.00     0.037 A 
BRANCH  47  61
ATOM     61  C   UNL A   1      42.430  26.533  27.646  1.00  0.00     0.064 A 
ATOM     62  C   UNL A   1      43.399  26.996  26.746  1.00  0.00     0.173 A 
ATOM     63  C   UNL A   1      41.885  25.257  27.431  1.00  0.00     0.173 A 
ATOM     64  F   UNL A   1      43.936  28.214  26.902  1.00  0.00    -0.203 F 
ATOM     65  C   UNL A   1      43.799  26.214  25.665  1.00  0.00     0.198 A 
ATOM     66  C   UNL A   1      42.301  24.471  26.361  1.00  0.00     0.198 A 
ATOM     67  F   UNL A   1      40.956  24.770  28.269  1.00  0.00    -0.203 F 
ATOM     68  F   UNL A   1      44.706  26.684  24.798  1.00  0.00    -0.200 F 
ATOM     69  C   UNL A   1      43.255  24.951  25.477  1.00  0.00     0.200 A 
ATOM     70  F   UNL A   1      41.781  23.247  26.188  1.00  0.00    -0.200 F 
ATOM     71  F   UNL A   1      43.648  24.197  24.441  1.00  0.00    -0.200 F 
ENDBRANCH  47  61
BRANCH  48  72
ATOM     72  C   UNL A   1      39.309  32.067  35.316  1.00  0.00     0.064 A 
ATOM     73  C   UNL A   1      39.628  33.428  35.396  1.00  0.00     0.173 A 
ATOM     74  C   UNL A   1      38.524  31.515  36.338  1.00  0.00     0.173 A 
ATOM     75  F   UNL A   1      40.398  33.993  34.454  1.00  0.00    -0.203 F 
ATOM     76  C   UNL A   1      39.179  34.209  36.459  1.00  0.00     0.198 A 
ATOM     77  C   UNL A   1      38.056  32.301  37.387  1.00  0.00     0.198 A 
ATOM     78  F   UNL A   1      38.194  30.216  36.305  1.00  0.00    -0.203 F 
ATOM     79  F   UNL A   1      39.520  35.503  36.529  1.00  0.00    -0.200 F 
ATOM     80  C   UNL A   1      38.387  33.646  37.449  1.00  0.00     0.200 A 
ATOM     81  F   UNL A   1      37.279  31.758  38.334  1.00  0.00    -0.200 F 
ATOM     82  F   UNL A   1      37.944  34.400  38.465  1.00  0.00    -0.200 F 
ENDBRANCH  48  72
BRANCH  60  83
ATOM     83  C   UNL A   1      44.711  27.791  34.354  1.00  0.00     0.064 A 
ATOM     84  C   UNL A   1      44.609  26.667  35.185  1.00  0.00     0.173 A 
ATOM     85  C   UNL A   1      45.920  28.501  34.344  1.00  0.00     0.173 A 
ATOM     86  F   UNL A   1      43.466  25.968  35.235  1.00  0.00    -0.203 F 
ATOM     87  C   UNL A   1      45.676  26.274  35.986  1.00  0.00     0.198 A 
ATOM     88  C   UNL A   1      46.990  28.097  35.137  1.00  0.00     0.198 A 
ATOM     89  F   UNL A   1      46.062  29.583  33.564  1.00  0.00    -0.203 F 
ATOM     90  F   UNL A   1      45.550  25.212  36.794  1.00  0.00    -0.200 F 
ATOM     91  C   UNL A   1      46.866  26.986  35.959  1.00  0.00     0.200 A 
ATOM     92  F   UNL A   1      48.141  28.784  35.109  1.00  0.00    -0.200 F 
ATOM     93  F   UNL A   1      47.893  26.606  36.731  1.00  0.00    -0.200 F 
ENDBRANCH  60  83
ENDBRANCH  34  35
ENDBRANCH  27  29
ENDBRANCH  26  27
ENDBRANCH  25  26
ENDBRANCH   1  25
TORSDOF 14
ENDMDL
MODEL 2
REMARK VINA RESULT:     -12.3      4.137      9.782
REMARK SMILES Cc1cc(C)c(C(N)=O)c(N[C@H]2C=C[C@H](C(=O)OCCOC(=O)c3ccc(-c4c5nc(c(-c6c(F)c(F)c(F)c(F)c6F)c6ccc([nH]6)c(-c6c(F)c(F)c(F)c(F)c6F)c6nc(c(-c7c(F)c(F)c(F)c(F)c7F)c7ccc4[nH]7)C=C6)C=C5)cc3)C2)n1
REMARK SMILES IDX 19 1 18 2 16 3 17 4 15 5 12 6 13 7 87 8 14 9 11 10 10 12
REMARK SMILES IDX 1 13 2 14 3 15 88 16 4 17 5 18 6 19 7 20 8 21 9 22 20 25
REMARK SMILES IDX 21 26 22 27 23 28 24 29 25 30 86 31 26 32 85 33 27 34 28 35
REMARK SMILES IDX 29 36 79 37 30 38 84 39 78 40 80 41 31 42 83 43 77 44 76 45
REMARK SMILES IDX 32 47 64 48 44 49 63 50 45 51 48 52 62 53 81 54 46 55 47 56
REMARK SMILES IDX 61 58 82 59 49 60 33 61 34 62 42 63 35 64 36 65 40 66 43 67
REMARK SMILES IDX 37 68 38 69 41 70 39 71 65 72 66 73 74 74 67 75 68 76 72 77
REMARK SMILES IDX 75 78 69 79 70 80 73 81 71 82 50 83 51 84 59 85 52 86 53 87
REMARK SMILES IDX 57 88 60 89 54 90 55 91 58 92 56 93
REMARK H PARENT 11 11 8 23 8 24 80 46 48 57
REMARK Flexibility Score: inf
ROOT
ATOM      1  C   UNL A   1      35.304  21.446  25.922  1.00  0.00     0.274 C 
ENDROOT
BRANCH   1   2
ATOM      2  O   UNL A   1      34.158  21.588  25.061  1.00  0.00    -0.462 OA
BRANCH   2   3
ATOM      3  C   UNL A   1      34.091  22.735  24.331  1.00  0.00     0.312 C 
ATOM      4  O   UNL A   1      33.967  22.780  23.112  1.00  0.00    -0.252 OA
BRANCH   3   5
ATOM      5  C   UNL A   1      34.152  23.962  25.234  1.00  0.00     0.124 C 
ATOM      6  C   UNL A   1      32.104  25.186  24.827  1.00  0.00     0.104 C 
ATOM      7  C   UNL A   1      33.270  25.901  24.227  1.00  0.00    -0.006 C 
ATOM      8  C   UNL A   1      32.771  24.246  25.842  1.00  0.00     0.048 C 
ATOM      9  C   UNL A   1      34.402  25.213  24.433  1.00  0.00    -0.014 C 
BRANCH   6  10
ATOM     10  N   UNL A   1      31.079  26.073  25.333  1.00  0.00    -0.363 N 
ATOM     11  H   UNL A   1      30.419  25.684  25.950  1.00  0.00     0.162 HD
BRANCH  10  12
ATOM     12  C   UNL A   1      30.941  27.416  25.027  1.00  0.00     0.139 A 
ATOM     13  C   UNL A   1      29.604  29.286  22.155  1.00  0.00     0.067 C 
ATOM     14  C   UNL A   1      30.220  29.023  23.495  1.00  0.00     0.040 A 
ATOM     15  C   UNL A   1      30.718  30.063  24.264  1.00  0.00     0.028 A 
ATOM     16  N   UNL A   1      30.302  27.735  23.884  1.00  0.00    -0.236 NA
ATOM     17  C   UNL A   1      31.320  29.773  25.491  1.00  0.00    -0.033 A 
ATOM     18  C   UNL A   1      31.849  30.910  26.322  1.00  0.00     0.045 C 
ATOM     19  C   UNL A   1      31.440  28.422  25.877  1.00  0.00     0.084 A 
BRANCH  19  20
ATOM     20  C   UNL A   1      32.122  28.080  27.156  1.00  0.00     0.252 C 
ATOM     21  N   UNL A   1      31.358  28.083  28.290  1.00  0.00    -0.365 N 
ATOM     22  O   UNL A   1      33.316  27.816  27.212  1.00  0.00    -0.269 OA
ATOM     23  H   UNL A   1      30.399  28.296  28.237  1.00  0.00     0.159 HD
ATOM     24  H   UNL A   1      31.769  27.871  29.160  1.00  0.00     0.159 HD
ENDBRANCH  19  20
ENDBRANCH  10  12
ENDBRANCH   6  10
ENDBRANCH   3   5
ENDBRANCH   2   3
ENDBRANCH   1   2
BRANCH   1  25
ATOM     25  C   UNL A   1      36.463  20.757  25.203  1.00  0.00     0.275 C 
BRANCH  25  26
ATOM     26  O   UNL A   1      37.595  21.638  25.072  1.00  0.00    -0.458 OA
BRANCH  26  27
ATOM     27  C   UNL A   1      38.683  21.283  25.788  1.00  0.00     0.338 C 
ATOM     28  O   UNL A   1      39.190  20.178  25.877  1.00  0.00    -0.246 OA
BRANCH  27  29
ATOM     29  C   UNL A   1      39.248  22.459  26.463  1.00  0.00     0.060 A 
ATOM     30  C   UNL A   1      38.730  23.716  26.163  1.00  0.00     0.016 A 
ATOM     31  C   UNL A   1      40.399  22.337  27.242  1.00  0.00     0.016 A 
ATOM     32  C   UNL A   1      39.425  24.863  26.538  1.00  0.00     0.010 A 
ATOM     33  C   UNL A   1      41.041  23.492  27.703  1.00  0.00     0.010 A 
ATOM     34  C   UNL A   1      40.586  24.768  27.320  1.00  0.00    -0.014 A 
BRANCH  34  35
ATOM     35  C   UNL A   1      41.346  25.993  27.696  1.00  0.00     0.031 A 
ATOM     36  C   UNL A   1      40.707  27.045  28.566  1.00  0.00     0.074 A 
ATOM     37  C   UNL A   1      42.616  26.168  27.282  1.00  0.00     0.049 A 
ATOM     38  N   UNL A   1      41.109  28.264  28.824  1.00  0.00    -0.248 NA
ATOM     39  C   UNL A   1      39.440  26.681  29.221  1.00  0.00     0.031 C 
ATOM     40  C   UNL A   1      43.387  25.216  26.482  1.00  0.00     0.029 A 
ATOM     41  N   UNL A   1      43.489  27.208  27.490  1.00  0.00    -0.354 N 
ATOM     42  C   UNL A   1      40.115  28.834  29.609  1.00  0.00     0.074 A 
ATOM     43  C   UNL A   1      39.098  27.823  29.803  1.00  0.00     0.031 C 
ATOM     44  C   UNL A   1      44.629  25.692  26.307  1.00  0.00     0.029 A 
ATOM     45  C   UNL A   1      44.718  27.019  26.906  1.00  0.00     0.049 A 
ATOM     46  H   UNL A   1      43.256  28.012  28.008  1.00  0.00     0.167 HD
ATOM     47  C   UNL A   1      40.053  30.092  30.108  1.00  0.00     0.037 A 
ATOM     48  C   UNL A   1      45.784  27.836  26.826  1.00  0.00     0.037 A 
ATOM     49  C   UNL A   1      41.099  31.073  29.978  1.00  0.00     0.049 A 
ATOM     50  C   UNL A   1      45.705  29.216  27.412  1.00  0.00     0.074 A 
ATOM     51  C   UNL A   1      41.118  32.383  30.427  1.00  0.00     0.029 A 
ATOM     52  N   UNL A   1      42.328  30.835  29.384  1.00  0.00    -0.354 N 
ATOM     53  N   UNL A   1      44.710  29.788  28.044  1.00  0.00    -0.248 NA
ATOM     54  C   UNL A   1      46.885  30.076  27.245  1.00  0.00     0.031 C 
ATOM     55  C   UNL A   1      42.359  32.941  30.096  1.00  0.00     0.029 A 
ATOM     56  C   UNL A   1      43.118  31.970  29.464  1.00  0.00     0.049 A 
ATOM     57  H   UNL A   1      42.600  29.985  28.968  1.00  0.00     0.167 HD
ATOM     58  C   UNL A   1      45.141  31.071  28.349  1.00  0.00     0.074 A 
ATOM     59  C   UNL A   1      46.496  31.189  27.852  1.00  0.00     0.031 C 
ATOM     60  C   UNL A   1      44.466  32.066  28.972  1.00  0.00     0.037 A 
BRANCH  47  61
ATOM     61  C   UNL A   1      38.794  30.499  30.811  1.00  0.00     0.064 A 
ATOM     62  C   UNL A   1      38.679  30.462  32.206  1.00  0.00     0.173 A 
ATOM     63  C   UNL A   1      37.703  30.980  30.069  1.00  0.00     0.173 A 
ATOM     64  F   UNL A   1      39.689  29.997  32.955  1.00  0.00    -0.203 F 
ATOM     65  C   UNL A   1      37.508  30.880  32.836  1.00  0.00     0.198 A 
ATOM     66  C   UNL A   1      36.543  31.414  30.703  1.00  0.00     0.198 A 
ATOM     67  F   UNL A   1      37.769  31.038  28.730  1.00  0.00    -0.203 F 
ATOM     68  F   UNL A   1      37.404  30.810  34.169  1.00  0.00    -0.200 F 
ATOM     69  C   UNL A   1      36.444  31.361  32.085  1.00  0.00     0.200 A 
ATOM     70  F   UNL A   1      35.521  31.888  29.975  1.00  0.00    -0.200 F 
ATOM     71  F   UNL A   1      35.322  31.770  32.693  1.00  0.00    -0.200 F 
ENDBRANCH  47  61
BRANCH  48  72
ATOM     72  C   UNL A   1      47.010  27.375  26.128  1.00  0.00     0.064 A 
ATOM     73  C   UNL A   1      47.156  27.548  24.746  1.00  0.00     0.173 A 
ATOM     74  C   UNL A   1      48.065  26.773  26.830  1.00  0.00     0.173 A 
ATOM     75  F   UNL A   1      46.163  28.095  24.030  1.00  0.00    -0.203 F 
ATOM     76  C   UNL A   1      48.314  27.134  24.089  1.00  0.00     0.198 A 
ATOM     77  C   UNL A   1      49.231  26.383  26.177  1.00  0.00     0.198 A 
ATOM     78  F   UNL A   1      47.970  26.586  28.154  1.00  0.00    -0.203 F 
ATOM     79  F   UNL A   1      48.419  27.285  22.762  1.00  0.00    -0.200 F 
ATOM     80  C   UNL A   1      49.352  26.560  24.807  1.00  0.00     0.200 A 
ATOM     81  F   UNL A   1      50.238  25.841  26.875  1.00  0.00    -0.200 F 
ATOM     82  F   UNL A   1      50.471  26.174  24.177  1.00  0.00    -0.200 F 
ENDBRANCH  48  72
BRANCH  60  83
ATOM     83  C   UNL A   1      45.189  33.362  29.165  1.00  0.00     0.064 A 
ATOM     84  C   UNL A   1      45.093  34.394  28.221  1.00  0.00     0.173 A 
ATOM     85  C   UNL A   1      45.951  33.587  30.320  1.00  0.00     0.173 A 
ATOM     86  F   UNL A   1      44.386  34.215  27.096  1.00  0.00    -0.203 F 
ATOM     87  C   UNL A   1      45.747  35.605  28.422  1.00  0.00     0.198 A 
ATOM     88  C   UNL A   1      46.592  34.806  30.524  1.00  0.00     0.198 A 
ATOM     89  F   UNL A   1      46.070  32.627  31.249  1.00  0.00    -0.203 F 
ATOM     90  F   UNL A   1      45.666  36.571  27.496  1.00  0.00    -0.200 F 
ATOM     91  C   UNL A   1      46.492  35.812  29.574  1.00  0.00     0.200 A 
ATOM     92  F   UNL A   1      47.310  35.005  31.638  1.00  0.00    -0.200 F 
ATOM     93  F   UNL A   1      47.120  36.980  29.766  1.00  0.00    -0.200 F 
ENDBRANCH  60  83
ENDBRANCH  34  35
ENDBRANCH  27  29
ENDBRANCH  26  27
ENDBRANCH  25  26
ENDBRANCH   1  25
TORSDOF 14
ENDMDL
MODEL 3
REMARK VINA RESULT:     -12.3      4.121      9.573
REMARK SMILES Cc1cc(C)c(C(N)=O)c(N[C@H]2C=C[C@H](C(=O)OCCOC(=O)c3ccc(-c4c5nc(c(-c6c(F)c(F)c(F)c(F)c6F)c6ccc([nH]6)c(-c6c(F)c(F)c(F)c(F)c6F)c6nc(c(-c7c(F)c(F)c(F)c(F)c7F)c7ccc4[nH]7)C=C6)C=C5)cc3)C2)n1
REMARK SMILES IDX 19 1 18 2 16 3 17 4 15 5 12 6 13 7 87 8 14 9 11 10 10 12
REMARK SMILES IDX 1 13 2 14 3 15 88 16 4 17 5 18 6 19 7 20 8 21 9 22 20 25
REMARK SMILES IDX 21 26 22 27 23 28 24 29 25 30 86 31 26 32 85 33 27 34 28 35
REMARK SMILES IDX 29 36 79 37 30 38 84 39 78 40 80 41 31 42 83 43 77 44 76 45
REMARK SMILES IDX 32 47 64 48 44 49 63 50 45 51 48 52 62 53 81 54 46 55 47 56
REMARK SMILES IDX 61 58 82 59 49 60 33 61 34 62 42 63 35 64 36 65 40 66 43 67
REMARK SMILES IDX 37 68 38 69 41 70 39 71 65 72 66 73 74 74 67 75 68 76 72 77
REMARK SMILES IDX 75 78 69 79 70 80 73 81 71 82 50 83 51 84 59 85 52 86 53 87
REMARK SMILES IDX 57 88 60 89 54 90 55 91 58 92 56 93
REMARK H PARENT 11 11 8 23 8 24 80 46 48 57
REMARK Flexibility Score: inf
ROOT
ATOM      1  C   UNL A   1      35.133  20.042  24.988  1.00  0.00     0.274 C 
ENDROOT
BRANCH   1   2
ATOM      2  O   UNL A   1      34.325  20.593  26.045  1.00  0.00    -0.462 OA
BRANCH   2   3
ATOM      3  C   UNL A   1      33.058  20.958  25.706  1.00  0.00     0.312 C 
ATOM      4  O   UNL A   1      32.292  20.279  25.032  1.00  0.00    -0.252 OA
BRANCH   3   5
ATOM      5  C   UNL A   1      32.700  22.313  26.309  1.00  0.00     0.124 C 
ATOM      6  C   UNL A   1      34.039  23.941  25.120  1.00  0.00     0.104 C 
ATOM      7  C   UNL A   1      34.551  23.758  26.511  1.00  0.00    -0.006 C 
ATOM      8  C   UNL A   1      32.613  23.380  25.208  1.00  0.00     0.048 C 
ATOM      9  C   UNL A   1      33.823  22.840  27.164  1.00  0.00    -0.014 C 
BRANCH   6  10
ATOM     10  N   UNL A   1      34.180  25.293  24.625  1.00  0.00    -0.363 N 
ATOM     11  H   UNL A   1      35.049  25.534  24.230  1.00  0.00     0.162 HD
BRANCH  10  12
ATOM     12  C   UNL A   1      33.208  26.278  24.659  1.00  0.00     0.139 A 
ATOM     13  C   UNL A   1      31.744  28.371  27.306  1.00  0.00     0.067 C 
ATOM     14  C   UNL A   1      31.998  27.809  25.941  1.00  0.00     0.040 A 
ATOM     15  C   UNL A   1      31.209  28.176  24.864  1.00  0.00     0.028 A 
ATOM     16  N   UNL A   1      32.994  26.906  25.833  1.00  0.00    -0.236 NA
ATOM     17  C   UNL A   1      31.453  27.600  23.614  1.00  0.00    -0.033 A 
ATOM     18  C   UNL A   1      30.596  28.011  22.449  1.00  0.00     0.045 C 
ATOM     19  C   UNL A   1      32.469  26.627  23.511  1.00  0.00     0.084 A 
BRANCH  19  20
ATOM     20  C   UNL A   1      32.718  25.958  22.204  1.00  0.00     0.252 C 
ATOM     21  N   UNL A   1      31.898  24.915  21.872  1.00  0.00    -0.365 N 
ATOM     22  O   UNL A   1      33.620  26.303  21.452  1.00  0.00    -0.269 OA
ATOM     23  H   UNL A   1      31.175  24.643  22.482  1.00  0.00     0.159 HD
ATOM     24  H   UNL A   1      32.031  24.437  21.021  1.00  0.00     0.159 HD
ENDBRANCH  19  20
ENDBRANCH  10  12
ENDBRANCH   6  10
ENDBRANCH   3   5
ENDBRANCH   2   3
ENDBRANCH   1   2
BRANCH   1  25
ATOM     25  C   UNL A   1      36.300  20.964  24.636  1.00  0.00     0.275 C 
BRANCH  25  26
ATOM     26  O   UNL A   1      36.955  21.455  25.822  1.00  0.00    -0.458 OA
BRANCH  26  27
ATOM     27  C   UNL A   1      38.299  21.330  25.827  1.00  0.00     0.338 C 
ATOM     28  O   UNL A   1      38.968  20.433  25.341  1.00  0.00    -0.246 OA
BRANCH  27  29
ATOM     29  C   UNL A   1      38.911  22.487  26.495  1.00  0.00     0.060 A 
ATOM     30  C   UNL A   1      38.429  23.760  26.201  1.00  0.00     0.016 A 
ATOM     31  C   UNL A   1      40.067  22.328  27.257  1.00  0.00     0.016 A 
ATOM     32  C   UNL A   1      39.165  24.884  26.567  1.00  0.00     0.010 A 
ATOM     33  C   UNL A   1      40.752  23.462  27.710  1.00  0.00     0.010 A 
ATOM     34  C   UNL A   1      40.333  24.751  27.333  1.00  0.00    -0.014 A 
BRANCH  34  35
ATOM     35  C   UNL A   1      41.137  25.952  27.699  1.00  0.00     0.031 A 
ATOM     36  C   UNL A   1      40.549  27.015  28.590  1.00  0.00     0.074 A 
ATOM     37  C   UNL A   1      42.402  26.092  27.256  1.00  0.00     0.049 A 
ATOM     38  N   UNL A   1      40.993  28.221  28.846  1.00  0.00    -0.248 NA
ATOM     39  C   UNL A   1      39.288  26.684  29.272  1.00  0.00     0.031 C 
ATOM     40  C   UNL A   1      43.126  25.123  26.433  1.00  0.00     0.029 A 
ATOM     41  N   UNL A   1      43.310  27.105  27.449  1.00  0.00    -0.354 N 
ATOM     42  C   UNL A   1      40.035  28.814  29.657  1.00  0.00     0.074 A 
ATOM     43  C   UNL A   1      38.993  27.832  29.869  1.00  0.00     0.031 C 
ATOM     44  C   UNL A   1      44.377  25.564  26.231  1.00  0.00     0.029 A 
ATOM     45  C   UNL A   1      44.518  26.885  26.836  1.00  0.00     0.049 A 
ATOM     46  H   UNL A   1      43.112  27.912  27.978  1.00  0.00     0.167 HD
ATOM     47  C   UNL A   1      40.021  30.070  30.165  1.00  0.00     0.037 A 
ATOM     48  C   UNL A   1      45.606  27.671  26.736  1.00  0.00     0.037 A 
ATOM     49  C   UNL A   1      41.091  31.021  30.017  1.00  0.00     0.049 A 
ATOM     50  C   UNL A   1      45.581  29.049  27.332  1.00  0.00     0.074 A 
ATOM     51  C   UNL A   1      41.160  32.326  30.473  1.00  0.00     0.029 A 
ATOM     52  N   UNL A   1      42.299  30.752  29.393  1.00  0.00    -0.354 N 
ATOM     53  N   UNL A   1      44.618  29.645  27.991  1.00  0.00    -0.248 NA
ATOM     54  C   UNL A   1      46.781  29.875  27.143  1.00  0.00     0.031 C 
ATOM     55  C   UNL A   1      42.408  32.851  30.117  1.00  0.00     0.029 A 
ATOM     56  C   UNL A   1      43.124  31.863  29.461  1.00  0.00     0.049 A 
ATOM     57  H   UNL A   1      42.537  29.897  28.965  1.00  0.00     0.167 HD
ATOM     58  C   UNL A   1      45.093  30.912  28.294  1.00  0.00     0.074 A 
ATOM     59  C   UNL A   1      46.439  30.994  27.766  1.00  0.00     0.031 C 
ATOM     60  C   UNL A   1      44.462  31.922  28.938  1.00  0.00     0.037 A 
BRANCH  47  61
ATOM     61  C   UNL A   1      38.791  30.509  30.899  1.00  0.00     0.064 A 
ATOM     62  C   UNL A   1      38.697  30.440  32.295  1.00  0.00     0.173 A 
ATOM     63  C   UNL A   1      37.708  31.052  30.189  1.00  0.00     0.173 A 
ATOM     64  F   UNL A   1      39.699  29.916  33.014  1.00  0.00    -0.203 F 
ATOM     65  C   UNL A   1      37.554  30.887  32.956  1.00  0.00     0.198 A 
ATOM     66  C   UNL A   1      36.577  31.515  30.854  1.00  0.00     0.198 A 
ATOM     67  F   UNL A   1      37.755  31.142  28.851  1.00  0.00    -0.203 F 
ATOM     68  F   UNL A   1      37.469  30.787  34.289  1.00  0.00    -0.200 F 
ATOM     69  C   UNL A   1      36.499  31.430  32.235  1.00  0.00     0.200 A 
ATOM     70  F   UNL A   1      35.563  32.048  30.156  1.00  0.00    -0.200 F 
ATOM     71  F   UNL A   1      35.404  31.868  32.873  1.00  0.00    -0.200 F 
ENDBRANCH  47  61
BRANCH  48  72
ATOM     72  C   UNL A   1      46.801  27.179  26.006  1.00  0.00     0.064 A 
ATOM     73  C   UNL A   1      46.989  27.480  24.652  1.00  0.00     0.173 A 
ATOM     74  C   UNL A   1      47.786  26.419  26.653  1.00  0.00     0.173 A 
ATOM     75  F   UNL A   1      46.060  28.182  23.987  1.00  0.00    -0.203 F 
ATOM     76  C   UNL A   1      48.119  27.037  23.968  1.00  0.00     0.198 A 
ATOM     77  C   UNL A   1      48.928  25.997  25.975  1.00  0.00     0.198 A 
ATOM     78  F   UNL A   1      47.650  26.105  27.950  1.00  0.00    -0.203 F 
ATOM     79  F   UNL A   1      48.263  27.314  22.665  1.00  0.00    -0.200 F 
ATOM     80  C   UNL A   1      49.091  26.303  24.633  1.00  0.00     0.200 A 
ATOM     81  F   UNL A   1      49.871  25.301  26.624  1.00  0.00    -0.200 F 
ATOM     82  F   UNL A   1      50.184  25.888  23.978  1.00  0.00    -0.200 F 
ENDBRANCH  48  72
BRANCH  60  83
ATOM     83  C   UNL A   1      45.227  33.196  29.122  1.00  0.00     0.064 A 
ATOM     84  C   UNL A   1      46.051  33.394  30.238  1.00  0.00     0.173 A 
ATOM     85  C   UNL A   1      45.163  34.209  28.155  1.00  0.00     0.173 A 
ATOM     86  F   UNL A   1      46.128  32.455  31.193  1.00  0.00    -0.203 F 
ATOM     87  C   UNL A   1      46.778  34.570  30.387  1.00  0.00     0.198 A 
ATOM     88  C   UNL A   1      45.903  35.379  28.301  1.00  0.00     0.198 A 
ATOM     89  F   UNL A   1      44.387  34.063  27.071  1.00  0.00    -0.203 F 
ATOM     90  F   UNL A   1      47.540  34.752  31.474  1.00  0.00    -0.200 F 
ATOM     91  C   UNL A   1      46.707  35.560  29.417  1.00  0.00     0.200 A 
ATOM     92  F   UNL A   1      45.836  36.334  27.363  1.00  0.00    -0.200 F 
ATOM     93  F   UNL A   1      47.409  36.692  29.561  1.00  0.00    -0.200 F 
ENDBRANCH  60  83
ENDBRANCH  34  35
ENDBRANCH  27  29
ENDBRANCH  26  27
ENDBRANCH  25  26
ENDBRANCH   1  25
TORSDOF 14
ENDMDL
