MODEL 1
REMARK VINA RESULT:     -11.2      0.000      0.000
REMARK SMILES O=C(NCc1nccs1)NC[C@@H]1CC[C@@H](C(=O)OCCOC(=O)c2ccc(-c3c4nc(c(-c5c(F)c(F)c(F)c(F)c5F)c5ccc([nH]5)c(-c5c(F)c(F)c(F)c(F)c5F)c5nc(c(-c6c(F)c(F)c(F)c(F)c6F)c6ccc3[nH]6)C=C5)C=C4)cc2)O1
REMARK SMILES IDX 19 1 18 2 16 3 17 4 15 5 12 6 13 7 87 8 14 9 11 10 10 11
REMARK SMILES IDX 1 12 2 13 3 14 4 17 5 18 6 19 9 20 7 21 8 22 20 23 21 24
REMARK SMILES IDX 22 25 23 26 24 27 25 28 86 29 26 30 85 31 27 32 28 33 29 34
REMARK SMILES IDX 79 35 30 36 84 37 78 38 80 39 31 40 83 41 77 42 76 43 32 45
REMARK SMILES IDX 64 46 44 47 63 48 45 49 48 50 62 51 81 52 46 53 47 54 61 56
REMARK SMILES IDX 82 57 49 58 33 59 34 60 42 61 35 62 36 63 40 64 43 65 37 66
REMARK SMILES IDX 38 67 41 68 39 69 65 70 66 71 74 72 67 73 68 74 72 75 75 76
REMARK SMILES IDX 69 77 70 78 73 79 71 80 50 81 51 82 59 83 52 84 53 85 57 86
REMARK SMILES IDX 60 87 54 88 55 89 58 90 56 91
REMARK H PARENT 3 15 10 16 80 44 48 55
REMARK Flexibility Score: inf
ROOT
ATOM      1  C   UNL A   1      34.046  35.209  28.589  1.00  0.00     0.274 C 
ENDROOT
BRANCH   1   2
ATOM      2  O   UNL A   1      33.963  33.812  28.937  1.00  0.00    -0.460 OA
BRANCH   2   3
ATOM      3  C   UNL A   1      35.009  33.046  28.510  1.00  0.00     0.335 C 
ATOM      4  O   UNL A   1      36.102  33.490  28.177  1.00  0.00    -0.249 OA
BRANCH   3   5
ATOM      5  C   UNL A   1      34.639  31.561  28.475  1.00  0.00     0.228 C 
ATOM      6  C   UNL A   1      33.682  30.195  26.818  1.00  0.00     0.138 C 
ATOM      7  C   UNL A   1      34.886  29.481  27.402  1.00  0.00     0.037 C 
ATOM      8  O   UNL A   1      33.469  31.348  27.656  1.00  0.00    -0.361 OA
ATOM      9  C   UNL A   1      35.710  30.647  27.901  1.00  0.00     0.047 C 
BRANCH   6  10
ATOM     10  C   UNL A   1      32.385  29.392  26.728  1.00  0.00     0.149 C 
BRANCH  10  11
ATOM     11  N   UNL A   1      31.847  29.298  25.384  1.00  0.00    -0.336 N 
ATOM     12  O   UNL A   1      31.009  27.204  25.688  1.00  0.00    -0.249 OA
ATOM     13  C   UNL A   1      31.187  28.187  24.975  1.00  0.00     0.315 C 
ATOM     14  N   UNL A   1      30.707  28.166  23.718  1.00  0.00    -0.332 N 
ATOM     15  H   UNL A   1      30.121  27.398  23.526  1.00  0.00     0.165 HD
ATOM     16  H   UNL A   1      31.963  30.052  24.762  1.00  0.00     0.165 HD
BRANCH  14  17
ATOM     17  C   UNL A   1      30.893  29.064  22.595  1.00  0.00     0.185 C 
BRANCH  17  18
ATOM     18  C   UNL A   1      29.675  29.918  22.351  1.00  0.00     0.112 A 
ATOM     19  N   UNL A   1      29.020  29.938  21.206  1.00  0.00    -0.248 NA
ATOM     20  S   UNL A   1      29.078  31.017  23.545  1.00  0.00    -0.126 S 
ATOM     21  C   UNL A   1      27.992  30.859  21.264  1.00  0.00     0.123 A 
ATOM     22  C   UNL A   1      27.857  31.526  22.461  1.00  0.00     0.087 A 
ENDBRANCH  17  18
ENDBRANCH  14  17
ENDBRANCH  10  11
ENDBRANCH   6  10
ENDBRANCH   3   5
ENDBRANCH   2   3
ENDBRANCH   1   2
BRANCH   1  23
ATOM     23  C   UNL A   1      32.988  36.018  29.335  1.00  0.00     0.275 C 
BRANCH  23  24
ATOM     24  O   UNL A   1      32.462  35.249  30.433  1.00  0.00    -0.458 OA
BRANCH  24  25
ATOM     25  C   UNL A   1      32.701  35.742  31.667  1.00  0.00     0.338 C 
ATOM     26  O   UNL A   1      32.103  36.633  32.244  1.00  0.00    -0.246 OA
BRANCH  25  27
ATOM     27  C   UNL A   1      33.845  35.037  32.271  1.00  0.00     0.060 A 
ATOM     28  C   UNL A   1      35.104  35.637  32.299  1.00  0.00     0.016 A 
ATOM     29  C   UNL A   1      33.684  33.721  32.702  1.00  0.00     0.016 A 
ATOM     30  C   UNL A   1      36.220  34.899  32.696  1.00  0.00     0.010 A 
ATOM     31  C   UNL A   1      34.792  33.008  33.169  1.00  0.00     0.010 A 
ATOM     32  C   UNL A   1      36.077  33.578  33.140  1.00  0.00    -0.014 A 
BRANCH  32  33
ATOM     33  C   UNL A   1      37.262  32.771  33.533  1.00  0.00     0.031 A 
ATOM     34  C   UNL A   1      37.921  33.003  34.866  1.00  0.00     0.074 A 
ATOM     35  C   UNL A   1      37.760  31.836  32.700  1.00  0.00     0.049 A 
ATOM     36  N   UNL A   1      39.064  32.551  35.317  1.00  0.00    -0.248 NA
ATOM     37  C   UNL A   1      37.200  33.864  35.816  1.00  0.00     0.031 C 
ATOM     38  C   UNL A   1      37.196  31.471  31.402  1.00  0.00     0.029 A 
ATOM     39  N   UNL A   1      38.863  31.027  32.824  1.00  0.00    -0.354 N 
ATOM     40  C   UNL A   1      39.226  33.116  36.576  1.00  0.00     0.074 A 
ATOM     41  C   UNL A   1      38.059  33.937  36.823  1.00  0.00     0.031 C 
ATOM     42  C   UNL A   1      37.945  30.502  30.854  1.00  0.00     0.029 A 
ATOM     43  C   UNL A   1      39.083  30.230  31.727  1.00  0.00     0.049 A 
ATOM     44  H   UNL A   1      39.441  31.020  33.621  1.00  0.00     0.167 HD
ATOM     45  C   UNL A   1      40.255  32.965  37.442  1.00  0.00     0.037 A 
ATOM     46  C   UNL A   1      40.107  29.407  31.435  1.00  0.00     0.037 A 
ATOM     47  C   UNL A   1      41.390  32.108  37.219  1.00  0.00     0.049 A 
ATOM     48  C   UNL A   1      41.251  29.277  32.400  1.00  0.00     0.074 A 
ATOM     49  C   UNL A   1      42.472  31.873  38.051  1.00  0.00     0.029 A 
ATOM     50  N   UNL A   1      41.581  31.334  36.087  1.00  0.00    -0.354 N 
ATOM     51  N   UNL A   1      41.419  29.853  33.565  1.00  0.00    -0.248 NA
ATOM     52  C   UNL A   1      42.359  28.397  32.000  1.00  0.00     0.031 C 
ATOM     53  C   UNL A   1      43.332  30.977  37.408  1.00  0.00     0.029 A 
ATOM     54  C   UNL A   1      42.769  30.628  36.192  1.00  0.00     0.049 A 
ATOM     55  H   UNL A   1      40.964  31.291  35.320  1.00  0.00     0.167 HD
ATOM     56  C   UNL A   1      42.642  29.402  34.041  1.00  0.00     0.074 A 
ATOM     57  C   UNL A   1      43.168  28.489  33.047  1.00  0.00     0.031 C 
ATOM     58  C   UNL A   1      43.275  29.722  35.194  1.00  0.00     0.037 A 
BRANCH  45  59
ATOM     59  C   UNL A   1      40.221  33.769  38.707  1.00  0.00     0.064 A 
ATOM     60  C   UNL A   1      39.527  33.332  39.843  1.00  0.00     0.173 A 
ATOM     61  C   UNL A   1      40.934  34.976  38.794  1.00  0.00     0.173 A 
ATOM     62  F   UNL A   1      38.820  32.193  39.805  1.00  0.00    -0.203 F 
ATOM     63  C   UNL A   1      39.532  34.083  41.017  1.00  0.00     0.198 A 
ATOM     64  C   UNL A   1      40.955  35.712  39.974  1.00  0.00     0.198 A 
ATOM     65  F   UNL A   1      41.618  35.433  37.735  1.00  0.00    -0.203 F 
ATOM     66  F   UNL A   1      38.833  33.665  42.082  1.00  0.00    -0.200 F 
ATOM     67  C   UNL A   1      40.252  35.268  41.083  1.00  0.00     0.200 A 
ATOM     68  F   UNL A   1      41.658  36.851  40.039  1.00  0.00    -0.200 F 
ATOM     69  F   UNL A   1      40.261  35.985  42.216  1.00  0.00    -0.200 F 
ENDBRANCH  45  59
BRANCH  46  70
ATOM     70  C   UNL A   1      40.113  28.670  30.146  1.00  0.00     0.064 A 
ATOM     71  C   UNL A   1      40.737  29.207  29.012  1.00  0.00     0.173 A 
ATOM     72  C   UNL A   1      39.505  27.412  30.025  1.00  0.00     0.173 A 
ATOM     73  F   UNL A   1      41.307  30.420  29.074  1.00  0.00    -0.203 F 
ATOM     74  C   UNL A   1      40.746  28.516  27.803  1.00  0.00     0.198 A 
ATOM     75  C   UNL A   1      39.537  26.711  28.822  1.00  0.00     0.198 A 
ATOM     76  F   UNL A   1      38.891  26.858  31.081  1.00  0.00    -0.203 F 
ATOM     77  F   UNL A   1      41.318  29.067  26.723  1.00  0.00    -0.200 F 
ATOM     78  C   UNL A   1      40.154  27.265  27.711  1.00  0.00     0.200 A 
ATOM     79  F   UNL A   1      38.972  25.498  28.741  1.00  0.00    -0.200 F 
ATOM     80  F   UNL A   1      40.171  26.598  26.550  1.00  0.00    -0.200 F 
ENDBRANCH  46  70
BRANCH  58  81
ATOM     81  C   UNL A   1      44.596  29.064  35.455  1.00  0.00     0.064 A 
ATOM     82  C   UNL A   1      45.800  29.662  35.057  1.00  0.00     0.173 A 
ATOM     83  C   UNL A   1      44.659  27.844  36.144  1.00  0.00     0.173 A 
ATOM     84  F   UNL A   1      45.788  30.821  34.381  1.00  0.00    -0.203 F 
ATOM     85  C   UNL A   1      47.022  29.051  35.326  1.00  0.00     0.198 A 
ATOM     86  C   UNL A   1      45.884  27.247  36.428  1.00  0.00     0.198 A 
ATOM     87  F   UNL A   1      43.533  27.237  36.547  1.00  0.00    -0.203 F 
ATOM     88  F   UNL A   1      48.160  29.622  34.907  1.00  0.00    -0.200 F 
ATOM     89  C   UNL A   1      47.063  27.849  36.016  1.00  0.00     0.200 A 
ATOM     90  F   UNL A   1      45.923  26.088  37.101  1.00  0.00    -0.200 F 
ATOM     91  F   UNL A   1      48.241  27.266  36.276  1.00  0.00    -0.200 F 
ENDBRANCH  58  81
ENDBRANCH  32  33
ENDBRANCH  25  27
ENDBRANCH  24  25
ENDBRANCH  23  24
ENDBRANCH   1  23
TORSDOF 15
ENDMDL
MODEL 2
REMARK VINA RESULT:     -11.1      3.453      9.094
REMARK SMILES O=C(NCc1nccs1)NC[C@@H]1CC[C@@H](C(=O)OCCOC(=O)c2ccc(-c3c4nc(c(-c5c(F)c(F)c(F)c(F)c5F)c5ccc([nH]5)c(-c5c(F)c(F)c(F)c(F)c5F)c5nc(c(-c6c(F)c(F)c(F)c(F)c6F)c6ccc3[nH]6)C=C5)C=C4)cc2)O1
REMARK SMILES IDX 19 1 18 2 16 3 17 4 15 5 12 6 13 7 87 8 14 9 11 10 10 11
REMARK SMILES IDX 1 12 2 13 3 14 4 17 5 18 6 19 9 20 7 21 8 22 20 23 21 24
REMARK SMILES IDX 22 25 23 26 24 27 25 28 86 29 26 30 85 31 27 32 28 33 29 34
REMARK SMILES IDX 79 35 30 36 84 37 78 38 80 39 31 40 83 41 77 42 76 43 32 45
REMARK SMILES IDX 64 46 44 47 63 48 45 49 48 50 62 51 81 52 46 53 47 54 61 56
REMARK SMILES IDX 82 57 49 58 33 59 34 60 42 61 35 62 36 63 40 64 43 65 37 66
REMARK SMILES IDX 38 67 41 68 39 69 65 70 66 71 74 72 67 73 68 74 72 75 75 76
REMARK SMILES IDX 69 77 70 78 73 79 71 80 50 81 51 82 59 83 52 84 53 85 57 86
REMARK SMILES IDX 60 87 54 88 55 89 58 90 56 91
REMARK H PARENT 3 15 10 16 80 44 48 55
REMARK Flexibility Score: inf
ROOT
ATOM      1  C   UNL A   1      33.098  29.120  24.606  1.00  0.00     0.274 C 
ENDROOT
BRANCH   1   2
ATOM      2  O   UNL A   1      32.560  28.854  23.295  1.00  0.00    -0.460 OA
BRANCH   2   3
ATOM      3  C   UNL A   1      32.705  27.569  22.859  1.00  0.00     0.335 C 
ATOM      4  O   UNL A   1      33.703  27.140  22.290  1.00  0.00    -0.249 OA
BRANCH   3   5
ATOM      5  C   UNL A   1      31.457  26.733  23.149  1.00  0.00     0.228 C 
ATOM      6  C   UNL A   1      30.118  26.477  25.064  1.00  0.00     0.138 C 
ATOM      7  C   UNL A   1      29.216  26.699  23.866  1.00  0.00     0.037 C 
ATOM      8  O   UNL A   1      31.443  26.300  24.527  1.00  0.00    -0.361 OA
ATOM      9  C   UNL A   1      30.137  27.457  22.936  1.00  0.00     0.047 C 
BRANCH   6  10
ATOM     10  C   UNL A   1      29.779  25.293  25.968  1.00  0.00     0.149 C 
BRANCH  10  11
ATOM     11  N   UNL A   1      30.532  24.090  25.665  1.00  0.00    -0.336 N 
ATOM     12  O   UNL A   1      29.844  22.989  27.535  1.00  0.00    -0.249 OA
ATOM     13  C   UNL A   1      30.493  23.018  26.493  1.00  0.00     0.315 C 
ATOM     14  N   UNL A   1      31.209  21.931  26.151  1.00  0.00    -0.332 N 
ATOM     15  H   UNL A   1      31.032  21.142  26.713  1.00  0.00     0.165 HD
ATOM     16  H   UNL A   1      31.078  24.053  24.847  1.00  0.00     0.165 HD
BRANCH  14  17
ATOM     17  C   UNL A   1      32.193  21.708  25.110  1.00  0.00     0.185 C 
BRANCH  17  18
ATOM     18  C   UNL A   1      32.320  20.246  24.761  1.00  0.00     0.112 A 
ATOM     19  N   UNL A   1      32.485  19.297  25.663  1.00  0.00    -0.248 NA
ATOM     20  S   UNL A   1      32.340  19.700  23.122  1.00  0.00    -0.126 S 
ATOM     21  C   UNL A   1      32.631  18.073  25.038  1.00  0.00     0.123 A 
ATOM     22  C   UNL A   1      32.560  18.092  23.664  1.00  0.00     0.087 A 
ENDBRANCH  17  18
ENDBRANCH  14  17
ENDBRANCH  10  11
ENDBRANCH   6  10
ENDBRANCH   3   5
ENDBRANCH   2   3
ENDBRANCH   1   2
BRANCH   1  23
ATOM     23  C   UNL A   1      32.159  30.021  25.406  1.00  0.00     0.275 C 
BRANCH  23  24
ATOM     24  O   UNL A   1      32.578  30.073  26.782  1.00  0.00    -0.458 OA
BRANCH  24  25
ATOM     25  C   UNL A   1      33.150  31.229  27.182  1.00  0.00     0.338 C 
ATOM     26  O   UNL A   1      32.686  32.354  27.113  1.00  0.00    -0.246 OA
BRANCH  25  27
ATOM     27  C   UNL A   1      34.485  30.956  27.740  1.00  0.00     0.060 A 
ATOM     28  C   UNL A   1      34.865  29.650  28.045  1.00  0.00     0.016 A 
ATOM     29  C   UNL A   1      35.316  32.026  28.073  1.00  0.00     0.016 A 
ATOM     30  C   UNL A   1      36.048  29.412  28.746  1.00  0.00     0.010 A 
ATOM     31  C   UNL A   1      36.536  31.779  28.708  1.00  0.00     0.010 A 
ATOM     32  C   UNL A   1      36.900  30.473  29.081  1.00  0.00    -0.014 A 
BRANCH  32  33
ATOM     33  C   UNL A   1      38.147  30.236  29.857  1.00  0.00     0.031 A 
ATOM     34  C   UNL A   1      39.241  29.380  29.278  1.00  0.00     0.074 A 
ATOM     35  C   UNL A   1      38.303  30.774  31.082  1.00  0.00     0.049 A 
ATOM     36  N   UNL A   1      40.311  28.896  29.857  1.00  0.00    -0.248 NA
ATOM     37  C   UNL A   1      39.111  29.017  27.859  1.00  0.00     0.031 C 
ATOM     38  C   UNL A   1      37.349  31.661  31.746  1.00  0.00     0.029 A 
ATOM     39  N   UNL A   1      39.325  30.645  31.990  1.00  0.00    -0.354 N 
ATOM     40  C   UNL A   1      40.949  28.126  28.893  1.00  0.00     0.074 A 
ATOM     41  C   UNL A   1      40.153  28.215  27.687  1.00  0.00     0.031 C 
ATOM     42  C   UNL A   1      37.834  32.008  32.947  1.00  0.00     0.029 A 
ATOM     43  C   UNL A   1      39.097  31.310  33.169  1.00  0.00     0.049 A 
ATOM     44  H   UNL A   1      40.142  30.124  31.813  1.00  0.00     0.167 HD
ATOM     45  C   UNL A   1      42.092  27.410  29.007  1.00  0.00     0.037 A 
ATOM     46  C   UNL A   1      39.800  31.324  34.317  1.00  0.00     0.037 A 
ATOM     47  C   UNL A   1      42.911  27.363  30.189  1.00  0.00     0.049 A 
ATOM     48  C   UNL A   1      41.051  30.498  34.429  1.00  0.00     0.074 A 
ATOM     49  C   UNL A   1      44.100  26.682  30.391  1.00  0.00     0.029 A 
ATOM     50  N   UNL A   1      42.633  28.038  31.367  1.00  0.00    -0.354 N 
ATOM     51  N   UNL A   1      41.620  29.735  33.528  1.00  0.00    -0.248 NA
ATOM     52  C   UNL A   1      41.747  30.520  35.723  1.00  0.00     0.031 C 
ATOM     53  C   UNL A   1      44.526  26.923  31.701  1.00  0.00     0.029 A 
ATOM     54  C   UNL A   1      43.621  27.781  32.304  1.00  0.00     0.049 A 
ATOM     55  H   UNL A   1      41.848  28.614  31.516  1.00  0.00     0.167 HD
ATOM     56  C   UNL A   1      42.741  29.194  34.141  1.00  0.00     0.074 A 
ATOM     57  C   UNL A   1      42.784  29.729  35.486  1.00  0.00     0.031 C 
ATOM     58  C   UNL A   1      43.649  28.325  33.636  1.00  0.00     0.037 A 
BRANCH  45  59
ATOM     59  C   UNL A   1      42.515  26.586  27.827  1.00  0.00     0.064 A 
ATOM     60  C   UNL A   1      41.974  25.317  27.579  1.00  0.00     0.173 A 
ATOM     61  C   UNL A   1      43.445  27.098  26.908  1.00  0.00     0.173 A 
ATOM     62  F   UNL A   1      41.093  24.780  28.436  1.00  0.00    -0.203 F 
ATOM     63  C   UNL A   1      42.362  24.581  26.461  1.00  0.00     0.198 A 
ATOM     64  C   UNL A   1      43.813  26.370  25.781  1.00  0.00     0.198 A 
ATOM     65  F   UNL A   1      43.986  28.310  27.099  1.00  0.00    -0.203 F 
ATOM     66  F   UNL A   1      41.860  23.355  26.260  1.00  0.00    -0.200 F 
ATOM     67  C   UNL A   1      43.275  25.111  25.560  1.00  0.00     0.200 A 
ATOM     68  F   UNL A   1      44.688  26.887  24.907  1.00  0.00    -0.200 F 
ATOM     69  F   UNL A   1      43.642  24.405  24.482  1.00  0.00    -0.200 F 
ENDBRANCH  45  59
BRANCH  46  70
ATOM     70  C   UNL A   1      39.310  32.120  35.471  1.00  0.00     0.064 A 
ATOM     71  C   UNL A   1      38.460  31.551  36.428  1.00  0.00     0.173 A 
ATOM     72  C   UNL A   1      39.689  33.458  35.644  1.00  0.00     0.173 A 
ATOM     73  F   UNL A   1      38.048  30.283  36.288  1.00  0.00    -0.203 F 
ATOM     74  C   UNL A   1      38.001  32.296  37.512  1.00  0.00     0.198 A 
ATOM     75  C   UNL A   1      39.251  34.193  36.742  1.00  0.00     0.198 A 
ATOM     76  F   UNL A   1      40.499  34.048  34.752  1.00  0.00    -0.203 F 
ATOM     77  F   UNL A   1      37.159  31.740  38.395  1.00  0.00    -0.200 F 
ATOM     78  C   UNL A   1      38.403  33.613  37.673  1.00  0.00     0.200 A 
ATOM     79  F   UNL A   1      39.651  35.463  36.898  1.00  0.00    -0.200 F 
ATOM     80  F   UNL A   1      37.969  34.325  38.721  1.00  0.00    -0.200 F 
ENDBRANCH  46  70
BRANCH  58  81
ATOM     81  C   UNL A   1      44.778  27.916  34.533  1.00  0.00     0.064 A 
ATOM     82  C   UNL A   1      44.693  26.771  35.338  1.00  0.00     0.173 A 
ATOM     83  C   UNL A   1      45.969  28.656  34.558  1.00  0.00     0.173 A 
ATOM     84  F   UNL A   1      43.566  26.043  35.358  1.00  0.00    -0.203 F 
ATOM     85  C   UNL A   1      45.758  26.390  36.150  1.00  0.00     0.198 A 
ATOM     86  C   UNL A   1      47.038  28.259  35.357  1.00  0.00     0.198 A 
ATOM     87  F   UNL A   1      46.097  29.757  33.803  1.00  0.00    -0.203 F 
ATOM     88  F   UNL A   1      45.644  25.311  36.937  1.00  0.00    -0.200 F 
ATOM     89  C   UNL A   1      46.930  27.130  36.154  1.00  0.00     0.200 A 
ATOM     90  F   UNL A   1      48.175  28.971  35.354  1.00  0.00    -0.200 F 
ATOM     91  F   UNL A   1      47.955  26.758  36.933  1.00  0.00    -0.200 F 
ENDBRANCH  58  81
ENDBRANCH  32  33
ENDBRANCH  25  27
ENDBRANCH  24  25
ENDBRANCH  23  24
ENDBRANCH   1  23
TORSDOF 15
ENDMDL
MODEL 3
REMARK VINA RESULT:     -11.1      3.140      8.943
REMARK SMILES O=C(NCc1nccs1)NC[C@@H]1CC[C@@H](C(=O)OCCOC(=O)c2ccc(-c3c4nc(c(-c5c(F)c(F)c(F)c(F)c5F)c5ccc([nH]5)c(-c5c(F)c(F)c(F)c(F)c5F)c5nc(c(-c6c(F)c(F)c(F)c(F)c6F)c6ccc3[nH]6)C=C5)C=C4)cc2)O1
REMARK SMILES IDX 19 1 18 2 16 3 17 4 15 5 12 6 13 7 87 8 14 9 11 10 10 11
REMARK SMILES IDX 1 12 2 13 3 14 4 17 5 18 6 19 9 20 7 21 8 22 20 23 21 24
REMARK SMILES IDX 22 25 23 26 24 27 25 28 86 29 26 30 85 31 27 32 28 33 29 34
REMARK SMILES IDX 79 35 30 36 84 37 78 38 80 39 31 40 83 41 77 42 76 43 32 45
REMARK SMILES IDX 64 46 44 47 63 48 45 49 48 50 62 51 81 52 46 53 47 54 61 56
REMARK SMILES IDX 82 57 49 58 33 59 34 60 42 61 35 62 36 63 40 64 43 65 37 66
REMARK SMILES IDX 38 67 41 68 39 69 65 70 66 71 74 72 67 73 68 74 72 75 75 76
REMARK SMILES IDX 69 77 70 78 73 79 71 80 50 81 51 82 59 83 52 84 53 85 57 86
REMARK SMILES IDX 60 87 54 88 55 89 58 90 56 91
REMARK H PARENT 3 15 10 16 80 44 48 55
REMARK Flexibility Score: inf
ROOT
ATOM      1  C   UNL A   1      33.126  29.132  24.561  1.00  0.00     0.274 C 
ENDROOT
BRANCH   1   2
ATOM      2  O   UNL A   1      32.662  28.874  23.220  1.00  0.00    -0.460 OA
BRANCH   2   3
ATOM      3  C   UNL A   1      32.756  27.574  22.816  1.00  0.00     0.335 C 
ATOM      4  O   UNL A   1      33.747  27.083  22.287  1.00  0.00    -0.249 OA
BRANCH   3   5
ATOM      5  C   UNL A   1      31.458  26.808  23.083  1.00  0.00     0.228 C 
ATOM      6  C   UNL A   1      30.132  26.539  25.005  1.00  0.00     0.138 C 
ATOM      7  C   UNL A   1      29.230  26.883  23.836  1.00  0.00     0.037 C 
ATOM      8  O   UNL A   1      31.435  26.304  24.437  1.00  0.00    -0.361 OA
ATOM      9  C   UNL A   1      30.187  27.627  22.931  1.00  0.00     0.047 C 
BRANCH   6  10
ATOM     10  C   UNL A   1      29.727  25.334  25.852  1.00  0.00     0.149 C 
BRANCH  10  11
ATOM     11  N   UNL A   1      30.432  24.113  25.508  1.00  0.00    -0.336 N 
ATOM     12  O   UNL A   1      30.095  23.149  27.543  1.00  0.00    -0.249 OA
ATOM     13  C   UNL A   1      30.553  23.103  26.405  1.00  0.00     0.315 C 
ATOM     14  N   UNL A   1      31.213  21.995  26.021  1.00  0.00    -0.332 N 
ATOM     15  H   UNL A   1      31.147  21.248  26.659  1.00  0.00     0.165 HD
ATOM     16  H   UNL A   1      30.828  24.018  24.612  1.00  0.00     0.165 HD
BRANCH  14  17
ATOM     17  C   UNL A   1      32.004  21.699  24.842  1.00  0.00     0.185 C 
BRANCH  17  18
ATOM     18  C   UNL A   1      33.481  21.684  25.146  1.00  0.00     0.112 A 
ATOM     19  N   UNL A   1      34.310  20.774  24.671  1.00  0.00    -0.248 NA
ATOM     20  S   UNL A   1      34.201  22.830  26.220  1.00  0.00    -0.126 S 
ATOM     21  C   UNL A   1      35.581  20.985  25.172  1.00  0.00     0.123 A 
ATOM     22  C   UNL A   1      35.717  22.067  26.012  1.00  0.00     0.087 A 
ENDBRANCH  17  18
ENDBRANCH  14  17
ENDBRANCH  10  11
ENDBRANCH   6  10
ENDBRANCH   3   5
ENDBRANCH   2   3
ENDBRANCH   1   2
BRANCH   1  23
ATOM     23  C   UNL A   1      32.103  29.956  25.340  1.00  0.00     0.275 C 
BRANCH  23  24
ATOM     24  O   UNL A   1      32.490  30.043  26.724  1.00  0.00    -0.458 OA
BRANCH  24  25
ATOM     25  C   UNL A   1      33.068  31.203  27.104  1.00  0.00     0.338 C 
ATOM     26  O   UNL A   1      32.610  32.328  27.020  1.00  0.00    -0.246 OA
BRANCH  25  27
ATOM     27  C   UNL A   1      34.405  30.932  27.661  1.00  0.00     0.060 A 
ATOM     28  C   UNL A   1      34.786  29.627  27.969  1.00  0.00     0.016 A 
ATOM     29  C   UNL A   1      35.235  32.003  27.990  1.00  0.00     0.016 A 
ATOM     30  C   UNL A   1      35.971  29.392  28.669  1.00  0.00     0.010 A 
ATOM     31  C   UNL A   1      36.456  31.759  28.625  1.00  0.00     0.010 A 
ATOM     32  C   UNL A   1      36.822  30.454  29.001  1.00  0.00    -0.014 A 
BRANCH  32  33
ATOM     33  C   UNL A   1      38.070  30.220  29.775  1.00  0.00     0.031 A 
ATOM     34  C   UNL A   1      39.162  29.360  29.199  1.00  0.00     0.074 A 
ATOM     35  C   UNL A   1      38.229  30.766  30.997  1.00  0.00     0.049 A 
ATOM     36  N   UNL A   1      40.232  28.878  29.779  1.00  0.00    -0.248 NA
ATOM     37  C   UNL A   1      39.029  28.989  27.782  1.00  0.00     0.031 C 
ATOM     38  C   UNL A   1      37.277  31.657  31.658  1.00  0.00     0.029 A 
ATOM     39  N   UNL A   1      39.253  30.640  31.904  1.00  0.00    -0.354 N 
ATOM     40  C   UNL A   1      40.868  28.102  28.818  1.00  0.00     0.074 A 
ATOM     41  C   UNL A   1      40.070  28.185  27.613  1.00  0.00     0.031 C 
ATOM     42  C   UNL A   1      37.765  32.011  32.856  1.00  0.00     0.029 A 
ATOM     43  C   UNL A   1      39.028  31.313  33.080  1.00  0.00     0.049 A 
ATOM     44  H   UNL A   1      40.068  30.118  31.729  1.00  0.00     0.167 HD
ATOM     45  C   UNL A   1      42.011  27.385  28.934  1.00  0.00     0.037 A 
ATOM     46  C   UNL A   1      39.733  31.332  34.226  1.00  0.00     0.037 A 
ATOM     47  C   UNL A   1      42.831  27.344  30.116  1.00  0.00     0.049 A 
ATOM     48  C   UNL A   1      40.983  30.506  34.340  1.00  0.00     0.074 A 
ATOM     49  C   UNL A   1      44.020  26.663  30.319  1.00  0.00     0.029 A 
ATOM     50  N   UNL A   1      42.556  28.026  31.290  1.00  0.00    -0.354 N 
ATOM     51  N   UNL A   1      41.549  29.737  33.443  1.00  0.00    -0.248 NA
ATOM     52  C   UNL A   1      41.681  30.535  35.633  1.00  0.00     0.031 C 
ATOM     53  C   UNL A   1      44.449  26.911  31.627  1.00  0.00     0.029 A 
ATOM     54  C   UNL A   1      43.546  27.774  32.226  1.00  0.00     0.049 A 
ATOM     55  H   UNL A   1      41.773  28.604  31.437  1.00  0.00     0.167 HD
ATOM     56  C   UNL A   1      42.671  29.198  34.057  1.00  0.00     0.074 A 
ATOM     57  C   UNL A   1      42.717  29.741  35.399  1.00  0.00     0.031 C 
ATOM     58  C   UNL A   1      43.577  28.325  33.555  1.00  0.00     0.037 A 
BRANCH  45  59
ATOM     59  C   UNL A   1      42.431  26.554  27.759  1.00  0.00     0.064 A 
ATOM     60  C   UNL A   1      41.884  25.287  27.516  1.00  0.00     0.173 A 
ATOM     61  C   UNL A   1      43.363  27.057  26.838  1.00  0.00     0.173 A 
ATOM     62  F   UNL A   1      41.000  24.757  28.375  1.00  0.00    -0.203 F 
ATOM     63  C   UNL A   1      42.269  24.544  26.402  1.00  0.00     0.198 A 
ATOM     64  C   UNL A   1      43.728  26.323  25.714  1.00  0.00     0.198 A 
ATOM     65  F   UNL A   1      43.910  28.268  27.024  1.00  0.00    -0.203 F 
ATOM     66  F   UNL A   1      41.761  23.319  26.206  1.00  0.00    -0.200 F 
ATOM     67  C   UNL A   1      43.185  25.066  25.499  1.00  0.00     0.200 A 
ATOM     68  F   UNL A   1      44.606  26.832  24.839  1.00  0.00    -0.200 F 
ATOM     69  F   UNL A   1      43.549  24.352  24.424  1.00  0.00    -0.200 F 
ENDBRANCH  45  59
BRANCH  46  70
ATOM     70  C   UNL A   1      39.246  32.136  35.376  1.00  0.00     0.064 A 
ATOM     71  C   UNL A   1      38.449  31.557  36.372  1.00  0.00     0.173 A 
ATOM     72  C   UNL A   1      39.574  33.492  35.506  1.00  0.00     0.173 A 
ATOM     73  F   UNL A   1      38.087  30.269  36.275  1.00  0.00    -0.203 F 
ATOM     74  C   UNL A   1      37.993  32.308  37.454  1.00  0.00     0.198 A 
ATOM     75  C   UNL A   1      39.140  34.235  36.600  1.00  0.00     0.198 A 
ATOM     76  F   UNL A   1      40.332  34.093  34.576  1.00  0.00    -0.203 F 
ATOM     77  F   UNL A   1      37.203  31.740  38.375  1.00  0.00    -0.200 F 
ATOM     78  C   UNL A   1      38.346  33.644  37.571  1.00  0.00     0.200 A 
ATOM     79  F   UNL A   1      39.492  35.524  36.715  1.00  0.00    -0.200 F 
ATOM     80  F   UNL A   1      37.915  34.363  38.616  1.00  0.00    -0.200 F 
ENDBRANCH  46  70
BRANCH  58  81
ATOM     81  C   UNL A   1      44.707  27.920  34.453  1.00  0.00     0.064 A 
ATOM     82  C   UNL A   1      45.889  28.670  34.522  1.00  0.00     0.173 A 
ATOM     83  C   UNL A   1      44.588  26.794  35.281  1.00  0.00     0.173 A 
ATOM     84  F   UNL A   1      46.053  29.745  33.736  1.00  0.00    -0.203 F 
ATOM     85  C   UNL A   1      46.922  28.296  35.377  1.00  0.00     0.198 A 
ATOM     86  C   UNL A   1      45.615  26.436  36.149  1.00  0.00     0.198 A 
ATOM     87  F   UNL A   1      43.474  26.048  35.252  1.00  0.00    -0.203 F 
ATOM     88  F   UNL A   1      48.058  29.006  35.403  1.00  0.00    -0.200 F 
ATOM     89  C   UNL A   1      46.781  27.184  36.194  1.00  0.00     0.200 A 
ATOM     90  F   UNL A   1      45.476  25.364  36.944  1.00  0.00    -0.200 F 
ATOM     91  F   UNL A   1      47.776  26.828  37.019  1.00  0.00    -0.200 F 
ENDBRANCH  58  81
ENDBRANCH  32  33
ENDBRANCH  25  27
ENDBRANCH  24  25
ENDBRANCH  23  24
ENDBRANCH   1  23
TORSDOF 15
ENDMDL
