MODEL 1
REMARK VINA RESULT:     -11.3      0.000      0.000
REMARK SMILES C#CC[NH2+]CC(=O)Nc1ccc(F)cc1C(=O)OCCOC(=O)c1ccc(-c2c3nc(c(-c4c(F)c(F)c(F)c(F)c4F)c4ccc([nH]4)c(-c4c(F)c(F)c(F)c(F)c4F)c4nc(c(-c5c(F)c(F)c(F)c(F)c5F)c5ccc2[nH]5)C=C4)C=C3)cc1
REMARK SMILES IDX 18 1 16 2 17 3 15 4 9 5 10 6 11 7 14 8 12 9 13 10 8 11 6 12
REMARK SMILES IDX 7 13 5 15 4 16 3 19 2 20 1 21 19 22 20 23 21 24 22 25 23 26
REMARK SMILES IDX 24 27 25 28 86 29 26 30 85 31 27 32 28 33 29 34 79 35 30 36
REMARK SMILES IDX 84 37 78 38 80 39 31 40 83 41 77 42 76 43 32 45 64 46 44 47
REMARK SMILES IDX 63 48 45 49 48 50 62 51 81 52 46 53 47 54 61 56 82 57 49 58
REMARK SMILES IDX 33 59 34 60 42 61 35 62 36 63 40 64 43 65 37 66 38 67 41 68
REMARK SMILES IDX 39 69 65 70 66 71 74 72 67 73 68 74 72 75 75 76 69 77 70 78
REMARK SMILES IDX 73 79 71 80 50 81 51 82 59 83 52 84 53 85 57 86 60 87 54 88
REMARK SMILES IDX 55 89 58 90 56 91
REMARK H PARENT 8 14 4 17 4 18 80 44 48 55
REMARK Flexibility Score: inf
ROOT
ATOM      1  O   UNL A   1      32.282  28.181  25.392  1.00  0.00    -0.458 OA
ENDROOT
BRANCH   1   2
ATOM      2  C   UNL A   1      31.692  27.109  25.953  1.00  0.00     0.340 C 
ATOM      3  O   UNL A   1      31.052  27.081  26.996  1.00  0.00    -0.246 OA
BRANCH   2   4
ATOM      4  C   UNL A   1      32.005  25.865  25.232  1.00  0.00     0.086 A 
ATOM      5  C   UNL A   1      30.830  25.170  24.975  1.00  0.00     0.056 A 
ATOM      6  C   UNL A   1      30.481  24.893  23.642  1.00  0.00     0.030 A 
ATOM      7  C   UNL A   1      31.442  25.070  22.632  1.00  0.00     0.041 A 
ATOM      8  C   UNL A   1      33.000  25.940  24.254  1.00  0.00     0.057 A 
ATOM      9  C   UNL A   1      32.713  25.533  22.959  1.00  0.00     0.124 A 
ATOM     10  F   UNL A   1      33.662  25.608  22.018  1.00  0.00    -0.207 F 
BRANCH   5  11
ATOM     11  N   UNL A   1      30.153  24.516  26.031  1.00  0.00    -0.320 N 
ATOM     12  C   UNL A   1      30.375  23.250  26.561  1.00  0.00     0.279 C 
ATOM     13  O   UNL A   1      29.734  22.947  27.574  1.00  0.00    -0.268 OA
ATOM     14  H   UNL A   1      29.422  25.028  26.448  1.00  0.00     0.170 HD
BRANCH  12  15
ATOM     15  C   UNL A   1      31.274  22.163  25.872  1.00  0.00     0.363 C 
BRANCH  15  16
ATOM     16  N   UNL A   1      32.754  22.477  25.918  1.00  0.00    -0.328 N 
ATOM     17  H   UNL A   1      32.900  23.484  25.990  1.00  0.00     0.347 HD
ATOM     18  H   UNL A   1      33.202  22.047  26.728  1.00  0.00     0.347 HD
BRANCH  16  19
ATOM     19  C   UNL A   1      33.306  21.977  24.683  1.00  0.00     0.352 C 
BRANCH  19  20
ATOM     20  C   UNL A   1      34.535  22.517  23.969  1.00  0.00    -0.047 C 
ATOM     21  C   UNL A   1      35.589  22.980  23.357  1.00  0.00     0.010 C 
ENDBRANCH  19  20
ENDBRANCH  16  19
ENDBRANCH  15  16
ENDBRANCH  12  15
ENDBRANCH   5  11
ENDBRANCH   2   4
ENDBRANCH   1   2
BRANCH   1  22
ATOM     22  C   UNL A   1      31.339  29.202  25.025  1.00  0.00     0.275 C 
BRANCH  22  23
ATOM     23  C   UNL A   1      31.693  30.533  25.691  1.00  0.00     0.275 C 
BRANCH  23  24
ATOM     24  O   UNL A   1      32.642  30.371  26.770  1.00  0.00    -0.458 OA
BRANCH  24  25
ATOM     25  C   UNL A   1      33.228  31.517  27.192  1.00  0.00     0.338 C 
ATOM     26  O   UNL A   1      32.734  32.630  27.237  1.00  0.00    -0.246 OA
BRANCH  25  27
ATOM     27  C   UNL A   1      34.577  31.259  27.722  1.00  0.00     0.060 A 
ATOM     28  C   UNL A   1      34.873  29.986  28.194  1.00  0.00     0.016 A 
ATOM     29  C   UNL A   1      35.455  32.306  27.973  1.00  0.00     0.016 A 
ATOM     30  C   UNL A   1      35.956  29.771  29.030  1.00  0.00     0.010 A 
ATOM     31  C   UNL A   1      36.647  32.049  28.664  1.00  0.00     0.010 A 
ATOM     32  C   UNL A   1      36.904  30.777  29.210  1.00  0.00    -0.014 A 
BRANCH  32  33
ATOM     33  C   UNL A   1      38.182  30.464  29.902  1.00  0.00     0.031 A 
ATOM     34  C   UNL A   1      39.207  29.587  29.243  1.00  0.00     0.074 A 
ATOM     35  C   UNL A   1      38.410  30.964  31.135  1.00  0.00     0.049 A 
ATOM     36  N   UNL A   1      40.235  28.982  29.778  1.00  0.00    -0.248 NA
ATOM     37  C   UNL A   1      39.056  29.350  27.797  1.00  0.00     0.031 C 
ATOM     38  C   UNL A   1      37.533  31.895  31.854  1.00  0.00     0.029 A 
ATOM     39  N   UNL A   1      39.447  30.760  32.013  1.00  0.00    -0.354 N 
ATOM     40  C   UNL A   1      40.821  28.252  28.752  1.00  0.00     0.074 A 
ATOM     41  C   UNL A   1      40.040  28.492  27.558  1.00  0.00     0.031 C 
ATOM     42  C   UNL A   1      38.085  32.213  33.032  1.00  0.00     0.029 A 
ATOM     43  C   UNL A   1      39.277  31.403  33.218  1.00  0.00     0.049 A 
ATOM     44  H   UNL A   1      40.234  30.209  31.801  1.00  0.00     0.167 HD
ATOM     45  C   UNL A   1      41.911  27.454  28.820  1.00  0.00     0.037 A 
ATOM     46  C   UNL A   1      39.954  31.297  34.377  1.00  0.00     0.037 A 
ATOM     47  C   UNL A   1      42.701  27.274  30.011  1.00  0.00     0.049 A 
ATOM     48  C   UNL A   1      41.091  30.321  34.451  1.00  0.00     0.074 A 
ATOM     49  C   UNL A   1      43.829  26.493  30.184  1.00  0.00     0.029 A 
ATOM     50  N   UNL A   1      42.452  27.897  31.226  1.00  0.00    -0.354 N 
ATOM     51  N   UNL A   1      41.601  29.579  33.499  1.00  0.00    -0.248 NA
ATOM     52  C   UNL A   1      41.724  30.137  35.764  1.00  0.00     0.031 C 
ATOM     53  C   UNL A   1      44.237  26.605  31.514  1.00  0.00     0.029 A 
ATOM     54  C   UNL A   1      43.392  27.494  32.159  1.00  0.00     0.049 A 
ATOM     55  H   UNL A   1      41.718  28.530  31.397  1.00  0.00     0.167 HD
ATOM     56  C   UNL A   1      42.620  28.851  34.091  1.00  0.00     0.074 A 
ATOM     57  C   UNL A   1      42.671  29.253  35.480  1.00  0.00     0.031 C 
ATOM     58  C   UNL A   1      43.433  27.924  33.533  1.00  0.00     0.037 A 
BRANCH  45  59
ATOM     59  C   UNL A   1      42.324  26.690  27.598  1.00  0.00     0.064 A 
ATOM     60  C   UNL A   1      41.811  25.403  27.369  1.00  0.00     0.173 A 
ATOM     61  C   UNL A   1      43.320  27.164  26.734  1.00  0.00     0.173 A 
ATOM     62  F   UNL A   1      40.861  24.901  28.172  1.00  0.00    -0.203 F 
ATOM     63  C   UNL A   1      42.305  24.607  26.339  1.00  0.00     0.198 A 
ATOM     64  C   UNL A   1      43.794  26.373  25.690  1.00  0.00     0.198 A 
ATOM     65  F   UNL A   1      43.835  28.390  26.906  1.00  0.00    -0.203 F 
ATOM     66  F   UNL A   1      41.836  23.362  26.172  1.00  0.00    -0.200 F 
ATOM     67  C   UNL A   1      43.298  25.091  25.503  1.00  0.00     0.200 A 
ATOM     68  F   UNL A   1      44.744  26.847  24.871  1.00  0.00    -0.200 F 
ATOM     69  F   UNL A   1      43.783  24.319  24.520  1.00  0.00    -0.200 F 
ENDBRANCH  45  59
BRANCH  46  70
ATOM     70  C   UNL A   1      39.520  32.075  35.569  1.00  0.00     0.064 A 
ATOM     71  C   UNL A   1      40.072  33.332  35.868  1.00  0.00     0.173 A 
ATOM     72  C   UNL A   1      38.553  31.566  36.445  1.00  0.00     0.173 A 
ATOM     73  F   UNL A   1      41.001  33.869  35.064  1.00  0.00    -0.203 F 
ATOM     74  C   UNL A   1      39.695  34.033  37.011  1.00  0.00     0.198 A 
ATOM     75  C   UNL A   1      38.148  32.286  37.568  1.00  0.00     0.198 A 
ATOM     76  F   UNL A   1      37.977  30.381  36.191  1.00  0.00    -0.203 F 
ATOM     77  F   UNL A   1      40.273  35.208  37.296  1.00  0.00    -0.200 F 
ATOM     78  C   UNL A   1      38.727  33.513  37.856  1.00  0.00     0.200 A 
ATOM     79  F   UNL A   1      37.190  31.795  38.366  1.00  0.00    -0.200 F 
ATOM     80  F   UNL A   1      38.348  34.197  38.945  1.00  0.00    -0.200 F 
ENDBRANCH  46  70
BRANCH  58  81
ATOM     81  C   UNL A   1      44.468  27.293  34.410  1.00  0.00     0.064 A 
ATOM     82  C   UNL A   1      44.180  26.114  35.114  1.00  0.00     0.173 A 
ATOM     83  C   UNL A   1      45.703  27.915  34.638  1.00  0.00     0.173 A 
ATOM     84  F   UNL A   1      43.007  25.488  34.931  1.00  0.00    -0.203 F 
ATOM     85  C   UNL A   1      45.079  25.599  36.041  1.00  0.00     0.198 A 
ATOM     86  C   UNL A   1      46.612  27.382  35.546  1.00  0.00     0.198 A 
ATOM     87  F   UNL A   1      46.027  29.035  33.974  1.00  0.00    -0.203 F 
ATOM     88  F   UNL A   1      44.763  24.499  36.739  1.00  0.00    -0.200 F 
ATOM     89  C   UNL A   1      46.293  26.233  36.256  1.00  0.00     0.200 A 
ATOM     90  F   UNL A   1      47.794  27.982  35.738  1.00  0.00    -0.200 F 
ATOM     91  F   UNL A   1      47.158  25.737  37.153  1.00  0.00    -0.200 F 
ENDBRANCH  58  81
ENDBRANCH  32  33
ENDBRANCH  25  27
ENDBRANCH  24  25
ENDBRANCH  23  24
ENDBRANCH  22  23
ENDBRANCH   1  22
TORSDOF 16
ENDMDL
MODEL 2
REMARK VINA RESULT:     -11.2      0.498      1.703
REMARK SMILES C#CC[NH2+]CC(=O)Nc1ccc(F)cc1C(=O)OCCOC(=O)c1ccc(-c2c3nc(c(-c4c(F)c(F)c(F)c(F)c4F)c4ccc([nH]4)c(-c4c(F)c(F)c(F)c(F)c4F)c4nc(c(-c5c(F)c(F)c(F)c(F)c5F)c5ccc2[nH]5)C=C4)C=C3)cc1
REMARK SMILES IDX 18 1 16 2 17 3 15 4 9 5 10 6 11 7 14 8 12 9 13 10 8 11 6 12
REMARK SMILES IDX 7 13 5 15 4 16 3 19 2 20 1 21 19 22 20 23 21 24 22 25 23 26
REMARK SMILES IDX 24 27 25 28 86 29 26 30 85 31 27 32 28 33 29 34 79 35 30 36
REMARK SMILES IDX 84 37 78 38 80 39 31 40 83 41 77 42 76 43 32 45 64 46 44 47
REMARK SMILES IDX 63 48 45 49 48 50 62 51 81 52 46 53 47 54 61 56 82 57 49 58
REMARK SMILES IDX 33 59 34 60 42 61 35 62 36 63 40 64 43 65 37 66 38 67 41 68
REMARK SMILES IDX 39 69 65 70 66 71 74 72 67 73 68 74 72 75 75 76 69 77 70 78
REMARK SMILES IDX 73 79 71 80 50 81 51 82 59 83 52 84 53 85 57 86 60 87 54 88
REMARK SMILES IDX 55 89 58 90 56 91
REMARK H PARENT 8 14 4 17 4 18 80 44 48 55
REMARK Flexibility Score: inf
ROOT
ATOM      1  O   UNL A   1      32.272  28.146  25.403  1.00  0.00    -0.458 OA
ENDROOT
BRANCH   1   2
ATOM      2  C   UNL A   1      31.692  27.090  26.003  1.00  0.00     0.340 C 
ATOM      3  O   UNL A   1      31.030  27.098  27.033  1.00  0.00    -0.246 OA
BRANCH   2   4
ATOM      4  C   UNL A   1      32.047  25.820  25.351  1.00  0.00     0.086 A 
ATOM      5  C   UNL A   1      30.888  25.144  24.990  1.00  0.00     0.056 A 
ATOM      6  C   UNL A   1      30.674  24.839  23.634  1.00  0.00     0.030 A 
ATOM      7  C   UNL A   1      31.739  24.966  22.727  1.00  0.00     0.041 A 
ATOM      8  C   UNL A   1      33.141  25.845  24.481  1.00  0.00     0.057 A 
ATOM      9  C   UNL A   1      32.981  25.409  23.174  1.00  0.00     0.124 A 
ATOM     10  F   UNL A   1      34.024  25.437  22.337  1.00  0.00    -0.207 F 
BRANCH   5  11
ATOM     11  N   UNL A   1      30.088  24.536  25.984  1.00  0.00    -0.320 N 
ATOM     12  C   UNL A   1      30.328  23.373  26.709  1.00  0.00     0.279 C 
ATOM     13  O   UNL A   1      29.536  23.110  27.623  1.00  0.00    -0.268 OA
ATOM     14  H   UNL A   1      29.244  24.998  26.192  1.00  0.00     0.170 HD
BRANCH  12  15
ATOM     15  C   UNL A   1      31.447  22.334  26.344  1.00  0.00     0.363 C 
BRANCH  15  16
ATOM     16  N   UNL A   1      32.523  22.200  27.399  1.00  0.00    -0.328 N 
ATOM     17  H   UNL A   1      32.266  22.724  28.236  1.00  0.00     0.347 HD
ATOM     18  H   UNL A   1      32.653  21.228  27.678  1.00  0.00     0.347 HD
BRANCH  16  19
ATOM     19  C   UNL A   1      33.723  22.746  26.815  1.00  0.00     0.352 C 
BRANCH  19  20
ATOM     20  C   UNL A   1      34.234  22.482  25.408  1.00  0.00    -0.047 C 
ATOM     21  C   UNL A   1      34.672  22.255  24.201  1.00  0.00     0.010 C 
ENDBRANCH  19  20
ENDBRANCH  16  19
ENDBRANCH  15  16
ENDBRANCH  12  15
ENDBRANCH   5  11
ENDBRANCH   2   4
ENDBRANCH   1   2
BRANCH   1  22
ATOM     22  C   UNL A   1      31.366  29.249  25.228  1.00  0.00     0.275 C 
BRANCH  22  23
ATOM     23  C   UNL A   1      31.793  30.443  26.084  1.00  0.00     0.275 C 
BRANCH  23  24
ATOM     24  O   UNL A   1      33.172  30.352  26.504  1.00  0.00    -0.458 OA
BRANCH  24  25
ATOM     25  C   UNL A   1      33.636  31.428  27.183  1.00  0.00     0.338 C 
ATOM     26  O   UNL A   1      33.055  32.479  27.393  1.00  0.00    -0.246 OA
BRANCH  25  27
ATOM     27  C   UNL A   1      34.958  31.157  27.769  1.00  0.00     0.060 A 
ATOM     28  C   UNL A   1      35.194  29.907  28.327  1.00  0.00     0.016 A 
ATOM     29  C   UNL A   1      35.866  32.188  27.985  1.00  0.00     0.016 A 
ATOM     30  C   UNL A   1      36.244  29.707  29.209  1.00  0.00     0.010 A 
ATOM     31  C   UNL A   1      37.027  31.933  28.727  1.00  0.00     0.010 A 
ATOM     32  C   UNL A   1      37.222  30.689  29.357  1.00  0.00    -0.014 A 
BRANCH  32  33
ATOM     33  C   UNL A   1      38.467  30.376  30.106  1.00  0.00     0.031 A 
ATOM     34  C   UNL A   1      39.509  29.478  29.505  1.00  0.00     0.074 A 
ATOM     35  C   UNL A   1      38.649  30.894  31.340  1.00  0.00     0.049 A 
ATOM     36  N   UNL A   1      40.508  28.872  30.092  1.00  0.00    -0.248 NA
ATOM     37  C   UNL A   1      39.416  29.217  28.058  1.00  0.00     0.031 C 
ATOM     38  C   UNL A   1      37.753  31.846  32.006  1.00  0.00     0.029 A 
ATOM     39  N   UNL A   1      39.647  30.696  32.263  1.00  0.00    -0.354 N 
ATOM     40  C   UNL A   1      41.128  28.120  29.103  1.00  0.00     0.074 A 
ATOM     41  C   UNL A   1      40.400  28.346  27.874  1.00  0.00     0.031 C 
ATOM     42  C   UNL A   1      38.259  32.179  33.199  1.00  0.00     0.029 A 
ATOM     43  C   UNL A   1      39.434  31.360  33.448  1.00  0.00     0.049 A 
ATOM     44  H   UNL A   1      40.436  30.133  32.093  1.00  0.00     0.167 HD
ATOM     45  C   UNL A   1      42.206  27.312  29.230  1.00  0.00     0.037 A 
ATOM     46  C   UNL A   1      40.061  31.268  34.636  1.00  0.00     0.037 A 
ATOM     47  C   UNL A   1      42.945  27.145  30.455  1.00  0.00     0.049 A 
ATOM     48  C   UNL A   1      41.184  30.283  34.774  1.00  0.00     0.074 A 
ATOM     49  C   UNL A   1      44.057  26.357  30.688  1.00  0.00     0.029 A 
ATOM     50  N   UNL A   1      42.653  27.791  31.648  1.00  0.00    -0.354 N 
ATOM     51  N   UNL A   1      41.725  29.519  33.856  1.00  0.00    -0.248 NA
ATOM     52  C   UNL A   1      41.761  30.115  36.114  1.00  0.00     0.031 C 
ATOM     53  C   UNL A   1      44.410  26.487  32.032  1.00  0.00     0.029 A 
ATOM     54  C   UNL A   1      43.549  27.395  32.627  1.00  0.00     0.049 A 
ATOM     55  H   UNL A   1      41.918  28.434  31.779  1.00  0.00     0.167 HD
ATOM     56  C   UNL A   1      42.711  28.792  34.501  1.00  0.00     0.074 A 
ATOM     57  C   UNL A   1      42.709  29.218  35.885  1.00  0.00     0.031 C 
ATOM     58  C   UNL A   1      43.538  27.848  33.993  1.00  0.00     0.037 A 
BRANCH  45  59
ATOM     59  C   UNL A   1      42.662  26.523  28.039  1.00  0.00     0.064 A 
ATOM     60  C   UNL A   1      43.540  27.103  27.108  1.00  0.00     0.173 A 
ATOM     61  C   UNL A   1      42.132  25.261  27.745  1.00  0.00     0.173 A 
ATOM     62  F   UNL A   1      44.068  28.314  27.340  1.00  0.00    -0.203 F 
ATOM     63  C   UNL A   1      43.843  26.460  25.911  1.00  0.00     0.198 A 
ATOM     64  C   UNL A   1      42.457  24.610  26.557  1.00  0.00     0.198 A 
ATOM     65  F   UNL A   1      41.297  24.661  28.606  1.00  0.00    -0.203 F 
ATOM     66  F   UNL A   1      44.642  27.056  25.015  1.00  0.00    -0.200 F 
ATOM     67  C   UNL A   1      43.298  25.215  25.636  1.00  0.00     0.200 A 
ATOM     68  F   UNL A   1      41.942  23.399  26.296  1.00  0.00    -0.200 F 
ATOM     69  F   UNL A   1      43.580  24.602  24.477  1.00  0.00    -0.200 F 
ENDBRANCH  45  59
BRANCH  46  70
ATOM     70  C   UNL A   1      39.587  32.070  35.796  1.00  0.00     0.064 A 
ATOM     71  C   UNL A   1      40.154  33.317  36.111  1.00  0.00     0.173 A 
ATOM     72  C   UNL A   1      38.563  31.596  36.625  1.00  0.00     0.173 A 
ATOM     73  F   UNL A   1      41.137  33.821  35.350  1.00  0.00    -0.203 F 
ATOM     74  C   UNL A   1      39.737  34.040  37.226  1.00  0.00     0.198 A 
ATOM     75  C   UNL A   1      38.119  32.339  37.718  1.00  0.00     0.198 A 
ATOM     76  F   UNL A   1      37.970  30.424  36.354  1.00  0.00    -0.203 F 
ATOM     77  F   UNL A   1      40.329  35.204  37.527  1.00  0.00    -0.200 F 
ATOM     78  C   UNL A   1      38.714  33.554  38.024  1.00  0.00     0.200 A 
ATOM     79  F   UNL A   1      37.109  31.881  38.471  1.00  0.00    -0.200 F 
ATOM     80  F   UNL A   1      38.297  34.260  39.084  1.00  0.00    -0.200 F 
ENDBRANCH  46  70
BRANCH  58  81
ATOM     81  C   UNL A   1      44.529  27.223  34.923  1.00  0.00     0.064 A 
ATOM     82  C   UNL A   1      45.811  27.774  35.070  1.00  0.00     0.173 A 
ATOM     83  C   UNL A   1      44.247  26.019  35.583  1.00  0.00     0.173 A 
ATOM     84  F   UNL A   1      46.127  28.922  34.452  1.00  0.00    -0.203 F 
ATOM     85  C   UNL A   1      46.786  27.123  35.818  1.00  0.00     0.198 A 
ATOM     86  C   UNL A   1      45.216  25.385  36.353  1.00  0.00     0.198 A 
ATOM     87  F   UNL A   1      43.028  25.466  35.485  1.00  0.00    -0.203 F 
ATOM     88  F   UNL A   1      48.019  27.641  35.904  1.00  0.00    -0.200 F 
ATOM     89  C   UNL A   1      46.488  25.930  36.457  1.00  0.00     0.200 A 
ATOM     90  F   UNL A   1      44.922  24.244  36.990  1.00  0.00    -0.200 F 
ATOM     91  F   UNL A   1      47.430  25.302  37.175  1.00  0.00    -0.200 F 
ENDBRANCH  58  81
ENDBRANCH  32  33
ENDBRANCH  25  27
ENDBRANCH  24  25
ENDBRANCH  23  24
ENDBRANCH  22  23
ENDBRANCH   1  22
TORSDOF 16
ENDMDL
MODEL 3
REMARK VINA RESULT:     -11.1      1.325      1.879
REMARK SMILES C#CC[NH2+]CC(=O)Nc1ccc(F)cc1C(=O)OCCOC(=O)c1ccc(-c2c3nc(c(-c4c(F)c(F)c(F)c(F)c4F)c4ccc([nH]4)c(-c4c(F)c(F)c(F)c(F)c4F)c4nc(c(-c5c(F)c(F)c(F)c(F)c5F)c5ccc2[nH]5)C=C4)C=C3)cc1
REMARK SMILES IDX 18 1 16 2 17 3 15 4 9 5 10 6 11 7 14 8 12 9 13 10 8 11 6 12
REMARK SMILES IDX 7 13 5 15 4 16 3 19 2 20 1 21 19 22 20 23 21 24 22 25 23 26
REMARK SMILES IDX 24 27 25 28 86 29 26 30 85 31 27 32 28 33 29 34 79 35 30 36
REMARK SMILES IDX 84 37 78 38 80 39 31 40 83 41 77 42 76 43 32 45 64 46 44 47
REMARK SMILES IDX 63 48 45 49 48 50 62 51 81 52 46 53 47 54 61 56 82 57 49 58
REMARK SMILES IDX 33 59 34 60 42 61 35 62 36 63 40 64 43 65 37 66 38 67 41 68
REMARK SMILES IDX 39 69 65 70 66 71 74 72 67 73 68 74 72 75 75 76 69 77 70 78
REMARK SMILES IDX 73 79 71 80 50 81 51 82 59 83 52 84 53 85 57 86 60 87 54 88
REMARK SMILES IDX 55 89 58 90 56 91
REMARK H PARENT 8 14 4 17 4 18 80 44 48 55
REMARK Flexibility Score: inf
ROOT
ATOM      1  O   UNL A   1      32.523  27.268  25.426  1.00  0.00    -0.458 OA
ENDROOT
BRANCH   1   2
ATOM      2  C   UNL A   1      31.695  26.287  25.830  1.00  0.00     0.340 C 
ATOM      3  O   UNL A   1      30.663  26.412  26.477  1.00  0.00    -0.246 OA
BRANCH   2   4
ATOM      4  C   UNL A   1      32.229  24.951  25.523  1.00  0.00     0.086 A 
ATOM      5  C   UNL A   1      33.448  25.078  24.870  1.00  0.00     0.056 A 
ATOM      6  C   UNL A   1      34.593  24.507  25.452  1.00  0.00     0.030 A 
ATOM      7  C   UNL A   1      34.442  23.598  26.512  1.00  0.00     0.041 A 
ATOM      8  C   UNL A   1      32.059  23.967  26.501  1.00  0.00     0.057 A 
ATOM      9  C   UNL A   1      33.169  23.290  26.984  1.00  0.00     0.124 A 
ATOM     10  F   UNL A   1      33.011  22.351  27.924  1.00  0.00    -0.207 F 
BRANCH   5  11
ATOM     11  N   UNL A   1      33.486  25.522  23.528  1.00  0.00    -0.320 N 
ATOM     12  C   UNL A   1      33.457  24.771  22.358  1.00  0.00     0.279 C 
ATOM     13  O   UNL A   1      33.370  25.396  21.294  1.00  0.00    -0.268 OA
ATOM     14  H   UNL A   1      33.543  26.497  23.404  1.00  0.00     0.170 HD
BRANCH  12  15
ATOM     15  C   UNL A   1      33.661  23.214  22.316  1.00  0.00     0.363 C 
BRANCH  15  16
ATOM     16  N   UNL A   1      32.399  22.441  22.001  1.00  0.00    -0.328 N 
ATOM     17  H   UNL A   1      31.649  23.080  21.736  1.00  0.00     0.347 HD
ATOM     18  H   UNL A   1      32.539  21.799  21.222  1.00  0.00     0.347 HD
BRANCH  16  19
ATOM     19  C   UNL A   1      32.052  21.736  23.211  1.00  0.00     0.352 C 
BRANCH  19  20
ATOM     20  C   UNL A   1      33.004  20.932  24.082  1.00  0.00    -0.047 C 
ATOM     21  C   UNL A   1      33.820  20.242  24.829  1.00  0.00     0.010 C 
ENDBRANCH  19  20
ENDBRANCH  16  19
ENDBRANCH  15  16
ENDBRANCH  12  15
ENDBRANCH   5  11
ENDBRANCH   2   4
ENDBRANCH   1   2
BRANCH   1  22
ATOM     22  C   UNL A   1      31.823  28.480  25.094  1.00  0.00     0.275 C 
BRANCH  22  23
ATOM     23  C   UNL A   1      31.985  29.521  26.203  1.00  0.00     0.275 C 
BRANCH  23  24
ATOM     24  O   UNL A   1      33.101  30.408  25.965  1.00  0.00    -0.458 OA
BRANCH  24  25
ATOM     25  C   UNL A   1      33.377  31.265  26.977  1.00  0.00     0.338 C 
ATOM     26  O   UNL A   1      32.629  32.089  27.474  1.00  0.00    -0.246 OA
BRANCH  25  27
ATOM     27  C   UNL A   1      34.722  31.027  27.524  1.00  0.00     0.060 A 
ATOM     28  C   UNL A   1      35.024  29.763  28.018  1.00  0.00     0.016 A 
ATOM     29  C   UNL A   1      35.588  32.086  27.771  1.00  0.00     0.016 A 
ATOM     30  C   UNL A   1      36.099  29.570  28.869  1.00  0.00     0.010 A 
ATOM     31  C   UNL A   1      36.774  31.848  28.478  1.00  0.00     0.010 A 
ATOM     32  C   UNL A   1      37.036  30.587  29.045  1.00  0.00    -0.014 A 
BRANCH  32  33
ATOM     33  C   UNL A   1      38.309  30.294  29.755  1.00  0.00     0.031 A 
ATOM     34  C   UNL A   1      39.354  29.428  29.115  1.00  0.00     0.074 A 
ATOM     35  C   UNL A   1      38.515  30.804  30.988  1.00  0.00     0.049 A 
ATOM     36  N   UNL A   1      40.383  28.839  29.666  1.00  0.00    -0.248 NA
ATOM     37  C   UNL A   1      39.225  29.181  27.668  1.00  0.00     0.031 C 
ATOM     38  C   UNL A   1      37.616  31.728  31.691  1.00  0.00     0.029 A 
ATOM     39  N   UNL A   1      39.542  30.619  31.881  1.00  0.00    -0.354 N 
ATOM     40  C   UNL A   1      40.992  28.112  28.652  1.00  0.00     0.074 A 
ATOM     41  C   UNL A   1      40.223  28.334  27.447  1.00  0.00     0.031 C 
ATOM     42  C   UNL A   1      38.148  32.059  32.873  1.00  0.00     0.029 A 
ATOM     43  C   UNL A   1      39.349  31.266  33.079  1.00  0.00     0.049 A 
ATOM     44  H   UNL A   1      40.339  30.077  31.682  1.00  0.00     0.167 HD
ATOM     45  C   UNL A   1      42.092  27.329  28.739  1.00  0.00     0.037 A 
ATOM     46  C   UNL A   1      40.011  31.176  34.248  1.00  0.00     0.037 A 
ATOM     47  C   UNL A   1      42.868  27.166  29.940  1.00  0.00     0.049 A 
ATOM     48  C   UNL A   1      41.160  30.215  34.342  1.00  0.00     0.074 A 
ATOM     49  C   UNL A   1      44.004  26.401  30.133  1.00  0.00     0.029 A 
ATOM     50  N   UNL A   1      42.596  27.793  31.149  1.00  0.00    -0.354 N 
ATOM     51  N   UNL A   1      41.692  29.475  33.401  1.00  0.00    -0.248 NA
ATOM     52  C   UNL A   1      41.779  30.047  35.664  1.00  0.00     0.031 C 
ATOM     53  C   UNL A   1      44.393  26.526  31.468  1.00  0.00     0.029 A 
ATOM     54  C   UNL A   1      43.528  27.407  32.096  1.00  0.00     0.049 A 
ATOM     55  H   UNL A   1      41.851  28.417  31.307  1.00  0.00     0.167 HD
ATOM     56  C   UNL A   1      42.713  28.764  34.010  1.00  0.00     0.074 A 
ATOM     57  C   UNL A   1      42.741  29.175  35.398  1.00  0.00     0.031 C 
ATOM     58  C   UNL A   1      43.546  27.845  33.468  1.00  0.00     0.037 A 
BRANCH  45  59
ATOM     59  C   UNL A   1      42.531  26.564  27.526  1.00  0.00     0.064 A 
ATOM     60  C   UNL A   1      42.012  25.282  27.280  1.00  0.00     0.173 A 
ATOM     61  C   UNL A   1      43.554  27.030  26.691  1.00  0.00     0.173 A 
ATOM     62  F   UNL A   1      41.037  24.787  28.057  1.00  0.00    -0.203 F 
ATOM     63  C   UNL A   1      42.527  24.483  26.263  1.00  0.00     0.198 A 
ATOM     64  C   UNL A   1      44.049  26.238  25.658  1.00  0.00     0.198 A 
ATOM     65  F   UNL A   1      44.075  28.251  26.879  1.00  0.00    -0.203 F 
ATOM     66  F   UNL A   1      42.051  23.243  26.080  1.00  0.00    -0.200 F 
ATOM     67  C   UNL A   1      43.547  24.961  25.455  1.00  0.00     0.200 A 
ATOM     68  F   UNL A   1      45.026  26.704  24.867  1.00  0.00    -0.200 F 
ATOM     69  F   UNL A   1      44.051  24.186  24.483  1.00  0.00    -0.200 F 
ENDBRANCH  45  59
BRANCH  46  70
ATOM     70  C   UNL A   1      39.552  31.955  35.429  1.00  0.00     0.064 A 
ATOM     71  C   UNL A   1      40.091  33.216  35.736  1.00  0.00     0.173 A 
ATOM     72  C   UNL A   1      38.572  31.443  36.289  1.00  0.00     0.173 A 
ATOM     73  F   UNL A   1      41.032  33.755  34.947  1.00  0.00    -0.203 F 
ATOM     74  C   UNL A   1      39.690  33.918  36.870  1.00  0.00     0.198 A 
ATOM     75  C   UNL A   1      38.142  32.163  37.402  1.00  0.00     0.198 A 
ATOM     76  F   UNL A   1      38.006  30.255  36.027  1.00  0.00    -0.203 F 
ATOM     77  F   UNL A   1      40.256  35.096  37.162  1.00  0.00    -0.200 F 
ATOM     78  C   UNL A   1      38.709  33.394  37.698  1.00  0.00     0.200 A 
ATOM     79  F   UNL A   1      37.173  31.669  38.184  1.00  0.00    -0.200 F 
ATOM     80  F   UNL A   1      38.307  34.079  38.778  1.00  0.00    -0.200 F 
ENDBRANCH  46  70
BRANCH  58  81
ATOM     81  C   UNL A   1      44.578  27.233  34.362  1.00  0.00     0.064 A 
ATOM     82  C   UNL A   1      44.262  26.116  35.150  1.00  0.00     0.173 A 
ATOM     83  C   UNL A   1      45.841  27.819  34.520  1.00  0.00     0.173 A 
ATOM     84  F   UNL A   1      43.062  25.526  35.037  1.00  0.00    -0.203 F 
ATOM     85  C   UNL A   1      45.164  25.628  36.089  1.00  0.00     0.198 A 
ATOM     86  C   UNL A   1      46.752  27.311  35.441  1.00  0.00     0.198 A 
ATOM     87  F   UNL A   1      46.191  28.879  33.774  1.00  0.00    -0.203 F 
ATOM     88  F   UNL A   1      44.824  24.591  36.867  1.00  0.00    -0.200 F 
ATOM     89  C   UNL A   1      46.406  26.226  36.234  1.00  0.00     0.200 A 
ATOM     90  F   UNL A   1      47.960  27.875  35.565  1.00  0.00    -0.200 F 
ATOM     91  F   UNL A   1      47.274  25.757  37.142  1.00  0.00    -0.200 F 
ENDBRANCH  58  81
ENDBRANCH  32  33
ENDBRANCH  25  27
ENDBRANCH  24  25
ENDBRANCH  23  24
ENDBRANCH  22  23
ENDBRANCH   1  22
TORSDOF 16
ENDMDL
