MODEL 1
REMARK VINA RESULT:     -11.2      0.000      0.000
REMARK SMILES COc1ncnc(N2CCSC[C@@H]2CC(=O)OCCOC(=O)c2ccc(-c3c4nc(c(-c5c(F)c(F)c(F)c(F)c5F)c5ccc([nH]5)c(-c5c(F)c(F)c(F)c(F)c5F)c5nc(c(-c6c(F)c(F)c(F)c(F)c6F)c6ccc3[nH]6)C=C5)C=C4)cc2)c1[N+](=O)[O-]
REMARK SMILES IDX 18 1 17 2 15 3 16 4 14 5 13 6 8 7 9 8 10 9 12 10 11 11 7 12
REMARK SMILES IDX 3 13 4 14 86 15 5 16 6 17 2 18 1 19 87 20 88 21 89 22 19 23
REMARK SMILES IDX 20 24 21 25 22 26 23 27 24 28 85 29 25 30 84 31 26 32 27 33
REMARK SMILES IDX 28 34 78 35 29 36 83 37 77 38 79 39 30 40 82 41 76 42 75 43
REMARK SMILES IDX 31 45 63 46 43 47 62 48 44 49 47 50 61 51 80 52 45 53 46 54
REMARK SMILES IDX 60 56 81 57 48 58 32 59 33 60 41 61 34 62 35 63 39 64 42 65
REMARK SMILES IDX 36 66 37 67 40 68 38 69 64 70 65 71 73 72 66 73 67 74 71 75
REMARK SMILES IDX 74 76 68 77 69 78 72 79 70 80 49 81 50 82 58 83 51 84 52 85
REMARK SMILES IDX 56 86 59 87 53 88 54 89 57 90 55 91
REMARK H PARENT 79 44 47 55
REMARK Flexibility Score: inf
ROOT
ATOM      1  C   UNL A   1      31.334  28.863  25.466  1.00  0.00     0.274 C 
ENDROOT
BRANCH   1   2
ATOM      2  O   UNL A   1      32.315  27.921  25.943  1.00  0.00    -0.462 OA
BRANCH   2   3
ATOM      3  C   UNL A   1      31.847  26.681  26.237  1.00  0.00     0.308 C 
ATOM      4  O   UNL A   1      30.810  26.455  26.850  1.00  0.00    -0.252 OA
BRANCH   3   5
ATOM      5  C   UNL A   1      32.762  25.571  25.782  1.00  0.00     0.148 C 
BRANCH   5   6
ATOM      6  C   UNL A   1      32.121  24.575  24.796  1.00  0.00     0.105 C 
ATOM      7  N   UNL A   1      33.187  23.805  24.093  1.00  0.00    -0.345 N 
ATOM      8  C   UNL A   1      34.058  24.529  23.152  1.00  0.00     0.129 C 
ATOM      9  C   UNL A   1      33.275  25.186  22.014  1.00  0.00     0.091 C 
ATOM     10  C   UNL A   1      31.174  25.261  23.788  1.00  0.00     0.095 C 
ATOM     11  S   UNL A   1      32.026  26.373  22.610  1.00  0.00    -0.158 SA
BRANCH   7  12
ATOM     12  C   UNL A   1      33.005  22.434  23.969  1.00  0.00     0.215 A 
ATOM     13  C   UNL A   1      33.023  20.183  24.721  1.00  0.00     0.299 A 
ATOM     14  N   UNL A   1      32.418  19.744  23.604  1.00  0.00    -0.196 NA
ATOM     15  C   UNL A   1      33.353  21.503  24.931  1.00  0.00     0.372 A 
ATOM     16  C   UNL A   1      32.135  20.693  22.707  1.00  0.00     0.228 A 
ATOM     17  N   UNL A   1      32.399  22.006  22.838  1.00  0.00    -0.212 NA
BRANCH  13  18
ATOM     18  O   UNL A   1      33.340  19.207  25.632  1.00  0.00    -0.476 OA
ATOM     19  C   UNL A   1      32.687  17.990  25.286  1.00  0.00     0.280 C 
ENDBRANCH  13  18
BRANCH  15  20
ATOM     20  N   UNL A   1      33.931  21.878  26.180  1.00  0.00     0.072 N 
ATOM     21  O   UNL A   1      35.167  21.909  26.253  1.00  0.00    -0.258 OA
ATOM     22  O   UNL A   1      33.158  22.136  27.110  1.00  0.00    -0.258 OA
ENDBRANCH  15  20
ENDBRANCH   7  12
ENDBRANCH   5   6
ENDBRANCH   3   5
ENDBRANCH   2   3
ENDBRANCH   1   2
BRANCH   1  23
ATOM     23  C   UNL A   1      31.686  30.303  25.852  1.00  0.00     0.275 C 
BRANCH  23  24
ATOM     24  O   UNL A   1      33.093  30.461  26.116  1.00  0.00    -0.458 OA
BRANCH  24  25
ATOM     25  C   UNL A   1      33.407  31.393  27.044  1.00  0.00     0.338 C 
ATOM     26  O   UNL A   1      32.748  32.362  27.378  1.00  0.00    -0.246 OA
BRANCH  25  27
ATOM     27  C   UNL A   1      34.667  31.029  27.705  1.00  0.00     0.060 A 
ATOM     28  C   UNL A   1      34.828  29.714  28.140  1.00  0.00     0.016 A 
ATOM     29  C   UNL A   1      35.636  31.994  27.991  1.00  0.00     0.016 A 
ATOM     30  C   UNL A   1      35.956  29.359  28.876  1.00  0.00     0.010 A 
ATOM     31  C   UNL A   1      36.775  31.630  28.720  1.00  0.00     0.010 A 
ATOM     32  C   UNL A   1      36.935  30.314  29.185  1.00  0.00    -0.014 A 
BRANCH  32  33
ATOM     33  C   UNL A   1      38.102  29.917  30.012  1.00  0.00     0.031 A 
ATOM     34  C   UNL A   1      39.108  28.929  29.494  1.00  0.00     0.074 A 
ATOM     35  C   UNL A   1      38.293  30.492  31.214  1.00  0.00     0.049 A 
ATOM     36  N   UNL A   1      40.226  28.520  30.040  1.00  0.00    -0.248 NA
ATOM     37  C   UNL A   1      38.836  28.337  28.176  1.00  0.00     0.031 C 
ATOM     38  C   UNL A   1      37.419  31.498  31.816  1.00  0.00     0.029 A 
ATOM     39  N   UNL A   1      39.287  30.312  32.144  1.00  0.00    -0.354 N 
ATOM     40  C   UNL A   1      40.815  27.671  29.114  1.00  0.00     0.074 A 
ATOM     41  C   UNL A   1      39.905  27.575  27.992  1.00  0.00     0.031 C 
ATOM     42  C   UNL A   1      37.907  31.837  33.019  1.00  0.00     0.029 A 
ATOM     43  C   UNL A   1      39.104  31.045  33.289  1.00  0.00     0.049 A 
ATOM     44  H   UNL A   1      40.056  29.714  32.003  1.00  0.00     0.167 HD
ATOM     45  C   UNL A   1      42.012  27.043  29.184  1.00  0.00     0.037 A 
ATOM     46  C   UNL A   1      39.802  31.052  34.440  1.00  0.00     0.037 A 
ATOM     47  C   UNL A   1      42.887  27.078  30.325  1.00  0.00     0.049 A 
ATOM     48  C   UNL A   1      41.017  30.177  34.574  1.00  0.00     0.074 A 
ATOM     49  C   UNL A   1      44.120  26.471  30.490  1.00  0.00     0.029 A 
ATOM     50  N   UNL A   1      42.600  27.729  31.515  1.00  0.00    -0.354 N 
ATOM     51  N   UNL A   1      41.594  29.422  33.673  1.00  0.00    -0.248 NA
ATOM     52  C   UNL A   1      41.668  30.144  35.891  1.00  0.00     0.031 C 
ATOM     53  C   UNL A   1      44.549  26.702  31.804  1.00  0.00     0.029 A 
ATOM     54  C   UNL A   1      43.601  27.487  32.442  1.00  0.00     0.049 A 
ATOM     55  H   UNL A   1      41.801  28.281  31.679  1.00  0.00     0.167 HD
ATOM     56  C   UNL A   1      42.682  28.837  34.305  1.00  0.00     0.074 A 
ATOM     57  C   UNL A   1      42.692  29.333  35.665  1.00  0.00     0.031 C 
ATOM     58  C   UNL A   1      43.591  27.967  33.799  1.00  0.00     0.037 A 
BRANCH  45  59
ATOM     59  C   UNL A   1      42.440  26.247  27.989  1.00  0.00     0.064 A 
ATOM     60  C   UNL A   1      41.968  24.942  27.781  1.00  0.00     0.173 A 
ATOM     61  C   UNL A   1      43.298  26.801  27.029  1.00  0.00     0.173 A 
ATOM     62  F   UNL A   1      41.162  24.364  28.683  1.00  0.00    -0.203 F 
ATOM     63  C   UNL A   1      42.351  24.216  26.656  1.00  0.00     0.198 A 
ATOM     64  C   UNL A   1      43.665  26.077  25.898  1.00  0.00     0.198 A 
ATOM     65  F   UNL A   1      43.777  28.044  27.187  1.00  0.00    -0.203 F 
ATOM     66  F   UNL A   1      41.911  22.961  26.489  1.00  0.00    -0.200 F 
ATOM     67  C   UNL A   1      43.194  24.785  25.714  1.00  0.00     0.200 A 
ATOM     68  F   UNL A   1      44.481  26.627  24.988  1.00  0.00    -0.200 F 
ATOM     69  F   UNL A   1      43.561  24.085  24.632  1.00  0.00    -0.200 F 
ENDBRANCH  45  59
BRANCH  46  70
ATOM     70  C   UNL A   1      39.327  31.879  35.579  1.00  0.00     0.064 A 
ATOM     71  C   UNL A   1      39.769  33.195  35.759  1.00  0.00     0.173 A 
ATOM     72  C   UNL A   1      38.418  31.359  36.513  1.00  0.00     0.173 A 
ATOM     73  F   UNL A   1      40.662  33.724  34.909  1.00  0.00    -0.203 F 
ATOM     74  C   UNL A   1      39.321  33.961  36.833  1.00  0.00     0.198 A 
ATOM     75  C   UNL A   1      37.951  32.133  37.571  1.00  0.00     0.198 A 
ATOM     76  F   UNL A   1      37.974  30.099  36.390  1.00  0.00    -0.203 F 
ATOM     77  F   UNL A   1      39.785  35.206  37.004  1.00  0.00    -0.200 F 
ATOM     78  C   UNL A   1      38.407  33.433  37.733  1.00  0.00     0.200 A 
ATOM     79  F   UNL A   1      37.063  31.622  38.433  1.00  0.00    -0.200 F 
ATOM     80  F   UNL A   1      37.972  34.173  38.762  1.00  0.00    -0.200 F 
ENDBRANCH  46  70
BRANCH  58  81
ATOM     81  C   UNL A   1      44.672  27.492  34.723  1.00  0.00     0.064 A 
ATOM     82  C   UNL A   1      45.855  28.226  34.896  1.00  0.00     0.173 A 
ATOM     83  C   UNL A   1      44.513  26.314  35.467  1.00  0.00     0.173 A 
ATOM     84  F   UNL A   1      46.062  29.350  34.193  1.00  0.00    -0.203 F 
ATOM     85  C   UNL A   1      46.848  27.785  35.768  1.00  0.00     0.198 A 
ATOM     86  C   UNL A   1      45.497  25.891  36.356  1.00  0.00     0.198 A 
ATOM     87  F   UNL A   1      43.397  25.579  35.340  1.00  0.00    -0.203 F 
ATOM     88  F   UNL A   1      47.988  28.480  35.887  1.00  0.00    -0.200 F 
ATOM     89  C   UNL A   1      46.665  26.623  36.501  1.00  0.00     0.200 A 
ATOM     90  F   UNL A   1      45.315  24.772  37.071  1.00  0.00    -0.200 F 
ATOM     91  F   UNL A   1      47.620  26.203  37.343  1.00  0.00    -0.200 F 
ENDBRANCH  58  81
ENDBRANCH  32  33
ENDBRANCH  25  27
ENDBRANCH  24  25
ENDBRANCH  23  24
ENDBRANCH   1  23
TORSDOF 15
ENDMDL
MODEL 2
REMARK VINA RESULT:     -11.2      0.232      1.991
REMARK SMILES COc1ncnc(N2CCSC[C@@H]2CC(=O)OCCOC(=O)c2ccc(-c3c4nc(c(-c5c(F)c(F)c(F)c(F)c5F)c5ccc([nH]5)c(-c5c(F)c(F)c(F)c(F)c5F)c5nc(c(-c6c(F)c(F)c(F)c(F)c6F)c6ccc3[nH]6)C=C5)C=C4)cc2)c1[N+](=O)[O-]
REMARK SMILES IDX 18 1 17 2 15 3 16 4 14 5 13 6 8 7 9 8 10 9 12 10 11 11 7 12
REMARK SMILES IDX 3 13 4 14 86 15 5 16 6 17 2 18 1 19 87 20 88 21 89 22 19 23
REMARK SMILES IDX 20 24 21 25 22 26 23 27 24 28 85 29 25 30 84 31 26 32 27 33
REMARK SMILES IDX 28 34 78 35 29 36 83 37 77 38 79 39 30 40 82 41 76 42 75 43
REMARK SMILES IDX 31 45 63 46 43 47 62 48 44 49 47 50 61 51 80 52 45 53 46 54
REMARK SMILES IDX 60 56 81 57 48 58 32 59 33 60 41 61 34 62 35 63 39 64 42 65
REMARK SMILES IDX 36 66 37 67 40 68 38 69 64 70 65 71 73 72 66 73 67 74 71 75
REMARK SMILES IDX 74 76 68 77 69 78 72 79 70 80 49 81 50 82 58 83 51 84 52 85
REMARK SMILES IDX 56 86 59 87 53 88 54 89 57 90 55 91
REMARK H PARENT 79 44 47 55
REMARK Flexibility Score: inf
ROOT
ATOM      1  C   UNL A   1      31.390  28.840  25.511  1.00  0.00     0.274 C 
ENDROOT
BRANCH   1   2
ATOM      2  O   UNL A   1      32.072  27.946  26.413  1.00  0.00    -0.462 OA
BRANCH   2   3
ATOM      3  C   UNL A   1      31.686  26.646  26.359  1.00  0.00     0.308 C 
ATOM      4  O   UNL A   1      30.665  26.201  26.871  1.00  0.00    -0.252 OA
BRANCH   3   5
ATOM      5  C   UNL A   1      32.672  25.756  25.643  1.00  0.00     0.148 C 
BRANCH   5   6
ATOM      6  C   UNL A   1      32.038  24.774  24.639  1.00  0.00     0.105 C 
ATOM      7  N   UNL A   1      33.110  24.018  23.928  1.00  0.00    -0.345 N 
ATOM      8  C   UNL A   1      33.982  24.761  23.002  1.00  0.00     0.129 C 
ATOM      9  C   UNL A   1      33.200  25.433  21.871  1.00  0.00     0.091 C 
ATOM     10  C   UNL A   1      31.092  25.472  23.639  1.00  0.00     0.095 C 
ATOM     11  S   UNL A   1      31.945  26.605  22.482  1.00  0.00    -0.158 SA
BRANCH   7  12
ATOM     12  C   UNL A   1      32.933  22.649  23.782  1.00  0.00     0.215 A 
ATOM     13  C   UNL A   1      33.025  20.380  24.473  1.00  0.00     0.299 A 
ATOM     14  N   UNL A   1      32.349  19.962  23.389  1.00  0.00    -0.196 NA
ATOM     15  C   UNL A   1      33.356  21.698  24.694  1.00  0.00     0.372 A 
ATOM     16  C   UNL A   1      31.996  20.930  22.538  1.00  0.00     0.228 A 
ATOM     17  N   UNL A   1      32.255  22.242  22.685  1.00  0.00    -0.212 NA
BRANCH  13  18
ATOM     18  O   UNL A   1      33.414  19.386  25.335  1.00  0.00    -0.476 OA
ATOM     19  C   UNL A   1      32.599  18.234  25.144  1.00  0.00     0.280 C 
ENDBRANCH  13  18
BRANCH  15  20
ATOM     20  N   UNL A   1      34.015  22.050  25.909  1.00  0.00     0.072 N 
ATOM     21  O   UNL A   1      33.308  22.396  26.865  1.00  0.00    -0.258 OA
ATOM     22  O   UNL A   1      35.251  21.996  25.922  1.00  0.00    -0.258 OA
ENDBRANCH  15  20
ENDBRANCH   7  12
ENDBRANCH   5   6
ENDBRANCH   3   5
ENDBRANCH   2   3
ENDBRANCH   1   2
BRANCH   1  23
ATOM     23  C   UNL A   1      31.768  30.303  25.758  1.00  0.00     0.275 C 
BRANCH  23  24
ATOM     24  O   UNL A   1      33.168  30.454  26.058  1.00  0.00    -0.458 OA
BRANCH  24  25
ATOM     25  C   UNL A   1      33.462  31.384  26.995  1.00  0.00     0.338 C 
ATOM     26  O   UNL A   1      32.784  32.335  27.339  1.00  0.00    -0.246 OA
BRANCH  25  27
ATOM     27  C   UNL A   1      34.731  31.041  27.652  1.00  0.00     0.060 A 
ATOM     28  C   UNL A   1      34.927  29.722  28.060  1.00  0.00     0.016 A 
ATOM     29  C   UNL A   1      35.672  32.025  27.959  1.00  0.00     0.016 A 
ATOM     30  C   UNL A   1      36.062  29.383  28.792  1.00  0.00     0.010 A 
ATOM     31  C   UNL A   1      36.820  31.678  28.684  1.00  0.00     0.010 A 
ATOM     32  C   UNL A   1      37.014  30.357  29.123  1.00  0.00    -0.014 A 
BRANCH  32  33
ATOM     33  C   UNL A   1      38.190  29.975  29.945  1.00  0.00     0.031 A 
ATOM     34  C   UNL A   1      39.199  28.990  29.426  1.00  0.00     0.074 A 
ATOM     35  C   UNL A   1      38.386  30.561  31.140  1.00  0.00     0.049 A 
ATOM     36  N   UNL A   1      40.324  28.593  29.968  1.00  0.00    -0.248 NA
ATOM     37  C   UNL A   1      38.922  28.385  28.116  1.00  0.00     0.031 C 
ATOM     38  C   UNL A   1      37.508  31.566  31.740  1.00  0.00     0.029 A 
ATOM     39  N   UNL A   1      39.387  30.396  32.064  1.00  0.00    -0.354 N 
ATOM     40  C   UNL A   1      40.912  27.742  29.045  1.00  0.00     0.074 A 
ATOM     41  C   UNL A   1      39.995  27.629  27.930  1.00  0.00     0.031 C 
ATOM     42  C   UNL A   1      38.003  31.919  32.937  1.00  0.00     0.029 A 
ATOM     43  C   UNL A   1      39.207  31.137  33.204  1.00  0.00     0.049 A 
ATOM     44  H   UNL A   1      40.160  29.802  31.922  1.00  0.00     0.167 HD
ATOM     45  C   UNL A   1      42.114  27.122  29.111  1.00  0.00     0.037 A 
ATOM     46  C   UNL A   1      39.913  31.158  34.351  1.00  0.00     0.037 A 
ATOM     47  C   UNL A   1      42.997  27.172  30.246  1.00  0.00     0.049 A 
ATOM     48  C   UNL A   1      41.136  30.293  34.483  1.00  0.00     0.074 A 
ATOM     49  C   UNL A   1      44.236  26.576  30.407  1.00  0.00     0.029 A 
ATOM     50  N   UNL A   1      42.714  27.831  31.433  1.00  0.00    -0.354 N 
ATOM     51  N   UNL A   1      41.711  29.534  33.584  1.00  0.00    -0.248 NA
ATOM     52  C   UNL A   1      41.796  30.275  35.796  1.00  0.00     0.031 C 
ATOM     53  C   UNL A   1      44.672  26.820  31.716  1.00  0.00     0.029 A 
ATOM     54  C   UNL A   1      43.724  27.603  32.354  1.00  0.00     0.049 A 
ATOM     55  H   UNL A   1      41.912  28.379  31.597  1.00  0.00     0.167 HD
ATOM     56  C   UNL A   1      42.808  28.962  34.212  1.00  0.00     0.074 A 
ATOM     57  C   UNL A   1      42.824  29.469  35.568  1.00  0.00     0.031 C 
ATOM     58  C   UNL A   1      43.720  28.095  33.707  1.00  0.00     0.037 A 
BRANCH  45  59
ATOM     59  C   UNL A   1      42.539  26.320  27.920  1.00  0.00     0.064 A 
ATOM     60  C   UNL A   1      43.357  26.877  26.925  1.00  0.00     0.173 A 
ATOM     61  C   UNL A   1      42.158  24.977  27.786  1.00  0.00     0.173 A 
ATOM     62  F   UNL A   1      43.730  28.163  27.000  1.00  0.00    -0.203 F 
ATOM     63  C   UNL A   1      43.769  26.119  25.832  1.00  0.00     0.198 A 
ATOM     64  C   UNL A   1      42.585  24.219  26.700  1.00  0.00     0.198 A 
ATOM     65  F   UNL A   1      41.374  24.403  28.711  1.00  0.00    -0.203 F 
ATOM     66  F   UNL A   1      44.527  26.677  24.878  1.00  0.00    -0.200 F 
ATOM     67  C   UNL A   1      43.387  24.790  25.723  1.00  0.00     0.200 A 
ATOM     68  F   UNL A   1      42.215  22.935  26.595  1.00  0.00    -0.200 F 
ATOM     69  F   UNL A   1      43.784  24.062  24.670  1.00  0.00    -0.200 F 
ENDBRANCH  45  59
BRANCH  46  70
ATOM     70  C   UNL A   1      39.441  31.991  35.486  1.00  0.00     0.064 A 
ATOM     71  C   UNL A   1      38.550  31.485  36.440  1.00  0.00     0.173 A 
ATOM     72  C   UNL A   1      39.875  33.317  35.632  1.00  0.00     0.173 A 
ATOM     73  F   UNL A   1      38.083  30.233  36.324  1.00  0.00    -0.203 F 
ATOM     74  C   UNL A   1      38.109  32.277  37.499  1.00  0.00     0.198 A 
ATOM     75  C   UNL A   1      39.454  34.099  36.704  1.00  0.00     0.198 A 
ATOM     76  F   UNL A   1      40.719  33.850  34.736  1.00  0.00    -0.203 F 
ATOM     77  F   UNL A   1      37.229  31.783  38.380  1.00  0.00    -0.200 F 
ATOM     78  C   UNL A   1      38.567  33.579  37.635  1.00  0.00     0.200 A 
ATOM     79  F   UNL A   1      39.905  35.353  36.834  1.00  0.00    -0.200 F 
ATOM     80  F   UNL A   1      38.147  34.337  38.657  1.00  0.00    -0.200 F 
ENDBRANCH  46  70
BRANCH  58  81
ATOM     81  C   UNL A   1      44.810  27.635  34.627  1.00  0.00     0.064 A 
ATOM     82  C   UNL A   1      44.688  26.446  35.362  1.00  0.00     0.173 A 
ATOM     83  C   UNL A   1      45.999  28.368  34.754  1.00  0.00     0.173 A 
ATOM     84  F   UNL A   1      43.562  25.719  35.288  1.00  0.00    -0.203 F 
ATOM     85  C   UNL A   1      45.711  26.018  36.204  1.00  0.00     0.198 A 
ATOM     86  C   UNL A   1      47.029  27.923  35.578  1.00  0.00     0.198 A 
ATOM     87  F   UNL A   1      46.166  29.510  34.069  1.00  0.00    -0.203 F 
ATOM     88  F   UNL A   1      45.557  24.900  36.927  1.00  0.00    -0.200 F 
ATOM     89  C   UNL A   1      46.883  26.752  36.305  1.00  0.00     0.200 A 
ATOM     90  F   UNL A   1      48.165  28.630  35.667  1.00  0.00    -0.200 F 
ATOM     91  F   UNL A   1      47.868  26.336  37.113  1.00  0.00    -0.200 F 
ENDBRANCH  58  81
ENDBRANCH  32  33
ENDBRANCH  25  27
ENDBRANCH  24  25
ENDBRANCH  23  24
ENDBRANCH   1  23
TORSDOF 15
ENDMDL
MODEL 3
REMARK VINA RESULT:     -11.0      4.421      9.753
REMARK SMILES COc1ncnc(N2CCSC[C@@H]2CC(=O)OCCOC(=O)c2ccc(-c3c4nc(c(-c5c(F)c(F)c(F)c(F)c5F)c5ccc([nH]5)c(-c5c(F)c(F)c(F)c(F)c5F)c5nc(c(-c6c(F)c(F)c(F)c(F)c6F)c6ccc3[nH]6)C=C5)C=C4)cc2)c1[N+](=O)[O-]
REMARK SMILES IDX 18 1 17 2 15 3 16 4 14 5 13 6 8 7 9 8 10 9 12 10 11 11 7 12
REMARK SMILES IDX 3 13 4 14 86 15 5 16 6 17 2 18 1 19 87 20 88 21 89 22 19 23
REMARK SMILES IDX 20 24 21 25 22 26 23 27 24 28 85 29 25 30 84 31 26 32 27 33
REMARK SMILES IDX 28 34 78 35 29 36 83 37 77 38 79 39 30 40 82 41 76 42 75 43
REMARK SMILES IDX 31 45 63 46 43 47 62 48 44 49 47 50 61 51 80 52 45 53 46 54
REMARK SMILES IDX 60 56 81 57 48 58 32 59 33 60 41 61 34 62 35 63 39 64 42 65
REMARK SMILES IDX 36 66 37 67 40 68 38 69 64 70 65 71 73 72 66 73 67 74 71 75
REMARK SMILES IDX 74 76 68 77 69 78 72 79 70 80 49 81 50 82 58 83 51 84 52 85
REMARK SMILES IDX 56 86 59 87 53 88 54 89 57 90 55 91
REMARK H PARENT 79 44 47 55
REMARK Flexibility Score: inf
ROOT
ATOM      1  C   UNL A   1      35.348  21.502  24.488  1.00  0.00     0.274 C 
ENDROOT
BRANCH   1   2
ATOM      2  O   UNL A   1      35.658  22.586  23.591  1.00  0.00    -0.462 OA
BRANCH   2   3
ATOM      3  C   UNL A   1      34.593  23.299  23.140  1.00  0.00     0.308 C 
ATOM      4  O   UNL A   1      34.219  23.328  21.973  1.00  0.00    -0.252 OA
BRANCH   3   5
ATOM      5  C   UNL A   1      33.923  24.120  24.213  1.00  0.00     0.148 C 
BRANCH   5   6
ATOM      6  C   UNL A   1      32.397  24.265  24.051  1.00  0.00     0.105 C 
ATOM      7  N   UNL A   1      31.904  25.387  24.900  1.00  0.00    -0.345 N 
ATOM      8  C   UNL A   1      31.964  25.226  26.363  1.00  0.00     0.129 C 
ATOM      9  C   UNL A   1      31.161  24.019  26.854  1.00  0.00     0.091 C 
ATOM     10  C   UNL A   1      31.639  22.957  24.361  1.00  0.00     0.095 C 
ATOM     11  S   UNL A   1      31.725  22.450  26.118  1.00  0.00    -0.158 SA
BRANCH   7  12
ATOM     12  C   UNL A   1      30.997  26.269  24.327  1.00  0.00     0.215 A 
ATOM     13  C   UNL A   1      30.343  28.116  22.988  1.00  0.00     0.299 A 
ATOM     14  N   UNL A   1      29.037  27.827  23.126  1.00  0.00    -0.196 NA
ATOM     15  C   UNL A   1      31.344  27.385  23.586  1.00  0.00     0.372 A 
ATOM     16  C   UNL A   1      28.774  26.753  23.875  1.00  0.00     0.228 A 
ATOM     17  N   UNL A   1      29.687  25.968  24.476  1.00  0.00    -0.212 NA
BRANCH  13  18
ATOM     18  O   UNL A   1      30.616  29.235  22.243  1.00  0.00    -0.476 OA
ATOM     19  C   UNL A   1      29.459  30.063  22.172  1.00  0.00     0.280 C 
ENDBRANCH  13  18
BRANCH  15  20
ATOM     20  N   UNL A   1      32.703  27.731  23.324  1.00  0.00     0.072 N 
ATOM     21  O   UNL A   1      33.259  28.506  24.113  1.00  0.00    -0.258 OA
ATOM     22  O   UNL A   1      33.229  27.244  22.316  1.00  0.00    -0.258 OA
ENDBRANCH  15  20
ENDBRANCH   7  12
ENDBRANCH   5   6
ENDBRANCH   3   5
ENDBRANCH   2   3
ENDBRANCH   1   2
BRANCH   1  23
ATOM     23  C   UNL A   1      36.611  20.876  25.088  1.00  0.00     0.275 C 
BRANCH  23  24
ATOM     24  O   UNL A   1      37.293  21.784  25.973  1.00  0.00    -0.458 OA
BRANCH  24  25
ATOM     25  C   UNL A   1      38.618  21.558  26.126  1.00  0.00     0.338 C 
ATOM     26  O   UNL A   1      39.235  20.542  25.862  1.00  0.00    -0.246 OA
BRANCH  25  27
ATOM     27  C   UNL A   1      39.280  22.785  26.590  1.00  0.00     0.060 A 
ATOM     28  C   UNL A   1      38.805  24.009  26.118  1.00  0.00     0.016 A 
ATOM     29  C   UNL A   1      40.419  22.729  27.393  1.00  0.00     0.016 A 
ATOM     30  C   UNL A   1      39.479  25.185  26.438  1.00  0.00     0.010 A 
ATOM     31  C   UNL A   1      41.087  23.915  27.725  1.00  0.00     0.010 A 
ATOM     32  C   UNL A   1      40.633  25.151  27.233  1.00  0.00    -0.014 A 
BRANCH  32  33
ATOM     33  C   UNL A   1      41.357  26.416  27.518  1.00  0.00     0.031 A 
ATOM     34  C   UNL A   1      40.675  27.542  28.241  1.00  0.00     0.074 A 
ATOM     35  C   UNL A   1      42.654  26.532  27.179  1.00  0.00     0.049 A 
ATOM     36  N   UNL A   1      41.167  28.688  28.643  1.00  0.00    -0.248 NA
ATOM     37  C   UNL A   1      39.257  27.350  28.579  1.00  0.00     0.031 C 
ATOM     38  C   UNL A   1      43.447  25.498  26.514  1.00  0.00     0.029 A 
ATOM     39  N   UNL A   1      43.533  27.573  27.346  1.00  0.00    -0.354 N 
ATOM     40  C   UNL A   1      40.142  29.325  29.326  1.00  0.00     0.074 A 
ATOM     41  C   UNL A   1      38.979  28.468  29.237  1.00  0.00     0.031 C 
ATOM     42  C   UNL A   1      44.691  25.960  26.320  1.00  0.00     0.029 A 
ATOM     43  C   UNL A   1      44.772  27.334  26.809  1.00  0.00     0.049 A 
ATOM     44  H   UNL A   1      43.296  28.410  27.808  1.00  0.00     0.167 HD
ATOM     45  C   UNL A   1      40.171  30.509  29.982  1.00  0.00     0.037 A 
ATOM     46  C   UNL A   1      45.841  28.144  26.690  1.00  0.00     0.037 A 
ATOM     47  C   UNL A   1      41.301  31.398  30.013  1.00  0.00     0.049 A 
ATOM     48  C   UNL A   1      45.776  29.541  27.242  1.00  0.00     0.074 A 
ATOM     49  C   UNL A   1      41.424  32.621  30.650  1.00  0.00     0.029 A 
ATOM     50  N   UNL A   1      42.494  31.175  29.343  1.00  0.00    -0.354 N 
ATOM     51  N   UNL A   1      44.821  30.112  27.933  1.00  0.00    -0.248 NA
ATOM     52  C   UNL A   1      46.932  30.410  26.982  1.00  0.00     0.031 C 
ATOM     53  C   UNL A   1      42.670  33.167  30.312  1.00  0.00     0.029 A 
ATOM     54  C   UNL A   1      43.336  32.264  29.499  1.00  0.00     0.049 A 
ATOM     55  H   UNL A   1      42.711  30.362  28.832  1.00  0.00     0.167 HD
ATOM     56  C   UNL A   1      45.264  31.398  28.206  1.00  0.00     0.074 A 
ATOM     57  C   UNL A   1      46.579  31.522  27.613  1.00  0.00     0.031 C 
ATOM     58  C   UNL A   1      44.634  32.387  28.888  1.00  0.00     0.037 A 
BRANCH  45  59
ATOM     59  C   UNL A   1      38.929  30.919  30.712  1.00  0.00     0.064 A 
ATOM     60  C   UNL A   1      38.764  30.637  32.077  1.00  0.00     0.173 A 
ATOM     61  C   UNL A   1      37.912  31.627  30.057  1.00  0.00     0.173 A 
ATOM     62  F   UNL A   1      39.702  29.945  32.741  1.00  0.00    -0.203 F 
ATOM     63  C   UNL A   1      37.618  31.042  32.757  1.00  0.00     0.198 A 
ATOM     64  C   UNL A   1      36.775  32.043  30.743  1.00  0.00     0.198 A 
ATOM     65  F   UNL A   1      38.023  31.915  28.752  1.00  0.00    -0.203 F 
ATOM     66  F   UNL A   1      37.468  30.740  34.054  1.00  0.00    -0.200 F 
ATOM     67  C   UNL A   1      36.627  31.748  32.091  1.00  0.00     0.200 A 
ATOM     68  F   UNL A   1      35.818  32.724  30.099  1.00  0.00    -0.200 F 
ATOM     69  F   UNL A   1      35.525  32.137  32.746  1.00  0.00    -0.200 F 
ENDBRANCH  45  59
BRANCH  46  70
ATOM     70  C   UNL A   1      47.046  27.664  25.966  1.00  0.00     0.064 A 
ATOM     71  C   UNL A   1      47.132  27.727  24.571  1.00  0.00     0.173 A 
ATOM     72  C   UNL A   1      48.137  27.127  26.667  1.00  0.00     0.173 A 
ATOM     73  F   UNL A   1      46.101  28.204  23.857  1.00  0.00    -0.203 F 
ATOM     74  C   UNL A   1      48.265  27.270  23.901  1.00  0.00     0.198 A 
ATOM     75  C   UNL A   1      49.279  26.694  25.999  1.00  0.00     0.198 A 
ATOM     76  F   UNL A   1      48.097  27.034  28.004  1.00  0.00    -0.203 F 
ATOM     77  F   UNL A   1      48.310  27.309  22.563  1.00  0.00    -0.200 F 
ATOM     78  C   UNL A   1      49.340  26.762  24.615  1.00  0.00     0.200 A 
ATOM     79  F   UNL A   1      50.317  26.211  26.694  1.00  0.00    -0.200 F 
ATOM     80  F   UNL A   1      50.431  26.328  23.970  1.00  0.00    -0.200 F 
ENDBRANCH  46  70
BRANCH  58  81
ATOM     81  C   UNL A   1      45.359  33.692  29.026  1.00  0.00     0.064 A 
ATOM     82  C   UNL A   1      46.259  33.916  30.079  1.00  0.00     0.173 A 
ATOM     83  C   UNL A   1      45.180  34.715  28.084  1.00  0.00     0.173 A 
ATOM     84  F   UNL A   1      46.450  32.974  31.015  1.00  0.00    -0.203 F 
ATOM     85  C   UNL A   1      46.939  35.125  30.192  1.00  0.00     0.198 A 
ATOM     86  C   UNL A   1      45.880  35.913  28.188  1.00  0.00     0.198 A 
ATOM     87  F   UNL A   1      44.333  34.548  27.056  1.00  0.00    -0.203 F 
ATOM     88  F   UNL A   1      47.763  35.333  31.229  1.00  0.00    -0.200 F 
ATOM     89  C   UNL A   1      46.755  36.119  29.243  1.00  0.00     0.200 A 
ATOM     90  F   UNL A   1      45.708  36.870  27.264  1.00  0.00    -0.200 F 
ATOM     91  F   UNL A   1      47.414  37.282  29.352  1.00  0.00    -0.200 F 
ENDBRANCH  58  81
ENDBRANCH  32  33
ENDBRANCH  25  27
ENDBRANCH  24  25
ENDBRANCH  23  24
ENDBRANCH   1  23
TORSDOF 15
ENDMDL
