MODEL 1
REMARK VINA RESULT:     -12.2      0.000      0.000
REMARK SMILES O=C(/C=C/N[C@@H](Cc1c[nH]c2ccccc12)C(=O)OCCOC(=O)c1ccc(-c2c3nc(c(-c4c(F)c(F)c(F)c(F)c4F)c4ccc([nH]4)c(-c4c(F)c(F)c(F)c(F)c4F)c4nc(c(-c5c(F)c(F)c(F)c(F)c5F)c5ccc2[nH]5)C=C4)C=C3)cc1)c1ccccc1
REMARK SMILES IDX 20 1 19 2 17 3 18 4 6 5 5 6 4 8 3 9 2 10 1 11 88 12 89 13
REMARK SMILES IDX 93 14 90 15 92 16 91 17 7 18 8 19 9 20 16 21 10 22 11 23
REMARK SMILES IDX 15 24 12 26 14 27 13 28 21 29 22 30 23 31 24 32 25 33 26 34
REMARK SMILES IDX 87 35 27 36 86 37 28 38 29 39 30 40 80 41 31 42 85 43 79 44
REMARK SMILES IDX 81 45 32 46 84 47 78 48 77 49 33 51 65 52 45 53 64 54 46 55
REMARK SMILES IDX 49 56 63 57 82 58 47 59 48 60 62 62 83 63 50 64 34 65 35 66
REMARK SMILES IDX 43 67 36 68 37 69 41 70 44 71 38 72 39 73 42 74 40 75 66 76
REMARK SMILES IDX 67 77 75 78 68 79 69 80 73 81 76 82 70 83 71 84 74 85 72 86
REMARK SMILES IDX 51 87 52 88 60 89 53 90 54 91 58 92 61 93 55 94 56 95 59 96
REMARK SMILES IDX 57 97
REMARK H PARENT 5 7 10 25 81 50 49 61
REMARK Flexibility Score: inf
ROOT
ATOM      1  C   UNL A   1      35.836  21.284  25.271  1.00  0.00     0.274 C 
ENDROOT
BRANCH   1   2
ATOM      2  O   UNL A   1      34.907  20.194  25.412  1.00  0.00    -0.461 OA
BRANCH   2   3
ATOM      3  C   UNL A   1      33.766  20.264  24.665  1.00  0.00     0.329 C 
ATOM      4  O   UNL A   1      33.320  19.341  23.987  1.00  0.00    -0.250 OA
BRANCH   3   5
ATOM      5  C   UNL A   1      33.103  21.646  24.721  1.00  0.00     0.194 C 
BRANCH   5   6
ATOM      6  N   UNL A   1      32.134  21.855  23.634  1.00  0.00    -0.378 N 
ATOM      7  H   UNL A   1      31.450  21.157  23.512  1.00  0.00     0.160 HD
BRANCH   6   8
ATOM      8  C   UNL A   1      32.085  22.924  22.773  1.00  0.00     0.082 C 
ATOM      9  C   UNL A   1      33.032  23.858  22.620  1.00  0.00     0.070 C 
BRANCH   9  10
ATOM     10  C   UNL A   1      32.987  25.014  21.683  1.00  0.00     0.187 C 
ATOM     11  O   UNL A   1      33.258  24.838  20.496  1.00  0.00    -0.289 OA
BRANCH  10  12
ATOM     12  C   UNL A   1      32.607  26.368  22.146  1.00  0.00     0.022 A 
ATOM     13  C   UNL A   1      33.542  27.404  22.263  1.00  0.00     0.012 A 
ATOM     14  C   UNL A   1      31.256  26.620  22.417  1.00  0.00     0.012 A 
ATOM     15  C   UNL A   1      33.132  28.664  22.704  1.00  0.00     0.001 A 
ATOM     16  C   UNL A   1      30.850  27.885  22.848  1.00  0.00     0.001 A 
ATOM     17  C   UNL A   1      31.791  28.903  23.000  1.00  0.00     0.000 A 
ENDBRANCH  10  12
ENDBRANCH   9  10
ENDBRANCH   6   8
ENDBRANCH   5   6
BRANCH   5  18
ATOM     18  C   UNL A   1      32.504  21.888  26.110  1.00  0.00     0.074 C 
BRANCH  18  19
ATOM     19  C   UNL A   1      31.726  23.163  26.256  1.00  0.00    -0.020 A 
ATOM     20  C   UNL A   1      30.378  23.274  26.544  1.00  0.00     0.087 A 
ATOM     21  C   UNL A   1      32.240  24.494  26.165  1.00  0.00     0.003 A 
ATOM     22  N   UNL A   1      30.051  24.602  26.564  1.00  0.00    -0.361 N 
ATOM     23  C   UNL A   1      31.171  25.369  26.356  1.00  0.00     0.046 A 
ATOM     24  C   UNL A   1      33.522  25.039  25.946  1.00  0.00     0.010 A 
ATOM     25  H   UNL A   1      29.143  24.956  26.705  1.00  0.00     0.166 HD
ATOM     26  C   UNL A   1      31.315  26.761  26.329  1.00  0.00     0.026 A 
ATOM     27  C   UNL A   1      33.688  26.428  25.936  1.00  0.00     0.001 A 
ATOM     28  C   UNL A   1      32.597  27.275  26.122  1.00  0.00     0.002 A 
ENDBRANCH  18  19
ENDBRANCH   5  18
ENDBRANCH   3   5
ENDBRANCH   2   3
ENDBRANCH   1   2
BRANCH   1  29
ATOM     29  C   UNL A   1      37.247  20.781  24.970  1.00  0.00     0.275 C 
BRANCH  29  30
ATOM     30  O   UNL A   1      38.223  21.808  25.206  1.00  0.00    -0.458 OA
BRANCH  30  31
ATOM     31  C   UNL A   1      39.206  21.470  26.071  1.00  0.00     0.338 C 
ATOM     32  O   UNL A   1      39.656  20.363  26.302  1.00  0.00    -0.246 OA
BRANCH  31  33
ATOM     33  C   UNL A   1      39.764  22.692  26.655  1.00  0.00     0.060 A 
ATOM     34  C   UNL A   1      39.331  23.928  26.163  1.00  0.00     0.016 A 
ATOM     35  C   UNL A   1      40.772  22.615  27.614  1.00  0.00     0.016 A 
ATOM     36  C   UNL A   1      39.919  25.104  26.618  1.00  0.00     0.010 A 
ATOM     37  C   UNL A   1      41.365  23.791  28.066  1.00  0.00     0.010 A 
ATOM     38  C   UNL A   1      40.957  25.036  27.552  1.00  0.00    -0.014 A 
BRANCH  38  39
ATOM     39  C   UNL A   1      41.715  26.249  27.924  1.00  0.00     0.031 A 
ATOM     40  C   UNL A   1      41.012  27.331  28.688  1.00  0.00     0.074 A 
ATOM     41  C   UNL A   1      42.997  26.389  27.549  1.00  0.00     0.049 A 
ATOM     42  N   UNL A   1      41.410  28.544  28.967  1.00  0.00    -0.248 NA
ATOM     43  C   UNL A   1      39.677  26.997  29.211  1.00  0.00     0.031 C 
ATOM     44  C   UNL A   1      43.793  25.373  26.863  1.00  0.00     0.029 A 
ATOM     45  N   UNL A   1      43.844  27.461  27.667  1.00  0.00    -0.354 N 
ATOM     46  C   UNL A   1      40.370  29.123  29.681  1.00  0.00     0.074 A 
ATOM     47  C   UNL A   1      39.323  28.132  29.796  1.00  0.00     0.031 C 
ATOM     48  C   UNL A   1      45.006  25.882  26.589  1.00  0.00     0.029 A 
ATOM     49  C   UNL A   1      45.047  27.273  27.032  1.00  0.00     0.049 A 
ATOM     50  H   UNL A   1      43.613  28.283  28.158  1.00  0.00     0.167 HD
ATOM     51  C   UNL A   1      40.299  30.378  30.182  1.00  0.00     0.037 A 
ATOM     52  C   UNL A   1      46.043  28.148  26.791  1.00  0.00     0.037 A 
ATOM     53  C   UNL A   1      41.339  31.359  30.038  1.00  0.00     0.049 A 
ATOM     54  C   UNL A   1      45.899  29.568  27.273  1.00  0.00     0.074 A 
ATOM     55  C   UNL A   1      41.363  32.666  30.488  1.00  0.00     0.029 A 
ATOM     56  N   UNL A   1      42.540  31.136  29.379  1.00  0.00    -0.354 N 
ATOM     57  N   UNL A   1      44.912  30.118  27.939  1.00  0.00    -0.248 NA
ATOM     58  C   UNL A   1      46.999  30.490  26.961  1.00  0.00     0.031 C 
ATOM     59  C   UNL A   1      42.562  33.248  30.064  1.00  0.00     0.029 A 
ATOM     60  C   UNL A   1      43.306  32.289  29.393  1.00  0.00     0.049 A 
ATOM     61  H   UNL A   1      42.807  30.285  28.963  1.00  0.00     0.167 HD
ATOM     62  C   UNL A   1      45.286  31.438  28.155  1.00  0.00     0.074 A 
ATOM     63  C   UNL A   1      46.589  31.607  27.546  1.00  0.00     0.031 C 
ATOM     64  C   UNL A   1      44.613  32.420  28.803  1.00  0.00     0.037 A 
BRANCH  51  65
ATOM     65  C   UNL A   1      39.035  30.767  30.887  1.00  0.00     0.064 A 
ATOM     66  C   UNL A   1      37.923  31.260  30.189  1.00  0.00     0.173 A 
ATOM     67  C   UNL A   1      38.929  30.625  32.279  1.00  0.00     0.173 A 
ATOM     68  F   UNL A   1      37.982  31.431  28.861  1.00  0.00    -0.203 F 
ATOM     69  C   UNL A   1      36.756  31.614  30.863  1.00  0.00     0.198 A 
ATOM     70  C   UNL A   1      37.754  30.959  32.946  1.00  0.00     0.198 A 
ATOM     71  F   UNL A   1      39.967  30.159  32.992  1.00  0.00    -0.203 F 
ATOM     72  F   UNL A   1      35.719  32.120  30.181  1.00  0.00    -0.200 F 
ATOM     73  C   UNL A   1      36.671  31.458  32.238  1.00  0.00     0.200 A 
ATOM     74  F   UNL A   1      37.671  30.800  34.274  1.00  0.00    -0.200 F 
ATOM     75  F   UNL A   1      35.546  31.795  32.884  1.00  0.00    -0.200 F 
ENDBRANCH  51  65
BRANCH  52  76
ATOM     76  C   UNL A   1      47.240  27.714  26.027  1.00  0.00     0.064 A 
ATOM     77  C   UNL A   1      48.395  27.275  26.686  1.00  0.00     0.173 A 
ATOM     78  C   UNL A   1      47.254  27.730  24.624  1.00  0.00     0.173 A 
ATOM     79  F   UNL A   1      48.439  27.266  28.026  1.00  0.00    -0.203 F 
ATOM     80  C   UNL A   1      49.524  26.878  25.971  1.00  0.00     0.198 A 
ATOM     81  C   UNL A   1      48.373  27.308  23.910  1.00  0.00     0.198 A 
ATOM     82  F   UNL A   1      46.174  28.144  23.945  1.00  0.00    -0.203 F 
ATOM     83  F   UNL A   1      50.630  26.498  26.627  1.00  0.00    -0.200 F 
ATOM     84  C   UNL A   1      49.510  26.888  24.585  1.00  0.00     0.200 A 
ATOM     85  F   UNL A   1      48.352  27.309  22.570  1.00  0.00    -0.200 F 
ATOM     86  F   UNL A   1      50.593  26.501  23.898  1.00  0.00    -0.200 F 
ENDBRANCH  52  76
BRANCH  64  87
ATOM     87  C   UNL A   1      45.294  33.746  28.947  1.00  0.00     0.064 A 
ATOM     88  C   UNL A   1      46.178  34.011  30.001  1.00  0.00     0.173 A 
ATOM     89  C   UNL A   1      45.122  34.733  27.964  1.00  0.00     0.173 A 
ATOM     90  F   UNL A   1      46.363  33.104  30.972  1.00  0.00    -0.203 F 
ATOM     91  C   UNL A   1      46.860  35.223  30.071  1.00  0.00     0.198 A 
ATOM     92  C   UNL A   1      45.824  35.932  28.024  1.00  0.00     0.198 A 
ATOM     93  F   UNL A   1      44.292  34.520  26.932  1.00  0.00    -0.203 F 
ATOM     94  F   UNL A   1      47.682  35.468  31.101  1.00  0.00    -0.200 F 
ATOM     95  C   UNL A   1      46.691  36.177  29.078  1.00  0.00     0.200 A 
ATOM     96  F   UNL A   1      45.669  36.847  27.056  1.00  0.00    -0.200 F 
ATOM     97  F   UNL A   1      47.362  37.335  29.138  1.00  0.00    -0.200 F 
ENDBRANCH  64  87
ENDBRANCH  38  39
ENDBRANCH  31  33
ENDBRANCH  30  31
ENDBRANCH  29  30
ENDBRANCH   1  29
TORSDOF 17
ENDMDL
MODEL 2
REMARK VINA RESULT:     -11.9      2.780      7.646
REMARK SMILES O=C(/C=C/N[C@@H](Cc1c[nH]c2ccccc12)C(=O)OCCOC(=O)c1ccc(-c2c3nc(c(-c4c(F)c(F)c(F)c(F)c4F)c4ccc([nH]4)c(-c4c(F)c(F)c(F)c(F)c4F)c4nc(c(-c5c(F)c(F)c(F)c(F)c5F)c5ccc2[nH]5)C=C4)C=C3)cc1)c1ccccc1
REMARK SMILES IDX 20 1 19 2 17 3 18 4 6 5 5 6 4 8 3 9 2 10 1 11 88 12 89 13
REMARK SMILES IDX 93 14 90 15 92 16 91 17 7 18 8 19 9 20 16 21 10 22 11 23
REMARK SMILES IDX 15 24 12 26 14 27 13 28 21 29 22 30 23 31 24 32 25 33 26 34
REMARK SMILES IDX 87 35 27 36 86 37 28 38 29 39 30 40 80 41 31 42 85 43 79 44
REMARK SMILES IDX 81 45 32 46 84 47 78 48 77 49 33 51 65 52 45 53 64 54 46 55
REMARK SMILES IDX 49 56 63 57 82 58 47 59 48 60 62 62 83 63 50 64 34 65 35 66
REMARK SMILES IDX 43 67 36 68 37 69 41 70 44 71 38 72 39 73 42 74 40 75 66 76
REMARK SMILES IDX 67 77 75 78 68 79 69 80 73 81 76 82 70 83 71 84 74 85 72 86
REMARK SMILES IDX 51 87 52 88 60 89 53 90 54 91 58 92 61 93 55 94 56 95 59 96
REMARK SMILES IDX 57 97
REMARK H PARENT 5 7 10 25 81 50 49 61
REMARK Flexibility Score: inf
ROOT
ATOM      1  C   UNL A   1      36.253  21.888  25.010  1.00  0.00     0.274 C 
ENDROOT
BRANCH   1   2
ATOM      2  O   UNL A   1      35.567  20.718  25.492  1.00  0.00    -0.461 OA
BRANCH   2   3
ATOM      3  C   UNL A   1      34.317  20.492  24.990  1.00  0.00     0.329 C 
ATOM      4  O   UNL A   1      33.910  19.401  24.599  1.00  0.00    -0.250 OA
BRANCH   3   5
ATOM      5  C   UNL A   1      33.467  21.768  24.922  1.00  0.00     0.194 C 
BRANCH   5   6
ATOM      6  N   UNL A   1      32.540  21.770  23.779  1.00  0.00    -0.378 N 
ATOM      7  H   UNL A   1      31.968  20.976  23.673  1.00  0.00     0.160 HD
BRANCH   6   8
ATOM      8  C   UNL A   1      32.392  22.767  22.846  1.00  0.00     0.082 C 
ATOM      9  C   UNL A   1      33.193  23.829  22.692  1.00  0.00     0.070 C 
BRANCH   9  10
ATOM     10  C   UNL A   1      33.041  24.908  21.677  1.00  0.00     0.187 C 
ATOM     11  O   UNL A   1      33.250  24.655  20.492  1.00  0.00    -0.289 OA
BRANCH  10  12
ATOM     12  C   UNL A   1      32.626  26.277  22.063  1.00  0.00     0.022 A 
ATOM     13  C   UNL A   1      31.284  26.612  22.281  1.00  0.00     0.012 A 
ATOM     14  C   UNL A   1      33.623  27.238  22.267  1.00  0.00     0.012 A 
ATOM     15  C   UNL A   1      30.944  27.918  22.643  1.00  0.00     0.001 A 
ATOM     16  C   UNL A   1      33.279  28.539  22.640  1.00  0.00     0.001 A 
ATOM     17  C   UNL A   1      31.939  28.879  22.818  1.00  0.00     0.000 A 
ENDBRANCH  10  12
ENDBRANCH   9  10
ENDBRANCH   6   8
ENDBRANCH   5   6
BRANCH   5  18
ATOM     18  C   UNL A   1      32.763  22.006  26.261  1.00  0.00     0.074 C 
BRANCH  18  19
ATOM     19  C   UNL A   1      31.846  23.192  26.299  1.00  0.00    -0.020 A 
ATOM     20  C   UNL A   1      30.478  23.168  26.496  1.00  0.00     0.087 A 
ATOM     21  C   UNL A   1      32.221  24.567  26.178  1.00  0.00     0.003 A 
ATOM     22  N   UNL A   1      30.011  24.452  26.433  1.00  0.00    -0.361 N 
ATOM     23  C   UNL A   1      31.055  25.328  26.260  1.00  0.00     0.046 A 
ATOM     24  C   UNL A   1      33.450  25.239  26.015  1.00  0.00     0.010 A 
ATOM     25  H   UNL A   1      29.063  24.710  26.501  1.00  0.00     0.166 HD
ATOM     26  C   UNL A   1      31.052  26.724  26.178  1.00  0.00     0.026 A 
ATOM     27  C   UNL A   1      33.468  26.637  25.950  1.00  0.00     0.001 A 
ATOM     28  C   UNL A   1      32.284  27.366  26.027  1.00  0.00     0.002 A 
ENDBRANCH  18  19
ENDBRANCH   5  18
ENDBRANCH   3   5
ENDBRANCH   2   3
ENDBRANCH   1   2
BRANCH   1  29
ATOM     29  C   UNL A   1      37.767  21.755  25.171  1.00  0.00     0.275 C 
BRANCH  29  30
ATOM     30  O   UNL A   1      38.365  23.019  25.498  1.00  0.00    -0.458 OA
BRANCH  30  31
ATOM     31  C   UNL A   1      39.277  22.975  26.495  1.00  0.00     0.338 C 
ATOM     32  O   UNL A   1      39.927  22.019  26.878  1.00  0.00    -0.246 OA
BRANCH  31  33
ATOM     33  C   UNL A   1      39.469  24.329  27.022  1.00  0.00     0.060 A 
ATOM     34  C   UNL A   1      40.119  25.273  26.220  1.00  0.00     0.016 A 
ATOM     35  C   UNL A   1      39.094  24.634  28.328  1.00  0.00     0.016 A 
ATOM     36  C   UNL A   1      40.416  26.533  26.729  1.00  0.00     0.010 A 
ATOM     37  C   UNL A   1      39.395  25.893  28.840  1.00  0.00     0.010 A 
ATOM     38  C   UNL A   1      40.078  26.837  28.051  1.00  0.00    -0.014 A 
BRANCH  38  39
ATOM     39  C   UNL A   1      40.531  28.099  28.672  1.00  0.00     0.031 A 
ATOM     40  C   UNL A   1      41.949  28.196  29.152  1.00  0.00     0.074 A 
ATOM     41  C   UNL A   1      39.675  29.121  28.835  1.00  0.00     0.049 A 
ATOM     42  N   UNL A   1      42.519  29.121  29.878  1.00  0.00    -0.248 NA
ATOM     43  C   UNL A   1      42.848  27.100  28.754  1.00  0.00     0.031 C 
ATOM     44  C   UNL A   1      38.298  29.155  28.348  1.00  0.00     0.029 A 
ATOM     45  N   UNL A   1      39.834  30.317  29.488  1.00  0.00    -0.354 N 
ATOM     46  C   UNL A   1      43.835  28.711  30.040  1.00  0.00     0.074 A 
ATOM     47  C   UNL A   1      43.983  27.456  29.336  1.00  0.00     0.031 C 
ATOM     48  C   UNL A   1      37.723  30.302  28.747  1.00  0.00     0.029 A 
ATOM     49  C   UNL A   1      38.676  31.050  29.562  1.00  0.00     0.049 A 
ATOM     50  H   UNL A   1      40.692  30.618  29.865  1.00  0.00     0.167 HD
ATOM     51  C   UNL A   1      44.823  29.327  30.728  1.00  0.00     0.037 A 
ATOM     52  C   UNL A   1      38.408  32.173  30.258  1.00  0.00     0.037 A 
ATOM     53  C   UNL A   1      44.652  30.563  31.442  1.00  0.00     0.049 A 
ATOM     54  C   UNL A   1      39.497  32.788  31.097  1.00  0.00     0.074 A 
ATOM     55  C   UNL A   1      45.579  31.265  32.189  1.00  0.00     0.029 A 
ATOM     56  N   UNL A   1      43.461  31.273  31.504  1.00  0.00    -0.354 N 
ATOM     57  N   UNL A   1      40.738  32.395  31.258  1.00  0.00    -0.248 NA
ATOM     58  C   UNL A   1      39.146  33.995  31.859  1.00  0.00     0.031 C 
ATOM     59  C   UNL A   1      44.937  32.380  32.739  1.00  0.00     0.029 A 
ATOM     60  C   UNL A   1      43.624  32.398  32.294  1.00  0.00     0.049 A 
ATOM     61  H   UNL A   1      42.625  31.015  31.054  1.00  0.00     0.167 HD
ATOM     62  C   UNL A   1      41.325  33.322  32.110  1.00  0.00     0.074 A 
ATOM     63  C   UNL A   1      40.303  34.296  32.434  1.00  0.00     0.031 C 
ATOM     64  C   UNL A   1      42.596  33.366  32.576  1.00  0.00     0.037 A 
BRANCH  51  65
ATOM     65  C   UNL A   1      46.157  28.647  30.776  1.00  0.00     0.064 A 
ATOM     66  C   UNL A   1      46.490  27.749  31.801  1.00  0.00     0.173 A 
ATOM     67  C   UNL A   1      47.108  28.881  29.772  1.00  0.00     0.173 A 
ATOM     68  F   UNL A   1      45.621  27.507  32.794  1.00  0.00    -0.203 F 
ATOM     69  C   UNL A   1      47.735  27.125  31.828  1.00  0.00     0.198 A 
ATOM     70  C   UNL A   1      48.342  28.239  29.789  1.00  0.00     0.198 A 
ATOM     71  F   UNL A   1      46.837  29.733  28.770  1.00  0.00    -0.203 F 
ATOM     72  F   UNL A   1      48.047  26.300  32.837  1.00  0.00    -0.200 F 
ATOM     73  C   UNL A   1      48.656  27.365  30.819  1.00  0.00     0.200 A 
ATOM     74  F   UNL A   1      49.228  28.466  28.810  1.00  0.00    -0.200 F 
ATOM     75  F   UNL A   1      49.852  26.760  30.844  1.00  0.00    -0.200 F 
ENDBRANCH  51  65
BRANCH  52  76
ATOM     76  C   UNL A   1      37.044  32.759  30.219  1.00  0.00     0.064 A 
ATOM     77  C   UNL A   1      36.126  32.517  31.248  1.00  0.00     0.173 A 
ATOM     78  C   UNL A   1      36.631  33.572  29.152  1.00  0.00     0.173 A 
ATOM     79  F   UNL A   1      36.466  31.726  32.276  1.00  0.00    -0.203 F 
ATOM     80  C   UNL A   1      34.841  33.056  31.208  1.00  0.00     0.198 A 
ATOM     81  C   UNL A   1      35.357  34.133  29.126  1.00  0.00     0.198 A 
ATOM     82  F   UNL A   1      37.472  33.832  28.140  1.00  0.00    -0.203 F 
ATOM     83  F   UNL A   1      33.969  32.779  32.187  1.00  0.00    -0.200 F 
ATOM     84  C   UNL A   1      34.460  33.870  30.151  1.00  0.00     0.200 A 
ATOM     85  F   UNL A   1      34.996  34.926  28.108  1.00  0.00    -0.200 F 
ATOM     86  F   UNL A   1      33.227  34.393  30.116  1.00  0.00    -0.200 F 
ENDBRANCH  52  76
BRANCH  64  87
ATOM     87  C   UNL A   1      42.978  34.533  33.436  1.00  0.00     0.064 A 
ATOM     88  C   UNL A   1      43.360  35.762  32.883  1.00  0.00     0.173 A 
ATOM     89  C   UNL A   1      42.875  34.438  34.832  1.00  0.00     0.173 A 
ATOM     90  F   UNL A   1      43.486  35.894  31.554  1.00  0.00    -0.203 F 
ATOM     91  C   UNL A   1      43.634  36.855  33.699  1.00  0.00     0.198 A 
ATOM     92  C   UNL A   1      43.126  35.540  35.643  1.00  0.00     0.198 A 
ATOM     93  F   UNL A   1      42.505  33.284  35.405  1.00  0.00    -0.203 F 
ATOM     94  F   UNL A   1      44.023  38.016  33.153  1.00  0.00    -0.200 F 
ATOM     95  C   UNL A   1      43.507  36.747  35.077  1.00  0.00     0.200 A 
ATOM     96  F   UNL A   1      42.989  35.437  36.973  1.00  0.00    -0.200 F 
ATOM     97  F   UNL A   1      43.753  37.806  35.859  1.00  0.00    -0.200 F 
ENDBRANCH  64  87
ENDBRANCH  38  39
ENDBRANCH  31  33
ENDBRANCH  30  31
ENDBRANCH  29  30
ENDBRANCH   1  29
TORSDOF 17
ENDMDL
MODEL 3
REMARK VINA RESULT:     -11.8      1.508      2.588
REMARK SMILES O=C(/C=C/N[C@@H](Cc1c[nH]c2ccccc12)C(=O)OCCOC(=O)c1ccc(-c2c3nc(c(-c4c(F)c(F)c(F)c(F)c4F)c4ccc([nH]4)c(-c4c(F)c(F)c(F)c(F)c4F)c4nc(c(-c5c(F)c(F)c(F)c(F)c5F)c5ccc2[nH]5)C=C4)C=C3)cc1)c1ccccc1
REMARK SMILES IDX 20 1 19 2 17 3 18 4 6 5 5 6 4 8 3 9 2 10 1 11 88 12 89 13
REMARK SMILES IDX 93 14 90 15 92 16 91 17 7 18 8 19 9 20 16 21 10 22 11 23
REMARK SMILES IDX 15 24 12 26 14 27 13 28 21 29 22 30 23 31 24 32 25 33 26 34
REMARK SMILES IDX 87 35 27 36 86 37 28 38 29 39 30 40 80 41 31 42 85 43 79 44
REMARK SMILES IDX 81 45 32 46 84 47 78 48 77 49 33 51 65 52 45 53 64 54 46 55
REMARK SMILES IDX 49 56 63 57 82 58 47 59 48 60 62 62 83 63 50 64 34 65 35 66
REMARK SMILES IDX 43 67 36 68 37 69 41 70 44 71 38 72 39 73 42 74 40 75 66 76
REMARK SMILES IDX 67 77 75 78 68 79 69 80 73 81 76 82 70 83 71 84 74 85 72 86
REMARK SMILES IDX 51 87 52 88 60 89 53 90 54 91 58 92 61 93 55 94 56 95 59 96
REMARK SMILES IDX 57 97
REMARK H PARENT 5 7 10 25 81 50 49 61
REMARK Flexibility Score: inf
ROOT
ATOM      1  C   UNL A   1      38.191  21.530  25.752  1.00  0.00     0.274 C 
ENDROOT
BRANCH   1   2
ATOM      2  O   UNL A   1      37.224  21.828  24.730  1.00  0.00    -0.461 OA
BRANCH   2   3
ATOM      3  C   UNL A   1      35.969  21.320  24.908  1.00  0.00     0.329 C 
ATOM      4  O   UNL A   1      35.709  20.123  25.002  1.00  0.00    -0.250 OA
BRANCH   3   5
ATOM      5  C   UNL A   1      34.888  22.408  24.939  1.00  0.00     0.194 C 
BRANCH   5   6
ATOM      6  N   UNL A   1      33.803  22.156  23.979  1.00  0.00    -0.378 N 
ATOM      7  H   UNL A   1      33.399  21.258  23.994  1.00  0.00     0.160 HD
BRANCH   6   8
ATOM      8  C   UNL A   1      33.295  23.045  23.062  1.00  0.00     0.082 C 
ATOM      9  C   UNL A   1      33.819  24.236  22.745  1.00  0.00     0.070 C 
BRANCH   9  10
ATOM     10  C   UNL A   1      33.277  25.199  21.747  1.00  0.00     0.187 C 
ATOM     11  O   UNL A   1      33.273  24.895  20.556  1.00  0.00    -0.289 OA
BRANCH  10  12
ATOM     12  C   UNL A   1      32.726  26.510  22.162  1.00  0.00     0.022 A 
ATOM     13  C   UNL A   1      33.542  27.631  22.357  1.00  0.00     0.012 A 
ATOM     14  C   UNL A   1      31.338  26.630  22.303  1.00  0.00     0.012 A 
ATOM     15  C   UNL A   1      32.974  28.845  22.748  1.00  0.00     0.001 A 
ATOM     16  C   UNL A   1      30.773  27.850  22.684  1.00  0.00     0.001 A 
ATOM     17  C   UNL A   1      31.593  28.953  22.915  1.00  0.00     0.000 A 
ENDBRANCH  10  12
ENDBRANCH   9  10
ENDBRANCH   6   8
ENDBRANCH   5   6
BRANCH   5  18
ATOM     18  C   UNL A   1      34.383  22.610  26.371  1.00  0.00     0.074 C 
BRANCH  18  19
ATOM     19  C   UNL A   1      33.161  23.471  26.501  1.00  0.00    -0.020 A 
ATOM     20  C   UNL A   1      31.897  23.052  26.872  1.00  0.00     0.087 A 
ATOM     21  C   UNL A   1      33.087  24.886  26.307  1.00  0.00     0.003 A 
ATOM     22  N   UNL A   1      31.060  24.133  26.844  1.00  0.00    -0.361 N 
ATOM     23  C   UNL A   1      31.763  25.269  26.522  1.00  0.00     0.046 A 
ATOM     24  C   UNL A   1      34.028  25.882  25.976  1.00  0.00     0.010 A 
ATOM     25  H   UNL A   1      30.092  24.101  27.026  1.00  0.00     0.166 HD
ATOM     26  C   UNL A   1      31.329  26.594  26.414  1.00  0.00     0.026 A 
ATOM     27  C   UNL A   1      33.616  27.216  25.883  1.00  0.00     0.001 A 
ATOM     28  C   UNL A   1      32.284  27.564  26.095  1.00  0.00     0.002 A 
ENDBRANCH  18  19
ENDBRANCH   5  18
ENDBRANCH   3   5
ENDBRANCH   2   3
ENDBRANCH   1   2
BRANCH   1  29
ATOM     29  C   UNL A   1      39.058  20.330  25.371  1.00  0.00     0.275 C 
BRANCH  29  30
ATOM     30  O   UNL A   1      39.909  19.941  26.460  1.00  0.00    -0.458 OA
BRANCH  30  31
ATOM     31  C   UNL A   1      41.207  19.758  26.129  1.00  0.00     0.338 C 
ATOM     32  O   UNL A   1      41.714  18.803  25.570  1.00  0.00    -0.246 OA
BRANCH  31  33
ATOM     33  C   UNL A   1      41.955  20.975  26.456  1.00  0.00     0.060 A 
ATOM     34  C   UNL A   1      42.276  21.225  27.794  1.00  0.00     0.016 A 
ATOM     35  C   UNL A   1      42.254  21.904  25.461  1.00  0.00     0.016 A 
ATOM     36  C   UNL A   1      42.888  22.421  28.153  1.00  0.00     0.010 A 
ATOM     37  C   UNL A   1      42.861  23.105  25.820  1.00  0.00     0.010 A 
ATOM     38  C   UNL A   1      43.159  23.377  27.168  1.00  0.00    -0.014 A 
BRANCH  38  39
ATOM     39  C   UNL A   1      43.647  24.721  27.539  1.00  0.00     0.031 A 
ATOM     40  C   UNL A   1      42.662  25.727  28.056  1.00  0.00     0.074 A 
ATOM     41  C   UNL A   1      44.942  25.041  27.377  1.00  0.00     0.049 A 
ATOM     42  N   UNL A   1      42.819  27.006  28.274  1.00  0.00    -0.248 NA
ATOM     43  C   UNL A   1      41.318  25.219  28.374  1.00  0.00     0.031 C 
ATOM     44  C   UNL A   1      45.991  24.120  26.945  1.00  0.00     0.029 A 
ATOM     45  N   UNL A   1      45.585  26.243  27.529  1.00  0.00    -0.354 N 
ATOM     46  C   UNL A   1      41.591  27.459  28.736  1.00  0.00     0.074 A 
ATOM     47  C   UNL A   1      40.698  26.321  28.770  1.00  0.00     0.031 C 
ATOM     48  C   UNL A   1      47.146  24.799  26.833  1.00  0.00     0.029 A 
ATOM     49  C   UNL A   1      46.899  26.207  27.132  1.00  0.00     0.049 A 
ATOM     50  H   UNL A   1      45.148  27.049  27.886  1.00  0.00     0.167 HD
ATOM     51  C   UNL A   1      41.243  28.718  29.087  1.00  0.00     0.037 A 
ATOM     52  C   UNL A   1      47.782  27.213  26.978  1.00  0.00     0.037 A 
ATOM     53  C   UNL A   1      42.136  29.843  29.025  1.00  0.00     0.049 A 
ATOM     54  C   UNL A   1      47.343  28.621  27.281  1.00  0.00     0.074 A 
ATOM     55  C   UNL A   1      41.884  31.166  29.336  1.00  0.00     0.029 A 
ATOM     56  N   UNL A   1      43.458  29.771  28.607  1.00  0.00    -0.354 N 
ATOM     57  N   UNL A   1      46.180  29.051  27.707  1.00  0.00    -0.248 NA
ATOM     58  C   UNL A   1      48.334  29.686  27.070  1.00  0.00     0.031 C 
ATOM     59  C   UNL A   1      43.042  31.903  29.067  1.00  0.00     0.029 A 
ATOM     60  C   UNL A   1      44.030  31.031  28.635  1.00  0.00     0.049 A 
ATOM     61  H   UNL A   1      43.920  28.947  28.332  1.00  0.00     0.167 HD
ATOM     62  C   UNL A   1      46.308  30.426  27.849  1.00  0.00     0.074 A 
ATOM     63  C   UNL A   1      47.663  30.761  27.459  1.00  0.00     0.031 C 
ATOM     64  C   UNL A   1      45.390  31.330  28.269  1.00  0.00     0.037 A 
BRANCH  51  65
ATOM     65  C   UNL A   1      39.828  28.947  29.522  1.00  0.00     0.064 A 
ATOM     66  C   UNL A   1      39.433  28.793  30.859  1.00  0.00     0.173 A 
ATOM     67  C   UNL A   1      38.857  29.346  28.591  1.00  0.00     0.173 A 
ATOM     68  F   UNL A   1      40.320  28.394  31.782  1.00  0.00    -0.203 F 
ATOM     69  C   UNL A   1      38.113  29.012  31.244  1.00  0.00     0.198 A 
ATOM     70  C   UNL A   1      37.544  29.586  28.983  1.00  0.00     0.198 A 
ATOM     71  F   UNL A   1      39.185  29.506  27.299  1.00  0.00    -0.203 F 
ATOM     72  F   UNL A   1      37.749  28.821  32.519  1.00  0.00    -0.200 F 
ATOM     73  C   UNL A   1      37.172  29.414  30.308  1.00  0.00     0.200 A 
ATOM     74  F   UNL A   1      36.638  29.983  28.079  1.00  0.00    -0.200 F 
ATOM     75  F   UNL A   1      35.903  29.630  30.681  1.00  0.00    -0.200 F 
ENDBRANCH  51  65
BRANCH  52  76
ATOM     76  C   UNL A   1      49.151  26.925  26.479  1.00  0.00     0.064 A 
ATOM     77  C   UNL A   1      49.447  26.984  25.112  1.00  0.00     0.173 A 
ATOM     78  C   UNL A   1      50.190  26.584  27.359  1.00  0.00     0.173 A 
ATOM     79  F   UNL A   1      48.481  27.279  24.230  1.00  0.00    -0.203 F 
ATOM     80  C   UNL A   1      50.728  26.702  24.640  1.00  0.00     0.198 A 
ATOM     81  C   UNL A   1      51.476  26.330  26.890  1.00  0.00     0.198 A 
ATOM     82  F   UNL A   1      49.958  26.512  28.678  1.00  0.00    -0.203 F 
ATOM     83  F   UNL A   1      50.975  26.729  23.324  1.00  0.00    -0.200 F 
ATOM     84  C   UNL A   1      51.743  26.383  25.530  1.00  0.00     0.200 A 
ATOM     85  F   UNL A   1      52.457  26.033  27.753  1.00  0.00    -0.200 F 
ATOM     86  F   UNL A   1      52.976  26.119  25.076  1.00  0.00    -0.200 F 
ENDBRANCH  52  76
BRANCH  64  87
ATOM     87  C   UNL A   1      45.829  32.757  28.391  1.00  0.00     0.064 A 
ATOM     88  C   UNL A   1      46.457  33.239  29.547  1.00  0.00     0.173 A 
ATOM     89  C   UNL A   1      45.695  33.629  27.299  1.00  0.00     0.173 A 
ATOM     90  F   UNL A   1      46.594  32.447  30.621  1.00  0.00    -0.203 F 
ATOM     91  C   UNL A   1      46.928  34.548  29.609  1.00  0.00     0.198 A 
ATOM     92  C   UNL A   1      46.189  34.927  27.356  1.00  0.00     0.198 A 
ATOM     93  F   UNL A   1      45.108  33.208  26.169  1.00  0.00    -0.203 F 
ATOM     94  F   UNL A   1      47.503  34.998  30.733  1.00  0.00    -0.200 F 
ATOM     95  C   UNL A   1      46.803  35.387  28.511  1.00  0.00     0.200 A 
ATOM     96  F   UNL A   1      46.079  35.732  26.289  1.00  0.00    -0.200 F 
ATOM     97  F   UNL A   1      47.274  36.639  28.567  1.00  0.00    -0.200 F 
ENDBRANCH  64  87
ENDBRANCH  38  39
ENDBRANCH  31  33
ENDBRANCH  30  31
ENDBRANCH  29  30
ENDBRANCH   1  29
TORSDOF 17
ENDMDL
