MODEL 1
REMARK VINA RESULT:     -13.3      0.000      0.000
REMARK SMILES Cc1cc(Nc2ccc(C(=O)OCCOC(=O)c3ccc(-c4c5nc(c(-c6c(F)c(F)c(F)c(F)c6F)c6ccc([nH]6)c(-c6c(F)c(F)c(F)c(F)c6F)c6nc(c(-c7c(F)c(F)c(F)c(F)c7F)c7ccc4[nH]7)C=C6)C=C5)cc3)cc2)nc(-n2nc(C)cc2C)n1
REMARK SMILES IDX 13 1 12 2 10 3 11 4 9 5 6 6 7 7 82 8 8 9 81 10 5 11 4 13
REMARK SMILES IDX 1 14 2 15 3 16 92 17 84 18 83 19 85 20 86 21 90 22 87 23
REMARK SMILES IDX 89 24 91 25 88 26 14 27 15 28 16 29 17 30 18 31 19 32 80 33
REMARK SMILES IDX 20 34 79 35 21 36 22 37 23 38 73 39 24 40 78 41 72 42 74 43
REMARK SMILES IDX 25 44 77 45 71 46 70 47 26 49 58 50 38 51 57 52 39 53 42 54
REMARK SMILES IDX 56 55 75 56 40 57 41 58 55 60 76 61 43 62 27 63 28 64 36 65
REMARK SMILES IDX 29 66 30 67 34 68 37 69 31 70 32 71 35 72 33 73 59 74 60 75
REMARK SMILES IDX 68 76 61 77 62 78 66 79 69 80 63 81 64 82 67 83 65 84 44 85
REMARK SMILES IDX 45 86 53 87 46 88 47 89 51 90 54 91 48 92 49 93 52 94 50 95
REMARK H PARENT 5 12 74 48 42 59
REMARK Flexibility Score: inf
ROOT
ATOM      1  C   UNL A   1      31.594  29.360  24.273  1.00  0.00     0.275 C 
ENDROOT
BRANCH   1   2
ATOM      2  O   UNL A   1      30.385  28.583  24.160  1.00  0.00    -0.458 OA
BRANCH   2   3
ATOM      3  C   UNL A   1      30.228  27.923  22.986  1.00  0.00     0.338 C 
ATOM      4  O   UNL A   1      29.729  28.368  21.964  1.00  0.00    -0.246 OA
BRANCH   3   5
ATOM      5  C   UNL A   1      30.839  26.576  23.053  1.00  0.00     0.060 A 
ATOM      6  C   UNL A   1      31.920  23.988  22.922  1.00  0.00     0.040 A 
ATOM      7  C   UNL A   1      32.464  25.012  22.149  1.00  0.00     0.027 A 
ATOM      8  C   UNL A   1      30.852  24.283  23.787  1.00  0.00     0.027 A 
ATOM      9  C   UNL A   1      31.903  26.284  22.189  1.00  0.00     0.018 A 
ATOM     10  C   UNL A   1      30.325  25.576  23.875  1.00  0.00     0.018 A 
BRANCH   6  11
ATOM     11  N   UNL A   1      32.299  22.659  22.651  1.00  0.00    -0.340 N 
ATOM     12  H   UNL A   1      32.050  22.269  21.782  1.00  0.00     0.168 HD
BRANCH  11  13
ATOM     13  C   UNL A   1      33.015  21.860  23.562  1.00  0.00     0.136 A 
ATOM     14  C   UNL A   1      32.823  18.514  25.230  1.00  0.00     0.067 C 
ATOM     15  C   UNL A   1      33.315  19.830  24.711  1.00  0.00     0.045 A 
ATOM     16  C   UNL A   1      32.512  20.627  23.921  1.00  0.00     0.070 A 
ATOM     17  N   UNL A   1      34.562  20.194  25.070  1.00  0.00    -0.216 NA
ATOM     18  C   UNL A   1      34.950  21.444  24.733  1.00  0.00     0.252 A 
ATOM     19  N   UNL A   1      34.200  22.294  24.016  1.00  0.00    -0.194 NA
BRANCH  18  20
ATOM     20  N   UNL A   1      36.262  21.879  25.115  1.00  0.00    -0.203 N 
ATOM     21  N   UNL A   1      36.527  23.182  25.433  1.00  0.00    -0.170 NA
ATOM     22  C   UNL A   1      37.406  21.099  25.201  1.00  0.00     0.045 A 
ATOM     23  C   UNL A   1      37.779  23.169  25.900  1.00  0.00     0.060 A 
ATOM     24  C   UNL A   1      38.383  21.905  25.747  1.00  0.00     0.049 A 
ATOM     25  C   UNL A   1      37.479  19.712  24.682  1.00  0.00     0.067 C 
ATOM     26  C   UNL A   1      38.378  24.399  26.474  1.00  0.00     0.069 C 
ENDBRANCH  18  20
ENDBRANCH  11  13
ENDBRANCH   6  11
ENDBRANCH   3   5
ENDBRANCH   2   3
ENDBRANCH   1   2
BRANCH   1  27
ATOM     27  C   UNL A   1      31.754  29.931  25.681  1.00  0.00     0.275 C 
BRANCH  27  28
ATOM     28  O   UNL A   1      33.122  30.309  25.919  1.00  0.00    -0.458 OA
BRANCH  28  29
ATOM     29  C   UNL A   1      33.329  31.125  26.976  1.00  0.00     0.338 C 
ATOM     30  O   UNL A   1      32.564  31.948  27.449  1.00  0.00    -0.246 OA
BRANCH  29  31
ATOM     31  C   UNL A   1      34.667  30.883  27.536  1.00  0.00     0.060 A 
ATOM     32  C   UNL A   1      35.005  29.604  27.964  1.00  0.00     0.016 A 
ATOM     33  C   UNL A   1      35.535  31.947  27.767  1.00  0.00     0.016 A 
ATOM     34  C   UNL A   1      36.150  29.393  28.726  1.00  0.00     0.010 A 
ATOM     35  C   UNL A   1      36.747  31.712  28.423  1.00  0.00     0.010 A 
ATOM     36  C   UNL A   1      37.053  30.440  28.944  1.00  0.00    -0.014 A 
BRANCH  36  37
ATOM     37  C   UNL A   1      38.310  30.225  29.716  1.00  0.00     0.031 A 
ATOM     38  C   UNL A   1      39.391  29.337  29.161  1.00  0.00     0.074 A 
ATOM     39  C   UNL A   1      38.476  30.788  30.930  1.00  0.00     0.049 A 
ATOM     40  N   UNL A   1      40.416  28.794  29.769  1.00  0.00    -0.248 NA
ATOM     41  C   UNL A   1      39.290  28.998  27.734  1.00  0.00     0.031 C 
ATOM     42  C   UNL A   1      37.540  31.710  31.574  1.00  0.00     0.029 A 
ATOM     43  N   UNL A   1      39.488  30.647  31.850  1.00  0.00    -0.354 N 
ATOM     44  C   UNL A   1      41.035  27.991  28.820  1.00  0.00     0.074 A 
ATOM     45  C   UNL A   1      40.279  28.127  27.593  1.00  0.00     0.031 C 
ATOM     46  C   UNL A   1      38.021  32.060  32.774  1.00  0.00     0.029 A 
ATOM     47  C   UNL A   1      39.245  31.309  33.028  1.00  0.00     0.049 A 
ATOM     48  H   UNL A   1      40.304  30.124  31.680  1.00  0.00     0.167 HD
ATOM     49  C   UNL A   1      42.130  27.206  28.968  1.00  0.00     0.037 A 
ATOM     50  C   UNL A   1      39.889  31.269  34.209  1.00  0.00     0.037 A 
ATOM     51  C   UNL A   1      42.911  27.127  30.176  1.00  0.00     0.049 A 
ATOM     52  C   UNL A   1      41.092  30.383  34.361  1.00  0.00     0.074 A 
ATOM     53  C   UNL A   1      44.058  26.391  30.418  1.00  0.00     0.029 A 
ATOM     54  N   UNL A   1      42.629  27.821  31.344  1.00  0.00    -0.354 N 
ATOM     55  N   UNL A   1      41.640  29.582  33.481  1.00  0.00    -0.248 NA
ATOM     56  C   UNL A   1      41.751  30.380  35.673  1.00  0.00     0.031 C 
ATOM     57  C   UNL A   1      44.448  26.611  31.744  1.00  0.00     0.029 A 
ATOM     58  C   UNL A   1      43.571  27.520  32.315  1.00  0.00     0.049 A 
ATOM     59  H   UNL A   1      41.871  28.438  31.465  1.00  0.00     0.167 HD
ATOM     60  C   UNL A   1      42.714  28.986  34.125  1.00  0.00     0.074 A 
ATOM     61  C   UNL A   1      42.748  29.529  35.468  1.00  0.00     0.031 C 
ATOM     62  C   UNL A   1      43.590  28.069  33.647  1.00  0.00     0.037 A 
BRANCH  49  63
ATOM     63  C   UNL A   1      42.517  26.331  27.811  1.00  0.00     0.064 A 
ATOM     64  C   UNL A   1      43.477  26.718  26.865  1.00  0.00     0.173 A 
ATOM     65  C   UNL A   1      41.916  25.070  27.655  1.00  0.00     0.173 A 
ATOM     66  F   UNL A   1      44.072  27.917  26.960  1.00  0.00    -0.203 F 
ATOM     67  C   UNL A   1      43.795  25.893  25.788  1.00  0.00     0.198 A 
ATOM     68  C   UNL A   1      42.259  24.236  26.594  1.00  0.00     0.198 A 
ATOM     69  F   UNL A   1      40.997  24.645  28.534  1.00  0.00    -0.203 F 
ATOM     70  F   UNL A   1      44.675  26.309  24.865  1.00  0.00    -0.200 F 
ATOM     71  C   UNL A   1      43.189  24.652  25.655  1.00  0.00     0.200 A 
ATOM     72  F   UNL A   1      41.681  23.031  26.476  1.00  0.00    -0.200 F 
ATOM     73  F   UNL A   1      43.497  23.862  24.618  1.00  0.00    -0.200 F 
ENDBRANCH  49  63
BRANCH  50  74
ATOM     74  C   UNL A   1      39.358  32.058  35.350  1.00  0.00     0.064 A 
ATOM     75  C   UNL A   1      38.499  31.479  36.292  1.00  0.00     0.173 A 
ATOM     76  C   UNL A   1      39.750  33.390  35.554  1.00  0.00     0.173 A 
ATOM     77  F   UNL A   1      38.077  30.217  36.126  1.00  0.00    -0.203 F 
ATOM     78  C   UNL A   1      38.058  32.201  37.399  1.00  0.00     0.198 A 
ATOM     79  C   UNL A   1      39.332  34.102  36.675  1.00  0.00     0.198 A 
ATOM     80  F   UNL A   1      40.574  33.989  34.680  1.00  0.00    -0.203 F 
ATOM     81  F   UNL A   1      37.219  31.632  38.276  1.00  0.00    -0.200 F 
ATOM     82  C   UNL A   1      38.484  33.507  37.596  1.00  0.00     0.200 A 
ATOM     83  F   UNL A   1      39.761  35.356  36.870  1.00  0.00    -0.200 F 
ATOM     84  F   UNL A   1      38.078  34.191  38.674  1.00  0.00    -0.200 F 
ENDBRANCH  50  74
BRANCH  62  85
ATOM     85  C   UNL A   1      44.678  27.616  34.572  1.00  0.00     0.064 A 
ATOM     86  C   UNL A   1      45.894  28.308  34.669  1.00  0.00     0.173 A 
ATOM     87  C   UNL A   1      44.485  26.502  35.402  1.00  0.00     0.173 A 
ATOM     88  F   UNL A   1      46.131  29.369  33.883  1.00  0.00    -0.203 F 
ATOM     89  C   UNL A   1      46.883  27.891  35.554  1.00  0.00     0.198 A 
ATOM     90  C   UNL A   1      45.467  26.102  36.302  1.00  0.00     0.198 A 
ATOM     91  F   UNL A   1      43.337  25.809  35.347  1.00  0.00    -0.203 F 
ATOM     92  F   UNL A   1      48.052  28.545  35.607  1.00  0.00    -0.200 F 
ATOM     93  C   UNL A   1      46.667  26.794  36.375  1.00  0.00     0.200 A 
ATOM     94  F   UNL A   1      45.253  25.048  37.101  1.00  0.00    -0.200 F 
ATOM     95  F   UNL A   1      47.618  26.398  37.232  1.00  0.00    -0.200 F 
ENDBRANCH  62  85
ENDBRANCH  36  37
ENDBRANCH  29  31
ENDBRANCH  28  29
ENDBRANCH  27  28
ENDBRANCH   1  27
TORSDOF 14
ENDMDL
MODEL 2
REMARK VINA RESULT:     -13.2      3.661      8.465
REMARK SMILES Cc1cc(Nc2ccc(C(=O)OCCOC(=O)c3ccc(-c4c5nc(c(-c6c(F)c(F)c(F)c(F)c6F)c6ccc([nH]6)c(-c6c(F)c(F)c(F)c(F)c6F)c6nc(c(-c7c(F)c(F)c(F)c(F)c7F)c7ccc4[nH]7)C=C6)C=C5)cc3)cc2)nc(-n2nc(C)cc2C)n1
REMARK SMILES IDX 13 1 12 2 10 3 11 4 9 5 6 6 7 7 82 8 8 9 81 10 5 11 4 13
REMARK SMILES IDX 1 14 2 15 3 16 92 17 84 18 83 19 85 20 86 21 90 22 87 23
REMARK SMILES IDX 89 24 91 25 88 26 14 27 15 28 16 29 17 30 18 31 19 32 80 33
REMARK SMILES IDX 20 34 79 35 21 36 22 37 23 38 73 39 24 40 78 41 72 42 74 43
REMARK SMILES IDX 25 44 77 45 71 46 70 47 26 49 58 50 38 51 57 52 39 53 42 54
REMARK SMILES IDX 56 55 75 56 40 57 41 58 55 60 76 61 43 62 27 63 28 64 36 65
REMARK SMILES IDX 29 66 30 67 34 68 37 69 31 70 32 71 35 72 33 73 59 74 60 75
REMARK SMILES IDX 68 76 61 77 62 78 66 79 69 80 63 81 64 82 67 83 65 84 44 85
REMARK SMILES IDX 45 86 53 87 46 88 47 89 51 90 54 91 48 92 49 93 52 94 50 95
REMARK H PARENT 5 12 74 48 42 59
REMARK Flexibility Score: inf
ROOT
ATOM      1  C   UNL A   1      41.965  20.214  26.748  1.00  0.00     0.275 C 
ENDROOT
BRANCH   1   2
ATOM      2  O   UNL A   1      40.655  20.810  26.829  1.00  0.00    -0.458 OA
BRANCH   2   3
ATOM      3  C   UNL A   1      39.740  20.317  25.959  1.00  0.00     0.338 C 
ATOM      4  O   UNL A   1      39.733  19.198  25.470  1.00  0.00    -0.246 OA
BRANCH   3   5
ATOM      5  C   UNL A   1      38.651  21.293  25.729  1.00  0.00     0.060 A 
ATOM      6  C   UNL A   1      36.657  23.142  25.032  1.00  0.00     0.040 A 
ATOM      7  C   UNL A   1      36.590  21.833  24.561  1.00  0.00     0.027 A 
ATOM      8  C   UNL A   1      37.715  23.506  25.883  1.00  0.00     0.027 A 
ATOM      9  C   UNL A   1      37.599  20.930  24.879  1.00  0.00     0.018 A 
ATOM     10  C   UNL A   1      38.698  22.582  26.254  1.00  0.00     0.018 A 
BRANCH   6  11
ATOM     11  N   UNL A   1      35.804  24.111  24.467  1.00  0.00    -0.340 N 
ATOM     12  H   UNL A   1      36.131  24.630  23.696  1.00  0.00     0.168 HD
BRANCH  11  13
ATOM     13  C   UNL A   1      34.509  24.375  24.951  1.00  0.00     0.136 A 
ATOM     14  C   UNL A   1      31.970  22.960  27.310  1.00  0.00     0.067 C 
ATOM     15  C   UNL A   1      32.721  23.878  26.395  1.00  0.00     0.045 A 
ATOM     16  C   UNL A   1      33.933  23.504  25.852  1.00  0.00     0.070 A 
ATOM     17  N   UNL A   1      32.144  25.065  26.121  1.00  0.00    -0.216 NA
ATOM     18  C   UNL A   1      32.741  25.827  25.178  1.00  0.00     0.252 A 
ATOM     19  N   UNL A   1      33.889  25.501  24.567  1.00  0.00    -0.194 NA
BRANCH  18  20
ATOM     20  N   UNL A   1      32.147  27.088  24.842  1.00  0.00    -0.203 N 
ATOM     21  N   UNL A   1      32.061  28.110  25.745  1.00  0.00    -0.170 NA
ATOM     22  C   UNL A   1      31.583  27.446  23.625  1.00  0.00     0.045 A 
ATOM     23  C   UNL A   1      31.624  29.155  25.035  1.00  0.00     0.060 A 
ATOM     24  C   UNL A   1      31.280  28.787  23.719  1.00  0.00     0.049 A 
ATOM     25  C   UNL A   1      31.312  26.469  22.543  1.00  0.00     0.067 C 
ATOM     26  C   UNL A   1      31.531  30.498  25.658  1.00  0.00     0.069 C 
ENDBRANCH  18  20
ENDBRANCH  11  13
ENDBRANCH   6  11
ENDBRANCH   3   5
ENDBRANCH   2   3
ENDBRANCH   1   2
BRANCH   1  27
ATOM     27  C   UNL A   1      42.870  20.998  25.799  1.00  0.00     0.275 C 
BRANCH  27  28
ATOM     28  O   UNL A   1      42.218  22.205  25.362  1.00  0.00    -0.458 OA
BRANCH  28  29
ATOM     29  C   UNL A   1      43.015  23.288  25.232  1.00  0.00     0.338 C 
ATOM     30  O   UNL A   1      43.977  23.427  24.496  1.00  0.00    -0.246 OA
BRANCH  29  31
ATOM     31  C   UNL A   1      42.552  24.355  26.131  1.00  0.00     0.060 A 
ATOM     32  C   UNL A   1      43.025  25.651  25.950  1.00  0.00     0.016 A 
ATOM     33  C   UNL A   1      41.763  24.050  27.236  1.00  0.00     0.016 A 
ATOM     34  C   UNL A   1      42.816  26.622  26.924  1.00  0.00     0.010 A 
ATOM     35  C   UNL A   1      41.447  25.059  28.152  1.00  0.00     0.010 A 
ATOM     36  C   UNL A   1      42.000  26.348  28.027  1.00  0.00    -0.014 A 
BRANCH  36  37
ATOM     37  C   UNL A   1      41.723  27.389  29.058  1.00  0.00     0.031 A 
ATOM     38  C   UNL A   1      42.551  27.445  30.312  1.00  0.00     0.074 A 
ATOM     39  C   UNL A   1      40.708  28.262  28.897  1.00  0.00     0.049 A 
ATOM     40  N   UNL A   1      42.313  28.065  31.441  1.00  0.00    -0.248 NA
ATOM     41  C   UNL A   1      43.808  26.681  30.300  1.00  0.00     0.031 C 
ATOM     42  C   UNL A   1      39.852  28.362  27.714  1.00  0.00     0.029 A 
ATOM     43  N   UNL A   1      40.211  29.221  29.747  1.00  0.00    -0.354 N 
ATOM     44  C   UNL A   1      43.346  27.705  32.296  1.00  0.00     0.074 A 
ATOM     45  C   UNL A   1      44.220  26.821  31.552  1.00  0.00     0.031 C 
ATOM     46  C   UNL A   1      38.946  29.329  27.905  1.00  0.00     0.029 A 
ATOM     47  C   UNL A   1      39.089  29.847  29.261  1.00  0.00     0.049 A 
ATOM     48  H   UNL A   1      40.618  29.437  30.616  1.00  0.00     0.167 HD
ATOM     49  C   UNL A   1      43.537  28.072  33.586  1.00  0.00     0.037 A 
ATOM     50  C   UNL A   1      38.225  30.691  29.855  1.00  0.00     0.037 A 
ATOM     51  C   UNL A   1      42.695  29.000  34.296  1.00  0.00     0.049 A 
ATOM     52  C   UNL A   1      38.443  31.077  31.289  1.00  0.00     0.074 A 
ATOM     53  C   UNL A   1      42.822  29.467  35.593  1.00  0.00     0.029 A 
ATOM     54  N   UNL A   1      41.571  29.613  33.760  1.00  0.00    -0.354 N 
ATOM     55  N   UNL A   1      39.387  30.690  32.112  1.00  0.00    -0.248 NA
ATOM     56  C   UNL A   1      37.466  31.998  31.883  1.00  0.00     0.031 C 
ATOM     57  C   UNL A   1      41.754  30.334  35.853  1.00  0.00     0.029 A 
ATOM     58  C   UNL A   1      40.987  30.443  34.704  1.00  0.00     0.049 A 
ATOM     59  H   UNL A   1      41.238  29.480  32.843  1.00  0.00     0.167 HD
ATOM     60  C   UNL A   1      39.128  31.325  33.316  1.00  0.00     0.074 A 
ATOM     61  C   UNL A   1      37.943  32.136  33.114  1.00  0.00     0.031 C 
ATOM     62  C   UNL A   1      39.808  31.242  34.486  1.00  0.00     0.037 A 
BRANCH  49  63
ATOM     63  C   UNL A   1      44.673  27.429  34.329  1.00  0.00     0.064 A 
ATOM     64  C   UNL A   1      44.528  26.214  35.015  1.00  0.00     0.173 A 
ATOM     65  C   UNL A   1      45.937  28.041  34.344  1.00  0.00     0.173 A 
ATOM     66  F   UNL A   1      43.339  25.593  35.044  1.00  0.00    -0.203 F 
ATOM     67  C   UNL A   1      45.594  25.656  35.717  1.00  0.00     0.198 A 
ATOM     68  C   UNL A   1      47.008  27.465  35.021  1.00  0.00     0.198 A 
ATOM     69  F   UNL A   1      46.134  29.200  33.698  1.00  0.00    -0.203 F 
ATOM     70  F   UNL A   1      45.416  24.523  36.412  1.00  0.00    -0.200 F 
ATOM     71  C   UNL A   1      46.833  26.279  35.716  1.00  0.00     0.200 A 
ATOM     72  F   UNL A   1      48.208  28.063  35.008  1.00  0.00    -0.200 F 
ATOM     73  F   UNL A   1      47.857  25.740  36.392  1.00  0.00    -0.200 F 
ENDBRANCH  49  63
BRANCH  50  74
ATOM     74  C   UNL A   1      37.044  31.172  29.093  1.00  0.00     0.064 A 
ATOM     75  C   UNL A   1      35.950  30.333  28.850  1.00  0.00     0.173 A 
ATOM     76  C   UNL A   1      36.962  32.501  28.648  1.00  0.00     0.173 A 
ATOM     77  F   UNL A   1      35.992  29.050  29.235  1.00  0.00    -0.203 F 
ATOM     78  C   UNL A   1      34.815  30.808  28.196  1.00  0.00     0.198 A 
ATOM     79  C   UNL A   1      35.817  32.982  28.021  1.00  0.00     0.198 A 
ATOM     80  F   UNL A   1      37.985  33.344  28.860  1.00  0.00    -0.203 F 
ATOM     81  F   UNL A   1      33.788  29.981  27.956  1.00  0.00    -0.200 F 
ATOM     82  C   UNL A   1      34.743  32.134  27.793  1.00  0.00     0.200 A 
ATOM     83  F   UNL A   1      35.747  34.267  27.650  1.00  0.00    -0.200 F 
ATOM     84  F   UNL A   1      33.642  32.594  27.186  1.00  0.00    -0.200 F 
ENDBRANCH  50  74
BRANCH  62  85
ATOM     85  C   UNL A   1      39.306  32.071  35.629  1.00  0.00     0.064 A 
ATOM     86  C   UNL A   1      38.428  31.545  36.587  1.00  0.00     0.173 A 
ATOM     87  C   UNL A   1      39.743  33.394  35.790  1.00  0.00     0.173 A 
ATOM     88  F   UNL A   1      37.969  30.290  36.464  1.00  0.00    -0.203 F 
ATOM     89  C   UNL A   1      37.994  32.320  37.658  1.00  0.00     0.198 A 
ATOM     90  C   UNL A   1      39.326  34.157  36.875  1.00  0.00     0.198 A 
ATOM     91  F   UNL A   1      40.587  33.940  34.901  1.00  0.00    -0.203 F 
ATOM     92  F   UNL A   1      37.126  31.811  38.544  1.00  0.00    -0.200 F 
ATOM     93  C   UNL A   1      38.448  33.622  37.806  1.00  0.00     0.200 A 
ATOM     94  F   UNL A   1      39.774  35.412  37.022  1.00  0.00    -0.200 F 
ATOM     95  F   UNL A   1      38.034  34.364  38.842  1.00  0.00    -0.200 F 
ENDBRANCH  62  85
ENDBRANCH  36  37
ENDBRANCH  29  31
ENDBRANCH  28  29
ENDBRANCH  27  28
ENDBRANCH   1  27
TORSDOF 14
ENDMDL
MODEL 3
REMARK VINA RESULT:     -13.2      5.757      9.574
REMARK SMILES Cc1cc(Nc2ccc(C(=O)OCCOC(=O)c3ccc(-c4c5nc(c(-c6c(F)c(F)c(F)c(F)c6F)c6ccc([nH]6)c(-c6c(F)c(F)c(F)c(F)c6F)c6nc(c(-c7c(F)c(F)c(F)c(F)c7F)c7ccc4[nH]7)C=C6)C=C5)cc3)cc2)nc(-n2nc(C)cc2C)n1
REMARK SMILES IDX 13 1 12 2 10 3 11 4 9 5 6 6 7 7 82 8 8 9 81 10 5 11 4 13
REMARK SMILES IDX 1 14 2 15 3 16 92 17 84 18 83 19 85 20 86 21 90 22 87 23
REMARK SMILES IDX 89 24 91 25 88 26 14 27 15 28 16 29 17 30 18 31 19 32 80 33
REMARK SMILES IDX 20 34 79 35 21 36 22 37 23 38 73 39 24 40 78 41 72 42 74 43
REMARK SMILES IDX 25 44 77 45 71 46 70 47 26 49 58 50 38 51 57 52 39 53 42 54
REMARK SMILES IDX 56 55 75 56 40 57 41 58 55 60 76 61 43 62 27 63 28 64 36 65
REMARK SMILES IDX 29 66 30 67 34 68 37 69 31 70 32 71 35 72 33 73 59 74 60 75
REMARK SMILES IDX 68 76 61 77 62 78 66 79 69 80 63 81 64 82 67 83 65 84 44 85
REMARK SMILES IDX 45 86 53 87 46 88 47 89 51 90 54 91 48 92 49 93 52 94 50 95
REMARK H PARENT 5 12 74 48 42 59
REMARK Flexibility Score: inf
ROOT
ATOM      1  C   UNL A   1      42.108  19.372  26.790  1.00  0.00     0.275 C 
ENDROOT
BRANCH   1   2
ATOM      2  O   UNL A   1      41.647  20.555  26.107  1.00  0.00    -0.458 OA
BRANCH   2   3
ATOM      3  C   UNL A   1      41.390  21.621  26.904  1.00  0.00     0.338 C 
ATOM      4  O   UNL A   1      42.155  22.123  27.714  1.00  0.00    -0.246 OA
BRANCH   3   5
ATOM      5  C   UNL A   1      40.058  22.193  26.606  1.00  0.00     0.060 A 
ATOM      6  C   UNL A   1      37.605  23.280  25.780  1.00  0.00     0.040 A 
ATOM      7  C   UNL A   1      37.951  21.981  25.415  1.00  0.00     0.027 A 
ATOM      8  C   UNL A   1      38.484  24.016  26.592  1.00  0.00     0.027 A 
ATOM      9  C   UNL A   1      39.183  21.459  25.796  1.00  0.00     0.018 A 
ATOM     10  C   UNL A   1      39.698  23.471  27.027  1.00  0.00     0.018 A 
BRANCH   6  11
ATOM     11  N   UNL A   1      36.505  23.892  25.146  1.00  0.00    -0.340 N 
ATOM     12  H   UNL A   1      36.679  24.625  24.513  1.00  0.00     0.168 HD
BRANCH  11  13
ATOM     13  C   UNL A   1      35.170  23.508  25.377  1.00  0.00     0.136 A 
ATOM     14  C   UNL A   1      31.915  24.953  26.530  1.00  0.00     0.067 C 
ATOM     15  C   UNL A   1      32.952  24.048  25.937  1.00  0.00     0.045 A 
ATOM     16  C   UNL A   1      34.272  24.439  25.855  1.00  0.00     0.070 A 
ATOM     17  N   UNL A   1      32.529  22.841  25.511  1.00  0.00    -0.216 NA
ATOM     18  C   UNL A   1      33.483  21.967  25.120  1.00  0.00     0.252 A 
ATOM     19  N   UNL A   1      34.791  22.259  25.069  1.00  0.00    -0.194 NA
BRANCH  18  20
ATOM     20  N   UNL A   1      33.078  20.664  24.681  1.00  0.00    -0.203 N 
ATOM     21  N   UNL A   1      33.351  19.539  25.407  1.00  0.00    -0.170 NA
ATOM     22  C   UNL A   1      32.400  20.353  23.511  1.00  0.00     0.045 A 
ATOM     23  C   UNL A   1      32.679  18.563  24.789  1.00  0.00     0.060 A 
ATOM     24  C   UNL A   1      32.097  19.010  23.585  1.00  0.00     0.049 A 
ATOM     25  C   UNL A   1      32.188  21.330  22.416  1.00  0.00     0.067 C 
ATOM     26  C   UNL A   1      32.628  17.201  25.374  1.00  0.00     0.069 C 
ENDBRANCH  18  20
ENDBRANCH  11  13
ENDBRANCH   6  11
ENDBRANCH   3   5
ENDBRANCH   2   3
ENDBRANCH   1   2
BRANCH   1  27
ATOM     27  C   UNL A   1      43.013  18.532  25.890  1.00  0.00     0.275 C 
BRANCH  27  28
ATOM     28  O   UNL A   1      43.294  19.233  24.664  1.00  0.00    -0.458 OA
BRANCH  28  29
ATOM     29  C   UNL A   1      44.601  19.452  24.400  1.00  0.00     0.338 C 
ATOM     30  O   UNL A   1      45.430  18.652  24.002  1.00  0.00    -0.246 OA
BRANCH  29  31
ATOM     31  C   UNL A   1      44.929  20.862  24.653  1.00  0.00     0.060 A 
ATOM     32  C   UNL A   1      45.438  21.230  25.894  1.00  0.00     0.016 A 
ATOM     33  C   UNL A   1      44.600  21.839  23.718  1.00  0.00     0.016 A 
ATOM     34  C   UNL A   1      45.515  22.572  26.257  1.00  0.00     0.010 A 
ATOM     35  C   UNL A   1      44.797  23.187  24.037  1.00  0.00     0.010 A 
ATOM     36  C   UNL A   1      45.222  23.571  25.323  1.00  0.00    -0.014 A 
BRANCH  36  37
ATOM     37  C   UNL A   1      45.345  25.015  25.675  1.00  0.00     0.031 A 
ATOM     38  C   UNL A   1      46.674  25.708  25.551  1.00  0.00     0.074 A 
ATOM     39  C   UNL A   1      44.283  25.701  26.143  1.00  0.00     0.049 A 
ATOM     40  N   UNL A   1      47.068  26.849  26.057  1.00  0.00    -0.248 NA
ATOM     41  C   UNL A   1      47.705  25.010  24.768  1.00  0.00     0.031 C 
ATOM     42  C   UNL A   1      42.922  25.178  26.270  1.00  0.00     0.029 A 
ATOM     43  N   UNL A   1      44.190  26.986  26.621  1.00  0.00    -0.354 N 
ATOM     44  C   UNL A   1      48.410  26.969  25.721  1.00  0.00     0.074 A 
ATOM     45  C   UNL A   1      48.760  25.790  24.957  1.00  0.00     0.031 C 
ATOM     46  C   UNL A   1      42.129  26.130  26.779  1.00  0.00     0.029 A 
ATOM     47  C   UNL A   1      42.944  27.294  27.111  1.00  0.00     0.049 A 
ATOM     48  H   UNL A   1      44.940  27.623  26.612  1.00  0.00     0.167 HD
ATOM     49  C   UNL A   1      49.270  27.969  26.033  1.00  0.00     0.037 A 
ATOM     50  C   UNL A   1      42.511  28.358  27.811  1.00  0.00     0.037 A 
ATOM     51  C   UNL A   1      48.896  29.167  26.740  1.00  0.00     0.049 A 
ATOM     52  C   UNL A   1      43.480  29.451  28.161  1.00  0.00     0.074 A 
ATOM     53  C   UNL A   1      49.681  30.256  27.075  1.00  0.00     0.029 A 
ATOM     54  N   UNL A   1      47.618  29.436  27.213  1.00  0.00    -0.354 N 
ATOM     55  N   UNL A   1      44.759  29.533  27.892  1.00  0.00    -0.248 NA
ATOM     56  C   UNL A   1      42.950  30.585  28.928  1.00  0.00     0.031 C 
ATOM     57  C   UNL A   1      48.888  31.167  27.782  1.00  0.00     0.029 A 
ATOM     58  C   UNL A   1      47.597  30.667  27.849  1.00  0.00     0.049 A 
ATOM     59  H   UNL A   1      46.841  28.840  27.111  1.00  0.00     0.167 HD
ATOM     60  C   UNL A   1      45.189  30.730  28.445  1.00  0.00     0.074 A 
ATOM     61  C   UNL A   1      44.028  31.348  29.055  1.00  0.00     0.031 C 
ATOM     62  C   UNL A   1      46.434  31.266  28.451  1.00  0.00     0.037 A 
BRANCH  49  63
ATOM     63  C   UNL A   1      50.712  27.786  25.656  1.00  0.00     0.064 A 
ATOM     64  C   UNL A   1      51.188  28.048  24.363  1.00  0.00     0.173 A 
ATOM     65  C   UNL A   1      51.638  27.349  26.617  1.00  0.00     0.173 A 
ATOM     66  F   UNL A   1      50.345  28.455  23.402  1.00  0.00    -0.203 F 
ATOM     67  C   UNL A   1      52.528  27.843  24.038  1.00  0.00     0.198 A 
ATOM     68  C   UNL A   1      52.982  27.175  26.296  1.00  0.00     0.198 A 
ATOM     69  F   UNL A   1      51.239  27.091  27.872  1.00  0.00    -0.203 F 
ATOM     70  F   UNL A   1      52.948  28.045  22.780  1.00  0.00    -0.200 F 
ATOM     71  C   UNL A   1      53.423  27.411  25.005  1.00  0.00     0.200 A 
ATOM     72  F   UNL A   1      53.847  26.770  27.237  1.00  0.00    -0.200 F 
ATOM     73  F   UNL A   1      54.711  27.216  24.689  1.00  0.00    -0.200 F 
ENDBRANCH  49  63
BRANCH  50  74
ATOM     74  C   UNL A   1      41.100  28.396  28.271  1.00  0.00     0.064 A 
ATOM     75  C   UNL A   1      40.740  27.931  29.542  1.00  0.00     0.173 A 
ATOM     76  C   UNL A   1      40.092  28.957  27.470  1.00  0.00     0.173 A 
ATOM     77  F   UNL A   1      41.663  27.365  30.333  1.00  0.00    -0.203 F 
ATOM     78  C   UNL A   1      39.427  28.032  29.997  1.00  0.00     0.198 A 
ATOM     79  C   UNL A   1      38.787  29.084  27.937  1.00  0.00     0.198 A 
ATOM     80  F   UNL A   1      40.388  29.419  26.246  1.00  0.00    -0.203 F 
ATOM     81  F   UNL A   1      39.103  27.561  31.209  1.00  0.00    -0.200 F 
ATOM     82  C   UNL A   1      38.454  28.619  29.201  1.00  0.00     0.200 A 
ATOM     83  F   UNL A   1      37.856  29.668  27.171  1.00  0.00    -0.200 F 
ATOM     84  F   UNL A   1      37.198  28.737  29.650  1.00  0.00    -0.200 F 
ENDBRANCH  50  74
BRANCH  62  85
ATOM     85  C   UNL A   1      46.599  32.601  29.110  1.00  0.00     0.064 A 
ATOM     86  C   UNL A   1      46.961  32.714  30.460  1.00  0.00     0.173 A 
ATOM     87  C   UNL A   1      46.436  33.783  28.371  1.00  0.00     0.173 A 
ATOM     88  F   UNL A   1      47.111  31.613  31.212  1.00  0.00    -0.203 F 
ATOM     89  C   UNL A   1      47.138  33.962  31.050  1.00  0.00     0.198 A 
ATOM     90  C   UNL A   1      46.637  35.027  28.958  1.00  0.00     0.198 A 
ATOM     91  F   UNL A   1      46.093  33.726  27.075  1.00  0.00    -0.203 F 
ATOM     92  F   UNL A   1      47.450  34.048  32.351  1.00  0.00    -0.200 F 
ATOM     93  C   UNL A   1      46.984  35.117  30.297  1.00  0.00     0.200 A 
ATOM     94  F   UNL A   1      46.497  36.142  28.227  1.00  0.00    -0.200 F 
ATOM     95  F   UNL A   1      47.162  36.317  30.866  1.00  0.00    -0.200 F 
ENDBRANCH  62  85
ENDBRANCH  36  37
ENDBRANCH  29  31
ENDBRANCH  28  29
ENDBRANCH  27  28
ENDBRANCH   1  27
TORSDOF 14
ENDMDL
