MODEL 1
REMARK VINA RESULT:     -10.0      0.000      0.000
REMARK SMILES Cc1cc(N[C@@H]2C=C[C@@H](C(=O)OCCOC(=O)c3ccc(-c4c5nc(c(-c6c(F)c(F)c(F)c(F)c6F)c6ccc([nH]6)c(-c6c(F)c(F)c(F)c(F)c6F)c6nc(c(-c7c(F)c(F)c(F)c(F)c7F)c7ccc4[nH]7)C=C6)C=C5)cc3)C2)nc(C)n1
REMARK SMILES IDX 13 1 12 2 10 3 11 4 9 5 6 6 7 7 81 8 8 9 5 10 4 12 1 13 2 14
REMARK SMILES IDX 3 15 85 16 83 17 82 18 84 19 14 20 15 21 16 22 17 23 18 24
REMARK SMILES IDX 19 25 80 26 20 27 79 28 21 29 22 30 23 31 73 32 24 33 78 34
REMARK SMILES IDX 72 35 74 36 25 37 77 38 71 39 70 40 26 42 58 43 38 44 57 45
REMARK SMILES IDX 39 46 42 47 56 48 75 49 40 50 41 51 55 53 76 54 43 55 27 56
REMARK SMILES IDX 28 57 36 58 29 59 30 60 34 61 37 62 31 63 32 64 35 65 33 66
REMARK SMILES IDX 59 67 60 68 68 69 61 70 62 71 66 72 69 73 63 74 64 75 67 76
REMARK SMILES IDX 65 77 44 78 45 79 53 80 46 81 47 82 51 83 54 84 48 85 49 86
REMARK SMILES IDX 52 87 50 88
REMARK H PARENT 5 11 74 41 42 52
REMARK Flexibility Score: inf
ROOT
ATOM      1  C   UNL A   1      43.704  18.517  25.727  1.00  0.00     0.274 C 
ENDROOT
BRANCH   1   2
ATOM      2  O   UNL A   1      43.743  19.389  24.582  1.00  0.00    -0.462 OA
BRANCH   2   3
ATOM      3  C   UNL A   1      44.950  19.922  24.278  1.00  0.00     0.312 C 
ATOM      4  O   UNL A   1      45.944  19.269  23.969  1.00  0.00    -0.252 OA
BRANCH   3   5
ATOM      5  C   UNL A   1      44.940  21.441  24.224  1.00  0.00     0.124 C 
ATOM      6  C   UNL A   1      44.502  23.453  25.550  1.00  0.00     0.104 C 
ATOM      7  C   UNL A   1      45.955  23.130  25.505  1.00  0.00    -0.006 C 
ATOM      8  C   UNL A   1      43.828  22.217  24.940  1.00  0.00     0.048 C 
ATOM      9  C   UNL A   1      46.200  22.015  24.806  1.00  0.00    -0.014 C 
BRANCH   6  10
ATOM     10  N   UNL A   1      44.208  24.709  24.898  1.00  0.00    -0.364 N 
ATOM     11  H   UNL A   1      44.011  24.598  23.940  1.00  0.00     0.162 HD
BRANCH  10  12
ATOM     12  C   UNL A   1      44.139  26.008  25.298  1.00  0.00     0.130 A 
ATOM     13  C   UNL A   1      46.078  29.032  26.386  1.00  0.00     0.067 C 
ATOM     14  C   UNL A   1      44.956  28.106  26.025  1.00  0.00     0.043 A 
ATOM     15  C   UNL A   1      45.201  26.786  25.697  1.00  0.00     0.070 A 
ATOM     16  N   UNL A   1      43.722  28.632  26.005  1.00  0.00    -0.238 NA
ATOM     17  C   UNL A   1      42.731  27.802  25.646  1.00  0.00     0.127 A 
ATOM     18  N   UNL A   1      42.896  26.515  25.280  1.00  0.00    -0.216 NA
ATOM     19  C   UNL A   1      41.334  28.334  25.696  1.00  0.00     0.090 C 
ENDBRANCH  10  12
ENDBRANCH   6  10
ENDBRANCH   3   5
ENDBRANCH   2   3
ENDBRANCH   1   2
BRANCH   1  20
ATOM     20  C   UNL A   1      42.268  18.405  26.240  1.00  0.00     0.275 C 
BRANCH  20  21
ATOM     21  O   UNL A   1      41.966  19.454  27.182  1.00  0.00    -0.458 OA
BRANCH  21  22
ATOM     22  C   UNL A   1      41.010  20.322  26.781  1.00  0.00     0.338 C 
ATOM     23  O   UNL A   1      40.067  20.107  26.039  1.00  0.00    -0.246 OA
BRANCH  22  24
ATOM     24  C   UNL A   1      41.238  21.636  27.396  1.00  0.00     0.060 A 
ATOM     25  C   UNL A   1      40.712  22.777  26.788  1.00  0.00     0.016 A 
ATOM     26  C   UNL A   1      42.101  21.744  28.487  1.00  0.00     0.016 A 
ATOM     27  C   UNL A   1      41.106  24.038  27.234  1.00  0.00     0.010 A 
ATOM     28  C   UNL A   1      42.457  23.011  28.960  1.00  0.00     0.010 A 
ATOM     29  C   UNL A   1      41.992  24.170  28.315  1.00  0.00    -0.014 A 
BRANCH  29  30
ATOM     30  C   UNL A   1      42.473  25.513  28.729  1.00  0.00     0.031 A 
ATOM     31  C   UNL A   1      41.489  26.630  28.964  1.00  0.00     0.074 A 
ATOM     32  C   UNL A   1      43.786  25.728  28.937  1.00  0.00     0.049 A 
ATOM     33  N   UNL A   1      41.719  27.888  29.252  1.00  0.00    -0.248 NA
ATOM     34  C   UNL A   1      40.061  26.289  28.864  1.00  0.00     0.031 C 
ATOM     35  C   UNL A   1      44.838  24.722  28.798  1.00  0.00     0.029 A 
ATOM     36  N   UNL A   1      44.458  26.862  29.323  1.00  0.00    -0.354 N 
ATOM     37  C   UNL A   1      40.470  28.487  29.357  1.00  0.00     0.074 A 
ATOM     38  C   UNL A   1      39.485  27.464  29.077  1.00  0.00     0.031 C 
ATOM     39  C   UNL A   1      46.019  25.274  29.126  1.00  0.00     0.029 A 
ATOM     40  C   UNL A   1      45.814  26.684  29.444  1.00  0.00     0.049 A 
ATOM     41  H   UNL A   1      44.009  27.721  29.496  1.00  0.00     0.167 HD
ATOM     42  C   UNL A   1      40.172  29.770  29.670  1.00  0.00     0.037 A 
ATOM     43  C   UNL A   1      46.786  27.564  29.757  1.00  0.00     0.037 A 
ATOM     44  C   UNL A   1      41.143  30.785  29.978  1.00  0.00     0.049 A 
ATOM     45  C   UNL A   1      46.430  29.001  30.021  1.00  0.00     0.074 A 
ATOM     46  C   UNL A   1      40.929  32.118  30.292  1.00  0.00     0.029 A 
ATOM     47  N   UNL A   1      42.512  30.578  30.026  1.00  0.00    -0.354 N 
ATOM     48  N   UNL A   1      45.249  29.565  30.070  1.00  0.00    -0.248 NA
ATOM     49  C   UNL A   1      47.548  29.928  30.255  1.00  0.00     0.031 C 
ATOM     50  C   UNL A   1      42.171  32.721  30.508  1.00  0.00     0.029 A 
ATOM     51  C   UNL A   1      43.156  31.760  30.356  1.00  0.00     0.049 A 
ATOM     52  H   UNL A   1      42.961  29.720  29.852  1.00  0.00     0.167 HD
ATOM     53  C   UNL A   1      45.478  30.904  30.355  1.00  0.00     0.074 A 
ATOM     54  C   UNL A   1      46.910  31.068  30.483  1.00  0.00     0.031 C 
ATOM     55  C   UNL A   1      44.580  31.907  30.492  1.00  0.00     0.037 A 
BRANCH  42  56
ATOM     56  C   UNL A   1      38.727  30.165  29.706  1.00  0.00     0.064 A 
ATOM     57  C   UNL A   1      38.066  30.397  30.921  1.00  0.00     0.173 A 
ATOM     58  C   UNL A   1      38.025  30.406  28.516  1.00  0.00     0.173 A 
ATOM     59  F   UNL A   1      38.695  30.175  32.084  1.00  0.00    -0.203 F 
ATOM     60  C   UNL A   1      36.752  30.854  30.942  1.00  0.00     0.198 A 
ATOM     61  C   UNL A   1      36.717  30.881  28.541  1.00  0.00     0.198 A 
ATOM     62  F   UNL A   1      38.618  30.207  27.329  1.00  0.00    -0.203 F 
ATOM     63  F   UNL A   1      36.133  31.057  32.113  1.00  0.00    -0.200 F 
ATOM     64  C   UNL A   1      36.081  31.105  29.753  1.00  0.00     0.200 A 
ATOM     65  F   UNL A   1      36.075  31.135  27.392  1.00  0.00    -0.200 F 
ATOM     66  F   UNL A   1      34.823  31.563  29.776  1.00  0.00    -0.200 F 
ENDBRANCH  42  56
BRANCH  43  67
ATOM     67  C   UNL A   1      48.200  27.114  29.831  1.00  0.00     0.064 A 
ATOM     68  C   UNL A   1      49.027  27.169  28.702  1.00  0.00     0.173 A 
ATOM     69  C   UNL A   1      48.744  26.606  31.019  1.00  0.00     0.173 A 
ATOM     70  F   UNL A   1      48.541  27.624  27.537  1.00  0.00    -0.203 F 
ATOM     71  C   UNL A   1      50.346  26.722  28.755  1.00  0.00     0.198 A 
ATOM     72  C   UNL A   1      50.068  26.181  31.077  1.00  0.00     0.198 A 
ATOM     73  F   UNL A   1      47.989  26.528  32.124  1.00  0.00    -0.203 F 
ATOM     74  F   UNL A   1      51.105  26.748  27.651  1.00  0.00    -0.200 F 
ATOM     75  C   UNL A   1      50.866  26.232  29.944  1.00  0.00     0.200 A 
ATOM     76  F   UNL A   1      50.570  25.716  32.230  1.00  0.00    -0.200 F 
ATOM     77  F   UNL A   1      52.134  25.802  29.995  1.00  0.00    -0.200 F 
ENDBRANCH  43  67
BRANCH  55  78
ATOM     78  C   UNL A   1      45.107  33.271  30.817  1.00  0.00     0.064 A 
ATOM     79  C   UNL A   1      45.307  33.676  32.144  1.00  0.00     0.173 A 
ATOM     80  C   UNL A   1      45.481  34.153  29.793  1.00  0.00     0.173 A 
ATOM     81  F   UNL A   1      44.951  32.871  33.156  1.00  0.00    -0.203 F 
ATOM     82  C   UNL A   1      45.855  34.922  32.434  1.00  0.00     0.198 A 
ATOM     83  C   UNL A   1      46.049  35.389  30.086  1.00  0.00     0.198 A 
ATOM     84  F   UNL A   1      45.314  33.807  28.507  1.00  0.00    -0.203 F 
ATOM     85  F   UNL A   1      46.016  35.301  33.710  1.00  0.00    -0.200 F 
ATOM     86  C   UNL A   1      46.233  35.775  31.406  1.00  0.00     0.200 A 
ATOM     87  F   UNL A   1      46.421  36.208  29.093  1.00  0.00    -0.200 F 
ATOM     88  F   UNL A   1      46.773  36.968  31.688  1.00  0.00    -0.200 F 
ENDBRANCH  55  78
ENDBRANCH  29  30
ENDBRANCH  22  24
ENDBRANCH  21  22
ENDBRANCH  20  21
ENDBRANCH   1  20
TORSDOF 13
ENDMDL
MODEL 2
REMARK VINA RESULT:      -9.9      0.906      7.665
REMARK SMILES Cc1cc(N[C@@H]2C=C[C@@H](C(=O)OCCOC(=O)c3ccc(-c4c5nc(c(-c6c(F)c(F)c(F)c(F)c6F)c6ccc([nH]6)c(-c6c(F)c(F)c(F)c(F)c6F)c6nc(c(-c7c(F)c(F)c(F)c(F)c7F)c7ccc4[nH]7)C=C6)C=C5)cc3)C2)nc(C)n1
REMARK SMILES IDX 13 1 12 2 10 3 11 4 9 5 6 6 7 7 81 8 8 9 5 10 4 12 1 13 2 14
REMARK SMILES IDX 3 15 85 16 83 17 82 18 84 19 14 20 15 21 16 22 17 23 18 24
REMARK SMILES IDX 19 25 80 26 20 27 79 28 21 29 22 30 23 31 73 32 24 33 78 34
REMARK SMILES IDX 72 35 74 36 25 37 77 38 71 39 70 40 26 42 58 43 38 44 57 45
REMARK SMILES IDX 39 46 42 47 56 48 75 49 40 50 41 51 55 53 76 54 43 55 27 56
REMARK SMILES IDX 28 57 36 58 29 59 30 60 34 61 37 62 31 63 32 64 35 65 33 66
REMARK SMILES IDX 59 67 60 68 68 69 61 70 62 71 66 72 69 73 63 74 64 75 67 76
REMARK SMILES IDX 65 77 44 78 45 79 53 80 46 81 47 82 51 83 54 84 48 85 49 86
REMARK SMILES IDX 52 87 50 88
REMARK H PARENT 5 11 74 41 42 52
REMARK Flexibility Score: inf
ROOT
ATOM      1  C   UNL A   1      44.254  18.572  25.709  1.00  0.00     0.274 C 
ENDROOT
BRANCH   1   2
ATOM      2  O   UNL A   1      44.523  19.580  24.717  1.00  0.00    -0.462 OA
BRANCH   2   3
ATOM      3  C   UNL A   1      45.684  20.262  24.859  1.00  0.00     0.312 C 
ATOM      4  O   UNL A   1      46.796  19.810  24.599  1.00  0.00    -0.252 OA
BRANCH   3   5
ATOM      5  C   UNL A   1      45.482  21.716  25.253  1.00  0.00     0.124 C 
ATOM      6  C   UNL A   1      45.218  23.979  24.355  1.00  0.00     0.104 C 
ATOM      7  C   UNL A   1      43.903  23.361  24.682  1.00  0.00    -0.006 C 
ATOM      8  C   UNL A   1      46.215  22.820  24.481  1.00  0.00     0.048 C 
ATOM      9  C   UNL A   1      44.037  22.113  25.147  1.00  0.00    -0.014 C 
BRANCH   6  10
ATOM     10  N   UNL A   1      45.494  25.131  25.182  1.00  0.00    -0.364 N 
ATOM     11  H   UNL A   1      46.347  25.051  25.665  1.00  0.00     0.162 HD
BRANCH  10  12
ATOM     12  C   UNL A   1      44.851  26.301  25.450  1.00  0.00     0.130 A 
ATOM     13  C   UNL A   1      41.545  28.071  25.581  1.00  0.00     0.067 C 
ATOM     14  C   UNL A   1      43.011  27.775  25.654  1.00  0.00     0.043 A 
ATOM     15  C   UNL A   1      43.507  26.539  25.285  1.00  0.00     0.070 A 
ATOM     16  N   UNL A   1      43.802  28.751  26.124  1.00  0.00    -0.238 NA
ATOM     17  C   UNL A   1      45.109  28.461  26.218  1.00  0.00     0.127 A 
ATOM     18  N   UNL A   1      45.659  27.269  25.911  1.00  0.00    -0.216 NA
ATOM     19  C   UNL A   1      46.028  29.556  26.658  1.00  0.00     0.090 C 
ENDBRANCH  10  12
ENDBRANCH   6  10
ENDBRANCH   3   5
ENDBRANCH   2   3
ENDBRANCH   1   2
BRANCH   1  20
ATOM     20  C   UNL A   1      42.746  18.464  25.937  1.00  0.00     0.275 C 
BRANCH  20  21
ATOM     21  O   UNL A   1      42.056  19.627  25.436  1.00  0.00    -0.458 OA
BRANCH  21  22
ATOM     22  C   UNL A   1      40.915  19.939  26.092  1.00  0.00     0.338 C 
ATOM     23  O   UNL A   1      39.882  19.295  26.145  1.00  0.00    -0.246 OA
BRANCH  22  24
ATOM     24  C   UNL A   1      41.077  21.217  26.797  1.00  0.00     0.060 A 
ATOM     25  C   UNL A   1      40.562  22.382  26.228  1.00  0.00     0.016 A 
ATOM     26  C   UNL A   1      41.874  21.276  27.941  1.00  0.00     0.016 A 
ATOM     27  C   UNL A   1      40.899  23.621  26.771  1.00  0.00     0.010 A 
ATOM     28  C   UNL A   1      42.173  22.518  28.510  1.00  0.00     0.010 A 
ATOM     29  C   UNL A   1      41.719  23.704  27.908  1.00  0.00    -0.014 A 
BRANCH  29  30
ATOM     30  C   UNL A   1      42.144  25.029  28.429  1.00  0.00     0.031 A 
ATOM     31  C   UNL A   1      43.603  25.309  28.685  1.00  0.00     0.074 A 
ATOM     32  C   UNL A   1      41.235  26.000  28.637  1.00  0.00     0.049 A 
ATOM     33  N   UNL A   1      44.163  26.371  29.210  1.00  0.00    -0.248 NA
ATOM     34  C   UNL A   1      44.558  24.258  28.297  1.00  0.00     0.031 C 
ATOM     35  C   UNL A   1      39.800  25.881  28.381  1.00  0.00     0.029 A 
ATOM     36  N   UNL A   1      41.385  27.285  29.099  1.00  0.00    -0.354 N 
ATOM     37  C   UNL A   1      45.527  26.112  29.225  1.00  0.00     0.074 A 
ATOM     38  C   UNL A   1      45.713  24.784  28.680  1.00  0.00     0.031 C 
ATOM     39  C   UNL A   1      39.206  27.054  28.657  1.00  0.00     0.029 A 
ATOM     40  C   UNL A   1      40.208  27.989  29.162  1.00  0.00     0.049 A 
ATOM     41  H   UNL A   1      42.255  27.665  29.360  1.00  0.00     0.167 HD
ATOM     42  C   UNL A   1      46.535  26.915  29.643  1.00  0.00     0.037 A 
ATOM     43  C   UNL A   1      39.961  29.240  29.596  1.00  0.00     0.037 A 
ATOM     44  C   UNL A   1      46.362  28.247  30.158  1.00  0.00     0.049 A 
ATOM     45  C   UNL A   1      41.091  30.078  30.129  1.00  0.00     0.074 A 
ATOM     46  C   UNL A   1      47.327  29.126  30.620  1.00  0.00     0.029 A 
ATOM     47  N   UNL A   1      45.144  28.898  30.265  1.00  0.00    -0.354 N 
ATOM     48  N   UNL A   1      42.370  29.804  30.183  1.00  0.00    -0.248 NA
ATOM     49  C   UNL A   1      40.736  31.395  30.682  1.00  0.00     0.031 C 
ATOM     50  C   UNL A   1      46.691  30.301  31.027  1.00  0.00     0.029 A 
ATOM     51  C   UNL A   1      45.333  30.165  30.793  1.00  0.00     0.049 A 
ATOM     52  H   UNL A   1      44.274  28.519  30.005  1.00  0.00     0.167 HD
ATOM     53  C   UNL A   1      42.974  30.914  30.756  1.00  0.00     0.074 A 
ATOM     54  C   UNL A   1      41.925  31.874  31.022  1.00  0.00     0.031 C 
ATOM     55  C   UNL A   1      44.282  31.115  31.042  1.00  0.00     0.037 A 
BRANCH  42  56
ATOM     56  C   UNL A   1      47.934  26.385  29.560  1.00  0.00     0.064 A 
ATOM     57  C   UNL A   1      48.734  26.615  28.432  1.00  0.00     0.173 A 
ATOM     58  C   UNL A   1      48.510  25.723  30.655  1.00  0.00     0.173 A 
ATOM     59  F   UNL A   1      48.224  27.239  27.360  1.00  0.00    -0.203 F 
ATOM     60  C   UNL A   1      50.062  26.200  28.402  1.00  0.00     0.198 A 
ATOM     61  C   UNL A   1      49.844  25.326  30.629  1.00  0.00     0.198 A 
ATOM     62  F   UNL A   1      47.786  25.487  31.760  1.00  0.00    -0.203 F 
ATOM     63  F   UNL A   1      50.806  26.418  27.310  1.00  0.00    -0.200 F 
ATOM     64  C   UNL A   1      50.619  25.565  29.503  1.00  0.00     0.200 A 
ATOM     65  F   UNL A   1      50.384  24.724  31.698  1.00  0.00    -0.200 F 
ATOM     66  F   UNL A   1      51.902  25.183  29.480  1.00  0.00    -0.200 F 
ENDBRANCH  42  56
BRANCH  43  67
ATOM     67  C   UNL A   1      38.579  29.783  29.554  1.00  0.00     0.064 A 
ATOM     68  C   UNL A   1      37.826  29.911  30.728  1.00  0.00     0.173 A 
ATOM     69  C   UNL A   1      37.979  30.162  28.344  1.00  0.00     0.173 A 
ATOM     70  F   UNL A   1      38.350  29.535  31.904  1.00  0.00    -0.203 F 
ATOM     71  C   UNL A   1      36.518  30.391  30.694  1.00  0.00     0.198 A 
ATOM     72  C   UNL A   1      36.681  30.664  28.314  1.00  0.00     0.198 A 
ATOM     73  F   UNL A   1      38.658  30.052  27.194  1.00  0.00    -0.203 F 
ATOM     74  F   UNL A   1      35.805  30.467  31.825  1.00  0.00    -0.200 F 
ATOM     75  C   UNL A   1      35.948  30.771  29.487  1.00  0.00     0.200 A 
ATOM     76  F   UNL A   1      36.136  31.037  27.148  1.00  0.00    -0.200 F 
ATOM     77  F   UNL A   1      34.691  31.232  29.454  1.00  0.00    -0.200 F 
ENDBRANCH  43  67
BRANCH  55  78
ATOM     78  C   UNL A   1      44.664  32.427  31.656  1.00  0.00     0.064 A 
ATOM     79  C   UNL A   1      44.728  32.586  33.047  1.00  0.00     0.173 A 
ATOM     80  C   UNL A   1      45.035  33.511  30.848  1.00  0.00     0.173 A 
ATOM     81  F   UNL A   1      44.370  31.581  33.859  1.00  0.00    -0.203 F 
ATOM     82  C   UNL A   1      45.144  33.791  33.608  1.00  0.00     0.198 A 
ATOM     83  C   UNL A   1      45.471  34.707  31.412  1.00  0.00     0.198 A 
ATOM     84  F   UNL A   1      44.995  33.404  29.511  1.00  0.00    -0.203 F 
ATOM     85  F   UNL A   1      45.176  33.931  34.941  1.00  0.00    -0.200 F 
ATOM     86  C   UNL A   1      45.522  34.847  32.791  1.00  0.00     0.200 A 
ATOM     87  F   UNL A   1      45.844  35.723  30.623  1.00  0.00    -0.200 F 
ATOM     88  F   UNL A   1      45.934  36.000  33.334  1.00  0.00    -0.200 F 
ENDBRANCH  55  78
ENDBRANCH  29  30
ENDBRANCH  22  24
ENDBRANCH  21  22
ENDBRANCH  20  21
ENDBRANCH   1  20
TORSDOF 13
ENDMDL
MODEL 3
REMARK VINA RESULT:      -9.9      6.008     10.835
REMARK SMILES Cc1cc(N[C@@H]2C=C[C@@H](C(=O)OCCOC(=O)c3ccc(-c4c5nc(c(-c6c(F)c(F)c(F)c(F)c6F)c6ccc([nH]6)c(-c6c(F)c(F)c(F)c(F)c6F)c6nc(c(-c7c(F)c(F)c(F)c(F)c7F)c7ccc4[nH]7)C=C6)C=C5)cc3)C2)nc(C)n1
REMARK SMILES IDX 13 1 12 2 10 3 11 4 9 5 6 6 7 7 81 8 8 9 5 10 4 12 1 13 2 14
REMARK SMILES IDX 3 15 85 16 83 17 82 18 84 19 14 20 15 21 16 22 17 23 18 24
REMARK SMILES IDX 19 25 80 26 20 27 79 28 21 29 22 30 23 31 73 32 24 33 78 34
REMARK SMILES IDX 72 35 74 36 25 37 77 38 71 39 70 40 26 42 58 43 38 44 57 45
REMARK SMILES IDX 39 46 42 47 56 48 75 49 40 50 41 51 55 53 76 54 43 55 27 56
REMARK SMILES IDX 28 57 36 58 29 59 30 60 34 61 37 62 31 63 32 64 35 65 33 66
REMARK SMILES IDX 59 67 60 68 68 69 61 70 62 71 66 72 69 73 63 74 64 75 67 76
REMARK SMILES IDX 65 77 44 78 45 79 53 80 46 81 47 82 51 83 54 84 48 85 49 86
REMARK SMILES IDX 52 87 50 88
REMARK H PARENT 5 11 74 41 42 52
REMARK Flexibility Score: inf
ROOT
ATOM      1  C   UNL A   1      31.416  28.674  25.023  1.00  0.00     0.274 C 
ENDROOT
BRANCH   1   2
ATOM      2  O   UNL A   1      32.080  27.413  25.225  1.00  0.00    -0.462 OA
BRANCH   2   3
ATOM      3  C   UNL A   1      31.655  26.674  26.276  1.00  0.00     0.312 C 
ATOM      4  O   UNL A   1      31.030  27.120  27.235  1.00  0.00    -0.252 OA
BRANCH   3   5
ATOM      5  C   UNL A   1      31.907  25.185  26.106  1.00  0.00     0.124 C 
ATOM      6  C   UNL A   1      30.804  23.038  25.691  1.00  0.00     0.104 C 
ATOM      7  C   UNL A   1      31.371  23.615  24.440  1.00  0.00    -0.006 C 
ATOM      8  C   UNL A   1      30.926  24.175  26.713  1.00  0.00     0.048 C 
ATOM      9  C   UNL A   1      31.951  24.803  24.654  1.00  0.00    -0.014 C 
BRANCH   6  10
ATOM     10  N   UNL A   1      31.453  21.800  26.056  1.00  0.00    -0.364 N 
ATOM     11  H   UNL A   1      31.069  21.400  26.869  1.00  0.00     0.162 HD
BRANCH  10  12
ATOM     12  C   UNL A   1      32.471  21.057  25.540  1.00  0.00     0.130 A 
ATOM     13  C   UNL A   1      36.188  20.723  25.151  1.00  0.00     0.067 C 
ATOM     14  C   UNL A   1      34.713  20.479  25.055  1.00  0.00     0.043 A 
ATOM     15  C   UNL A   1      33.807  21.376  25.590  1.00  0.00     0.070 A 
ATOM     16  N   UNL A   1      34.326  19.340  24.461  1.00  0.00    -0.238 NA
ATOM     17  C   UNL A   1      33.004  19.116  24.413  1.00  0.00     0.127 A 
ATOM     18  N   UNL A   1      32.065  19.925  24.942  1.00  0.00    -0.216 NA
ATOM     19  C   UNL A   1      32.538  17.897  23.681  1.00  0.00     0.090 C 
ENDBRANCH  10  12
ENDBRANCH   6  10
ENDBRANCH   3   5
ENDBRANCH   2   3
ENDBRANCH   1   2
BRANCH   1  20
ATOM     20  C   UNL A   1      32.370  29.819  25.364  1.00  0.00     0.275 C 
BRANCH  20  21
ATOM     21  O   UNL A   1      32.286  30.172  26.759  1.00  0.00    -0.458 OA
BRANCH  21  22
ATOM     22  C   UNL A   1      32.934  31.310  27.099  1.00  0.00     0.338 C 
ATOM     23  O   UNL A   1      32.520  32.454  27.036  1.00  0.00    -0.246 OA
BRANCH  22  24
ATOM     24  C   UNL A   1      34.275  30.990  27.604  1.00  0.00     0.060 A 
ATOM     25  C   UNL A   1      34.604  29.662  27.879  1.00  0.00     0.016 A 
ATOM     26  C   UNL A   1      35.146  32.025  27.947  1.00  0.00     0.016 A 
ATOM     27  C   UNL A   1      35.784  29.372  28.562  1.00  0.00     0.010 A 
ATOM     28  C   UNL A   1      36.351  31.726  28.591  1.00  0.00     0.010 A 
ATOM     29  C   UNL A   1      36.664  30.400  28.938  1.00  0.00    -0.014 A 
BRANCH  29  30
ATOM     30  C   UNL A   1      37.876  30.092  29.740  1.00  0.00     0.031 A 
ATOM     31  C   UNL A   1      38.977  29.246  29.154  1.00  0.00     0.074 A 
ATOM     32  C   UNL A   1      38.016  30.602  30.979  1.00  0.00     0.049 A 
ATOM     33  N   UNL A   1      40.073  28.805  29.722  1.00  0.00    -0.248 NA
ATOM     34  C   UNL A   1      38.828  28.846  27.745  1.00  0.00     0.031 C 
ATOM     35  C   UNL A   1      37.053  31.477  31.645  1.00  0.00     0.029 A 
ATOM     36  N   UNL A   1      39.032  30.467  31.893  1.00  0.00    -0.354 N 
ATOM     37  C   UNL A   1      40.735  28.070  28.746  1.00  0.00     0.074 A 
ATOM     38  C   UNL A   1      39.909  28.102  27.558  1.00  0.00     0.031 C 
ATOM     39  C   UNL A   1      37.538  31.828  32.848  1.00  0.00     0.029 A 
ATOM     40  C   UNL A   1      38.818  31.158  33.059  1.00  0.00     0.049 A 
ATOM     41  H   UNL A   1      39.837  29.925  31.728  1.00  0.00     0.167 HD
ATOM     42  C   UNL A   1      41.929  27.437  28.831  1.00  0.00     0.037 A 
ATOM     43  C   UNL A   1      39.561  31.230  34.181  1.00  0.00     0.037 A 
ATOM     44  C   UNL A   1      42.769  27.425  29.998  1.00  0.00     0.049 A 
ATOM     45  C   UNL A   1      40.844  30.450  34.273  1.00  0.00     0.074 A 
ATOM     46  C   UNL A   1      43.990  26.795  30.177  1.00  0.00     0.029 A 
ATOM     47  N   UNL A   1      42.484  28.086  31.182  1.00  0.00    -0.354 N 
ATOM     48  N   UNL A   1      41.435  29.720  33.362  1.00  0.00    -0.248 NA
ATOM     49  C   UNL A   1      41.553  30.490  35.562  1.00  0.00     0.031 C 
ATOM     50  C   UNL A   1      44.432  27.057  31.476  1.00  0.00     0.029 A 
ATOM     51  C   UNL A   1      43.501  27.872  32.097  1.00  0.00     0.049 A 
ATOM     52  H   UNL A   1      41.679  28.627  31.348  1.00  0.00     0.167 HD
ATOM     53  C   UNL A   1      42.589  29.229  33.956  1.00  0.00     0.074 A 
ATOM     54  C   UNL A   1      42.625  29.754  35.304  1.00  0.00     0.031 C 
ATOM     55  C   UNL A   1      43.531  28.410  33.431  1.00  0.00     0.037 A 
BRANCH  42  56
ATOM     56  C   UNL A   1      42.418  26.699  27.622  1.00  0.00     0.064 A 
ATOM     57  C   UNL A   1      43.321  27.288  26.725  1.00  0.00     0.173 A 
ATOM     58  C   UNL A   1      42.055  25.360  27.411  1.00  0.00     0.173 A 
ATOM     59  F   UNL A   1      43.691  28.567  26.884  1.00  0.00    -0.203 F 
ATOM     60  C   UNL A   1      43.841  26.563  25.658  1.00  0.00     0.198 A 
ATOM     61  C   UNL A   1      42.593  24.633  26.353  1.00  0.00     0.198 A 
ATOM     62  F   UNL A   1      41.201  24.751  28.247  1.00  0.00    -0.203 F 
ATOM     63  F   UNL A   1      44.692  27.148  24.804  1.00  0.00    -0.200 F 
ATOM     64  C   UNL A   1      43.485  25.234  25.477  1.00  0.00     0.200 A 
ATOM     65  F   UNL A   1      42.258  23.346  26.187  1.00  0.00    -0.200 F 
ATOM     66  F   UNL A   1      44.003  24.532  24.461  1.00  0.00    -0.200 F 
ENDBRANCH  42  56
BRANCH  43  67
ATOM     67  C   UNL A   1      39.108  32.068  35.322  1.00  0.00     0.064 A 
ATOM     68  C   UNL A   1      39.433  33.429  35.381  1.00  0.00     0.173 A 
ATOM     69  C   UNL A   1      38.364  31.523  36.378  1.00  0.00     0.173 A 
ATOM     70  F   UNL A   1      40.166  33.986  34.406  1.00  0.00    -0.203 F 
ATOM     71  C   UNL A   1      39.038  34.215  36.462  1.00  0.00     0.198 A 
ATOM     72  C   UNL A   1      37.949  32.315  37.445  1.00  0.00     0.198 A 
ATOM     73  F   UNL A   1      38.034  30.224  36.368  1.00  0.00    -0.203 F 
ATOM     74  F   UNL A   1      39.395  35.505  36.515  1.00  0.00    -0.200 F 
ATOM     75  C   UNL A   1      38.292  33.658  37.491  1.00  0.00     0.200 A 
ATOM     76  F   UNL A   1      37.223  31.775  38.434  1.00  0.00    -0.200 F 
ATOM     77  F   UNL A   1      37.913  34.414  38.530  1.00  0.00    -0.200 F 
ENDBRANCH  43  67
BRANCH  55  78
ATOM     78  C   UNL A   1      44.694  28.043  34.301  1.00  0.00     0.064 A 
ATOM     79  C   UNL A   1      44.674  26.882  35.087  1.00  0.00     0.173 A 
ATOM     80  C   UNL A   1      45.861  28.819  34.296  1.00  0.00     0.173 A 
ATOM     81  F   UNL A   1      43.573  26.116  35.133  1.00  0.00    -0.203 F 
ATOM     82  C   UNL A   1      45.783  26.516  35.845  1.00  0.00     0.198 A 
ATOM     83  C   UNL A   1      46.975  28.438  35.039  1.00  0.00     0.198 A 
ATOM     84  F   UNL A   1      45.929  29.935  33.555  1.00  0.00    -0.203 F 
ATOM     85  F   UNL A   1      45.736  25.415  36.608  1.00  0.00    -0.200 F 
ATOM     86  C   UNL A   1      46.935  27.289  35.814  1.00  0.00     0.200 A 
ATOM     87  F   UNL A   1      48.090  29.181  35.002  1.00  0.00    -0.200 F 
ATOM     88  F   UNL A   1      48.005  26.927  36.535  1.00  0.00    -0.200 F 
ENDBRANCH  55  78
ENDBRANCH  29  30
ENDBRANCH  22  24
ENDBRANCH  21  22
ENDBRANCH  20  21
ENDBRANCH   1  20
TORSDOF 13
ENDMDL
