MODEL 1
REMARK VINA RESULT:     -10.6      0.000      0.000
REMARK SMILES COCCN(CC(=O)OCCOC(=O)c1ccc(-c2c3nc(c(-c4c(F)c(F)c(F)c(F)c4F)c4ccc([nH]4)c(-c4c(F)c(F)c(F)c(F)c4F)c4nc(c(-c5c(F)c(F)c(F)c(F)c5F)c5ccc2[nH]5)C=C4)C=C3)cc1)C(=O)c1cccc(N)c1
REMARK SMILES IDX 10 1 9 2 7 3 8 4 6 5 5 6 4 7 3 8 2 9 1 10 78 11 79 12 80 13
REMARK SMILES IDX 81 14 86 15 82 16 84 17 83 18 85 19 11 22 12 23 13 24 14 25
REMARK SMILES IDX 15 26 16 27 77 28 17 29 76 30 18 31 19 32 20 33 70 34 21 35
REMARK SMILES IDX 75 36 69 37 71 38 22 39 74 40 68 41 67 42 23 44 55 45 35 46
REMARK SMILES IDX 54 47 36 48 39 49 53 50 72 51 37 52 38 53 52 55 73 56 40 57
REMARK SMILES IDX 24 58 25 59 33 60 26 61 27 62 31 63 34 64 28 65 29 66 32 67
REMARK SMILES IDX 30 68 56 69 57 70 65 71 58 72 59 73 63 74 66 75 60 76 61 77
REMARK SMILES IDX 64 78 62 79 41 80 42 81 50 82 43 83 44 84 48 85 51 86 45 87
REMARK SMILES IDX 46 88 49 89 47 90
REMARK H PARENT 85 20 85 21 71 43 39 54
REMARK Flexibility Score: inf
ROOT
ATOM      1  C   UNL A   1      31.611  31.359  26.564  1.00  0.00     0.274 C 
ENDROOT
BRANCH   1   2
ATOM      2  O   UNL A   1      32.147  30.337  25.684  1.00  0.00    -0.461 OA
BRANCH   2   3
ATOM      3  C   UNL A   1      32.506  29.172  26.285  1.00  0.00     0.325 C 
ATOM      4  O   UNL A   1      33.308  29.105  27.218  1.00  0.00    -0.250 OA
BRANCH   3   5
ATOM      5  C   UNL A   1      31.683  27.940  25.869  1.00  0.00     0.242 C 
BRANCH   5   6
ATOM      6  N   UNL A   1      31.705  27.411  24.499  1.00  0.00    -0.325 N 
BRANCH   6   7
ATOM      7  C   UNL A   1      33.033  27.157  23.924  1.00  0.00     0.149 C 
BRANCH   7   8
ATOM      8  C   UNL A   1      33.100  27.391  22.398  1.00  0.00     0.181 C 
BRANCH   8   9
ATOM      9  O   UNL A   1      33.829  26.356  21.739  1.00  0.00    -0.383 OA
ATOM     10  C   UNL A   1      33.344  25.054  22.025  1.00  0.00     0.194 C 
ENDBRANCH   8   9
ENDBRANCH   7   8
ENDBRANCH   6   7
BRANCH   6  11
ATOM     11  C   UNL A   1      30.587  27.075  23.721  1.00  0.00     0.254 C 
ATOM     12  O   UNL A   1      30.349  25.928  23.345  1.00  0.00    -0.269 OA
BRANCH  11  13
ATOM     13  C   UNL A   1      29.592  28.096  23.329  1.00  0.00     0.042 A 
ATOM     14  C   UNL A   1      28.223  27.843  23.441  1.00  0.00     0.014 A 
ATOM     15  C   UNL A   1      30.041  29.294  22.755  1.00  0.00     0.039 A 
ATOM     16  C   UNL A   1      27.306  28.815  23.041  1.00  0.00     0.003 A 
ATOM     17  C   UNL A   1      29.128  30.307  22.435  1.00  0.00     0.032 A 
ATOM     18  C   UNL A   1      27.759  30.042  22.546  1.00  0.00     0.025 A 
BRANCH  17  19
ATOM     19  N   UNL A   1      29.570  31.530  21.954  1.00  0.00    -0.399 N 
ATOM     20  H   UNL A   1      29.952  32.193  22.572  1.00  0.00     0.156 HD
ATOM     21  H   UNL A   1      29.501  31.735  20.994  1.00  0.00     0.156 HD
ENDBRANCH  17  19
ENDBRANCH  11  13
ENDBRANCH   6  11
ENDBRANCH   5   6
ENDBRANCH   3   5
ENDBRANCH   2   3
ENDBRANCH   1   2
BRANCH   1  22
ATOM     22  C   UNL A   1      32.623  32.475  26.909  1.00  0.00     0.275 C 
BRANCH  22  23
ATOM     23  O   UNL A   1      32.047  33.633  27.564  1.00  0.00    -0.458 OA
BRANCH  23  24
ATOM     24  C   UNL A   1      32.972  34.360  28.210  1.00  0.00     0.338 C 
ATOM     25  O   UNL A   1      32.853  35.540  28.507  1.00  0.00    -0.246 OA
BRANCH  24  26
ATOM     26  C   UNL A   1      34.178  33.685  28.659  1.00  0.00     0.060 A 
ATOM     27  C   UNL A   1      34.034  32.749  29.689  1.00  0.00     0.016 A 
ATOM     28  C   UNL A   1      35.428  34.219  28.341  1.00  0.00     0.016 A 
ATOM     29  C   UNL A   1      35.147  32.339  30.412  1.00  0.00     0.010 A 
ATOM     30  C   UNL A   1      36.551  33.780  29.044  1.00  0.00     0.010 A 
ATOM     31  C   UNL A   1      36.413  32.840  30.079  1.00  0.00    -0.014 A 
BRANCH  31  32
ATOM     32  C   UNL A   1      37.607  32.215  30.683  1.00  0.00     0.031 A 
ATOM     33  C   UNL A   1      38.380  31.131  30.003  1.00  0.00     0.074 A 
ATOM     34  C   UNL A   1      37.970  32.673  31.893  1.00  0.00     0.049 A 
ATOM     35  N   UNL A   1      39.425  30.476  30.439  1.00  0.00    -0.248 NA
ATOM     36  C   UNL A   1      37.932  30.730  28.662  1.00  0.00     0.031 C 
ATOM     37  C   UNL A   1      37.280  33.742  32.620  1.00  0.00     0.029 A 
ATOM     38  N   UNL A   1      38.986  32.300  32.728  1.00  0.00    -0.354 N 
ATOM     39  C   UNL A   1      39.766  29.587  29.430  1.00  0.00     0.074 A 
ATOM     40  C   UNL A   1      38.808  29.777  28.360  1.00  0.00     0.031 C 
ATOM     41  C   UNL A   1      37.882  33.927  33.801  1.00  0.00     0.029 A 
ATOM     42  C   UNL A   1      38.970  32.966  33.926  1.00  0.00     0.049 A 
ATOM     43  H   UNL A   1      39.660  31.621  32.493  1.00  0.00     0.167 HD
ATOM     44  C   UNL A   1      40.789  28.698  29.414  1.00  0.00     0.037 A 
ATOM     45  C   UNL A   1      39.729  32.798  35.021  1.00  0.00     0.037 A 
ATOM     46  C   UNL A   1      41.727  28.521  30.496  1.00  0.00     0.049 A 
ATOM     47  C   UNL A   1      40.818  31.773  34.993  1.00  0.00     0.074 A 
ATOM     48  C   UNL A   1      42.824  27.680  30.562  1.00  0.00     0.029 A 
ATOM     49  N   UNL A   1      41.667  29.192  31.710  1.00  0.00    -0.354 N 
ATOM     50  N   UNL A   1      41.151  30.957  34.023  1.00  0.00    -0.248 NA
ATOM     51  C   UNL A   1      41.637  31.647  36.202  1.00  0.00     0.031 C 
ATOM     52  C   UNL A   1      43.405  27.813  31.829  1.00  0.00     0.029 A 
ATOM     53  C   UNL A   1      42.690  28.763  32.542  1.00  0.00     0.049 A 
ATOM     54  H   UNL A   1      40.996  29.873  31.945  1.00  0.00     0.167 HD
ATOM     55  C   UNL A   1      42.222  30.221  34.499  1.00  0.00     0.074 A 
ATOM     56  C   UNL A   1      42.492  30.700  35.843  1.00  0.00     0.031 C 
ATOM     57  C   UNL A   1      42.920  29.239  33.881  1.00  0.00     0.037 A 
BRANCH  44  58
ATOM     58  C   UNL A   1      40.949  27.832  28.201  1.00  0.00     0.064 A 
ATOM     59  C   UNL A   1      41.712  28.245  27.099  1.00  0.00     0.173 A 
ATOM     60  C   UNL A   1      40.404  26.539  28.175  1.00  0.00     0.173 A 
ATOM     61  F   UNL A   1      42.249  29.474  27.075  1.00  0.00    -0.203 F 
ATOM     62  C   UNL A   1      41.918  27.397  26.013  1.00  0.00     0.198 A 
ATOM     63  C   UNL A   1      40.624  25.689  27.093  1.00  0.00     0.198 A 
ATOM     64  F   UNL A   1      39.670  26.095  29.207  1.00  0.00    -0.203 F 
ATOM     65  F   UNL A   1      42.638  27.818  24.964  1.00  0.00    -0.200 F 
ATOM     66  C   UNL A   1      41.381  26.119  26.014  1.00  0.00     0.200 A 
ATOM     67  F   UNL A   1      40.111  24.451  27.100  1.00  0.00    -0.200 F 
ATOM     68  F   UNL A   1      41.592  25.301  24.973  1.00  0.00    -0.200 F 
ENDBRANCH  44  58
BRANCH  45  69
ATOM     69  C   UNL A   1      39.445  33.622  36.217  1.00  0.00     0.064 A 
ATOM     70  C   UNL A   1      38.653  33.130  37.260  1.00  0.00     0.173 A 
ATOM     71  C   UNL A   1      40.044  34.881  36.378  1.00  0.00     0.173 A 
ATOM     72  F   UNL A   1      38.058  31.934  37.142  1.00  0.00    -0.203 F 
ATOM     73  C   UNL A   1      38.474  33.866  38.428  1.00  0.00     0.198 A 
ATOM     74  C   UNL A   1      39.882  35.606  37.555  1.00  0.00     0.198 A 
ATOM     75  F   UNL A   1      40.824  35.382  35.409  1.00  0.00    -0.203 F 
ATOM     76  F   UNL A   1      37.706  33.380  39.413  1.00  0.00    -0.200 F 
ATOM     77  C   UNL A   1      39.096  35.098  38.579  1.00  0.00     0.200 A 
ATOM     78  F   UNL A   1      40.501  36.784  37.704  1.00  0.00    -0.200 F 
ATOM     79  F   UNL A   1      38.943  35.794  39.714  1.00  0.00    -0.200 F 
ENDBRANCH  45  69
BRANCH  57  80
ATOM     80  C   UNL A   1      44.037  28.624  34.665  1.00  0.00     0.064 A 
ATOM     81  C   UNL A   1      45.318  29.196  34.670  1.00  0.00     0.173 A 
ATOM     82  C   UNL A   1      43.828  27.457  35.411  1.00  0.00     0.173 A 
ATOM     83  F   UNL A   1      45.567  30.301  33.952  1.00  0.00    -0.203 F 
ATOM     84  C   UNL A   1      46.358  28.603  35.380  1.00  0.00     0.198 A 
ATOM     85  C   UNL A   1      44.865  26.878  36.135  1.00  0.00     0.198 A 
ATOM     86  F   UNL A   1      42.618  26.876  35.431  1.00  0.00    -0.203 F 
ATOM     87  F   UNL A   1      47.585  29.139  35.337  1.00  0.00    -0.200 F 
ATOM     88  C   UNL A   1      46.130  27.447  36.113  1.00  0.00     0.200 A 
ATOM     89  F   UNL A   1      44.645  25.762  36.843  1.00  0.00    -0.200 F 
ATOM     90  F   UNL A   1      47.135  26.874  36.789  1.00  0.00    -0.200 F 
ENDBRANCH  57  80
ENDBRANCH  31  32
ENDBRANCH  24  26
ENDBRANCH  23  24
ENDBRANCH  22  23
ENDBRANCH   1  22
TORSDOF 18
ENDMDL
MODEL 2
REMARK VINA RESULT:     -10.6      1.756      3.125
REMARK SMILES COCCN(CC(=O)OCCOC(=O)c1ccc(-c2c3nc(c(-c4c(F)c(F)c(F)c(F)c4F)c4ccc([nH]4)c(-c4c(F)c(F)c(F)c(F)c4F)c4nc(c(-c5c(F)c(F)c(F)c(F)c5F)c5ccc2[nH]5)C=C4)C=C3)cc1)C(=O)c1cccc(N)c1
REMARK SMILES IDX 10 1 9 2 7 3 8 4 6 5 5 6 4 7 3 8 2 9 1 10 78 11 79 12 80 13
REMARK SMILES IDX 81 14 86 15 82 16 84 17 83 18 85 19 11 22 12 23 13 24 14 25
REMARK SMILES IDX 15 26 16 27 77 28 17 29 76 30 18 31 19 32 20 33 70 34 21 35
REMARK SMILES IDX 75 36 69 37 71 38 22 39 74 40 68 41 67 42 23 44 55 45 35 46
REMARK SMILES IDX 54 47 36 48 39 49 53 50 72 51 37 52 38 53 52 55 73 56 40 57
REMARK SMILES IDX 24 58 25 59 33 60 26 61 27 62 31 63 34 64 28 65 29 66 32 67
REMARK SMILES IDX 30 68 56 69 57 70 65 71 58 72 59 73 63 74 66 75 60 76 61 77
REMARK SMILES IDX 64 78 62 79 41 80 42 81 50 82 43 83 44 84 48 85 51 86 45 87
REMARK SMILES IDX 46 88 49 89 47 90
REMARK H PARENT 85 20 85 21 71 43 39 54
REMARK Flexibility Score: inf
ROOT
ATOM      1  C   UNL A   1      31.767  28.993  26.796  1.00  0.00     0.274 C 
ENDROOT
BRANCH   1   2
ATOM      2  O   UNL A   1      31.470  28.365  25.522  1.00  0.00    -0.461 OA
BRANCH   2   3
ATOM      3  C   UNL A   1      30.801  27.183  25.589  1.00  0.00     0.325 C 
ATOM      4  O   UNL A   1      30.671  26.532  26.627  1.00  0.00    -0.250 OA
BRANCH   3   5
ATOM      5  C   UNL A   1      30.019  26.801  24.320  1.00  0.00     0.242 C 
BRANCH   5   6
ATOM      6  N   UNL A   1      29.730  27.772  23.257  1.00  0.00    -0.325 N 
BRANCH   6   7
ATOM      7  C   UNL A   1      30.751  27.907  22.209  1.00  0.00     0.149 C 
BRANCH   7   8
ATOM      8  C   UNL A   1      31.642  26.654  22.052  1.00  0.00     0.181 C 
BRANCH   8   9
ATOM      9  O   UNL A   1      33.027  26.977  22.170  1.00  0.00    -0.383 OA
ATOM     10  C   UNL A   1      33.639  26.426  23.326  1.00  0.00     0.194 C 
ENDBRANCH   8   9
ENDBRANCH   7   8
ENDBRANCH   6   7
BRANCH   6  11
ATOM     11  C   UNL A   1      28.558  28.530  23.121  1.00  0.00     0.254 C 
ATOM     12  O   UNL A   1      27.431  28.054  23.252  1.00  0.00    -0.269 OA
BRANCH  11  13
ATOM     13  C   UNL A   1      28.612  29.980  22.842  1.00  0.00     0.042 A 
ATOM     14  C   UNL A   1      29.139  30.873  23.778  1.00  0.00     0.014 A 
ATOM     15  C   UNL A   1      28.040  30.464  21.656  1.00  0.00     0.039 A 
ATOM     16  C   UNL A   1      29.154  32.239  23.499  1.00  0.00     0.003 A 
ATOM     17  C   UNL A   1      28.134  31.823  21.332  1.00  0.00     0.032 A 
ATOM     18  C   UNL A   1      28.659  32.708  22.279  1.00  0.00     0.025 A 
BRANCH  17  19
ATOM     19  N   UNL A   1      27.654  32.295  20.119  1.00  0.00    -0.399 N 
ATOM     20  H   UNL A   1      28.243  32.816  19.526  1.00  0.00     0.156 HD
ATOM     21  H   UNL A   1      26.726  32.109  19.851  1.00  0.00     0.156 HD
ENDBRANCH  17  19
ENDBRANCH  11  13
ENDBRANCH   6  11
ENDBRANCH   5   6
ENDBRANCH   3   5
ENDBRANCH   2   3
ENDBRANCH   1   2
BRANCH   1  22
ATOM     22  C   UNL A   1      32.026  30.513  26.693  1.00  0.00     0.275 C 
BRANCH  22  23
ATOM     23  O   UNL A   1      33.411  30.877  26.464  1.00  0.00    -0.458 OA
BRANCH  23  24
ATOM     24  C   UNL A   1      33.867  31.734  27.391  1.00  0.00     0.338 C 
ATOM     25  O   UNL A   1      33.384  32.833  27.626  1.00  0.00    -0.246 OA
BRANCH  24  26
ATOM     26  C   UNL A   1      34.969  31.302  28.235  1.00  0.00     0.060 A 
ATOM     27  C   UNL A   1      36.096  32.130  28.277  1.00  0.00     0.016 A 
ATOM     28  C   UNL A   1      35.035  29.975  28.660  1.00  0.00     0.016 A 
ATOM     29  C   UNL A   1      37.303  31.632  28.749  1.00  0.00     0.010 A 
ATOM     30  C   UNL A   1      36.239  29.484  29.166  1.00  0.00     0.010 A 
ATOM     31  C   UNL A   1      37.375  30.311  29.213  1.00  0.00    -0.014 A 
BRANCH  31  32
ATOM     32  C   UNL A   1      38.586  29.874  29.936  1.00  0.00     0.031 A 
ATOM     33  C   UNL A   1      39.540  28.870  29.377  1.00  0.00     0.074 A 
ATOM     34  C   UNL A   1      38.791  30.432  31.142  1.00  0.00     0.049 A 
ATOM     35  N   UNL A   1      40.622  28.377  29.924  1.00  0.00    -0.248 NA
ATOM     36  C   UNL A   1      39.254  28.351  28.032  1.00  0.00     0.031 C 
ATOM     37  C   UNL A   1      37.916  31.435  31.754  1.00  0.00     0.029 A 
ATOM     38  N   UNL A   1      39.776  30.233  32.068  1.00  0.00    -0.354 N 
ATOM     39  C   UNL A   1      41.151  27.493  28.995  1.00  0.00     0.074 A 
ATOM     40  C   UNL A   1      40.264  27.507  27.848  1.00  0.00     0.031 C 
ATOM     41  C   UNL A   1      38.394  31.752  32.964  1.00  0.00     0.029 A 
ATOM     42  C   UNL A   1      39.581  30.947  33.222  1.00  0.00     0.049 A 
ATOM     43  H   UNL A   1      40.547  29.638  31.921  1.00  0.00     0.167 HD
ATOM     44  C   UNL A   1      42.275  26.745  29.103  1.00  0.00     0.037 A 
ATOM     45  C   UNL A   1      40.266  30.931  34.377  1.00  0.00     0.037 A 
ATOM     46  C   UNL A   1      43.139  26.742  30.259  1.00  0.00     0.049 A 
ATOM     47  C   UNL A   1      41.474  30.056  34.487  1.00  0.00     0.074 A 
ATOM     48  C   UNL A   1      44.325  26.054  30.452  1.00  0.00     0.029 A 
ATOM     49  N   UNL A   1      42.899  27.455  31.426  1.00  0.00    -0.354 N 
ATOM     50  N   UNL A   1      41.983  29.245  33.591  1.00  0.00    -0.248 NA
ATOM     51  C   UNL A   1      42.203  30.094  35.758  1.00  0.00     0.031 C 
ATOM     52  C   UNL A   1      44.782  26.321  31.749  1.00  0.00     0.029 A 
ATOM     53  C   UNL A   1      43.898  27.202  32.353  1.00  0.00     0.049 A 
ATOM     54  H   UNL A   1      42.131  28.054  31.573  1.00  0.00     0.167 HD
ATOM     55  C   UNL A   1      43.097  28.677  34.185  1.00  0.00     0.074 A 
ATOM     56  C   UNL A   1      43.197  29.250  35.515  1.00  0.00     0.031 C 
ATOM     57  C   UNL A   1      43.960  27.767  33.676  1.00  0.00     0.037 A 
BRANCH  44  58
ATOM     58  C   UNL A   1      42.640  25.851  27.956  1.00  0.00     0.064 A 
ATOM     59  C   UNL A   1      42.071  24.578  27.808  1.00  0.00     0.173 A 
ATOM     60  C   UNL A   1      43.503  26.306  26.948  1.00  0.00     0.173 A 
ATOM     61  F   UNL A   1      41.244  24.096  28.748  1.00  0.00    -0.203 F 
ATOM     62  C   UNL A   1      42.358  23.790  26.695  1.00  0.00     0.198 A 
ATOM     63  C   UNL A   1      43.778  25.522  25.830  1.00  0.00     0.198 A 
ATOM     64  F   UNL A   1      44.069  27.519  27.041  1.00  0.00    -0.203 F 
ATOM     65  F   UNL A   1      41.816  22.571  26.581  1.00  0.00    -0.200 F 
ATOM     66  C   UNL A   1      43.204  24.265  25.704  1.00  0.00     0.200 A 
ATOM     67  F   UNL A   1      44.588  25.987  24.870  1.00  0.00    -0.200 F 
ATOM     68  F   UNL A   1      43.469  23.512  24.628  1.00  0.00    -0.200 F 
ENDBRANCH  44  58
BRANCH  45  69
ATOM     69  C   UNL A   1      39.786  31.766  35.501  1.00  0.00     0.064 A 
ATOM     70  C   UNL A   1      40.271  33.064  35.693  1.00  0.00     0.173 A 
ATOM     71  C   UNL A   1      38.761  31.311  36.344  1.00  0.00     0.173 A 
ATOM     72  F   UNL A   1      41.255  33.533  34.913  1.00  0.00    -0.203 F 
ATOM     73  C   UNL A   1      39.742  33.882  36.687  1.00  0.00     0.198 A 
ATOM     74  C   UNL A   1      38.218  32.138  37.323  1.00  0.00     0.198 A 
ATOM     75  F   UNL A   1      38.256  30.078  36.182  1.00  0.00    -0.203 F 
ATOM     76  F   UNL A   1      40.224  35.121  36.859  1.00  0.00    -0.200 F 
ATOM     77  C   UNL A   1      38.710  33.423  37.494  1.00  0.00     0.200 A 
ATOM     78  F   UNL A   1      37.208  31.698  38.085  1.00  0.00    -0.200 F 
ATOM     79  F   UNL A   1      38.185  34.222  38.434  1.00  0.00    -0.200 F 
ENDBRANCH  45  69
BRANCH  57  80
ATOM     80  C   UNL A   1      45.080  27.339  34.572  1.00  0.00     0.064 A 
ATOM     81  C   UNL A   1      44.965  26.199  35.380  1.00  0.00     0.173 A 
ATOM     82  C   UNL A   1      46.271  28.075  34.626  1.00  0.00     0.173 A 
ATOM     83  F   UNL A   1      43.834  25.478  35.375  1.00  0.00    -0.203 F 
ATOM     84  C   UNL A   1      46.001  25.822  36.230  1.00  0.00     0.198 A 
ATOM     85  C   UNL A   1      47.312  27.685  35.463  1.00  0.00     0.198 A 
ATOM     86  F   UNL A   1      46.421  29.174  33.872  1.00  0.00    -0.203 F 
ATOM     87  F   UNL A   1      45.857  24.755  37.027  1.00  0.00    -0.200 F 
ATOM     88  C   UNL A   1      47.173  26.565  36.269  1.00  0.00     0.200 A 
ATOM     89  F   UNL A   1      48.444  28.401  35.501  1.00  0.00    -0.200 F 
ATOM     90  F   UNL A   1      48.167  26.205  37.094  1.00  0.00    -0.200 F 
ENDBRANCH  57  80
ENDBRANCH  31  32
ENDBRANCH  24  26
ENDBRANCH  23  24
ENDBRANCH  22  23
ENDBRANCH   1  22
TORSDOF 18
ENDMDL
MODEL 3
REMARK VINA RESULT:     -10.6      5.214     10.611
REMARK SMILES COCCN(CC(=O)OCCOC(=O)c1ccc(-c2c3nc(c(-c4c(F)c(F)c(F)c(F)c4F)c4ccc([nH]4)c(-c4c(F)c(F)c(F)c(F)c4F)c4nc(c(-c5c(F)c(F)c(F)c(F)c5F)c5ccc2[nH]5)C=C4)C=C3)cc1)C(=O)c1cccc(N)c1
REMARK SMILES IDX 10 1 9 2 7 3 8 4 6 5 5 6 4 7 3 8 2 9 1 10 78 11 79 12 80 13
REMARK SMILES IDX 81 14 86 15 82 16 84 17 83 18 85 19 11 22 12 23 13 24 14 25
REMARK SMILES IDX 15 26 16 27 77 28 17 29 76 30 18 31 19 32 20 33 70 34 21 35
REMARK SMILES IDX 75 36 69 37 71 38 22 39 74 40 68 41 67 42 23 44 55 45 35 46
REMARK SMILES IDX 54 47 36 48 39 49 53 50 72 51 37 52 38 53 52 55 73 56 40 57
REMARK SMILES IDX 24 58 25 59 33 60 26 61 27 62 31 63 34 64 28 65 29 66 32 67
REMARK SMILES IDX 30 68 56 69 57 70 65 71 58 72 59 73 63 74 66 75 60 76 61 77
REMARK SMILES IDX 64 78 62 79 41 80 42 81 50 82 43 83 44 84 48 85 51 86 45 87
REMARK SMILES IDX 46 88 49 89 47 90
REMARK H PARENT 85 20 85 21 71 43 39 54
REMARK Flexibility Score: inf
ROOT
ATOM      1  C   UNL A   1      36.601  22.588  23.651  1.00  0.00     0.274 C 
ENDROOT
BRANCH   1   2
ATOM      2  O   UNL A   1      35.385  23.136  24.220  1.00  0.00    -0.461 OA
BRANCH   2   3
ATOM      3  C   UNL A   1      34.356  23.318  23.349  1.00  0.00     0.325 C 
ATOM      4  O   UNL A   1      34.442  23.996  22.325  1.00  0.00    -0.250 OA
BRANCH   3   5
ATOM      5  C   UNL A   1      33.117  22.441  23.608  1.00  0.00     0.242 C 
BRANCH   5   6
ATOM      6  N   UNL A   1      32.807  21.898  24.937  1.00  0.00    -0.325 N 
BRANCH   6   7
ATOM      7  C   UNL A   1      31.812  22.641  25.722  1.00  0.00     0.149 C 
BRANCH   7   8
ATOM      8  C   UNL A   1      32.406  23.841  26.493  1.00  0.00     0.181 C 
BRANCH   8   9
ATOM      9  O   UNL A   1      31.387  24.734  26.942  1.00  0.00    -0.383 OA
ATOM     10  C   UNL A   1      30.327  24.894  26.012  1.00  0.00     0.194 C 
ENDBRANCH   8   9
ENDBRANCH   7   8
ENDBRANCH   6   7
BRANCH   6  11
ATOM     11  C   UNL A   1      33.323  20.719  25.493  1.00  0.00     0.254 C 
ATOM     12  O   UNL A   1      33.646  20.618  26.676  1.00  0.00    -0.269 OA
BRANCH  11  13
ATOM     13  C   UNL A   1      33.478  19.494  24.680  1.00  0.00     0.042 A 
ATOM     14  C   UNL A   1      34.580  18.653  24.853  1.00  0.00     0.014 A 
ATOM     15  C   UNL A   1      32.548  19.232  23.664  1.00  0.00     0.039 A 
ATOM     16  C   UNL A   1      34.715  17.517  24.056  1.00  0.00     0.003 A 
ATOM     17  C   UNL A   1      32.630  18.048  22.922  1.00  0.00     0.032 A 
ATOM     18  C   UNL A   1      33.740  17.215  23.100  1.00  0.00     0.025 A 
BRANCH  17  19
ATOM     19  N   UNL A   1      31.662  17.736  21.979  1.00  0.00    -0.399 N 
ATOM     20  H   UNL A   1      31.781  18.013  21.042  1.00  0.00     0.156 HD
ATOM     21  H   UNL A   1      30.857  17.238  22.247  1.00  0.00     0.156 HD
ENDBRANCH  17  19
ENDBRANCH  11  13
ENDBRANCH   6  11
ENDBRANCH   5   6
ENDBRANCH   3   5
ENDBRANCH   2   3
ENDBRANCH   1   2
BRANCH   1  22
ATOM     22  C   UNL A   1      37.140  21.354  24.409  1.00  0.00     0.275 C 
BRANCH  22  23
ATOM     23  O   UNL A   1      37.399  21.575  25.819  1.00  0.00    -0.458 OA
BRANCH  23  24
ATOM     24  C   UNL A   1      38.712  21.549  26.100  1.00  0.00     0.338 C 
ATOM     25  O   UNL A   1      39.459  20.611  25.861  1.00  0.00    -0.246 OA
BRANCH  24  26
ATOM     26  C   UNL A   1      39.313  22.747  26.662  1.00  0.00     0.060 A 
ATOM     27  C   UNL A   1      38.993  23.964  26.049  1.00  0.00     0.016 A 
ATOM     28  C   UNL A   1      40.421  22.634  27.503  1.00  0.00     0.016 A 
ATOM     29  C   UNL A   1      39.785  25.081  26.277  1.00  0.00     0.010 A 
ATOM     30  C   UNL A   1      41.196  23.766  27.759  1.00  0.00     0.010 A 
ATOM     31  C   UNL A   1      40.879  24.991  27.148  1.00  0.00    -0.014 A 
BRANCH  31  32
ATOM     32  C   UNL A   1      41.556  26.233  27.572  1.00  0.00     0.031 A 
ATOM     33  C   UNL A   1      40.868  27.294  28.369  1.00  0.00     0.074 A 
ATOM     34  C   UNL A   1      42.841  26.367  27.200  1.00  0.00     0.049 A 
ATOM     35  N   UNL A   1      41.339  28.445  28.776  1.00  0.00    -0.248 NA
ATOM     36  C   UNL A   1      39.478  27.035  28.768  1.00  0.00     0.031 C 
ATOM     37  C   UNL A   1      43.593  25.370  26.434  1.00  0.00     0.029 A 
ATOM     38  N   UNL A   1      43.731  27.385  27.395  1.00  0.00    -0.354 N 
ATOM     39  C   UNL A   1      40.309  29.050  29.481  1.00  0.00     0.074 A 
ATOM     40  C   UNL A   1      39.179  28.143  29.439  1.00  0.00     0.031 C 
ATOM     41  C   UNL A   1      44.829  25.833  26.209  1.00  0.00     0.029 A 
ATOM     42  C   UNL A   1      44.937  27.169  26.779  1.00  0.00     0.049 A 
ATOM     43  H   UNL A   1      43.528  28.191  27.923  1.00  0.00     0.167 HD
ATOM     44  C   UNL A   1      40.320  30.254  30.102  1.00  0.00     0.037 A 
ATOM     45  C   UNL A   1      46.005  27.975  26.659  1.00  0.00     0.037 A 
ATOM     46  C   UNL A   1      41.456  31.144  30.125  1.00  0.00     0.049 A 
ATOM     47  C   UNL A   1      45.970  29.321  27.311  1.00  0.00     0.074 A 
ATOM     48  C   UNL A   1      41.585  32.367  30.763  1.00  0.00     0.029 A 
ATOM     49  N   UNL A   1      42.656  30.910  29.467  1.00  0.00    -0.354 N 
ATOM     50  N   UNL A   1      45.001  29.873  28.001  1.00  0.00    -0.248 NA
ATOM     51  C   UNL A   1      47.170  30.152  27.174  1.00  0.00     0.031 C 
ATOM     52  C   UNL A   1      42.848  32.889  30.458  1.00  0.00     0.029 A 
ATOM     53  C   UNL A   1      43.520  31.977  29.659  1.00  0.00     0.049 A 
ATOM     54  H   UNL A   1      42.862  30.104  28.942  1.00  0.00     0.167 HD
ATOM     55  C   UNL A   1      45.473  31.115  28.387  1.00  0.00     0.074 A 
ATOM     56  C   UNL A   1      46.823  31.229  27.866  1.00  0.00     0.031 C 
ATOM     57  C   UNL A   1      44.847  32.075  29.109  1.00  0.00     0.037 A 
BRANCH  44  58
ATOM     58  C   UNL A   1      39.069  30.699  30.799  1.00  0.00     0.064 A 
ATOM     59  C   UNL A   1      38.888  30.507  32.176  1.00  0.00     0.173 A 
ATOM     60  C   UNL A   1      38.077  31.401  30.097  1.00  0.00     0.173 A 
ATOM     61  F   UNL A   1      39.805  29.836  32.889  1.00  0.00    -0.203 F 
ATOM     62  C   UNL A   1      37.755  30.996  32.824  1.00  0.00     0.198 A 
ATOM     63  C   UNL A   1      36.954  31.901  30.750  1.00  0.00     0.198 A 
ATOM     64  F   UNL A   1      38.207  31.615  28.779  1.00  0.00    -0.203 F 
ATOM     65  F   UNL A   1      37.594  30.788  34.138  1.00  0.00    -0.200 F 
ATOM     66  C   UNL A   1      36.794  31.699  32.113  1.00  0.00     0.200 A 
ATOM     67  F   UNL A   1      36.030  32.587  30.063  1.00  0.00    -0.200 F 
ATOM     68  F   UNL A   1      35.712  32.180  32.741  1.00  0.00    -0.200 F 
ENDBRANCH  44  58
BRANCH  45  69
ATOM     69  C   UNL A   1      47.166  27.506  25.869  1.00  0.00     0.064 A 
ATOM     70  C   UNL A   1      47.208  27.672  24.481  1.00  0.00     0.173 A 
ATOM     71  C   UNL A   1      48.295  26.969  26.507  1.00  0.00     0.173 A 
ATOM     72  F   UNL A   1      46.147  28.175  23.834  1.00  0.00    -0.203 F 
ATOM     73  C   UNL A   1      48.345  27.324  23.756  1.00  0.00     0.198 A 
ATOM     74  C   UNL A   1      49.438  26.643  25.784  1.00  0.00     0.198 A 
ATOM     75  F   UNL A   1      48.301  26.809  27.839  1.00  0.00    -0.203 F 
ATOM     76  F   UNL A   1      48.364  27.486  22.426  1.00  0.00    -0.200 F 
ATOM     77  C   UNL A   1      49.462  26.820  24.408  1.00  0.00     0.200 A 
ATOM     78  F   UNL A   1      50.521  26.176  26.420  1.00  0.00    -0.200 F 
ATOM     79  F   UNL A   1      50.564  26.510  23.712  1.00  0.00    -0.200 F 
ENDBRANCH  45  69
BRANCH  57  80
ATOM     80  C   UNL A   1      45.626  33.326  29.367  1.00  0.00     0.064 A 
ATOM     81  C   UNL A   1      45.545  34.421  28.494  1.00  0.00     0.173 A 
ATOM     82  C   UNL A   1      46.459  33.430  30.488  1.00  0.00     0.173 A 
ATOM     83  F   UNL A   1      44.776  34.356  27.398  1.00  0.00    -0.203 F 
ATOM     84  C   UNL A   1      46.292  35.572  28.727  1.00  0.00     0.198 A 
ATOM     85  C   UNL A   1      47.190  34.589  30.728  1.00  0.00     0.198 A 
ATOM     86  F   UNL A   1      46.568  32.405  31.347  1.00  0.00    -0.203 F 
ATOM     87  F   UNL A   1      46.236  36.591  27.859  1.00  0.00    -0.200 F 
ATOM     88  C   UNL A   1      47.112  35.656  29.843  1.00  0.00     0.200 A 
ATOM     89  F   UNL A   1      47.982  34.671  31.806  1.00  0.00    -0.200 F 
ATOM     90  F   UNL A   1      47.837  36.762  30.061  1.00  0.00    -0.200 F 
ENDBRANCH  57  80
ENDBRANCH  31  32
ENDBRANCH  24  26
ENDBRANCH  23  24
ENDBRANCH  22  23
ENDBRANCH   1  22
TORSDOF 18
ENDMDL
