MODEL 1
REMARK VINA RESULT:     -13.8      0.000      0.000
REMARK SMILES COC(=O)c1ccc([C@H]2CC(=O)Nc3c(C(=O)OCCOC(=O)c4ccc(-c5c6nc(c(-c7c(F)c(F)c(F)c(F)c7F)c7ccc([nH]7)c(-c7c(F)c(F)c(F)c(F)c7F)c7nc(c(-c8c(F)c(F)c(F)c(F)c8F)c8ccc5[nH]8)C=C7)C=C6)cc4)cn(-c4ccccc4)c32)cc1
REMARK SMILES IDX 19 1 18 2 16 3 17 4 15 5 9 6 10 7 95 8 11 9 14 10 88 11
REMARK SMILES IDX 12 12 13 13 87 14 8 16 5 17 6 18 97 19 7 20 96 21 3 22 4 23
REMARK SMILES IDX 2 24 1 25 89 26 90 27 94 28 91 29 93 30 92 31 20 32 21 33
REMARK SMILES IDX 22 34 23 35 24 36 25 37 86 38 26 39 85 40 27 41 28 42 29 43
REMARK SMILES IDX 79 44 30 45 84 46 78 47 80 48 31 49 83 50 77 51 76 52 32 54
REMARK SMILES IDX 64 55 44 56 63 57 45 58 48 59 62 60 81 61 46 62 47 63 61 65
REMARK SMILES IDX 82 66 49 67 33 68 34 69 42 70 35 71 36 72 40 73 43 74 37 75
REMARK SMILES IDX 38 76 41 77 39 78 65 79 66 80 74 81 67 82 68 83 72 84 75 85
REMARK SMILES IDX 69 86 70 87 73 88 71 89 50 90 51 91 59 92 52 93 53 94 57 95
REMARK SMILES IDX 60 96 54 97 55 98 58 99 56 100
REMARK H PARENT 13 15 80 53 48 64
REMARK Flexibility Score: inf
ROOT
ATOM      1  C   UNL A   1      32.938  30.276  26.155  1.00  0.00     0.275 C 
ENDROOT
BRANCH   1   2
ATOM      2  O   UNL A   1      33.543  29.021  26.505  1.00  0.00    -0.458 OA
BRANCH   2   3
ATOM      3  C   UNL A   1      32.686  28.034  26.911  1.00  0.00     0.341 C 
ATOM      4  O   UNL A   1      31.848  28.163  27.796  1.00  0.00    -0.246 OA
BRANCH   3   5
ATOM      5  C   UNL A   1      32.827  26.822  26.118  1.00  0.00     0.102 A 
ATOM      6  C   UNL A   1      31.740  24.139  23.776  1.00  0.00     0.078 C 
ATOM      7  C   UNL A   1      30.236  24.472  23.759  1.00  0.00     0.115 C 
ATOM      8  C   UNL A   1      32.462  25.063  24.722  1.00  0.00     0.055 A 
ATOM      9  C   UNL A   1      29.883  25.932  23.971  1.00  0.00     0.225 C 
ATOM     10  C   UNL A   1      31.915  26.222  25.222  1.00  0.00     0.078 A 
ATOM     11  N   UNL A   1      33.752  24.967  25.220  1.00  0.00    -0.317 N 
ATOM     12  O   UNL A   1      28.856  26.424  23.501  1.00  0.00    -0.275 OA
ATOM     13  N   UNL A   1      30.679  26.657  24.813  1.00  0.00    -0.324 N 
ATOM     14  C   UNL A   1      33.923  25.971  26.152  1.00  0.00     0.109 A 
ATOM     15  H   UNL A   1      30.353  27.527  25.140  1.00  0.00     0.170 HD
BRANCH   6  16
ATOM     16  C   UNL A   1      31.891  22.634  24.013  1.00  0.00    -0.038 A 
ATOM     17  C   UNL A   1      32.373  19.872  24.376  1.00  0.00     0.060 A 
ATOM     18  C   UNL A   1      32.419  20.436  23.098  1.00  0.00     0.016 A 
ATOM     19  C   UNL A   1      32.016  20.677  25.463  1.00  0.00     0.016 A 
ATOM     20  C   UNL A   1      32.186  21.802  22.919  1.00  0.00     0.005 A 
ATOM     21  C   UNL A   1      31.739  22.035  25.274  1.00  0.00     0.005 A 
BRANCH  17  22
ATOM     22  C   UNL A   1      32.732  18.440  24.534  1.00  0.00     0.337 C 
ATOM     23  O   UNL A   1      32.245  17.710  25.390  1.00  0.00    -0.246 OA
BRANCH  22  24
ATOM     24  O   UNL A   1      33.656  18.072  23.612  1.00  0.00    -0.465 OA
ATOM     25  C   UNL A   1      33.878  16.665  23.530  1.00  0.00     0.282 C 
ENDBRANCH  22  24
ENDBRANCH  17  22
ENDBRANCH   6  16
BRANCH  11  26
ATOM     26  C   UNL A   1      34.737  24.012  24.882  1.00  0.00     0.045 A 
ATOM     27  C   UNL A   1      35.198  23.932  23.565  1.00  0.00     0.026 A 
ATOM     28  C   UNL A   1      35.176  23.099  25.849  1.00  0.00     0.026 A 
ATOM     29  C   UNL A   1      36.071  22.908  23.203  1.00  0.00     0.002 A 
ATOM     30  C   UNL A   1      36.015  22.051  25.465  1.00  0.00     0.002 A 
ATOM     31  C   UNL A   1      36.458  21.955  24.144  1.00  0.00     0.000 A 
ENDBRANCH  11  26
ENDBRANCH   3   5
ENDBRANCH   2   3
ENDBRANCH   1   2
BRANCH   1  32
ATOM     32  C   UNL A   1      33.272  31.364  27.168  1.00  0.00     0.275 C 
BRANCH  32  33
ATOM     33  O   UNL A   1      34.282  30.946  28.084  1.00  0.00    -0.458 OA
BRANCH  33  34
ATOM     34  C   UNL A   1      35.372  31.745  28.136  1.00  0.00     0.338 C 
ATOM     35  O   UNL A   1      35.512  32.840  27.617  1.00  0.00    -0.246 OA
BRANCH  34  36
ATOM     36  C   UNL A   1      36.490  30.989  28.705  1.00  0.00     0.060 A 
ATOM     37  C   UNL A   1      37.577  31.715  29.202  1.00  0.00     0.016 A 
ATOM     38  C   UNL A   1      36.562  29.607  28.484  1.00  0.00     0.016 A 
ATOM     39  C   UNL A   1      38.788  31.070  29.347  1.00  0.00     0.010 A 
ATOM     40  C   UNL A   1      37.773  28.971  28.606  1.00  0.00     0.010 A 
ATOM     41  C   UNL A   1      38.885  29.720  28.982  1.00  0.00    -0.014 A 
BRANCH  41  42
ATOM     42  C   UNL A   1      40.146  29.038  29.193  1.00  0.00     0.031 A 
ATOM     43  C   UNL A   1      40.411  28.815  30.636  1.00  0.00     0.074 A 
ATOM     44  C   UNL A   1      40.883  28.543  28.179  1.00  0.00     0.049 A 
ATOM     45  N   UNL A   1      41.377  29.298  31.341  1.00  0.00    -0.248 NA
ATOM     46  C   UNL A   1      39.376  28.130  31.433  1.00  0.00     0.031 C 
ATOM     47  C   UNL A   1      40.519  28.494  26.759  1.00  0.00     0.029 A 
ATOM     48  N   UNL A   1      42.070  27.875  28.210  1.00  0.00    -0.354 N 
ATOM     49  C   UNL A   1      41.188  28.792  32.625  1.00  0.00     0.074 A 
ATOM     50  C   UNL A   1      39.854  28.268  32.669  1.00  0.00     0.031 C 
ATOM     51  C   UNL A   1      41.342  27.636  26.115  1.00  0.00     0.029 A 
ATOM     52  C   UNL A   1      42.359  27.174  27.043  1.00  0.00     0.049 A 
ATOM     53  H   UNL A   1      42.672  27.887  28.989  1.00  0.00     0.167 HD
ATOM     54  C   UNL A   1      42.265  28.557  33.422  1.00  0.00     0.037 A 
ATOM     55  C   UNL A   1      43.325  26.233  26.885  1.00  0.00     0.037 A 
ATOM     56  C   UNL A   1      43.405  29.307  32.956  1.00  0.00     0.049 A 
ATOM     57  C   UNL A   1      44.294  26.411  27.990  1.00  0.00     0.074 A 
ATOM     58  C   UNL A   1      43.742  30.640  32.851  1.00  0.00     0.029 A 
ATOM     59  N   UNL A   1      44.243  28.618  32.122  1.00  0.00    -0.354 N 
ATOM     60  N   UNL A   1      45.092  27.436  28.100  1.00  0.00    -0.248 NA
ATOM     61  C   UNL A   1      44.117  25.628  29.205  1.00  0.00     0.031 C 
ATOM     62  C   UNL A   1      44.588  30.735  31.705  1.00  0.00     0.029 A 
ATOM     63  C   UNL A   1      44.785  29.453  31.188  1.00  0.00     0.049 A 
ATOM     64  H   UNL A   1      44.429  27.653  32.187  1.00  0.00     0.167 HD
ATOM     65  C   UNL A   1      45.145  27.688  29.459  1.00  0.00     0.074 A 
ATOM     66  C   UNL A   1      44.674  26.459  30.089  1.00  0.00     0.031 C 
ATOM     67  C   UNL A   1      45.266  28.972  29.911  1.00  0.00     0.037 A 
BRANCH  54  68
ATOM     68  C   UNL A   1      42.437  27.281  34.233  1.00  0.00     0.064 A 
ATOM     69  C   UNL A   1      42.034  27.291  35.586  1.00  0.00     0.173 A 
ATOM     70  C   UNL A   1      43.268  26.198  33.865  1.00  0.00     0.173 A 
ATOM     71  F   UNL A   1      41.255  28.276  36.059  1.00  0.00    -0.203 F 
ATOM     72  C   UNL A   1      42.507  26.353  36.509  1.00  0.00     0.198 A 
ATOM     73  C   UNL A   1      43.699  25.237  34.780  1.00  0.00     0.198 A 
ATOM     74  F   UNL A   1      43.798  26.072  32.645  1.00  0.00    -0.203 F 
ATOM     75  F   UNL A   1      42.207  26.489  37.808  1.00  0.00    -0.200 F 
ATOM     76  C   UNL A   1      43.348  25.334  36.107  1.00  0.00     0.200 A 
ATOM     77  F   UNL A   1      44.532  24.270  34.371  1.00  0.00    -0.200 F 
ATOM     78  F   UNL A   1      43.860  24.477  36.999  1.00  0.00    -0.200 F 
ENDBRANCH  54  68
BRANCH  55  79
ATOM     79  C   UNL A   1      43.327  25.014  26.036  1.00  0.00     0.064 A 
ATOM     80  C   UNL A   1      44.364  24.775  25.116  1.00  0.00     0.173 A 
ATOM     81  C   UNL A   1      42.481  23.924  26.316  1.00  0.00     0.173 A 
ATOM     82  F   UNL A   1      45.243  25.743  24.822  1.00  0.00    -0.203 F 
ATOM     83  C   UNL A   1      44.565  23.514  24.543  1.00  0.00     0.198 A 
ATOM     84  C   UNL A   1      42.678  22.668  25.738  1.00  0.00     0.198 A 
ATOM     85  F   UNL A   1      41.509  24.025  27.232  1.00  0.00    -0.203 F 
ATOM     86  F   UNL A   1      45.610  23.306  23.729  1.00  0.00    -0.200 F 
ATOM     87  C   UNL A   1      43.729  22.458  24.865  1.00  0.00     0.200 A 
ATOM     88  F   UNL A   1      41.884  21.646  26.087  1.00  0.00    -0.200 F 
ATOM     89  F   UNL A   1      43.961  21.234  24.372  1.00  0.00    -0.200 F 
ENDBRANCH  55  79
BRANCH  67  90
ATOM     90  C   UNL A   1      45.791  29.992  28.942  1.00  0.00     0.064 A 
ATOM     91  C   UNL A   1      45.001  30.729  28.043  1.00  0.00     0.173 A 
ATOM     92  C   UNL A   1      47.161  30.284  28.987  1.00  0.00     0.173 A 
ATOM     93  F   UNL A   1      43.670  30.579  28.005  1.00  0.00    -0.203 F 
ATOM     94  C   UNL A   1      45.573  31.672  27.190  1.00  0.00     0.198 A 
ATOM     95  C   UNL A   1      47.721  31.258  28.167  1.00  0.00     0.198 A 
ATOM     96  F   UNL A   1      47.957  29.645  29.859  1.00  0.00    -0.203 F 
ATOM     97  F   UNL A   1      44.805  32.343  26.317  1.00  0.00    -0.200 F 
ATOM     98  C   UNL A   1      46.931  31.940  27.258  1.00  0.00     0.200 A 
ATOM     99  F   UNL A   1      49.025  31.546  28.273  1.00  0.00    -0.200 F 
ATOM    100  F   UNL A   1      47.475  32.871  26.462  1.00  0.00    -0.200 F 
ENDBRANCH  67  90
ENDBRANCH  41  42
ENDBRANCH  34  36
ENDBRANCH  33  34
ENDBRANCH  32  33
ENDBRANCH   1  32
TORSDOF 15
ENDMDL
MODEL 2
REMARK VINA RESULT:     -13.7      2.979      8.625
REMARK SMILES COC(=O)c1ccc([C@H]2CC(=O)Nc3c(C(=O)OCCOC(=O)c4ccc(-c5c6nc(c(-c7c(F)c(F)c(F)c(F)c7F)c7ccc([nH]7)c(-c7c(F)c(F)c(F)c(F)c7F)c7nc(c(-c8c(F)c(F)c(F)c(F)c8F)c8ccc5[nH]8)C=C7)C=C6)cc4)cn(-c4ccccc4)c32)cc1
REMARK SMILES IDX 19 1 18 2 16 3 17 4 15 5 9 6 10 7 95 8 11 9 14 10 88 11
REMARK SMILES IDX 12 12 13 13 87 14 8 16 5 17 6 18 97 19 7 20 96 21 3 22 4 23
REMARK SMILES IDX 2 24 1 25 89 26 90 27 94 28 91 29 93 30 92 31 20 32 21 33
REMARK SMILES IDX 22 34 23 35 24 36 25 37 86 38 26 39 85 40 27 41 28 42 29 43
REMARK SMILES IDX 79 44 30 45 84 46 78 47 80 48 31 49 83 50 77 51 76 52 32 54
REMARK SMILES IDX 64 55 44 56 63 57 45 58 48 59 62 60 81 61 46 62 47 63 61 65
REMARK SMILES IDX 82 66 49 67 33 68 34 69 42 70 35 71 36 72 40 73 43 74 37 75
REMARK SMILES IDX 38 76 41 77 39 78 65 79 66 80 74 81 67 82 68 83 72 84 75 85
REMARK SMILES IDX 69 86 70 87 73 88 71 89 50 90 51 91 59 92 52 93 53 94 57 95
REMARK SMILES IDX 60 96 54 97 55 98 58 99 56 100
REMARK H PARENT 13 15 80 53 48 64
REMARK Flexibility Score: inf
ROOT
ATOM      1  C   UNL A   1      36.780  20.962  25.219  1.00  0.00     0.275 C 
ENDROOT
BRANCH   1   2
ATOM      2  O   UNL A   1      36.378  22.247  25.720  1.00  0.00    -0.458 OA
BRANCH   2   3
ATOM      3  C   UNL A   1      36.334  23.263  24.803  1.00  0.00     0.341 C 
ATOM      4  O   UNL A   1      37.219  23.503  23.990  1.00  0.00    -0.246 OA
BRANCH   3   5
ATOM      5  C   UNL A   1      35.073  23.989  24.845  1.00  0.00     0.102 A 
ATOM      6  C   UNL A   1      31.467  24.593  24.145  1.00  0.00     0.078 C 
ATOM      7  C   UNL A   1      31.262  23.470  23.110  1.00  0.00     0.115 C 
ATOM      8  C   UNL A   1      32.906  24.632  24.587  1.00  0.00     0.055 A 
ATOM      9  C   UNL A   1      32.140  22.246  23.287  1.00  0.00     0.225 C 
ATOM     10  C   UNL A   1      33.803  23.615  24.354  1.00  0.00     0.078 A 
ATOM     11  N   UNL A   1      33.573  25.613  25.305  1.00  0.00    -0.317 N 
ATOM     12  O   UNL A   1      31.776  21.130  22.911  1.00  0.00    -0.275 OA
ATOM     13  N   UNL A   1      33.406  22.441  23.764  1.00  0.00    -0.324 N 
ATOM     14  C   UNL A   1      34.908  25.269  25.356  1.00  0.00     0.109 A 
ATOM     15  H   UNL A   1      34.061  21.710  23.679  1.00  0.00     0.170 HD
BRANCH   6  16
ATOM     16  C   UNL A   1      30.875  25.883  23.569  1.00  0.00    -0.038 A 
ATOM     17  C   UNL A   1      29.768  28.338  22.709  1.00  0.00     0.060 A 
ATOM     18  C   UNL A   1      29.032  27.480  23.531  1.00  0.00     0.016 A 
ATOM     19  C   UNL A   1      31.029  27.935  22.260  1.00  0.00     0.016 A 
ATOM     20  C   UNL A   1      29.581  26.269  23.961  1.00  0.00     0.005 A 
ATOM     21  C   UNL A   1      31.558  26.702  22.655  1.00  0.00     0.005 A 
BRANCH  17  22
ATOM     22  C   UNL A   1      29.189  29.662  22.365  1.00  0.00     0.337 C 
ATOM     23  O   UNL A   1      28.794  29.956  21.243  1.00  0.00    -0.246 OA
BRANCH  22  24
ATOM     24  O   UNL A   1      29.165  30.472  23.451  1.00  0.00    -0.465 OA
ATOM     25  C   UNL A   1      28.468  31.703  23.253  1.00  0.00     0.282 C 
ENDBRANCH  22  24
ENDBRANCH  17  22
ENDBRANCH   6  16
BRANCH  11  26
ATOM     26  C   UNL A   1      33.025  26.785  25.875  1.00  0.00     0.045 A 
ATOM     27  C   UNL A   1      32.011  26.678  26.831  1.00  0.00     0.026 A 
ATOM     28  C   UNL A   1      33.443  28.039  25.413  1.00  0.00     0.026 A 
ATOM     29  C   UNL A   1      31.382  27.831  27.296  1.00  0.00     0.002 A 
ATOM     30  C   UNL A   1      32.776  29.183  25.853  1.00  0.00     0.002 A 
ATOM     31  C   UNL A   1      31.746  29.078  26.790  1.00  0.00     0.000 A 
ENDBRANCH  11  26
ENDBRANCH   3   5
ENDBRANCH   2   3
ENDBRANCH   1   2
BRANCH   1  32
ATOM     32  C   UNL A   1      38.291  20.779  25.285  1.00  0.00     0.275 C 
BRANCH  32  33
ATOM     33  O   UNL A   1      38.840  21.324  26.484  1.00  0.00    -0.458 OA
BRANCH  33  34
ATOM     34  C   UNL A   1      40.090  21.823  26.363  1.00  0.00     0.338 C 
ATOM     35  O   UNL A   1      41.045  21.304  25.809  1.00  0.00    -0.246 OA
BRANCH  34  36
ATOM     36  C   UNL A   1      40.220  22.998  27.229  1.00  0.00     0.060 A 
ATOM     37  C   UNL A   1      39.299  24.035  27.057  1.00  0.00     0.016 A 
ATOM     38  C   UNL A   1      41.393  23.166  27.978  1.00  0.00     0.016 A 
ATOM     39  C   UNL A   1      39.626  25.291  27.527  1.00  0.00     0.010 A 
ATOM     40  C   UNL A   1      41.728  24.420  28.425  1.00  0.00     0.010 A 
ATOM     41  C   UNL A   1      40.869  25.480  28.146  1.00  0.00    -0.014 A 
BRANCH  41  42
ATOM     42  C   UNL A   1      41.177  26.788  28.688  1.00  0.00     0.031 A 
ATOM     43  C   UNL A   1      42.430  27.336  28.114  1.00  0.00     0.074 A 
ATOM     44  C   UNL A   1      40.327  27.460  29.491  1.00  0.00     0.049 A 
ATOM     45  N   UNL A   1      43.524  27.614  28.738  1.00  0.00    -0.248 NA
ATOM     46  C   UNL A   1      42.546  27.406  26.645  1.00  0.00     0.031 C 
ATOM     47  C   UNL A   1      38.960  27.076  29.855  1.00  0.00     0.029 A 
ATOM     48  N   UNL A   1      40.461  28.687  30.069  1.00  0.00    -0.354 N 
ATOM     49  C   UNL A   1      44.393  28.102  27.764  1.00  0.00     0.074 A 
ATOM     50  C   UNL A   1      43.823  27.757  26.494  1.00  0.00     0.031 C 
ATOM     51  C   UNL A   1      38.320  28.144  30.385  1.00  0.00     0.029 A 
ATOM     52  C   UNL A   1      39.263  29.242  30.509  1.00  0.00     0.049 A 
ATOM     53  H   UNL A   1      41.328  29.142  30.166  1.00  0.00     0.167 HD
ATOM     54  C   UNL A   1      45.326  29.033  28.099  1.00  0.00     0.037 A 
ATOM     55  C   UNL A   1      39.059  30.532  30.882  1.00  0.00     0.037 A 
ATOM     56  C   UNL A   1      45.555  29.021  29.523  1.00  0.00     0.049 A 
ATOM     57  C   UNL A   1      40.387  31.115  31.181  1.00  0.00     0.074 A 
ATOM     58  C   UNL A   1      46.076  28.133  30.438  1.00  0.00     0.029 A 
ATOM     59  N   UNL A   1      44.819  29.934  30.229  1.00  0.00    -0.354 N 
ATOM     60  N   UNL A   1      41.119  30.771  32.203  1.00  0.00    -0.248 NA
ATOM     61  C   UNL A   1      41.092  31.822  30.121  1.00  0.00     0.031 C 
ATOM     62  C   UNL A   1      45.371  28.375  31.656  1.00  0.00     0.029 A 
ATOM     63  C   UNL A   1      44.490  29.438  31.457  1.00  0.00     0.049 A 
ATOM     64  H   UNL A   1      44.563  30.825  29.897  1.00  0.00     0.167 HD
ATOM     65  C   UNL A   1      42.417  30.803  31.726  1.00  0.00     0.074 A 
ATOM     66  C   UNL A   1      42.351  31.611  30.512  1.00  0.00     0.031 C 
ATOM     67  C   UNL A   1      43.339  29.911  32.196  1.00  0.00     0.037 A 
BRANCH  54  68
ATOM     68  C   UNL A   1      45.597  30.277  27.265  1.00  0.00     0.064 A 
ATOM     69  C   UNL A   1      46.933  30.715  27.136  1.00  0.00     0.173 A 
ATOM     70  C   UNL A   1      44.618  31.226  26.892  1.00  0.00     0.173 A 
ATOM     71  F   UNL A   1      47.951  29.909  27.473  1.00  0.00    -0.203 F 
ATOM     72  C   UNL A   1      47.252  32.024  26.762  1.00  0.00     0.198 A 
ATOM     73  C   UNL A   1      44.944  32.516  26.473  1.00  0.00     0.198 A 
ATOM     74  F   UNL A   1      43.307  31.004  27.017  1.00  0.00    -0.203 F 
ATOM     75  F   UNL A   1      48.529  32.430  26.790  1.00  0.00    -0.200 F 
ATOM     76  C   UNL A   1      46.257  32.926  26.441  1.00  0.00     0.200 A 
ATOM     77  F   UNL A   1      43.960  33.381  26.188  1.00  0.00    -0.200 F 
ATOM     78  F   UNL A   1      46.555  34.199  26.152  1.00  0.00    -0.200 F 
ENDBRANCH  54  68
BRANCH  55  79
ATOM     79  C   UNL A   1      37.853  31.383  30.720  1.00  0.00     0.064 A 
ATOM     80  C   UNL A   1      37.381  31.733  29.441  1.00  0.00     0.173 A 
ATOM     81  C   UNL A   1      36.975  31.623  31.793  1.00  0.00     0.173 A 
ATOM     82  F   UNL A   1      38.134  31.501  28.356  1.00  0.00    -0.203 F 
ATOM     83  C   UNL A   1      36.096  32.252  29.246  1.00  0.00     0.198 A 
ATOM     84  C   UNL A   1      35.695  32.148  31.599  1.00  0.00     0.198 A 
ATOM     85  F   UNL A   1      37.298  31.258  33.041  1.00  0.00    -0.203 F 
ATOM     86  F   UNL A   1      35.655  32.503  28.006  1.00  0.00    -0.200 F 
ATOM     87  C   UNL A   1      35.249  32.447  30.325  1.00  0.00     0.200 A 
ATOM     88  F   UNL A   1      34.873  32.296  32.648  1.00  0.00    -0.200 F 
ATOM     89  F   UNL A   1      33.996  32.879  30.134  1.00  0.00    -0.200 F 
ENDBRANCH  55  79
BRANCH  67  90
ATOM     90  C   UNL A   1      43.045  29.253  33.513  1.00  0.00     0.064 A 
ATOM     91  C   UNL A   1      43.319  29.815  34.772  1.00  0.00     0.173 A 
ATOM     92  C   UNL A   1      42.380  28.019  33.488  1.00  0.00     0.173 A 
ATOM     93  F   UNL A   1      43.865  31.033  34.884  1.00  0.00    -0.203 F 
ATOM     94  C   UNL A   1      42.992  29.138  35.947  1.00  0.00     0.198 A 
ATOM     95  C   UNL A   1      42.015  27.369  34.661  1.00  0.00     0.198 A 
ATOM     96  F   UNL A   1      42.050  27.458  32.313  1.00  0.00    -0.203 F 
ATOM     97  F   UNL A   1      43.292  29.678  37.139  1.00  0.00    -0.200 F 
ATOM     98  C   UNL A   1      42.335  27.920  35.890  1.00  0.00     0.200 A 
ATOM     99  F   UNL A   1      41.335  26.216  34.598  1.00  0.00    -0.200 F 
ATOM    100  F   UNL A   1      41.991  27.286  37.019  1.00  0.00    -0.200 F 
ENDBRANCH  67  90
ENDBRANCH  41  42
ENDBRANCH  34  36
ENDBRANCH  33  34
ENDBRANCH  32  33
ENDBRANCH   1  32
TORSDOF 15
ENDMDL
MODEL 3
REMARK VINA RESULT:     -13.4      3.131      8.741
REMARK SMILES COC(=O)c1ccc([C@H]2CC(=O)Nc3c(C(=O)OCCOC(=O)c4ccc(-c5c6nc(c(-c7c(F)c(F)c(F)c(F)c7F)c7ccc([nH]7)c(-c7c(F)c(F)c(F)c(F)c7F)c7nc(c(-c8c(F)c(F)c(F)c(F)c8F)c8ccc5[nH]8)C=C7)C=C6)cc4)cn(-c4ccccc4)c32)cc1
REMARK SMILES IDX 19 1 18 2 16 3 17 4 15 5 9 6 10 7 95 8 11 9 14 10 88 11
REMARK SMILES IDX 12 12 13 13 87 14 8 16 5 17 6 18 97 19 7 20 96 21 3 22 4 23
REMARK SMILES IDX 2 24 1 25 89 26 90 27 94 28 91 29 93 30 92 31 20 32 21 33
REMARK SMILES IDX 22 34 23 35 24 36 25 37 86 38 26 39 85 40 27 41 28 42 29 43
REMARK SMILES IDX 79 44 30 45 84 46 78 47 80 48 31 49 83 50 77 51 76 52 32 54
REMARK SMILES IDX 64 55 44 56 63 57 45 58 48 59 62 60 81 61 46 62 47 63 61 65
REMARK SMILES IDX 82 66 49 67 33 68 34 69 42 70 35 71 36 72 40 73 43 74 37 75
REMARK SMILES IDX 38 76 41 77 39 78 65 79 66 80 74 81 67 82 68 83 72 84 75 85
REMARK SMILES IDX 69 86 70 87 73 88 71 89 50 90 51 91 59 92 52 93 53 94 57 95
REMARK SMILES IDX 60 96 54 97 55 98 58 99 56 100
REMARK H PARENT 13 15 80 53 48 64
REMARK Flexibility Score: inf
ROOT
ATOM      1  C   UNL A   1      38.145  22.962  26.126  1.00  0.00     0.275 C 
ENDROOT
BRANCH   1   2
ATOM      2  O   UNL A   1      36.809  22.603  25.739  1.00  0.00    -0.458 OA
BRANCH   2   3
ATOM      3  C   UNL A   1      36.393  23.065  24.519  1.00  0.00     0.341 C 
ATOM      4  O   UNL A   1      36.967  22.841  23.459  1.00  0.00    -0.246 OA
BRANCH   3   5
ATOM      5  C   UNL A   1      35.138  23.796  24.606  1.00  0.00     0.102 A 
ATOM      6  C   UNL A   1      31.522  24.438  23.995  1.00  0.00     0.078 C 
ATOM      7  C   UNL A   1      31.289  23.342  22.936  1.00  0.00     0.115 C 
ATOM      8  C   UNL A   1      32.970  24.458  24.407  1.00  0.00     0.055 A 
ATOM      9  C   UNL A   1      32.163  22.109  23.065  1.00  0.00     0.225 C 
ATOM     10  C   UNL A   1      33.856  23.442  24.131  1.00  0.00     0.078 A 
ATOM     11  N   UNL A   1      33.657  25.416  25.136  1.00  0.00    -0.317 N 
ATOM     12  O   UNL A   1      31.786  21.005  22.669  1.00  0.00    -0.275 OA
ATOM     13  N   UNL A   1      33.441  22.285  23.520  1.00  0.00    -0.324 N 
ATOM     14  C   UNL A   1      34.991  25.064  25.152  1.00  0.00     0.109 A 
ATOM     15  H   UNL A   1      34.089  21.553  23.404  1.00  0.00     0.170 HD
BRANCH   6  16
ATOM     16  C   UNL A   1      30.926  25.745  23.464  1.00  0.00    -0.038 A 
ATOM     17  C   UNL A   1      29.841  28.236  22.684  1.00  0.00     0.060 A 
ATOM     18  C   UNL A   1      29.175  27.436  23.617  1.00  0.00     0.016 A 
ATOM     19  C   UNL A   1      31.013  27.758  22.090  1.00  0.00     0.016 A 
ATOM     20  C   UNL A   1      29.714  26.207  24.006  1.00  0.00     0.005 A 
ATOM     21  C   UNL A   1      31.526  26.507  22.448  1.00  0.00     0.005 A 
BRANCH  17  22
ATOM     22  C   UNL A   1      29.289  29.582  22.380  1.00  0.00     0.337 C 
ATOM     23  O   UNL A   1      29.163  30.020  21.243  1.00  0.00    -0.246 OA
BRANCH  22  24
ATOM     24  O   UNL A   1      28.956  30.232  23.522  1.00  0.00    -0.465 OA
ATOM     25  C   UNL A   1      27.668  30.848  23.494  1.00  0.00     0.282 C 
ENDBRANCH  22  24
ENDBRANCH  17  22
ENDBRANCH   6  16
BRANCH  11  26
ATOM     26  C   UNL A   1      33.128  26.577  25.746  1.00  0.00     0.045 A 
ATOM     27  C   UNL A   1      33.657  27.829  25.421  1.00  0.00     0.026 A 
ATOM     28  C   UNL A   1      32.142  26.452  26.732  1.00  0.00     0.026 A 
ATOM     29  C   UNL A   1      33.227  28.958  26.115  1.00  0.00     0.002 A 
ATOM     30  C   UNL A   1      31.752  27.582  27.452  1.00  0.00     0.002 A 
ATOM     31  C   UNL A   1      32.296  28.831  27.146  1.00  0.00     0.000 A 
ENDBRANCH  11  26
ENDBRANCH   3   5
ENDBRANCH   2   3
ENDBRANCH   1   2
BRANCH   1  32
ATOM     32  C   UNL A   1      39.090  21.769  26.062  1.00  0.00     0.275 C 
BRANCH  32  33
ATOM     33  O   UNL A   1      40.271  21.983  26.834  1.00  0.00    -0.458 OA
BRANCH  33  34
ATOM     34  C   UNL A   1      41.332  22.447  26.136  1.00  0.00     0.338 C 
ATOM     35  O   UNL A   1      42.046  21.820  25.371  1.00  0.00    -0.246 OA
BRANCH  34  36
ATOM     36  C   UNL A   1      41.678  23.783  26.626  1.00  0.00     0.060 A 
ATOM     37  C   UNL A   1      42.296  23.876  27.877  1.00  0.00     0.016 A 
ATOM     38  C   UNL A   1      41.140  24.906  25.980  1.00  0.00     0.016 A 
ATOM     39  C   UNL A   1      42.251  25.082  28.545  1.00  0.00     0.010 A 
ATOM     40  C   UNL A   1      41.076  26.099  26.656  1.00  0.00     0.010 A 
ATOM     41  C   UNL A   1      41.581  26.161  27.952  1.00  0.00    -0.014 A 
BRANCH  41  42
ATOM     42  C   UNL A   1      41.592  27.439  28.637  1.00  0.00     0.031 A 
ATOM     43  C   UNL A   1      42.771  28.253  28.255  1.00  0.00     0.074 A 
ATOM     44  C   UNL A   1      40.562  27.865  29.394  1.00  0.00     0.049 A 
ATOM     45  N   UNL A   1      43.732  28.649  29.019  1.00  0.00    -0.248 NA
ATOM     46  C   UNL A   1      43.011  28.496  26.820  1.00  0.00     0.031 C 
ATOM     47  C   UNL A   1      39.260  27.213  29.569  1.00  0.00     0.029 A 
ATOM     48  N   UNL A   1      40.413  29.028  30.088  1.00  0.00    -0.354 N 
ATOM     49  C   UNL A   1      44.584  29.380  28.194  1.00  0.00     0.074 A 
ATOM     50  C   UNL A   1      44.210  29.078  26.843  1.00  0.00     0.031 C 
ATOM     51  C   UNL A   1      38.388  28.091  30.115  1.00  0.00     0.029 A 
ATOM     52  C   UNL A   1      39.097  29.317  30.438  1.00  0.00     0.049 A 
ATOM     53  H   UNL A   1      41.169  29.614  30.320  1.00  0.00     0.167 HD
ATOM     54  C   UNL A   1      45.295  30.419  28.710  1.00  0.00     0.037 A 
ATOM     55  C   UNL A   1      38.626  30.506  30.896  1.00  0.00     0.037 A 
ATOM     56  C   UNL A   1      45.387  30.297  30.144  1.00  0.00     0.049 A 
ATOM     57  C   UNL A   1      39.790  31.276  31.391  1.00  0.00     0.074 A 
ATOM     58  C   UNL A   1      45.975  29.421  31.031  1.00  0.00     0.029 A 
ATOM     59  N   UNL A   1      44.434  30.989  30.840  1.00  0.00    -0.354 N 
ATOM     60  N   UNL A   1      40.473  30.959  32.455  1.00  0.00    -0.248 NA
ATOM     61  C   UNL A   1      40.450  32.202  30.481  1.00  0.00     0.031 C 
ATOM     62  C   UNL A   1      45.126  29.408  32.180  1.00  0.00     0.029 A 
ATOM     63  C   UNL A   1      44.087  30.317  31.977  1.00  0.00     0.049 A 
ATOM     64  H   UNL A   1      44.051  31.852  30.560  1.00  0.00     0.167 HD
ATOM     65  C   UNL A   1      41.782  31.265  32.129  1.00  0.00     0.074 A 
ATOM     66  C   UNL A   1      41.684  32.173  30.990  1.00  0.00     0.031 C 
ATOM     67  C   UNL A   1      42.804  30.503  32.620  1.00  0.00     0.037 A 
BRANCH  54  68
ATOM     68  C   UNL A   1      45.411  31.772  28.023  1.00  0.00     0.064 A 
ATOM     69  C   UNL A   1      44.222  32.425  27.633  1.00  0.00     0.173 A 
ATOM     70  C   UNL A   1      46.592  32.279  27.436  1.00  0.00     0.173 A 
ATOM     71  F   UNL A   1      43.034  32.025  28.111  1.00  0.00    -0.203 F 
ATOM     72  C   UNL A   1      44.212  33.431  26.661  1.00  0.00     0.198 A 
ATOM     73  C   UNL A   1      46.582  33.316  26.502  1.00  0.00     0.198 A 
ATOM     74  F   UNL A   1      47.795  31.735  27.640  1.00  0.00    -0.203 F 
ATOM     75  F   UNL A   1      43.044  33.921  26.223  1.00  0.00    -0.200 F 
ATOM     76  C   UNL A   1      45.391  33.867  26.089  1.00  0.00     0.200 A 
ATOM     77  F   UNL A   1      47.737  33.707  25.945  1.00  0.00    -0.200 F 
ATOM     78  F   UNL A   1      45.380  34.779  25.109  1.00  0.00    -0.200 F 
ENDBRANCH  54  68
BRANCH  55  79
ATOM     79  C   UNL A   1      37.306  31.147  30.675  1.00  0.00     0.064 A 
ATOM     80  C   UNL A   1      36.453  31.439  31.755  1.00  0.00     0.173 A 
ATOM     81  C   UNL A   1      36.980  31.752  29.446  1.00  0.00     0.173 A 
ATOM     82  F   UNL A   1      36.710  30.941  32.973  1.00  0.00    -0.203 F 
ATOM     83  C   UNL A   1      35.367  32.313  31.622  1.00  0.00     0.198 A 
ATOM     84  C   UNL A   1      35.892  32.618  29.312  1.00  0.00     0.198 A 
ATOM     85  F   UNL A   1      37.768  31.597  28.373  1.00  0.00    -0.203 F 
ATOM     86  F   UNL A   1      34.624  32.625  32.693  1.00  0.00    -0.200 F 
ATOM     87  C   UNL A   1      35.096  32.912  30.403  1.00  0.00     0.200 A 
ATOM     88  F   UNL A   1      35.664  33.219  28.136  1.00  0.00    -0.200 F 
ATOM     89  F   UNL A   1      34.101  33.801  30.291  1.00  0.00    -0.200 F 
ENDBRANCH  55  79
BRANCH  67  90
ATOM     90  C   UNL A   1      42.513  29.668  33.835  1.00  0.00     0.064 A 
ATOM     91  C   UNL A   1      41.957  28.378  33.808  1.00  0.00     0.173 A 
ATOM     92  C   UNL A   1      42.891  30.183  35.082  1.00  0.00     0.173 A 
ATOM     93  F   UNL A   1      41.658  27.774  32.651  1.00  0.00    -0.203 F 
ATOM     94  C   UNL A   1      41.739  27.666  34.988  1.00  0.00     0.198 A 
ATOM     95  C   UNL A   1      42.714  29.453  36.251  1.00  0.00     0.198 A 
ATOM     96  F   UNL A   1      43.470  31.392  35.163  1.00  0.00    -0.203 F 
ATOM     97  F   UNL A   1      41.177  26.447  34.943  1.00  0.00    -0.200 F 
ATOM     98  C   UNL A   1      42.123  28.201  36.206  1.00  0.00     0.200 A 
ATOM     99  F   UNL A   1      43.133  29.956  37.420  1.00  0.00    -0.200 F 
ATOM    100  F   UNL A   1      41.944  27.503  37.336  1.00  0.00    -0.200 F 
ENDBRANCH  67  90
ENDBRANCH  41  42
ENDBRANCH  34  36
ENDBRANCH  33  34
ENDBRANCH  32  33
ENDBRANCH   1  32
TORSDOF 15
ENDMDL
