MODEL 1
REMARK VINA RESULT:     -11.7      0.000      0.000
REMARK SMILES COc1ccc(C(C)(C)C)cc1CC(=O)OCCOC(=O)c1ccc(-c2c3nc(c(-c4c(F)c(F)c(F)c(F)c4F)c4ccc([nH]4)c(-c4c(F)c(F)c(F)c(F)c4F)c4nc(c(-c5c(F)c(F)c(F)c(F)c5F)c5ccc2[nH]5)C=C4)C=C3)cc1
REMARK SMILES IDX 17 1 16 2 14 3 15 4 13 5 12 6 3 7 4 8 5 9 11 10 6 11 2 12
REMARK SMILES IDX 1 13 7 14 8 15 9 16 10 17 18 18 19 19 20 20 21 21 22 22
REMARK SMILES IDX 23 23 84 24 24 25 83 26 25 27 26 28 27 29 77 30 28 31 82 32
REMARK SMILES IDX 76 33 78 34 29 35 81 36 75 37 74 38 30 40 62 41 42 42 61 43
REMARK SMILES IDX 43 44 46 45 60 46 79 47 44 48 45 49 59 51 80 52 47 53 31 54
REMARK SMILES IDX 32 55 40 56 33 57 34 58 38 59 41 60 35 61 36 62 39 63 37 64
REMARK SMILES IDX 63 65 64 66 72 67 65 68 66 69 70 70 73 71 67 72 68 73 71 74
REMARK SMILES IDX 69 75 48 76 49 77 57 78 50 79 51 80 55 81 58 82 52 83 53 84
REMARK SMILES IDX 56 85 54 86
REMARK H PARENT 78 39 46 50
REMARK Flexibility Score: inf
ROOT
ATOM      1  C   UNL A   1      31.662  28.761  27.161  1.00  0.00     0.274 C 
ENDROOT
BRANCH   1   2
ATOM      2  O   UNL A   1      31.044  27.573  26.632  1.00  0.00    -0.462 OA
BRANCH   2   3
ATOM      3  C   UNL A   1      31.827  26.467  26.564  1.00  0.00     0.310 C 
ATOM      4  O   UNL A   1      31.459  25.329  26.845  1.00  0.00    -0.252 OA
BRANCH   3   5
ATOM      5  C   UNL A   1      33.187  26.722  25.963  1.00  0.00     0.162 C 
BRANCH   5   6
ATOM      6  C   UNL A   1      33.702  25.716  24.968  1.00  0.00     0.005 A 
ATOM      7  C   UNL A   1      33.204  25.571  23.671  1.00  0.00     0.122 A 
ATOM      8  C   UNL A   1      33.754  24.598  22.835  1.00  0.00     0.047 A 
ATOM      9  C   UNL A   1      34.782  23.758  23.277  1.00  0.00     0.008 A 
ATOM     10  C   UNL A   1      34.722  24.833  25.409  1.00  0.00     0.012 A 
ATOM     11  C   UNL A   1      35.269  23.833  24.590  1.00  0.00    -0.042 A 
BRANCH   7  12
ATOM     12  O   UNL A   1      32.112  26.210  23.151  1.00  0.00    -0.496 OA
ATOM     13  C   UNL A   1      31.782  25.921  21.799  1.00  0.00     0.278 C 
ENDBRANCH   7  12
BRANCH  11  14
ATOM     14  C   UNL A   1      36.340  22.843  25.085  1.00  0.00    -0.013 C 
ATOM     15  C   UNL A   1      35.691  21.769  25.988  1.00  0.00     0.016 C 
ATOM     16  C   UNL A   1      37.001  22.154  23.874  1.00  0.00     0.016 C 
ATOM     17  C   UNL A   1      37.469  23.499  25.918  1.00  0.00     0.016 C 
ENDBRANCH  11  14
ENDBRANCH   5   6
ENDBRANCH   3   5
ENDBRANCH   2   3
ENDBRANCH   1   2
BRANCH   1  18
ATOM     18  C   UNL A   1      31.700  29.830  26.073  1.00  0.00     0.275 C 
BRANCH  18  19
ATOM     19  O   UNL A   1      33.009  30.429  26.056  1.00  0.00    -0.458 OA
BRANCH  19  20
ATOM     20  C   UNL A   1      33.233  31.387  26.986  1.00  0.00     0.338 C 
ATOM     21  O   UNL A   1      32.520  32.339  27.251  1.00  0.00    -0.246 OA
BRANCH  20  22
ATOM     22  C   UNL A   1      34.522  31.127  27.664  1.00  0.00     0.060 A 
ATOM     23  C   UNL A   1      35.405  32.166  27.964  1.00  0.00     0.016 A 
ATOM     24  C   UNL A   1      34.871  29.812  27.970  1.00  0.00     0.016 A 
ATOM     25  C   UNL A   1      36.652  31.893  28.525  1.00  0.00     0.010 A 
ATOM     26  C   UNL A   1      36.076  29.550  28.630  1.00  0.00     0.010 A 
ATOM     27  C   UNL A   1      36.981  30.587  28.914  1.00  0.00    -0.014 A 
BRANCH  27  28
ATOM     28  C   UNL A   1      38.225  30.302  29.679  1.00  0.00     0.031 A 
ATOM     29  C   UNL A   1      39.260  29.358  29.138  1.00  0.00     0.074 A 
ATOM     30  C   UNL A   1      38.389  30.836  30.906  1.00  0.00     0.049 A 
ATOM     31  N   UNL A   1      40.277  28.804  29.749  1.00  0.00    -0.248 NA
ATOM     32  C   UNL A   1      39.121  28.968  27.728  1.00  0.00     0.031 C 
ATOM     33  C   UNL A   1      37.468  31.773  31.552  1.00  0.00     0.029 A 
ATOM     34  N   UNL A   1      39.378  30.647  31.842  1.00  0.00    -0.354 N 
ATOM     35  C   UNL A   1      40.867  27.962  28.817  1.00  0.00     0.074 A 
ATOM     36  C   UNL A   1      40.095  28.077  27.596  1.00  0.00     0.031 C 
ATOM     37  C   UNL A   1      37.937  32.086  32.768  1.00  0.00     0.029 A 
ATOM     38  C   UNL A   1      39.142  31.306  33.023  1.00  0.00     0.049 A 
ATOM     39  H   UNL A   1      40.176  30.094  31.680  1.00  0.00     0.167 HD
ATOM     40  C   UNL A   1      41.950  27.162  28.971  1.00  0.00     0.037 A 
ATOM     41  C   UNL A   1      39.782  31.250  34.205  1.00  0.00     0.037 A 
ATOM     42  C   UNL A   1      42.743  27.088  30.171  1.00  0.00     0.049 A 
ATOM     43  C   UNL A   1      40.960  30.336  34.364  1.00  0.00     0.074 A 
ATOM     44  C   UNL A   1      43.906  26.372  30.395  1.00  0.00     0.029 A 
ATOM     45  N   UNL A   1      42.453  27.755  31.351  1.00  0.00    -0.354 N 
ATOM     46  N   UNL A   1      41.505  29.537  33.481  1.00  0.00    -0.248 NA
ATOM     47  C   UNL A   1      41.596  30.299  35.687  1.00  0.00     0.031 C 
ATOM     48  C   UNL A   1      44.296  26.572  31.725  1.00  0.00     0.029 A 
ATOM     49  C   UNL A   1      43.396  27.442  32.319  1.00  0.00     0.049 A 
ATOM     50  H   UNL A   1      41.689  28.362  31.484  1.00  0.00     0.167 HD
ATOM     51  C   UNL A   1      42.539  28.890  34.141  1.00  0.00     0.074 A 
ATOM     52  C   UNL A   1      42.565  29.413  35.492  1.00  0.00     0.031 C 
ATOM     53  C   UNL A   1      43.386  27.943  33.669  1.00  0.00     0.037 A 
BRANCH  40  54
ATOM     54  C   UNL A   1      42.324  26.275  27.820  1.00  0.00     0.064 A 
ATOM     55  C   UNL A   1      41.689  25.048  27.589  1.00  0.00     0.173 A 
ATOM     56  C   UNL A   1      43.323  26.679  26.919  1.00  0.00     0.173 A 
ATOM     57  F   UNL A   1      40.737  24.613  28.428  1.00  0.00    -0.203 F 
ATOM     58  C   UNL A   1      42.058  24.242  26.514  1.00  0.00     0.198 A 
ATOM     59  C   UNL A   1      43.672  25.881  25.832  1.00  0.00     0.198 A 
ATOM     60  F   UNL A   1      43.958  27.847  27.092  1.00  0.00    -0.203 F 
ATOM     61  F   UNL A   1      41.469  23.051  26.339  1.00  0.00    -0.200 F 
ATOM     62  C   UNL A   1      43.046  24.661  25.634  1.00  0.00     0.200 A 
ATOM     63  F   UNL A   1      44.621  26.293  24.978  1.00  0.00    -0.200 F 
ATOM     64  F   UNL A   1      43.399  23.883  24.603  1.00  0.00    -0.200 F 
ENDBRANCH  40  54
BRANCH  41  65
ATOM     65  C   UNL A   1      39.265  32.050  35.344  1.00  0.00     0.064 A 
ATOM     66  C   UNL A   1      38.465  31.462  36.331  1.00  0.00     0.173 A 
ATOM     67  C   UNL A   1      39.615  33.399  35.499  1.00  0.00     0.173 A 
ATOM     68  F   UNL A   1      38.087  30.182  36.211  1.00  0.00    -0.203 F 
ATOM     69  C   UNL A   1      38.042  32.194  37.439  1.00  0.00     0.198 A 
ATOM     70  C   UNL A   1      39.212  34.122  36.618  1.00  0.00     0.198 A 
ATOM     71  F   UNL A   1      40.382  34.003  34.579  1.00  0.00    -0.203 F 
ATOM     72  F   UNL A   1      37.266  31.615  38.365  1.00  0.00    -0.200 F 
ATOM     73  C   UNL A   1      38.427  33.518  37.587  1.00  0.00     0.200 A 
ATOM     74  F   UNL A   1      39.600  35.396  36.765  1.00  0.00    -0.200 F 
ATOM     75  F   UNL A   1      38.039  34.214  38.666  1.00  0.00    -0.200 F 
ENDBRANCH  41  65
BRANCH  53  76
ATOM     76  C   UNL A   1      44.396  27.399  34.632  1.00  0.00     0.064 A 
ATOM     77  C   UNL A   1      45.656  27.998  34.776  1.00  0.00     0.173 A 
ATOM     78  C   UNL A   1      44.097  26.289  35.434  1.00  0.00     0.173 A 
ATOM     79  F   UNL A   1      45.994  29.050  34.016  1.00  0.00    -0.203 F 
ATOM     80  C   UNL A   1      46.587  27.494  35.680  1.00  0.00     0.198 A 
ATOM     81  C   UNL A   1      45.023  25.800  36.351  1.00  0.00     0.198 A 
ATOM     82  F   UNL A   1      42.905  25.682  35.332  1.00  0.00    -0.203 F 
ATOM     83  F   UNL A   1      47.799  28.058  35.775  1.00  0.00    -0.200 F 
ATOM     84  C   UNL A   1      46.268  26.399  36.470  1.00  0.00     0.200 A 
ATOM     85  F   UNL A   1      44.713  24.746  37.118  1.00  0.00    -0.200 F 
ATOM     86  F   UNL A   1      47.166  25.916  37.340  1.00  0.00    -0.200 F 
ENDBRANCH  53  76
ENDBRANCH  27  28
ENDBRANCH  20  22
ENDBRANCH  19  20
ENDBRANCH  18  19
ENDBRANCH   1  18
TORSDOF 14
ENDMDL
MODEL 2
REMARK VINA RESULT:     -11.7      0.781      2.093
REMARK SMILES COc1ccc(C(C)(C)C)cc1CC(=O)OCCOC(=O)c1ccc(-c2c3nc(c(-c4c(F)c(F)c(F)c(F)c4F)c4ccc([nH]4)c(-c4c(F)c(F)c(F)c(F)c4F)c4nc(c(-c5c(F)c(F)c(F)c(F)c5F)c5ccc2[nH]5)C=C4)C=C3)cc1
REMARK SMILES IDX 17 1 16 2 14 3 15 4 13 5 12 6 3 7 4 8 5 9 11 10 6 11 2 12
REMARK SMILES IDX 1 13 7 14 8 15 9 16 10 17 18 18 19 19 20 20 21 21 22 22
REMARK SMILES IDX 23 23 84 24 24 25 83 26 25 27 26 28 27 29 77 30 28 31 82 32
REMARK SMILES IDX 76 33 78 34 29 35 81 36 75 37 74 38 30 40 62 41 42 42 61 43
REMARK SMILES IDX 43 44 46 45 60 46 79 47 44 48 45 49 59 51 80 52 47 53 31 54
REMARK SMILES IDX 32 55 40 56 33 57 34 58 38 59 41 60 35 61 36 62 39 63 37 64
REMARK SMILES IDX 63 65 64 66 72 67 65 68 66 69 70 70 73 71 67 72 68 73 71 74
REMARK SMILES IDX 69 75 48 76 49 77 57 78 50 79 51 80 55 81 58 82 52 83 53 84
REMARK SMILES IDX 56 85 54 86
REMARK H PARENT 78 39 46 50
REMARK Flexibility Score: inf
ROOT
ATOM      1  C   UNL A   1      31.468  29.245  24.799  1.00  0.00     0.274 C 
ENDROOT
BRANCH   1   2
ATOM      2  O   UNL A   1      31.481  27.851  25.162  1.00  0.00    -0.462 OA
BRANCH   2   3
ATOM      3  C   UNL A   1      32.604  27.158  24.845  1.00  0.00     0.310 C 
ATOM      4  O   UNL A   1      33.124  27.136  23.732  1.00  0.00    -0.252 OA
BRANCH   3   5
ATOM      5  C   UNL A   1      33.271  26.508  26.032  1.00  0.00     0.162 C 
BRANCH   5   6
ATOM      6  C   UNL A   1      33.492  25.020  25.970  1.00  0.00     0.005 A 
ATOM      7  C   UNL A   1      32.553  24.071  26.384  1.00  0.00     0.122 A 
ATOM      8  C   UNL A   1      32.868  22.715  26.288  1.00  0.00     0.047 A 
ATOM      9  C   UNL A   1      34.109  22.290  25.800  1.00  0.00     0.008 A 
ATOM     10  C   UNL A   1      34.756  24.571  25.509  1.00  0.00     0.012 A 
ATOM     11  C   UNL A   1      35.099  23.212  25.429  1.00  0.00    -0.042 A 
BRANCH   7  12
ATOM     12  O   UNL A   1      31.369  24.331  27.017  1.00  0.00    -0.496 OA
ATOM     13  C   UNL A   1      30.357  23.338  26.920  1.00  0.00     0.278 C 
ENDBRANCH   7  12
BRANCH  11  14
ATOM     14  C   UNL A   1      36.489  22.728  24.975  1.00  0.00    -0.013 C 
ATOM     15  C   UNL A   1      37.591  23.474  25.761  1.00  0.00     0.016 C 
ATOM     16  C   UNL A   1      36.616  21.214  25.239  1.00  0.00     0.016 C 
ATOM     17  C   UNL A   1      36.780  22.963  23.473  1.00  0.00     0.016 C 
ENDBRANCH  11  14
ENDBRANCH   5   6
ENDBRANCH   3   5
ENDBRANCH   2   3
ENDBRANCH   1   2
BRANCH   1  18
ATOM     18  C   UNL A   1      31.644  30.089  26.058  1.00  0.00     0.275 C 
BRANCH  18  19
ATOM     19  O   UNL A   1      33.038  30.416  26.205  1.00  0.00    -0.458 OA
BRANCH  19  20
ATOM     20  C   UNL A   1      33.325  31.399  27.090  1.00  0.00     0.338 C 
ATOM     21  O   UNL A   1      32.651  32.381  27.346  1.00  0.00    -0.246 OA
BRANCH  20  22
ATOM     22  C   UNL A   1      34.631  31.125  27.730  1.00  0.00     0.060 A 
ATOM     23  C   UNL A   1      35.551  32.147  27.966  1.00  0.00     0.016 A 
ATOM     24  C   UNL A   1      34.957  29.810  28.062  1.00  0.00     0.016 A 
ATOM     25  C   UNL A   1      36.810  31.857  28.490  1.00  0.00     0.010 A 
ATOM     26  C   UNL A   1      36.178  29.535  28.686  1.00  0.00     0.010 A 
ATOM     27  C   UNL A   1      37.119  30.555  28.906  1.00  0.00    -0.014 A 
BRANCH  27  28
ATOM     28  C   UNL A   1      38.383  30.259  29.635  1.00  0.00     0.031 A 
ATOM     29  C   UNL A   1      39.382  29.288  29.075  1.00  0.00     0.074 A 
ATOM     30  C   UNL A   1      38.596  30.808  30.847  1.00  0.00     0.049 A 
ATOM     31  N   UNL A   1      40.409  28.725  29.661  1.00  0.00    -0.248 NA
ATOM     32  C   UNL A   1      39.190  28.881  27.676  1.00  0.00     0.031 C 
ATOM     33  C   UNL A   1      37.714  31.771  31.508  1.00  0.00     0.029 A 
ATOM     34  N   UNL A   1      39.612  30.616  31.753  1.00  0.00    -0.354 N 
ATOM     35  C   UNL A   1      40.953  27.859  28.723  1.00  0.00     0.074 A 
ATOM     36  C   UNL A   1      40.144  27.970  27.527  1.00  0.00     0.031 C 
ATOM     37  C   UNL A   1      38.228  32.094  32.703  1.00  0.00     0.029 A 
ATOM     38  C   UNL A   1      39.427  31.297  32.931  1.00  0.00     0.049 A 
ATOM     39  H   UNL A   1      40.395  30.046  31.574  1.00  0.00     0.167 HD
ATOM     40  C   UNL A   1      42.026  27.043  28.854  1.00  0.00     0.037 A 
ATOM     41  C   UNL A   1      40.105  31.246  34.092  1.00  0.00     0.037 A 
ATOM     42  C   UNL A   1      42.858  26.972  30.028  1.00  0.00     0.049 A 
ATOM     43  C   UNL A   1      41.270  30.314  34.226  1.00  0.00     0.074 A 
ATOM     44  C   UNL A   1      44.015  26.239  30.226  1.00  0.00     0.029 A 
ATOM     45  N   UNL A   1      42.618  27.662  31.207  1.00  0.00    -0.354 N 
ATOM     46  N   UNL A   1      41.772  29.492  33.339  1.00  0.00    -0.248 NA
ATOM     47  C   UNL A   1      41.949  30.285  35.528  1.00  0.00     0.031 C 
ATOM     48  C   UNL A   1      44.451  26.452  31.539  1.00  0.00     0.029 A 
ATOM     49  C   UNL A   1      43.587  27.346  32.148  1.00  0.00     0.049 A 
ATOM     50  H   UNL A   1      41.870  28.285  31.356  1.00  0.00     0.167 HD
ATOM     51  C   UNL A   1      42.816  28.837  33.974  1.00  0.00     0.074 A 
ATOM     52  C   UNL A   1      42.895  29.379  35.316  1.00  0.00     0.031 C 
ATOM     53  C   UNL A   1      43.630  27.868  33.489  1.00  0.00     0.037 A 
BRANCH  40  54
ATOM     54  C   UNL A   1      42.347  26.132  27.705  1.00  0.00     0.064 A 
ATOM     55  C   UNL A   1      41.682  24.913  27.513  1.00  0.00     0.173 A 
ATOM     56  C   UNL A   1      43.323  26.503  26.766  1.00  0.00     0.173 A 
ATOM     57  F   UNL A   1      40.750  24.509  28.389  1.00  0.00    -0.203 F 
ATOM     58  C   UNL A   1      42.002  24.085  26.439  1.00  0.00     0.198 A 
ATOM     59  C   UNL A   1      43.623  25.684  25.681  1.00  0.00     0.198 A 
ATOM     60  F   UNL A   1      43.986  27.662  26.901  1.00  0.00    -0.203 F 
ATOM     61  F   UNL A   1      41.385  22.903  26.301  1.00  0.00    -0.200 F 
ATOM     62  C   UNL A   1      42.968  24.472  25.522  1.00  0.00     0.200 A 
ATOM     63  F   UNL A   1      44.551  26.065  24.792  1.00  0.00    -0.200 F 
ATOM     64  F   UNL A   1      43.274  23.673  24.492  1.00  0.00    -0.200 F 
ENDBRANCH  40  54
BRANCH  41  65
ATOM     65  C   UNL A   1      39.639  32.072  35.235  1.00  0.00     0.064 A 
ATOM     66  C   UNL A   1      40.006  33.418  35.346  1.00  0.00     0.173 A 
ATOM     67  C   UNL A   1      38.765  31.548  36.199  1.00  0.00     0.173 A 
ATOM     68  F   UNL A   1      40.857  33.955  34.459  1.00  0.00    -0.203 F 
ATOM     69  C   UNL A   1      39.508  34.214  36.376  1.00  0.00     0.198 A 
ATOM     70  C   UNL A   1      38.249  32.350  37.213  1.00  0.00     0.198 A 
ATOM     71  F   UNL A   1      38.383  30.264  36.131  1.00  0.00    -0.203 F 
ATOM     72  F   UNL A   1      39.884  35.496  36.470  1.00  0.00    -0.200 F 
ATOM     73  C   UNL A   1      38.621  33.682  37.300  1.00  0.00     0.200 A 
ATOM     74  F   UNL A   1      37.379  31.837  38.093  1.00  0.00    -0.200 F 
ATOM     75  F   UNL A   1      38.123  34.455  38.275  1.00  0.00    -0.200 F 
ENDBRANCH  41  65
BRANCH  53  76
ATOM     76  C   UNL A   1      44.662  27.320  34.427  1.00  0.00     0.064 A 
ATOM     77  C   UNL A   1      44.407  26.174  35.195  1.00  0.00     0.173 A 
ATOM     78  C   UNL A   1      45.921  27.926  34.543  1.00  0.00     0.173 A 
ATOM     79  F   UNL A   1      43.210  25.572  35.132  1.00  0.00    -0.203 F 
ATOM     80  C   UNL A   1      45.373  25.663  36.058  1.00  0.00     0.198 A 
ATOM     81  C   UNL A   1      46.891  27.401  35.391  1.00  0.00     0.198 A 
ATOM     82  F   UNL A   1      46.211  29.023  33.828  1.00  0.00    -0.203 F 
ATOM     83  F   UNL A   1      45.096  24.590  36.810  1.00  0.00    -0.200 F 
ATOM     84  C   UNL A   1      46.616  26.273  36.151  1.00  0.00     0.200 A 
ATOM     85  F   UNL A   1      48.093  27.987  35.476  1.00  0.00    -0.200 F 
ATOM     86  F   UNL A   1      47.544  25.779  36.982  1.00  0.00    -0.200 F 
ENDBRANCH  53  76
ENDBRANCH  27  28
ENDBRANCH  20  22
ENDBRANCH  19  20
ENDBRANCH  18  19
ENDBRANCH   1  18
TORSDOF 14
ENDMDL
MODEL 3
REMARK VINA RESULT:     -11.7      4.450      9.810
REMARK SMILES COc1ccc(C(C)(C)C)cc1CC(=O)OCCOC(=O)c1ccc(-c2c3nc(c(-c4c(F)c(F)c(F)c(F)c4F)c4ccc([nH]4)c(-c4c(F)c(F)c(F)c(F)c4F)c4nc(c(-c5c(F)c(F)c(F)c(F)c5F)c5ccc2[nH]5)C=C4)C=C3)cc1
REMARK SMILES IDX 17 1 16 2 14 3 15 4 13 5 12 6 3 7 4 8 5 9 11 10 6 11 2 12
REMARK SMILES IDX 1 13 7 14 8 15 9 16 10 17 18 18 19 19 20 20 21 21 22 22
REMARK SMILES IDX 23 23 84 24 24 25 83 26 25 27 26 28 27 29 77 30 28 31 82 32
REMARK SMILES IDX 76 33 78 34 29 35 81 36 75 37 74 38 30 40 62 41 42 42 61 43
REMARK SMILES IDX 43 44 46 45 60 46 79 47 44 48 45 49 59 51 80 52 47 53 31 54
REMARK SMILES IDX 32 55 40 56 33 57 34 58 38 59 41 60 35 61 36 62 39 63 37 64
REMARK SMILES IDX 63 65 64 66 72 67 65 68 66 69 70 70 73 71 67 72 68 73 71 74
REMARK SMILES IDX 69 75 48 76 49 77 57 78 50 79 51 80 55 81 58 82 52 83 53 84
REMARK SMILES IDX 56 85 54 86
REMARK H PARENT 78 39 46 50
REMARK Flexibility Score: inf
ROOT
ATOM      1  C   UNL A   1      35.507  20.908  24.999  1.00  0.00     0.274 C 
ENDROOT
BRANCH   1   2
ATOM      2  O   UNL A   1      35.214  21.692  26.171  1.00  0.00    -0.462 OA
BRANCH   2   3
ATOM      3  C   UNL A   1      34.387  22.753  25.994  1.00  0.00     0.310 C 
ATOM      4  O   UNL A   1      33.176  22.740  26.199  1.00  0.00    -0.252 OA
BRANCH   3   5
ATOM      5  C   UNL A   1      35.108  24.033  25.652  1.00  0.00     0.162 C 
BRANCH   5   6
ATOM      6  C   UNL A   1      34.289  25.150  25.061  1.00  0.00     0.005 A 
ATOM      7  C   UNL A   1      33.910  25.219  23.718  1.00  0.00     0.122 A 
ATOM      8  C   UNL A   1      33.155  26.307  23.278  1.00  0.00     0.047 A 
ATOM      9  C   UNL A   1      32.784  27.334  24.153  1.00  0.00     0.008 A 
ATOM     10  C   UNL A   1      33.931  26.217  25.926  1.00  0.00     0.012 A 
ATOM     11  C   UNL A   1      33.193  27.331  25.494  1.00  0.00    -0.042 A 
BRANCH   7  12
ATOM     12  O   UNL A   1      34.320  24.377  22.721  1.00  0.00    -0.496 OA
ATOM     13  C   UNL A   1      33.458  23.294  22.399  1.00  0.00     0.278 C 
ENDBRANCH   7  12
BRANCH  11  14
ATOM     14  C   UNL A   1      32.848  28.512  26.421  1.00  0.00    -0.013 C 
ATOM     15  C   UNL A   1      31.763  28.088  27.437  1.00  0.00     0.016 C 
ATOM     16  C   UNL A   1      34.114  28.951  27.185  1.00  0.00     0.016 C 
ATOM     17  C   UNL A   1      32.299  29.755  25.680  1.00  0.00     0.016 C 
ENDBRANCH  11  14
ENDBRANCH   5   6
ENDBRANCH   3   5
ENDBRANCH   2   3
ENDBRANCH   1   2
BRANCH   1  18
ATOM     18  C   UNL A   1      36.999  20.587  24.975  1.00  0.00     0.275 C 
BRANCH  18  19
ATOM     19  O   UNL A   1      37.702  21.591  25.730  1.00  0.00    -0.458 OA
BRANCH  19  20
ATOM     20  C   UNL A   1      38.971  21.285  26.083  1.00  0.00     0.338 C 
ATOM     21  O   UNL A   1      39.509  20.193  26.030  1.00  0.00    -0.246 OA
BRANCH  20  22
ATOM     22  C   UNL A   1      39.655  22.500  26.578  1.00  0.00     0.060 A 
ATOM     23  C   UNL A   1      40.699  22.420  27.502  1.00  0.00     0.016 A 
ATOM     24  C   UNL A   1      39.214  23.749  26.141  1.00  0.00     0.016 A 
ATOM     25  C   UNL A   1      41.273  23.578  28.023  1.00  0.00     0.010 A 
ATOM     26  C   UNL A   1      39.862  24.907  26.582  1.00  0.00     0.010 A 
ATOM     27  C   UNL A   1      40.897  24.836  27.529  1.00  0.00    -0.014 A 
BRANCH  27  28
ATOM     28  C   UNL A   1      41.623  26.070  27.935  1.00  0.00     0.031 A 
ATOM     29  C   UNL A   1      40.923  27.156  28.699  1.00  0.00     0.074 A 
ATOM     30  C   UNL A   1      42.901  26.249  27.545  1.00  0.00     0.049 A 
ATOM     31  N   UNL A   1      41.306  28.387  28.931  1.00  0.00    -0.248 NA
ATOM     32  C   UNL A   1      39.607  26.821  29.261  1.00  0.00     0.031 C 
ATOM     33  C   UNL A   1      43.705  25.275  26.805  1.00  0.00     0.029 A 
ATOM     34  N   UNL A   1      43.742  27.326  27.695  1.00  0.00    -0.354 N 
ATOM     35  C   UNL A   1      40.260  28.987  29.617  1.00  0.00     0.074 A 
ATOM     36  C   UNL A   1      39.224  27.986  29.766  1.00  0.00     0.031 C 
ATOM     37  C   UNL A   1      44.922  25.791  26.575  1.00  0.00     0.029 A 
ATOM     38  C   UNL A   1      44.955  27.160  27.072  1.00  0.00     0.049 A 
ATOM     39  H   UNL A   1      43.499  28.136  28.199  1.00  0.00     0.167 HD
ATOM     40  C   UNL A   1      40.173  30.260  30.073  1.00  0.00     0.037 A 
ATOM     41  C   UNL A   1      45.964  28.027  26.865  1.00  0.00     0.037 A 
ATOM     42  C   UNL A   1      41.226  31.238  29.965  1.00  0.00     0.049 A 
ATOM     43  C   UNL A   1      45.835  29.438  27.352  1.00  0.00     0.074 A 
ATOM     44  C   UNL A   1      41.265  32.526  30.470  1.00  0.00     0.029 A 
ATOM     45  N   UNL A   1      42.428  31.033  29.305  1.00  0.00    -0.354 N 
ATOM     46  N   UNL A   1      44.840  30.001  27.991  1.00  0.00    -0.248 NA
ATOM     47  C   UNL A   1      46.958  30.341  27.068  1.00  0.00     0.031 C 
ATOM     48  C   UNL A   1      42.473  33.115  30.078  1.00  0.00     0.029 A 
ATOM     49  C   UNL A   1      43.203  32.182  29.360  1.00  0.00     0.049 A 
ATOM     50  H   UNL A   1      42.694  30.195  28.861  1.00  0.00     0.167 HD
ATOM     51  C   UNL A   1      45.206  31.325  28.176  1.00  0.00     0.074 A 
ATOM     52  C   UNL A   1      46.530  31.476  27.607  1.00  0.00     0.031 C 
ATOM     53  C   UNL A   1      44.503  32.326  28.759  1.00  0.00     0.037 A 
BRANCH  40  54
ATOM     54  C   UNL A   1      38.880  30.682  30.705  1.00  0.00     0.064 A 
ATOM     55  C   UNL A   1      38.688  30.659  32.094  1.00  0.00     0.173 A 
ATOM     56  C   UNL A   1      37.823  31.142  29.903  1.00  0.00     0.173 A 
ATOM     57  F   UNL A   1      39.663  30.218  32.902  1.00  0.00    -0.203 F 
ATOM     58  C   UNL A   1      37.475  31.053  32.655  1.00  0.00     0.198 A 
ATOM     59  C   UNL A   1      36.621  31.558  30.470  1.00  0.00     0.198 A 
ATOM     60  F   UNL A   1      37.957  31.188  28.569  1.00  0.00    -0.203 F 
ATOM     61  F   UNL A   1      37.298  30.980  33.982  1.00  0.00    -0.200 F 
ATOM     62  C   UNL A   1      36.444  31.506  31.844  1.00  0.00     0.200 A 
ATOM     63  F   UNL A   1      35.630  32.003  29.684  1.00  0.00    -0.200 F 
ATOM     64  F   UNL A   1      35.280  31.883  32.386  1.00  0.00    -0.200 F 
ENDBRANCH  40  54
BRANCH  41  65
ATOM     65  C   UNL A   1      47.155  27.576  26.103  1.00  0.00     0.064 A 
ATOM     66  C   UNL A   1      47.199  27.681  24.708  1.00  0.00     0.173 A 
ATOM     67  C   UNL A   1      48.296  27.092  26.761  1.00  0.00     0.173 A 
ATOM     68  F   UNL A   1      46.123  28.116  24.036  1.00  0.00    -0.203 F 
ATOM     69  C   UNL A   1      48.346  27.330  23.999  1.00  0.00     0.198 A 
ATOM     70  C   UNL A   1      49.449  26.764  26.054  1.00  0.00     0.198 A 
ATOM     71  F   UNL A   1      48.301  26.977  28.098  1.00  0.00    -0.203 F 
ATOM     72  F   UNL A   1      48.360  27.426  22.663  1.00  0.00    -0.200 F 
ATOM     73  C   UNL A   1      49.472  26.884  24.673  1.00  0.00     0.200 A 
ATOM     74  F   UNL A   1      50.540  26.350  26.711  1.00  0.00    -0.200 F 
ATOM     75  F   UNL A   1      50.583  26.569  23.992  1.00  0.00    -0.200 F 
ENDBRANCH  41  65
BRANCH  53  76
ATOM     76  C   UNL A   1      45.149  33.678  28.789  1.00  0.00     0.064 A 
ATOM     77  C   UNL A   1      46.034  34.035  29.817  1.00  0.00     0.173 A 
ATOM     78  C   UNL A   1      44.905  34.612  27.773  1.00  0.00     0.173 A 
ATOM     79  F   UNL A   1      46.282  33.180  30.820  1.00  0.00    -0.203 F 
ATOM     80  C   UNL A   1      46.639  35.288  29.835  1.00  0.00     0.198 A 
ATOM     81  C   UNL A   1      45.527  35.857  27.784  1.00  0.00     0.198 A 
ATOM     82  F   UNL A   1      44.067  34.316  26.769  1.00  0.00    -0.203 F 
ATOM     83  F   UNL A   1      47.452  35.623  30.846  1.00  0.00    -0.200 F 
ATOM     84  C   UNL A   1      46.390  36.196  28.815  1.00  0.00     0.200 A 
ATOM     85  F   UNL A   1      45.291  36.732  26.796  1.00  0.00    -0.200 F 
ATOM     86  F   UNL A   1      46.975  37.402  28.834  1.00  0.00    -0.200 F 
ENDBRANCH  53  76
ENDBRANCH  27  28
ENDBRANCH  20  22
ENDBRANCH  19  20
ENDBRANCH  18  19
ENDBRANCH   1  18
TORSDOF 14
ENDMDL
