MODEL 1
REMARK VINA RESULT:     -12.4      0.000      0.000
REMARK SMILES O=C(OCCOC(=O)c1cn(C2CC2)c2cc(N3CC[NH2+]CC3)ccc2c1=O)c1ccc(-c2c3nc(c(-c4c(F)c(F)c(F)c(F)c4F)c4ccc([nH]4)c(-c4c(F)c(F)c(F)c(F)c4F)c4nc(c(-c5c(F)c(F)c(F)c(F)c5F)c5ccc2[nH]5)C=C4)C=C3)cc1
REMARK SMILES IDX 4 1 3 2 2 3 1 4 29 5 30 6 91 7 31 8 90 9 32 10 33 11 34 12
REMARK SMILES IDX 84 13 35 14 89 15 83 16 85 17 36 18 88 19 82 20 81 21 37 23
REMARK SMILES IDX 69 24 49 25 68 26 50 27 53 28 67 29 86 30 51 31 52 32 66 34
REMARK SMILES IDX 87 35 54 36 38 37 39 38 47 39 40 40 41 41 45 42 48 43 42 44
REMARK SMILES IDX 43 45 46 46 44 47 70 48 71 49 79 50 72 51 73 52 77 53 80 54
REMARK SMILES IDX 74 55 75 56 78 57 76 58 55 59 56 60 64 61 57 62 58 63 62 64
REMARK SMILES IDX 65 65 59 66 60 67 63 68 61 69 5 70 6 71 7 72 8 73 9 74 10 75
REMARK SMILES IDX 27 76 11 77 26 78 28 79 15 80 25 81 16 82 24 83 17 84 12 85
REMARK SMILES IDX 13 86 14 87 18 88 19 89 23 90 20 91 22 92 21 93
REMARK H PARENT 85 22 53 33 21 94 21 95
REMARK Flexibility Score: inf
ROOT
ATOM      1  C   UNL A   1      33.648  28.612  26.263  1.00  0.00     0.275 C 
ENDROOT
BRANCH   1   2
ATOM      2  O   UNL A   1      33.714  30.010  26.597  1.00  0.00    -0.458 OA
BRANCH   2   3
ATOM      3  C   UNL A   1      34.376  30.622  27.610  1.00  0.00     0.338 C 
ATOM      4  O   UNL A   1      33.963  31.697  28.038  1.00  0.00    -0.246 OA
BRANCH   3   5
ATOM      5  C   UNL A   1      35.685  30.126  28.140  1.00  0.00     0.060 A 
ATOM      6  C   UNL A   1      36.768  30.146  27.246  1.00  0.00     0.016 A 
ATOM      7  C   UNL A   1      35.930  29.692  29.443  1.00  0.00     0.016 A 
ATOM      8  C   UNL A   1      38.026  29.655  27.621  1.00  0.00     0.010 A 
ATOM      9  C   UNL A   1      37.193  29.219  29.828  1.00  0.00     0.010 A 
ATOM     10  C   UNL A   1      38.252  29.172  28.919  1.00  0.00    -0.014 A 
BRANCH  10  11
ATOM     11  C   UNL A   1      39.628  28.830  29.359  1.00  0.00     0.031 A 
ATOM     12  C   UNL A   1      40.492  29.731  30.189  1.00  0.00     0.074 A 
ATOM     13  C   UNL A   1      40.161  27.677  28.916  1.00  0.00     0.049 A 
ATOM     14  N   UNL A   1      41.540  29.411  30.913  1.00  0.00    -0.248 NA
ATOM     15  C   UNL A   1      40.182  31.165  30.199  1.00  0.00     0.031 C 
ATOM     16  C   UNL A   1      39.518  26.760  27.979  1.00  0.00     0.029 A 
ATOM     17  N   UNL A   1      41.380  27.105  29.169  1.00  0.00    -0.354 N 
ATOM     18  C   UNL A   1      41.908  30.571  31.576  1.00  0.00     0.074 A 
ATOM     19  C   UNL A   1      41.098  31.635  31.039  1.00  0.00     0.031 C 
ATOM     20  C   UNL A   1      40.351  25.742  27.725  1.00  0.00     0.029 A 
ATOM     21  C   UNL A   1      41.587  25.942  28.477  1.00  0.00     0.049 A 
ATOM     22  H   UNL A   1      42.042  27.491  29.788  1.00  0.00     0.167 HD
ATOM     23  C   UNL A   1      42.808  30.713  32.574  1.00  0.00     0.037 A 
ATOM     24  C   UNL A   1      42.658  25.129  28.446  1.00  0.00     0.037 A 
ATOM     25  C   UNL A   1      43.822  29.743  32.870  1.00  0.00     0.049 A 
ATOM     26  C   UNL A   1      43.827  25.415  29.344  1.00  0.00     0.074 A 
ATOM     27  C   UNL A   1      44.840  29.808  33.802  1.00  0.00     0.029 A 
ATOM     28  N   UNL A   1      44.022  28.591  32.127  1.00  0.00    -0.354 N 
ATOM     29  N   UNL A   1      43.957  26.353  30.251  1.00  0.00    -0.248 NA
ATOM     30  C   UNL A   1      44.991  24.531  29.222  1.00  0.00     0.031 C 
ATOM     31  C   UNL A   1      45.740  28.774  33.517  1.00  0.00     0.029 A 
ATOM     32  C   UNL A   1      45.233  28.020  32.469  1.00  0.00     0.049 A 
ATOM     33  H   UNL A   1      43.396  28.234  31.457  1.00  0.00     0.167 HD
ATOM     34  C   UNL A   1      45.210  26.166  30.819  1.00  0.00     0.074 A 
ATOM     35  C   UNL A   1      45.795  25.016  30.161  1.00  0.00     0.031 C 
ATOM     36  C   UNL A   1      45.815  26.885  31.797  1.00  0.00     0.037 A 
BRANCH  23  37
ATOM     37  C   UNL A   1      42.751  31.951  33.413  1.00  0.00     0.064 A 
ATOM     38  C   UNL A   1      43.587  33.037  33.108  1.00  0.00     0.173 A 
ATOM     39  C   UNL A   1      41.819  32.111  34.443  1.00  0.00     0.173 A 
ATOM     40  F   UNL A   1      44.477  32.943  32.109  1.00  0.00    -0.203 F 
ATOM     41  C   UNL A   1      43.511  34.228  33.826  1.00  0.00     0.198 A 
ATOM     42  C   UNL A   1      41.737  33.309  35.152  1.00  0.00     0.198 A 
ATOM     43  F   UNL A   1      40.982  31.111  34.754  1.00  0.00    -0.203 F 
ATOM     44  F   UNL A   1      44.340  35.241  33.533  1.00  0.00    -0.200 F 
ATOM     45  C   UNL A   1      42.585  34.363  34.847  1.00  0.00     0.200 A 
ATOM     46  F   UNL A   1      40.831  33.445  36.130  1.00  0.00    -0.200 F 
ATOM     47  F   UNL A   1      42.512  35.508  35.540  1.00  0.00    -0.200 F 
ENDBRANCH  23  37
BRANCH  24  48
ATOM     48  C   UNL A   1      42.615  23.956  27.540  1.00  0.00     0.064 A 
ATOM     49  C   UNL A   1      43.061  24.055  26.218  1.00  0.00     0.173 A 
ATOM     50  C   UNL A   1      42.256  22.686  28.022  1.00  0.00     0.173 A 
ATOM     51  F   UNL A   1      43.407  25.249  25.717  1.00  0.00    -0.203 F 
ATOM     52  C   UNL A   1      43.167  22.923  25.414  1.00  0.00     0.198 A 
ATOM     53  C   UNL A   1      42.390  21.552  27.225  1.00  0.00     0.198 A 
ATOM     54  F   UNL A   1      41.840  22.540  29.288  1.00  0.00    -0.203 F 
ATOM     55  F   UNL A   1      43.600  23.042  24.151  1.00  0.00    -0.200 F 
ATOM     56  C   UNL A   1      42.847  21.672  25.921  1.00  0.00     0.200 A 
ATOM     57  F   UNL A   1      42.105  20.344  27.728  1.00  0.00    -0.200 F 
ATOM     58  F   UNL A   1      42.990  20.580  25.157  1.00  0.00    -0.200 F 
ENDBRANCH  24  48
BRANCH  36  59
ATOM     59  C   UNL A   1      47.205  26.501  32.205  1.00  0.00     0.064 A 
ATOM     60  C   UNL A   1      47.426  25.483  33.143  1.00  0.00     0.173 A 
ATOM     61  C   UNL A   1      48.317  27.046  31.546  1.00  0.00     0.173 A 
ATOM     62  F   UNL A   1      46.395  24.935  33.802  1.00  0.00    -0.203 F 
ATOM     63  C   UNL A   1      48.713  25.021  33.403  1.00  0.00     0.198 A 
ATOM     64  C   UNL A   1      49.598  26.558  31.784  1.00  0.00     0.198 A 
ATOM     65  F   UNL A   1      48.153  28.012  30.629  1.00  0.00    -0.203 F 
ATOM     66  F   UNL A   1      48.904  24.055  34.311  1.00  0.00    -0.200 F 
ATOM     67  C   UNL A   1      49.794  25.546  32.711  1.00  0.00     0.200 A 
ATOM     68  F   UNL A   1      50.637  27.049  31.096  1.00  0.00    -0.200 F 
ATOM     69  F   UNL A   1      51.028  25.070  32.932  1.00  0.00    -0.200 F 
ENDBRANCH  36  59
ENDBRANCH  10  11
ENDBRANCH   3   5
ENDBRANCH   2   3
ENDBRANCH   1   2
BRANCH   1  70
ATOM     70  C   UNL A   1      33.655  28.318  24.763  1.00  0.00     0.275 C 
BRANCH  70  71
ATOM     71  O   UNL A   1      32.924  27.130  24.431  1.00  0.00    -0.458 OA
BRANCH  71  72
ATOM     72  C   UNL A   1      33.450  26.384  23.411  1.00  0.00     0.343 C 
ATOM     73  O   UNL A   1      33.751  26.803  22.312  1.00  0.00    -0.246 OA
BRANCH  72  74
ATOM     74  C   UNL A   1      33.602  24.989  23.859  1.00  0.00     0.124 A 
ATOM     75  C   UNL A   1      34.696  24.630  24.540  1.00  0.00     0.106 A 
ATOM     76  C   UNL A   1      32.592  23.944  23.596  1.00  0.00     0.203 A 
ATOM     77  N   UNL A   1      34.969  23.376  25.052  1.00  0.00    -0.343 N 
ATOM     78  C   UNL A   1      32.959  22.542  23.933  1.00  0.00     0.047 A 
ATOM     79  O   UNL A   1      31.525  24.187  23.047  1.00  0.00    -0.288 OA
ATOM     80  C   UNL A   1      34.115  22.287  24.693  1.00  0.00     0.054 A 
ATOM     81  C   UNL A   1      32.166  21.496  23.443  1.00  0.00     0.016 A 
ATOM     82  C   UNL A   1      34.384  20.945  25.021  1.00  0.00     0.053 A 
ATOM     83  C   UNL A   1      32.494  20.172  23.738  1.00  0.00     0.027 A 
ATOM     84  C   UNL A   1      33.584  19.877  24.558  1.00  0.00     0.039 A 
BRANCH  77  85
ATOM     85  C   UNL A   1      36.087  23.214  26.005  1.00  0.00     0.087 C 
ATOM     86  C   UNL A   1      37.420  22.560  25.695  1.00  0.00     0.027 C 
ATOM     87  C   UNL A   1      37.334  24.044  25.835  1.00  0.00     0.027 C 
ENDBRANCH  77  85
BRANCH  84  88
ATOM     88  N   UNL A   1      33.867  18.584  24.970  1.00  0.00    -0.360 N 
ATOM     89  C   UNL A   1      32.832  17.913  25.773  1.00  0.00     0.178 C 
ATOM     90  C   UNL A   1      34.758  17.696  24.207  1.00  0.00     0.178 C 
ATOM     91  C   UNL A   1      32.093  16.847  24.928  1.00  0.00     0.282 C 
ATOM     92  C   UNL A   1      33.982  16.576  23.471  1.00  0.00     0.282 C 
ATOM     93  N   UNL A   1      33.003  15.857  24.316  1.00  0.00    -0.343 N 
ATOM     94  H   UNL A   1      32.466  15.206  23.742  1.00  0.00     0.346 HD
ATOM     95  H   UNL A   1      33.488  15.331  25.043  1.00  0.00     0.346 HD
ENDBRANCH  84  88
ENDBRANCH  72  74
ENDBRANCH  71  72
ENDBRANCH  70  71
ENDBRANCH   1  70
TORSDOF 13
ENDMDL
MODEL 2
REMARK VINA RESULT:     -12.3      4.394      9.184
REMARK SMILES O=C(OCCOC(=O)c1cn(C2CC2)c2cc(N3CC[NH2+]CC3)ccc2c1=O)c1ccc(-c2c3nc(c(-c4c(F)c(F)c(F)c(F)c4F)c4ccc([nH]4)c(-c4c(F)c(F)c(F)c(F)c4F)c4nc(c(-c5c(F)c(F)c(F)c(F)c5F)c5ccc2[nH]5)C=C4)C=C3)cc1
REMARK SMILES IDX 4 1 3 2 2 3 1 4 29 5 30 6 91 7 31 8 90 9 32 10 33 11 34 12
REMARK SMILES IDX 84 13 35 14 89 15 83 16 85 17 36 18 88 19 82 20 81 21 37 23
REMARK SMILES IDX 69 24 49 25 68 26 50 27 53 28 67 29 86 30 51 31 52 32 66 34
REMARK SMILES IDX 87 35 54 36 38 37 39 38 47 39 40 40 41 41 45 42 48 43 42 44
REMARK SMILES IDX 43 45 46 46 44 47 70 48 71 49 79 50 72 51 73 52 77 53 80 54
REMARK SMILES IDX 74 55 75 56 78 57 76 58 55 59 56 60 64 61 57 62 58 63 62 64
REMARK SMILES IDX 65 65 59 66 60 67 63 68 61 69 5 70 6 71 7 72 8 73 9 74 10 75
REMARK SMILES IDX 27 76 11 77 26 78 28 79 15 80 25 81 16 82 24 83 17 84 12 85
REMARK SMILES IDX 13 86 14 87 18 88 19 89 23 90 20 91 22 92 21 93
REMARK H PARENT 85 22 53 33 21 94 21 95
REMARK Flexibility Score: inf
ROOT
ATOM      1  C   UNL A   1      44.345  21.248  25.363  1.00  0.00     0.275 C 
ENDROOT
BRANCH   1   2
ATOM      2  O   UNL A   1      43.831  22.559  25.656  1.00  0.00    -0.458 OA
BRANCH   2   3
ATOM      3  C   UNL A   1      44.500  23.690  25.991  1.00  0.00     0.338 C 
ATOM      4  O   UNL A   1      45.669  23.827  25.638  1.00  0.00    -0.246 OA
BRANCH   3   5
ATOM      5  C   UNL A   1      43.931  24.727  26.907  1.00  0.00     0.060 A 
ATOM      6  C   UNL A   1      43.178  24.254  27.994  1.00  0.00     0.016 A 
ATOM      7  C   UNL A   1      44.120  26.106  26.801  1.00  0.00     0.016 A 
ATOM      8  C   UNL A   1      42.555  25.140  28.884  1.00  0.00     0.010 A 
ATOM      9  C   UNL A   1      43.515  26.994  27.703  1.00  0.00     0.010 A 
ATOM     10  C   UNL A   1      42.707  26.528  28.742  1.00  0.00    -0.014 A 
BRANCH  10  11
ATOM     11  C   UNL A   1      42.199  27.446  29.792  1.00  0.00     0.031 A 
ATOM     12  C   UNL A   1      41.084  28.426  29.583  1.00  0.00     0.074 A 
ATOM     13  C   UNL A   1      42.834  27.457  30.978  1.00  0.00     0.049 A 
ATOM     14  N   UNL A   1      40.336  29.012  30.489  1.00  0.00    -0.248 NA
ATOM     15  C   UNL A   1      40.774  28.833  28.207  1.00  0.00     0.031 C 
ATOM     16  C   UNL A   1      44.031  26.682  31.297  1.00  0.00     0.029 A 
ATOM     17  N   UNL A   1      42.580  28.175  32.117  1.00  0.00    -0.354 N 
ATOM     18  C   UNL A   1      39.380  29.726  29.784  1.00  0.00     0.074 A 
ATOM     19  C   UNL A   1      39.744  29.652  28.392  1.00  0.00     0.031 C 
ATOM     20  C   UNL A   1      44.415  26.972  32.547  1.00  0.00     0.029 A 
ATOM     21  C   UNL A   1      43.496  27.957  33.111  1.00  0.00     0.049 A 
ATOM     22  H   UNL A   1      41.814  28.786  32.213  1.00  0.00     0.167 HD
ATOM     23  C   UNL A   1      38.277  30.343  30.264  1.00  0.00     0.037 A 
ATOM     24  C   UNL A   1      43.590  28.497  34.339  1.00  0.00     0.037 A 
ATOM     25  C   UNL A   1      38.099  30.689  31.644  1.00  0.00     0.049 A 
ATOM     26  C   UNL A   1      42.518  29.433  34.816  1.00  0.00     0.074 A 
ATOM     27  C   UNL A   1      37.064  31.385  32.238  1.00  0.00     0.029 A 
ATOM     28  N   UNL A   1      39.063  30.481  32.616  1.00  0.00    -0.354 N 
ATOM     29  N   UNL A   1      41.407  29.786  34.215  1.00  0.00    -0.248 NA
ATOM     30  C   UNL A   1      42.705  30.040  36.139  1.00  0.00     0.031 C 
ATOM     31  C   UNL A   1      37.475  31.730  33.531  1.00  0.00     0.029 A 
ATOM     32  C   UNL A   1      38.723  31.173  33.764  1.00  0.00     0.049 A 
ATOM     33  H   UNL A   1      39.868  29.926  32.507  1.00  0.00     0.167 HD
ATOM     34  C   UNL A   1      40.754  30.644  35.090  1.00  0.00     0.074 A 
ATOM     35  C   UNL A   1      41.589  30.749  36.269  1.00  0.00     0.031 C 
ATOM     36  C   UNL A   1      39.570  31.285  34.926  1.00  0.00     0.037 A 
BRANCH  23  37
ATOM     37  C   UNL A   1      37.183  30.692  29.303  1.00  0.00     0.064 A 
ATOM     38  C   UNL A   1      36.273  29.703  28.897  1.00  0.00     0.173 A 
ATOM     39  C   UNL A   1      36.969  32.001  28.862  1.00  0.00     0.173 A 
ATOM     40  F   UNL A   1      36.418  28.438  29.318  1.00  0.00    -0.203 F 
ATOM     41  C   UNL A   1      35.204  30.009  28.058  1.00  0.00     0.198 A 
ATOM     42  C   UNL A   1      35.891  32.307  28.032  1.00  0.00     0.198 A 
ATOM     43  F   UNL A   1      37.797  32.984  29.244  1.00  0.00    -0.203 F 
ATOM     44  F   UNL A   1      34.365  29.042  27.662  1.00  0.00    -0.200 F 
ATOM     45  C   UNL A   1      35.014  31.312  27.626  1.00  0.00     0.200 A 
ATOM     46  F   UNL A   1      35.698  33.570  27.626  1.00  0.00    -0.200 F 
ATOM     47  F   UNL A   1      33.987  31.608  26.817  1.00  0.00    -0.200 F 
ENDBRANCH  23  37
BRANCH  24  48
ATOM     48  C   UNL A   1      44.745  28.108  35.183  1.00  0.00     0.064 A 
ATOM     49  C   UNL A   1      45.922  28.863  35.179  1.00  0.00     0.173 A 
ATOM     50  C   UNL A   1      44.640  27.056  36.109  1.00  0.00     0.173 A 
ATOM     51  F   UNL A   1      46.067  29.872  34.308  1.00  0.00    -0.203 F 
ATOM     52  C   UNL A   1      46.947  28.593  36.083  1.00  0.00     0.198 A 
ATOM     53  C   UNL A   1      45.654  26.805  37.029  1.00  0.00     0.198 A 
ATOM     54  F   UNL A   1      43.523  26.316  36.161  1.00  0.00    -0.203 F 
ATOM     55  F   UNL A   1      48.065  29.332  36.062  1.00  0.00    -0.200 F 
ATOM     56  C   UNL A   1      46.806  27.575  37.015  1.00  0.00     0.200 A 
ATOM     57  F   UNL A   1      45.502  25.840  37.945  1.00  0.00    -0.200 F 
ATOM     58  F   UNL A   1      47.778  27.345  37.910  1.00  0.00    -0.200 F 
ENDBRANCH  24  48
BRANCH  36  59
ATOM     59  C   UNL A   1      39.101  32.203  36.014  1.00  0.00     0.064 A 
ATOM     60  C   UNL A   1      38.280  31.734  37.050  1.00  0.00     0.173 A 
ATOM     61  C   UNL A   1      39.597  33.512  36.104  1.00  0.00     0.173 A 
ATOM     62  F   UNL A   1      37.778  30.491  37.005  1.00  0.00    -0.203 F 
ATOM     63  C   UNL A   1      37.977  32.544  38.140  1.00  0.00     0.198 A 
ATOM     64  C   UNL A   1      39.319  34.306  37.211  1.00  0.00     0.198 A 
ATOM     65  F   UNL A   1      40.399  33.998  35.144  1.00  0.00    -0.203 F 
ATOM     66  F   UNL A   1      37.181  32.081  39.114  1.00  0.00    -0.200 F 
ATOM     67  C   UNL A   1      38.510  33.822  38.228  1.00  0.00     0.200 A 
ATOM     68  F   UNL A   1      39.855  35.530  37.307  1.00  0.00    -0.200 F 
ATOM     69  F   UNL A   1      38.250  34.585  39.299  1.00  0.00    -0.200 F 
ENDBRANCH  36  59
ENDBRANCH  10  11
ENDBRANCH   3   5
ENDBRANCH   2   3
ENDBRANCH   1   2
BRANCH   1  70
ATOM     70  C   UNL A   1      43.411  20.100  25.748  1.00  0.00     0.275 C 
BRANCH  70  71
ATOM     71  O   UNL A   1      42.036  20.394  25.471  1.00  0.00    -0.458 OA
BRANCH  71  72
ATOM     72  C   UNL A   1      41.199  20.354  26.553  1.00  0.00     0.343 C 
ATOM     73  O   UNL A   1      41.458  19.854  27.629  1.00  0.00    -0.246 OA
BRANCH  72  74
ATOM     74  C   UNL A   1      39.930  21.021  26.211  1.00  0.00     0.124 A 
ATOM     75  C   UNL A   1      39.742  22.299  26.560  1.00  0.00     0.106 A 
ATOM     76  C   UNL A   1      38.835  20.346  25.487  1.00  0.00     0.203 A 
ATOM     77  N   UNL A   1      38.628  23.068  26.285  1.00  0.00    -0.343 N 
ATOM     78  C   UNL A   1      37.541  21.073  25.377  1.00  0.00     0.047 A 
ATOM     79  O   UNL A   1      38.938  19.203  25.059  1.00  0.00    -0.288 OA
ATOM     80  C   UNL A   1      37.472  22.432  25.735  1.00  0.00     0.054 A 
ATOM     81  C   UNL A   1      36.401  20.371  24.962  1.00  0.00     0.016 A 
ATOM     82  C   UNL A   1      36.233  23.078  25.564  1.00  0.00     0.053 A 
ATOM     83  C   UNL A   1      35.175  21.028  24.860  1.00  0.00     0.027 A 
ATOM     84  C   UNL A   1      35.077  22.396  25.124  1.00  0.00     0.039 A 
BRANCH  77  85
ATOM     85  C   UNL A   1      38.689  24.529  26.501  1.00  0.00     0.087 C 
ATOM     86  C   UNL A   1      39.233  25.214  27.741  1.00  0.00     0.027 C 
ATOM     87  C   UNL A   1      40.025  25.228  26.475  1.00  0.00     0.027 C 
ENDBRANCH  77  85
BRANCH  84  88
ATOM     88  N   UNL A   1      33.904  23.104  24.917  1.00  0.00    -0.360 N 
ATOM     89  C   UNL A   1      34.035  24.391  24.215  1.00  0.00     0.178 C 
ATOM     90  C   UNL A   1      32.598  22.439  24.792  1.00  0.00     0.178 C 
ATOM     91  C   UNL A   1      33.520  24.273  22.760  1.00  0.00     0.282 C 
ATOM     92  C   UNL A   1      32.071  22.447  23.336  1.00  0.00     0.282 C 
ATOM     93  N   UNL A   1      32.134  23.768  22.672  1.00  0.00    -0.343 N 
ATOM     94  H   UNL A   1      31.864  23.674  21.693  1.00  0.00     0.346 HD
ATOM     95  H   UNL A   1      31.495  24.419  23.129  1.00  0.00     0.346 HD
ENDBRANCH  84  88
ENDBRANCH  72  74
ENDBRANCH  71  72
ENDBRANCH  70  71
ENDBRANCH   1  70
TORSDOF 13
ENDMDL
MODEL 3
REMARK VINA RESULT:     -12.2      3.823      9.295
REMARK SMILES O=C(OCCOC(=O)c1cn(C2CC2)c2cc(N3CC[NH2+]CC3)ccc2c1=O)c1ccc(-c2c3nc(c(-c4c(F)c(F)c(F)c(F)c4F)c4ccc([nH]4)c(-c4c(F)c(F)c(F)c(F)c4F)c4nc(c(-c5c(F)c(F)c(F)c(F)c5F)c5ccc2[nH]5)C=C4)C=C3)cc1
REMARK SMILES IDX 4 1 3 2 2 3 1 4 29 5 30 6 91 7 31 8 90 9 32 10 33 11 34 12
REMARK SMILES IDX 84 13 35 14 89 15 83 16 85 17 36 18 88 19 82 20 81 21 37 23
REMARK SMILES IDX 69 24 49 25 68 26 50 27 53 28 67 29 86 30 51 31 52 32 66 34
REMARK SMILES IDX 87 35 54 36 38 37 39 38 47 39 40 40 41 41 45 42 48 43 42 44
REMARK SMILES IDX 43 45 46 46 44 47 70 48 71 49 79 50 72 51 73 52 77 53 80 54
REMARK SMILES IDX 74 55 75 56 78 57 76 58 55 59 56 60 64 61 57 62 58 63 62 64
REMARK SMILES IDX 65 65 59 66 60 67 63 68 61 69 5 70 6 71 7 72 8 73 9 74 10 75
REMARK SMILES IDX 27 76 11 77 26 78 28 79 15 80 25 81 16 82 24 83 17 84 12 85
REMARK SMILES IDX 13 86 14 87 18 88 19 89 23 90 20 91 22 92 21 93
REMARK H PARENT 85 22 53 33 21 94 21 95
REMARK Flexibility Score: inf
ROOT
ATOM      1  C   UNL A   1      36.466  22.252  25.769  1.00  0.00     0.275 C 
ENDROOT
BRANCH   1   2
ATOM      2  O   UNL A   1      37.773  22.721  25.394  1.00  0.00    -0.458 OA
BRANCH   2   3
ATOM      3  C   UNL A   1      38.891  22.848  26.150  1.00  0.00     0.338 C 
ATOM      4  O   UNL A   1      39.502  21.840  26.498  1.00  0.00    -0.246 OA
BRANCH   3   5
ATOM      5  C   UNL A   1      39.343  24.157  26.717  1.00  0.00     0.060 A 
ATOM      6  C   UNL A   1      38.962  24.428  28.041  1.00  0.00     0.016 A 
ATOM      7  C   UNL A   1      40.138  25.101  26.066  1.00  0.00     0.016 A 
ATOM      8  C   UNL A   1      39.285  25.647  28.653  1.00  0.00     0.010 A 
ATOM      9  C   UNL A   1      40.481  26.313  26.683  1.00  0.00     0.010 A 
ATOM     10  C   UNL A   1      40.043  26.614  27.974  1.00  0.00    -0.014 A 
BRANCH  10  11
ATOM     11  C   UNL A   1      40.535  27.817  28.692  1.00  0.00     0.031 A 
ATOM     12  C   UNL A   1      41.910  27.941  29.277  1.00  0.00     0.074 A 
ATOM     13  C   UNL A   1      39.667  28.822  28.904  1.00  0.00     0.049 A 
ATOM     14  N   UNL A   1      42.558  29.034  29.604  1.00  0.00    -0.248 NA
ATOM     15  C   UNL A   1      42.651  26.706  29.563  1.00  0.00     0.031 C 
ATOM     16  C   UNL A   1      38.253  28.801  28.540  1.00  0.00     0.029 A 
ATOM     17  N   UNL A   1      39.844  30.038  29.510  1.00  0.00    -0.354 N 
ATOM     18  C   UNL A   1      43.826  28.621  29.984  1.00  0.00     0.074 A 
ATOM     19  C   UNL A   1      43.804  27.182  30.022  1.00  0.00     0.031 C 
ATOM     20  C   UNL A   1      37.684  29.946  28.938  1.00  0.00     0.029 A 
ATOM     21  C   UNL A   1      38.694  30.776  29.591  1.00  0.00     0.049 A 
ATOM     22  H   UNL A   1      40.712  30.351  29.853  1.00  0.00     0.167 HD
ATOM     23  C   UNL A   1      44.914  29.385  30.228  1.00  0.00     0.037 A 
ATOM     24  C   UNL A   1      38.474  31.985  30.137  1.00  0.00     0.037 A 
ATOM     25  C   UNL A   1      44.850  30.791  30.506  1.00  0.00     0.049 A 
ATOM     26  C   UNL A   1      39.631  32.762  30.695  1.00  0.00     0.074 A 
ATOM     27  C   UNL A   1      45.872  31.655  30.848  1.00  0.00     0.029 A 
ATOM     28  N   UNL A   1      43.664  31.498  30.611  1.00  0.00    -0.354 N 
ATOM     29  N   UNL A   1      40.907  32.460  30.683  1.00  0.00    -0.248 NA
ATOM     30  C   UNL A   1      39.323  34.047  31.333  1.00  0.00     0.031 C 
ATOM     31  C   UNL A   1      45.286  32.841  31.308  1.00  0.00     0.029 A 
ATOM     32  C   UNL A   1      43.910  32.739  31.166  1.00  0.00     0.049 A 
ATOM     33  H   UNL A   1      42.780  31.166  30.333  1.00  0.00     0.167 HD
ATOM     34  C   UNL A   1      41.557  33.521  31.299  1.00  0.00     0.074 A 
ATOM     35  C   UNL A   1      40.535  34.481  31.661  1.00  0.00     0.031 C 
ATOM     36  C   UNL A   1      42.883  33.680  31.539  1.00  0.00     0.037 A 
BRANCH  23  37
ATOM     37  C   UNL A   1      46.260  28.730  30.217  1.00  0.00     0.064 A 
ATOM     38  C   UNL A   1      46.973  28.626  29.013  1.00  0.00     0.173 A 
ATOM     39  C   UNL A   1      46.887  28.296  31.389  1.00  0.00     0.173 A 
ATOM     40  F   UNL A   1      46.426  29.056  27.865  1.00  0.00    -0.203 F 
ATOM     41  C   UNL A   1      48.255  28.083  28.979  1.00  0.00     0.198 A 
ATOM     42  C   UNL A   1      48.175  27.765  31.355  1.00  0.00     0.198 A 
ATOM     43  F   UNL A   1      46.256  28.398  32.568  1.00  0.00    -0.203 F 
ATOM     44  F   UNL A   1      48.904  27.970  27.811  1.00  0.00    -0.200 F 
ATOM     45  C   UNL A   1      48.856  27.653  30.151  1.00  0.00     0.200 A 
ATOM     46  F   UNL A   1      48.763  27.362  32.491  1.00  0.00    -0.200 F 
ATOM     47  F   UNL A   1      50.089  27.129  30.120  1.00  0.00    -0.200 F 
ENDBRANCH  23  37
BRANCH  24  48
ATOM     48  C   UNL A   1      37.088  32.511  30.128  1.00  0.00     0.064 A 
ATOM     49  C   UNL A   1      36.220  32.261  31.197  1.00  0.00     0.173 A 
ATOM     50  C   UNL A   1      36.654  33.385  29.118  1.00  0.00     0.173 A 
ATOM     51  F   UNL A   1      36.592  31.429  32.179  1.00  0.00    -0.203 F 
ATOM     52  C   UNL A   1      34.975  32.881  31.265  1.00  0.00     0.198 A 
ATOM     53  C   UNL A   1      35.421  34.024  29.202  1.00  0.00     0.198 A 
ATOM     54  F   UNL A   1      37.459  33.668  28.083  1.00  0.00    -0.203 F 
ATOM     55  F   UNL A   1      34.161  32.628  32.300  1.00  0.00    -0.200 F 
ATOM     56  C   UNL A   1      34.582  33.772  30.277  1.00  0.00     0.200 A 
ATOM     57  F   UNL A   1      35.058  34.905  28.259  1.00  0.00    -0.200 F 
ATOM     58  F   UNL A   1      33.400  34.398  30.367  1.00  0.00    -0.200 F 
ENDBRANCH  24  48
BRANCH  36  59
ATOM     59  C   UNL A   1      43.330  34.911  32.269  1.00  0.00     0.064 A 
ATOM     60  C   UNL A   1      43.645  36.088  31.575  1.00  0.00     0.173 A 
ATOM     61  C   UNL A   1      43.297  34.959  33.671  1.00  0.00     0.173 A 
ATOM     62  F   UNL A   1      43.694  36.090  30.235  1.00  0.00    -0.203 F 
ATOM     63  C   UNL A   1      43.907  37.270  32.260  1.00  0.00     0.198 A 
ATOM     64  C   UNL A   1      43.526  36.150  34.350  1.00  0.00     0.198 A 
ATOM     65  F   UNL A   1      42.985  33.861  34.377  1.00  0.00    -0.203 F 
ATOM     66  F   UNL A   1      44.216  38.381  31.578  1.00  0.00    -0.200 F 
ATOM     67  C   UNL A   1      43.830  37.305  33.644  1.00  0.00     0.200 A 
ATOM     68  F   UNL A   1      43.426  36.187  35.686  1.00  0.00    -0.200 F 
ATOM     69  F   UNL A   1      44.040  38.455  34.300  1.00  0.00    -0.200 F 
ENDBRANCH  36  59
ENDBRANCH  10  11
ENDBRANCH   3   5
ENDBRANCH   2   3
ENDBRANCH   1   2
BRANCH   1  70
ATOM     70  C   UNL A   1      35.532  23.339  26.301  1.00  0.00     0.275 C 
BRANCH  70  71
ATOM     71  O   UNL A   1      34.284  23.386  25.596  1.00  0.00    -0.458 OA
BRANCH  71  72
ATOM     72  C   UNL A   1      33.226  23.878  26.310  1.00  0.00     0.343 C 
ATOM     73  O   UNL A   1      32.746  23.371  27.304  1.00  0.00    -0.246 OA
BRANCH  72  74
ATOM     74  C   UNL A   1      32.761  25.131  25.689  1.00  0.00     0.124 A 
ATOM     75  C   UNL A   1      33.342  26.290  26.025  1.00  0.00     0.106 A 
ATOM     76  C   UNL A   1      31.673  25.181  24.692  1.00  0.00     0.203 A 
ATOM     77  N   UNL A   1      33.042  27.536  25.511  1.00  0.00    -0.343 N 
ATOM     78  C   UNL A   1      31.177  26.525  24.291  1.00  0.00     0.047 A 
ATOM     79  O   UNL A   1      31.130  24.170  24.263  1.00  0.00    -0.288 OA
ATOM     80  C   UNL A   1      31.895  27.675  24.669  1.00  0.00     0.054 A 
ATOM     81  C   UNL A   1      29.972  26.621  23.583  1.00  0.00     0.016 A 
ATOM     82  C   UNL A   1      31.403  28.915  24.221  1.00  0.00     0.053 A 
ATOM     83  C   UNL A   1      29.481  27.871  23.204  1.00  0.00     0.027 A 
ATOM     84  C   UNL A   1      30.203  29.032  23.484  1.00  0.00     0.039 A 
BRANCH  77  85
ATOM     85  C   UNL A   1      33.953  28.667  25.787  1.00  0.00     0.087 C 
ATOM     86  C   UNL A   1      33.692  29.785  26.780  1.00  0.00     0.027 C 
ATOM     87  C   UNL A   1      34.691  28.723  27.101  1.00  0.00     0.027 C 
ENDBRANCH  77  85
BRANCH  84  88
ATOM     88  N   UNL A   1      29.808  30.276  23.019  1.00  0.00    -0.360 N 
ATOM     89  C   UNL A   1      29.498  30.367  21.582  1.00  0.00     0.178 C 
ATOM     90  C   UNL A   1      29.129  31.257  23.881  1.00  0.00     0.178 C 
ATOM     91  C   UNL A   1      27.969  30.457  21.359  1.00  0.00     0.282 C 
ATOM     92  C   UNL A   1      27.625  31.395  23.542  1.00  0.00     0.282 C 
ATOM     93  N   UNL A   1      27.337  31.568  22.101  1.00  0.00    -0.343 N 
ATOM     94  H   UNL A   1      26.329  31.554  21.948  1.00  0.00     0.346 HD
ATOM     95  H   UNL A   1      27.707  32.461  21.776  1.00  0.00     0.346 HD
ENDBRANCH  84  88
ENDBRANCH  72  74
ENDBRANCH  71  72
ENDBRANCH  70  71
ENDBRANCH   1  70
TORSDOF 13
ENDMDL
