MODEL 1
REMARK VINA RESULT:     -13.0      0.000      0.000
REMARK SMILES Cc1ccc(Cl)c(Nc2ccccc2C(=O)NCC(=O)OCCOC(=O)c2ccc(-c3c4nc(c(-c5c(F)c(F)c(F)c(F)c5F)c5ccc([nH]5)c(-c5c(F)c(F)c(F)c(F)c5F)c5nc(c(-c6c(F)c(F)c(F)c(F)c6F)c6ccc3[nH]6)C=C5)C=C4)cc2)c1Cl
REMARK SMILES IDX 22 1 21 2 19 3 20 4 18 5 17 6 15 7 16 8 14 10 9 11 10 12
REMARK SMILES IDX 11 13 13 14 12 15 8 16 7 18 1 19 2 20 3 21 90 22 4 23 91 24
REMARK SMILES IDX 5 25 6 26 23 27 24 28 25 29 26 30 27 31 28 32 89 33 29 34
REMARK SMILES IDX 88 35 30 36 31 37 32 38 82 39 33 40 87 41 81 42 83 43 34 44
REMARK SMILES IDX 86 45 80 46 79 47 35 49 67 50 47 51 66 52 48 53 51 54 65 55
REMARK SMILES IDX 84 56 49 57 50 58 64 60 85 61 52 62 36 63 37 64 45 65 38 66
REMARK SMILES IDX 39 67 43 68 46 69 40 70 41 71 44 72 42 73 68 74 69 75 77 76
REMARK SMILES IDX 70 77 71 78 75 79 78 80 72 81 73 82 76 83 74 84 53 85 54 86
REMARK SMILES IDX 62 87 55 88 56 89 60 90 63 91 57 92 58 93 61 94 59 95
REMARK H PARENT 17 9 8 17 83 48 51 59
REMARK Flexibility Score: inf
ROOT
ATOM      1  C   UNL A   1      31.038  29.610  24.596  1.00  0.00     0.274 C 
ENDROOT
BRANCH   1   2
ATOM      2  O   UNL A   1      30.007  29.953  23.653  1.00  0.00    -0.461 OA
BRANCH   2   3
ATOM      3  C   UNL A   1      30.092  29.263  22.491  1.00  0.00     0.325 C 
ATOM      4  O   UNL A   1      29.783  29.707  21.387  1.00  0.00    -0.250 OA
BRANCH   3   5
ATOM      5  C   UNL A   1      30.764  27.914  22.614  1.00  0.00     0.239 C 
BRANCH   5   6
ATOM      6  N   UNL A   1      31.851  27.456  21.782  1.00  0.00    -0.341 N 
ATOM      7  C   UNL A   1      32.856  26.567  22.089  1.00  0.00     0.253 C 
ATOM      8  O   UNL A   1      33.432  26.020  21.145  1.00  0.00    -0.269 OA
ATOM      9  H   UNL A   1      31.878  27.832  20.873  1.00  0.00     0.164 HD
BRANCH   7  10
ATOM     10  C   UNL A   1      33.413  26.393  23.469  1.00  0.00     0.063 A 
ATOM     11  C   UNL A   1      33.797  25.210  24.137  1.00  0.00     0.051 A 
ATOM     12  C   UNL A   1      34.167  25.312  25.500  1.00  0.00     0.027 A 
ATOM     13  C   UNL A   1      34.247  26.538  26.161  1.00  0.00     0.002 A 
ATOM     14  C   UNL A   1      33.536  27.629  24.146  1.00  0.00     0.016 A 
ATOM     15  C   UNL A   1      33.961  27.704  25.472  1.00  0.00     0.001 A 
BRANCH  11  16
ATOM     16  N   UNL A   1      33.973  23.922  23.582  1.00  0.00    -0.352 N 
ATOM     17  H   UNL A   1      33.807  23.895  22.612  1.00  0.00     0.167 HD
BRANCH  16  18
ATOM     18  C   UNL A   1      34.335  22.664  24.119  1.00  0.00     0.077 A 
ATOM     19  C   UNL A   1      37.356  20.419  24.893  1.00  0.00     0.046 C 
ATOM     20  C   UNL A   1      35.945  20.901  24.692  1.00  0.00    -0.030 A 
ATOM     21  C   UNL A   1      34.892  20.002  24.898  1.00  0.00     0.006 A 
ATOM     22  C   UNL A   1      35.661  22.238  24.336  1.00  0.00     0.069 A 
ATOM     23  C   UNL A   1      33.577  20.428  24.783  1.00  0.00     0.023 A 
ATOM     24  Cl  UNL A   1      36.967  23.388  24.347  1.00  0.00    -0.082 Cl
ATOM     25  C   UNL A   1      33.302  21.737  24.393  1.00  0.00     0.066 A 
ATOM     26  Cl  UNL A   1      31.633  22.186  24.232  1.00  0.00    -0.082 Cl
ENDBRANCH  16  18
ENDBRANCH  11  16
ENDBRANCH   7  10
ENDBRANCH   5   6
ENDBRANCH   3   5
ENDBRANCH   2   3
ENDBRANCH   1   2
BRANCH   1  27
ATOM     27  C   UNL A   1      31.240  30.731  25.617  1.00  0.00     0.275 C 
BRANCH  27  28
ATOM     28  O   UNL A   1      32.303  30.427  26.547  1.00  0.00    -0.458 OA
BRANCH  28  29
ATOM     29  C   UNL A   1      32.917  31.494  27.105  1.00  0.00     0.338 C 
ATOM     30  O   UNL A   1      32.468  32.629  27.213  1.00  0.00    -0.246 OA
BRANCH  29  31
ATOM     31  C   UNL A   1      34.274  31.154  27.573  1.00  0.00     0.060 A 
ATOM     32  C   UNL A   1      34.634  29.838  27.856  1.00  0.00     0.016 A 
ATOM     33  C   UNL A   1      35.160  32.192  27.873  1.00  0.00     0.016 A 
ATOM     34  C   UNL A   1      35.844  29.579  28.517  1.00  0.00     0.010 A 
ATOM     35  C   UNL A   1      36.401  31.913  28.464  1.00  0.00     0.010 A 
ATOM     36  C   UNL A   1      36.745  30.606  28.850  1.00  0.00    -0.014 A 
BRANCH  36  37
ATOM     37  C   UNL A   1      37.995  30.353  29.650  1.00  0.00     0.031 A 
ATOM     38  C   UNL A   1      39.115  29.509  29.075  1.00  0.00     0.074 A 
ATOM     39  C   UNL A   1      38.180  30.862  30.887  1.00  0.00     0.049 A 
ATOM     40  N   UNL A   1      40.125  28.933  29.684  1.00  0.00    -0.248 NA
ATOM     41  C   UNL A   1      39.085  29.269  27.625  1.00  0.00     0.031 C 
ATOM     42  C   UNL A   1      37.257  31.745  31.594  1.00  0.00     0.029 A 
ATOM     43  N   UNL A   1      39.228  30.707  31.771  1.00  0.00    -0.354 N 
ATOM     44  C   UNL A   1      40.781  28.181  28.715  1.00  0.00     0.074 A 
ATOM     45  C   UNL A   1      40.075  28.401  27.470  1.00  0.00     0.031 C 
ATOM     46  C   UNL A   1      37.798  32.100  32.769  1.00  0.00     0.029 A 
ATOM     47  C   UNL A   1      39.053  31.377  32.957  1.00  0.00     0.049 A 
ATOM     48  H   UNL A   1      40.026  30.166  31.570  1.00  0.00     0.167 HD
ATOM     49  C   UNL A   1      41.860  27.371  28.851  1.00  0.00     0.037 A 
ATOM     50  C   UNL A   1      39.772  31.373  34.098  1.00  0.00     0.037 A 
ATOM     51  C   UNL A   1      42.644  27.233  30.053  1.00  0.00     0.049 A 
ATOM     52  C   UNL A   1      40.979  30.486  34.230  1.00  0.00     0.074 A 
ATOM     53  C   UNL A   1      43.775  26.460  30.264  1.00  0.00     0.029 A 
ATOM     54  N   UNL A   1      42.402  27.911  31.237  1.00  0.00    -0.354 N 
ATOM     55  N   UNL A   1      41.509  29.676  33.348  1.00  0.00    -0.248 NA
ATOM     56  C   UNL A   1      41.663  30.486  35.533  1.00  0.00     0.031 C 
ATOM     57  C   UNL A   1      44.203  26.651  31.583  1.00  0.00     0.029 A 
ATOM     58  C   UNL A   1      43.361  27.572  32.181  1.00  0.00     0.049 A 
ATOM     59  H   UNL A   1      41.660  28.540  31.386  1.00  0.00     0.167 HD
ATOM     60  C   UNL A   1      42.576  29.061  33.991  1.00  0.00     0.074 A 
ATOM     61  C   UNL A   1      42.641  29.614  35.326  1.00  0.00     0.031 C 
ATOM     62  C   UNL A   1      43.416  28.111  33.514  1.00  0.00     0.037 A 
BRANCH  49  63
ATOM     63  C   UNL A   1      42.244  26.515  27.677  1.00  0.00     0.064 A 
ATOM     64  C   UNL A   1      43.260  26.877  26.782  1.00  0.00     0.173 A 
ATOM     65  C   UNL A   1      41.610  25.276  27.484  1.00  0.00     0.173 A 
ATOM     66  F   UNL A   1      43.890  28.054  26.916  1.00  0.00    -0.203 F 
ATOM     67  C   UNL A   1      43.609  26.043  25.723  1.00  0.00     0.198 A 
ATOM     68  C   UNL A   1      41.982  24.432  26.442  1.00  0.00     0.198 A 
ATOM     69  F   UNL A   1      40.640  24.877  28.320  1.00  0.00    -0.203 F 
ATOM     70  F   UNL A   1      44.554  26.427  24.853  1.00  0.00    -0.200 F 
ATOM     71  C   UNL A   1      42.976  24.819  25.558  1.00  0.00     0.200 A 
ATOM     72  F   UNL A   1      41.379  23.244  26.295  1.00  0.00    -0.200 F 
ATOM     73  F   UNL A   1      43.321  24.013  24.543  1.00  0.00    -0.200 F 
ENDBRANCH  49  63
BRANCH  50  74
ATOM     74  C   UNL A   1      39.316  32.200  35.245  1.00  0.00     0.064 A 
ATOM     75  C   UNL A   1      38.479  31.666  36.233  1.00  0.00     0.173 A 
ATOM     76  C   UNL A   1      39.739  33.530  35.393  1.00  0.00     0.173 A 
ATOM     77  F   UNL A   1      38.020  30.411  36.115  1.00  0.00    -0.203 F 
ATOM     78  C   UNL A   1      38.091  32.427  37.333  1.00  0.00     0.198 A 
ATOM     79  C   UNL A   1      39.376  34.279  36.509  1.00  0.00     0.198 A 
ATOM     80  F   UNL A   1      40.534  34.088  34.469  1.00  0.00    -0.203 F 
ATOM     81  F   UNL A   1      37.270  31.902  38.253  1.00  0.00    -0.200 F 
ATOM     82  C   UNL A   1      38.551  33.728  37.478  1.00  0.00     0.200 A 
ATOM     83  F   UNL A   1      39.837  35.530  36.651  1.00  0.00    -0.200 F 
ATOM     84  F   UNL A   1      38.200  34.451  38.549  1.00  0.00    -0.200 F 
ENDBRANCH  50  74
BRANCH  62  85
ATOM     85  C   UNL A   1      44.486  27.609  34.439  1.00  0.00     0.064 A 
ATOM     86  C   UNL A   1      44.283  26.475  35.240  1.00  0.00     0.173 A 
ATOM     87  C   UNL A   1      45.731  28.250  34.508  1.00  0.00     0.173 A 
ATOM     88  F   UNL A   1      43.104  25.837  35.221  1.00  0.00    -0.203 F 
ATOM     89  C   UNL A   1      45.284  26.013  36.091  1.00  0.00     0.198 A 
ATOM     90  C   UNL A   1      46.736  27.773  35.345  1.00  0.00     0.198 A 
ATOM     91  F   UNL A   1      45.974  29.336  33.760  1.00  0.00    -0.203 F 
ATOM     92  F   UNL A   1      45.057  24.951  36.876  1.00  0.00    -0.200 F 
ATOM     93  C   UNL A   1      46.511  26.659  36.140  1.00  0.00     0.200 A 
ATOM     94  F   UNL A   1      47.923  28.394  35.387  1.00  0.00    -0.200 F 
ATOM     95  F   UNL A   1      47.472  26.214  36.961  1.00  0.00    -0.200 F 
ENDBRANCH  62  85
ENDBRANCH  36  37
ENDBRANCH  29  31
ENDBRANCH  28  29
ENDBRANCH  27  28
ENDBRANCH   1  27
TORSDOF 15
ENDMDL
MODEL 2
REMARK VINA RESULT:     -12.7      1.389      2.690
REMARK SMILES Cc1ccc(Cl)c(Nc2ccccc2C(=O)NCC(=O)OCCOC(=O)c2ccc(-c3c4nc(c(-c5c(F)c(F)c(F)c(F)c5F)c5ccc([nH]5)c(-c5c(F)c(F)c(F)c(F)c5F)c5nc(c(-c6c(F)c(F)c(F)c(F)c6F)c6ccc3[nH]6)C=C5)C=C4)cc2)c1Cl
REMARK SMILES IDX 22 1 21 2 19 3 20 4 18 5 17 6 15 7 16 8 14 10 9 11 10 12
REMARK SMILES IDX 11 13 13 14 12 15 8 16 7 18 1 19 2 20 3 21 90 22 4 23 91 24
REMARK SMILES IDX 5 25 6 26 23 27 24 28 25 29 26 30 27 31 28 32 89 33 29 34
REMARK SMILES IDX 88 35 30 36 31 37 32 38 82 39 33 40 87 41 81 42 83 43 34 44
REMARK SMILES IDX 86 45 80 46 79 47 35 49 67 50 47 51 66 52 48 53 51 54 65 55
REMARK SMILES IDX 84 56 49 57 50 58 64 60 85 61 52 62 36 63 37 64 45 65 38 66
REMARK SMILES IDX 39 67 43 68 46 69 40 70 41 71 44 72 42 73 68 74 69 75 77 76
REMARK SMILES IDX 70 77 71 78 75 79 78 80 72 81 73 82 76 83 74 84 53 85 54 86
REMARK SMILES IDX 62 87 55 88 56 89 60 90 63 91 57 92 58 93 61 94 59 95
REMARK H PARENT 17 9 8 17 83 48 51 59
REMARK Flexibility Score: inf
ROOT
ATOM      1  C   UNL A   1      31.715  28.303  26.557  1.00  0.00     0.274 C 
ENDROOT
BRANCH   1   2
ATOM      2  O   UNL A   1      31.728  27.363  25.467  1.00  0.00    -0.461 OA
BRANCH   2   3
ATOM      3  C   UNL A   1      32.875  26.648  25.392  1.00  0.00     0.325 C 
ATOM      4  O   UNL A   1      33.934  26.962  25.933  1.00  0.00    -0.250 OA
BRANCH   3   5
ATOM      5  C   UNL A   1      32.732  25.308  24.706  1.00  0.00     0.239 C 
BRANCH   5   6
ATOM      6  N   UNL A   1      33.485  24.891  23.547  1.00  0.00    -0.341 N 
ATOM      7  C   UNL A   1      33.667  23.621  23.048  1.00  0.00     0.253 C 
ATOM      8  O   UNL A   1      33.996  23.523  21.864  1.00  0.00    -0.269 OA
ATOM      9  H   UNL A   1      33.929  25.613  23.046  1.00  0.00     0.164 HD
BRANCH   7  10
ATOM     10  C   UNL A   1      33.691  22.393  23.905  1.00  0.00     0.063 A 
ATOM     11  C   UNL A   1      34.787  21.593  24.295  1.00  0.00     0.051 A 
ATOM     12  C   UNL A   1      34.514  20.397  25.002  1.00  0.00     0.027 A 
ATOM     13  C   UNL A   1      33.223  20.040  25.392  1.00  0.00     0.002 A 
ATOM     14  C   UNL A   1      32.394  22.031  24.342  1.00  0.00     0.016 A 
ATOM     15  C   UNL A   1      32.163  20.876  25.089  1.00  0.00     0.001 A 
BRANCH  11  16
ATOM     16  N   UNL A   1      36.162  21.893  24.169  1.00  0.00    -0.352 N 
ATOM     17  H   UNL A   1      36.468  21.911  23.233  1.00  0.00     0.167 HD
BRANCH  16  18
ATOM     18  C   UNL A   1      37.195  22.171  25.096  1.00  0.00     0.077 A 
ATOM     19  C   UNL A   1      38.771  24.998  27.168  1.00  0.00     0.046 C 
ATOM     20  C   UNL A   1      38.541  23.669  26.501  1.00  0.00    -0.030 A 
ATOM     21  C   UNL A   1      39.493  22.657  26.673  1.00  0.00     0.006 A 
ATOM     22  C   UNL A   1      37.378  23.411  25.741  1.00  0.00     0.069 A 
ATOM     23  C   UNL A   1      39.283  21.399  26.126  1.00  0.00     0.023 A 
ATOM     24  Cl  UNL A   1      36.099  24.591  25.767  1.00  0.00    -0.082 Cl
ATOM     25  C   UNL A   1      38.155  21.162  25.344  1.00  0.00     0.066 A 
ATOM     26  Cl  UNL A   1      37.980  19.576  24.659  1.00  0.00    -0.082 Cl
ENDBRANCH  16  18
ENDBRANCH  11  16
ENDBRANCH   7  10
ENDBRANCH   5   6
ENDBRANCH   3   5
ENDBRANCH   2   3
ENDBRANCH   1   2
BRANCH   1  27
ATOM     27  C   UNL A   1      31.688  29.741  26.037  1.00  0.00     0.275 C 
BRANCH  27  28
ATOM     28  O   UNL A   1      33.015  30.308  25.951  1.00  0.00    -0.458 OA
BRANCH  28  29
ATOM     29  C   UNL A   1      33.351  31.165  26.941  1.00  0.00     0.338 C 
ATOM     30  O   UNL A   1      32.687  32.108  27.357  1.00  0.00    -0.246 OA
BRANCH  29  31
ATOM     31  C   UNL A   1      34.687  30.863  27.488  1.00  0.00     0.060 A 
ATOM     32  C   UNL A   1      35.076  29.555  27.771  1.00  0.00     0.016 A 
ATOM     33  C   UNL A   1      35.516  31.924  27.861  1.00  0.00     0.016 A 
ATOM     34  C   UNL A   1      36.249  29.324  28.502  1.00  0.00     0.010 A 
ATOM     35  C   UNL A   1      36.726  31.676  28.525  1.00  0.00     0.010 A 
ATOM     36  C   UNL A   1      37.092  30.375  28.909  1.00  0.00    -0.014 A 
BRANCH  36  37
ATOM     37  C   UNL A   1      38.297  30.149  29.782  1.00  0.00     0.031 A 
ATOM     38  C   UNL A   1      39.479  29.353  29.265  1.00  0.00     0.074 A 
ATOM     39  C   UNL A   1      38.387  30.642  31.036  1.00  0.00     0.049 A 
ATOM     40  N   UNL A   1      40.468  28.800  29.928  1.00  0.00    -0.248 NA
ATOM     41  C   UNL A   1      39.547  29.138  27.813  1.00  0.00     0.031 C 
ATOM     42  C   UNL A   1      37.392  31.482  31.697  1.00  0.00     0.029 A 
ATOM     43  N   UNL A   1      39.382  30.506  31.981  1.00  0.00    -0.354 N 
ATOM     44  C   UNL A   1      41.208  28.088  28.990  1.00  0.00     0.074 A 
ATOM     45  C   UNL A   1      40.575  28.307  27.707  1.00  0.00     0.031 C 
ATOM     46  C   UNL A   1      37.847  31.834  32.909  1.00  0.00     0.029 A 
ATOM     47  C   UNL A   1      39.111  31.149  33.164  1.00  0.00     0.049 A 
ATOM     48  H   UNL A   1      40.210  29.996  31.823  1.00  0.00     0.167 HD
ATOM     49  C   UNL A   1      42.304  27.311  29.181  1.00  0.00     0.037 A 
ATOM     50  C   UNL A   1      39.758  31.149  34.348  1.00  0.00     0.037 A 
ATOM     51  C   UNL A   1      43.016  27.179  30.427  1.00  0.00     0.049 A 
ATOM     52  C   UNL A   1      40.983  30.300  34.542  1.00  0.00     0.074 A 
ATOM     53  C   UNL A   1      44.158  26.440  30.697  1.00  0.00     0.029 A 
ATOM     54  N   UNL A   1      42.678  27.827  31.605  1.00  0.00    -0.354 N 
ATOM     55  N   UNL A   1      41.595  29.524  33.683  1.00  0.00    -0.248 NA
ATOM     56  C   UNL A   1      41.585  30.300  35.885  1.00  0.00     0.031 C 
ATOM     57  C   UNL A   1      44.495  26.622  32.043  1.00  0.00     0.029 A 
ATOM     58  C   UNL A   1      43.586  27.503  32.602  1.00  0.00     0.049 A 
ATOM     59  H   UNL A   1      41.907  28.428  31.717  1.00  0.00     0.167 HD
ATOM     60  C   UNL A   1      42.640  28.933  34.381  1.00  0.00     0.074 A 
ATOM     61  C   UNL A   1      42.602  29.464  35.726  1.00  0.00     0.031 C 
ATOM     62  C   UNL A   1      43.540  28.020  33.944  1.00  0.00     0.037 A 
BRANCH  49  63
ATOM     63  C   UNL A   1      42.790  26.490  28.020  1.00  0.00     0.064 A 
ATOM     64  C   UNL A   1      42.410  25.155  27.832  1.00  0.00     0.173 A 
ATOM     65  C   UNL A   1      43.611  27.083  27.046  1.00  0.00     0.173 A 
ATOM     66  F   UNL A   1      41.634  24.540  28.738  1.00  0.00    -0.203 F 
ATOM     67  C   UNL A   1      42.855  24.434  26.726  1.00  0.00     0.198 A 
ATOM     68  C   UNL A   1      44.031  26.368  25.927  1.00  0.00     0.198 A 
ATOM     69  F   UNL A   1      43.993  28.362  27.172  1.00  0.00    -0.203 F 
ATOM     70  F   UNL A   1      42.515  23.145  26.587  1.00  0.00    -0.200 F 
ATOM     71  C   UNL A   1      43.658  25.043  25.771  1.00  0.00     0.200 A 
ATOM     72  F   UNL A   1      44.793  26.964  25.000  1.00  0.00    -0.200 F 
ATOM     73  F   UNL A   1      44.077  24.350  24.703  1.00  0.00    -0.200 F 
ENDBRANCH  49  63
BRANCH  50  74
ATOM     74  C   UNL A   1      39.203  31.940  35.477  1.00  0.00     0.064 A 
ATOM     75  C   UNL A   1      38.346  31.354  36.417  1.00  0.00     0.173 A 
ATOM     76  C   UNL A   1      39.549  33.288  35.657  1.00  0.00     0.173 A 
ATOM     77  F   UNL A   1      37.958  30.078  36.266  1.00  0.00    -0.203 F 
ATOM     78  C   UNL A   1      37.865  32.083  37.502  1.00  0.00     0.198 A 
ATOM     79  C   UNL A   1      39.093  34.006  36.758  1.00  0.00     0.198 A 
ATOM     80  F   UNL A   1      40.360  33.895  34.778  1.00  0.00    -0.203 F 
ATOM     81  F   UNL A   1      37.026  31.508  38.375  1.00  0.00    -0.200 F 
ATOM     82  C   UNL A   1      38.250  33.404  37.680  1.00  0.00     0.200 A 
ATOM     83  F   UNL A   1      39.481  35.277  36.933  1.00  0.00    -0.200 F 
ATOM     84  F   UNL A   1      37.809  34.097  38.737  1.00  0.00    -0.200 F 
ENDBRANCH  50  74
BRANCH  62  85
ATOM     85  C   UNL A   1      44.566  27.538  34.926  1.00  0.00     0.064 A 
ATOM     86  C   UNL A   1      44.332  26.413  35.731  1.00  0.00     0.173 A 
ATOM     87  C   UNL A   1      45.803  28.187  35.046  1.00  0.00     0.173 A 
ATOM     88  F   UNL A   1      43.159  25.767  35.664  1.00  0.00    -0.203 F 
ATOM     89  C   UNL A   1      45.294  25.969  36.637  1.00  0.00     0.198 A 
ATOM     90  C   UNL A   1      46.769  27.728  35.938  1.00  0.00     0.198 A 
ATOM     91  F   UNL A   1      46.076  29.265  34.297  1.00  0.00    -0.203 F 
ATOM     92  F   UNL A   1      45.035  24.916  37.424  1.00  0.00    -0.200 F 
ATOM     93  C   UNL A   1      46.512  26.624  36.736  1.00  0.00     0.200 A 
ATOM     94  F   UNL A   1      47.949  28.358  36.029  1.00  0.00    -0.200 F 
ATOM     95  F   UNL A   1      47.435  26.196  37.609  1.00  0.00    -0.200 F 
ENDBRANCH  62  85
ENDBRANCH  36  37
ENDBRANCH  29  31
ENDBRANCH  28  29
ENDBRANCH  27  28
ENDBRANCH   1  27
TORSDOF 15
ENDMDL
MODEL 3
REMARK VINA RESULT:     -12.6      1.411      2.910
REMARK SMILES Cc1ccc(Cl)c(Nc2ccccc2C(=O)NCC(=O)OCCOC(=O)c2ccc(-c3c4nc(c(-c5c(F)c(F)c(F)c(F)c5F)c5ccc([nH]5)c(-c5c(F)c(F)c(F)c(F)c5F)c5nc(c(-c6c(F)c(F)c(F)c(F)c6F)c6ccc3[nH]6)C=C5)C=C4)cc2)c1Cl
REMARK SMILES IDX 22 1 21 2 19 3 20 4 18 5 17 6 15 7 16 8 14 10 9 11 10 12
REMARK SMILES IDX 11 13 13 14 12 15 8 16 7 18 1 19 2 20 3 21 90 22 4 23 91 24
REMARK SMILES IDX 5 25 6 26 23 27 24 28 25 29 26 30 27 31 28 32 89 33 29 34
REMARK SMILES IDX 88 35 30 36 31 37 32 38 82 39 33 40 87 41 81 42 83 43 34 44
REMARK SMILES IDX 86 45 80 46 79 47 35 49 67 50 47 51 66 52 48 53 51 54 65 55
REMARK SMILES IDX 84 56 49 57 50 58 64 60 85 61 52 62 36 63 37 64 45 65 38 66
REMARK SMILES IDX 39 67 43 68 46 69 40 70 41 71 44 72 42 73 68 74 69 75 77 76
REMARK SMILES IDX 70 77 71 78 75 79 78 80 72 81 73 82 76 83 74 84 53 85 54 86
REMARK SMILES IDX 62 87 55 88 56 89 60 90 63 91 57 92 58 93 61 94 59 95
REMARK H PARENT 17 9 8 17 83 48 51 59
REMARK Flexibility Score: inf
ROOT
ATOM      1  C   UNL A   1      31.779  28.395  26.634  1.00  0.00     0.274 C 
ENDROOT
BRANCH   1   2
ATOM      2  O   UNL A   1      31.813  27.493  25.512  1.00  0.00    -0.461 OA
BRANCH   2   3
ATOM      3  C   UNL A   1      32.960  26.779  25.433  1.00  0.00     0.325 C 
ATOM      4  O   UNL A   1      34.025  27.103  25.956  1.00  0.00    -0.250 OA
BRANCH   3   5
ATOM      5  C   UNL A   1      32.811  25.429  24.769  1.00  0.00     0.239 C 
BRANCH   5   6
ATOM      6  N   UNL A   1      33.544  24.999  23.602  1.00  0.00    -0.341 N 
ATOM      7  C   UNL A   1      33.694  23.727  23.099  1.00  0.00     0.253 C 
ATOM      8  O   UNL A   1      34.010  23.625  21.911  1.00  0.00    -0.269 OA
ATOM      9  H   UNL A   1      33.997  25.713  23.099  1.00  0.00     0.164 HD
BRANCH   7  10
ATOM     10  C   UNL A   1      33.701  22.496  23.953  1.00  0.00     0.063 A 
ATOM     11  C   UNL A   1      34.784  21.674  24.331  1.00  0.00     0.051 A 
ATOM     12  C   UNL A   1      34.493  20.482  25.038  1.00  0.00     0.027 A 
ATOM     13  C   UNL A   1      33.199  20.151  25.440  1.00  0.00     0.002 A 
ATOM     14  C   UNL A   1      32.402  22.160  24.402  1.00  0.00     0.016 A 
ATOM     15  C   UNL A   1      32.153  21.009  25.148  1.00  0.00     0.001 A 
BRANCH  11  16
ATOM     16  N   UNL A   1      36.164  21.945  24.193  1.00  0.00    -0.352 N 
ATOM     17  H   UNL A   1      36.461  21.960  23.254  1.00  0.00     0.167 HD
BRANCH  16  18
ATOM     18  C   UNL A   1      37.210  22.200  25.110  1.00  0.00     0.077 A 
ATOM     19  C   UNL A   1      38.874  24.991  27.162  1.00  0.00     0.046 C 
ATOM     20  C   UNL A   1      38.605  23.667  26.501  1.00  0.00    -0.030 A 
ATOM     21  C   UNL A   1      39.533  22.632  26.668  1.00  0.00     0.006 A 
ATOM     22  C   UNL A   1      37.430  23.436  25.751  1.00  0.00     0.069 A 
ATOM     23  C   UNL A   1      39.287  21.378  26.126  1.00  0.00     0.023 A 
ATOM     24  Cl  UNL A   1      36.182  24.648  25.784  1.00  0.00    -0.082 Cl
ATOM     25  C   UNL A   1      38.147  21.168  25.354  1.00  0.00     0.066 A 
ATOM     26  Cl  UNL A   1      37.927  19.585  24.674  1.00  0.00    -0.082 Cl
ENDBRANCH  16  18
ENDBRANCH  11  16
ENDBRANCH   7  10
ENDBRANCH   5   6
ENDBRANCH   3   5
ENDBRANCH   2   3
ENDBRANCH   1   2
BRANCH   1  27
ATOM     27  C   UNL A   1      31.774  29.851  26.165  1.00  0.00     0.275 C 
BRANCH  27  28
ATOM     28  O   UNL A   1      33.109  30.398  26.093  1.00  0.00    -0.458 OA
BRANCH  28  29
ATOM     29  C   UNL A   1      33.463  31.216  27.110  1.00  0.00     0.338 C 
ATOM     30  O   UNL A   1      32.809  32.144  27.570  1.00  0.00    -0.246 OA
BRANCH  29  31
ATOM     31  C   UNL A   1      34.805  30.887  27.626  1.00  0.00     0.060 A 
ATOM     32  C   UNL A   1      35.164  29.576  27.931  1.00  0.00     0.016 A 
ATOM     33  C   UNL A   1      35.674  31.932  27.949  1.00  0.00     0.016 A 
ATOM     34  C   UNL A   1      36.351  29.328  28.634  1.00  0.00     0.010 A 
ATOM     35  C   UNL A   1      36.895  31.665  28.585  1.00  0.00     0.010 A 
ATOM     36  C   UNL A   1      37.234  30.362  28.990  1.00  0.00    -0.014 A 
BRANCH  36  37
ATOM     37  C   UNL A   1      38.457  30.122  29.835  1.00  0.00     0.031 A 
ATOM     38  C   UNL A   1      39.619  29.317  29.288  1.00  0.00     0.074 A 
ATOM     39  C   UNL A   1      38.581  30.611  31.088  1.00  0.00     0.049 A 
ATOM     40  N   UNL A   1      40.618  28.752  29.926  1.00  0.00    -0.248 NA
ATOM     41  C   UNL A   1      39.652  29.106  27.834  1.00  0.00     0.031 C 
ATOM     42  C   UNL A   1      37.610  31.457  31.775  1.00  0.00     0.029 A 
ATOM     43  N   UNL A   1      39.597  30.461  32.009  1.00  0.00    -0.354 N 
ATOM     44  C   UNL A   1      41.329  28.036  28.969  1.00  0.00     0.074 A 
ATOM     45  C   UNL A   1      40.669  28.265  27.702  1.00  0.00     0.031 C 
ATOM     46  C   UNL A   1      38.096  31.801  32.977  1.00  0.00     0.029 A 
ATOM     47  C   UNL A   1      39.359  31.103  33.200  1.00  0.00     0.049 A 
ATOM     48  H   UNL A   1      40.415  29.944  31.830  1.00  0.00     0.167 HD
ATOM     49  C   UNL A   1      42.422  27.248  29.132  1.00  0.00     0.037 A 
ATOM     50  C   UNL A   1      40.033  31.093  34.369  1.00  0.00     0.037 A 
ATOM     51  C   UNL A   1      43.161  27.105  30.361  1.00  0.00     0.049 A 
ATOM     52  C   UNL A   1      41.254  30.232  34.531  1.00  0.00     0.074 A 
ATOM     53  C   UNL A   1      44.301  26.354  30.602  1.00  0.00     0.029 A 
ATOM     54  N   UNL A   1      42.856  27.752  31.549  1.00  0.00    -0.354 N 
ATOM     55  N   UNL A   1      41.838  29.452  33.656  1.00  0.00    -0.248 NA
ATOM     56  C   UNL A   1      41.887  30.221  35.860  1.00  0.00     0.031 C 
ATOM     57  C   UNL A   1      44.672  26.528  31.941  1.00  0.00     0.029 A 
ATOM     58  C   UNL A   1      43.785  27.416  32.523  1.00  0.00     0.049 A 
ATOM     59  H   UNL A   1      42.094  28.360  31.680  1.00  0.00     0.167 HD
ATOM     60  C   UNL A   1      42.894  28.849  34.329  1.00  0.00     0.074 A 
ATOM     61  C   UNL A   1      42.892  29.376  35.676  1.00  0.00     0.031 C 
ATOM     62  C   UNL A   1      43.775  27.929  33.867  1.00  0.00     0.037 A 
BRANCH  49  63
ATOM     63  C   UNL A   1      42.872  26.426  27.958  1.00  0.00     0.064 A 
ATOM     64  C   UNL A   1      43.726  26.931  26.969  1.00  0.00     0.173 A 
ATOM     65  C   UNL A   1      42.478  25.081  27.860  1.00  0.00     0.173 A 
ATOM     66  F   UNL A   1      44.124  28.212  27.010  1.00  0.00    -0.203 F 
ATOM     67  C   UNL A   1      44.148  26.129  25.911  1.00  0.00     0.198 A 
ATOM     68  C   UNL A   1      42.924  24.274  26.818  1.00  0.00     0.198 A 
ATOM     69  F   UNL A   1      41.671  24.545  28.788  1.00  0.00    -0.203 F 
ATOM     70  F   UNL A   1      44.930  26.645  24.952  1.00  0.00    -0.200 F 
ATOM     71  C   UNL A   1      43.753  24.800  25.840  1.00  0.00     0.200 A 
ATOM     72  F   UNL A   1      42.554  22.988  26.761  1.00  0.00    -0.200 F 
ATOM     73  F   UNL A   1      44.168  24.028  24.826  1.00  0.00    -0.200 F 
ENDBRANCH  49  63
BRANCH  50  74
ATOM     74  C   UNL A   1      39.512  31.885  35.513  1.00  0.00     0.064 A 
ATOM     75  C   UNL A   1      39.920  33.209  35.720  1.00  0.00     0.173 A 
ATOM     76  C   UNL A   1      38.568  31.344  36.400  1.00  0.00     0.173 A 
ATOM     77  F   UNL A   1      40.848  33.757  34.920  1.00  0.00    -0.203 F 
ATOM     78  C   UNL A   1      39.395  33.966  36.765  1.00  0.00     0.198 A 
ATOM     79  C   UNL A   1      38.022  32.112  37.423  1.00  0.00     0.198 A 
ATOM     80  F   UNL A   1      38.153  30.078  36.247  1.00  0.00    -0.203 F 
ATOM     81  F   UNL A   1      39.819  35.223  36.958  1.00  0.00    -0.200 F 
ATOM     82  C   UNL A   1      38.435  33.423  37.606  1.00  0.00     0.200 A 
ATOM     83  F   UNL A   1      37.083  31.586  38.223  1.00  0.00    -0.200 F 
ATOM     84  F   UNL A   1      37.911  34.160  38.594  1.00  0.00    -0.200 F 
ENDBRANCH  50  74
BRANCH  62  85
ATOM     85  C   UNL A   1      44.819  27.434  34.825  1.00  0.00     0.064 A 
ATOM     86  C   UNL A   1      46.039  28.107  34.985  1.00  0.00     0.173 A 
ATOM     87  C   UNL A   1      44.588  26.293  35.607  1.00  0.00     0.173 A 
ATOM     88  F   UNL A   1      46.312  29.194  34.249  1.00  0.00    -0.203 F 
ATOM     89  C   UNL A   1      46.999  27.643  35.881  1.00  0.00     0.198 A 
ATOM     90  C   UNL A   1      45.543  25.843  36.515  1.00  0.00     0.198 A 
ATOM     91  F   UNL A   1      43.436  25.616  35.492  1.00  0.00    -0.203 F 
ATOM     92  F   UNL A   1      48.174  28.279  35.991  1.00  0.00    -0.200 F 
ATOM     93  C   UNL A   1      46.749  26.515  36.648  1.00  0.00     0.200 A 
ATOM     94  F   UNL A   1      45.298  24.756  37.261  1.00  0.00    -0.200 F 
ATOM     95  F   UNL A   1      47.675  26.069  37.508  1.00  0.00    -0.200 F 
ENDBRANCH  62  85
ENDBRANCH  36  37
ENDBRANCH  29  31
ENDBRANCH  28  29
ENDBRANCH  27  28
ENDBRANCH   1  27
TORSDOF 15
ENDMDL
