MODEL 1
REMARK VINA RESULT:     -13.2      0.000      0.000
REMARK SMILES Cc1c(CC(=O)OCCOC(=O)c2ccc(-c3c4nc(c(-c5c(F)c(F)c(F)c(F)c5F)c5ccc([nH]5)c(-c5c(F)c(F)c(F)c(F)c5F)c5nc(c(-c6c(F)c(F)c(F)c(F)c6F)c6ccc3[nH]6)C=C5)C=C4)cc2)c(=O)oc2cc(OCc3c(F)cccc3Cl)ccc12
REMARK SMILES IDX 8 1 7 2 5 3 6 4 4 5 3 6 1 7 2 8 94 9 76 10 79 11 93 12 77 13
REMARK SMILES IDX 78 14 80 15 92 16 81 17 82 18 83 19 84 20 85 21 90 22 86 23
REMARK SMILES IDX 87 24 89 25 91 26 88 27 9 28 10 29 11 30 12 31 13 32 14 33
REMARK SMILES IDX 75 34 15 35 74 36 16 37 17 38 18 39 68 40 19 41 73 42 67 43
REMARK SMILES IDX 69 44 20 45 72 46 66 47 65 48 21 50 53 51 33 52 52 53 34 54
REMARK SMILES IDX 37 55 51 56 70 57 35 58 36 59 50 61 71 62 38 63 22 64 23 65
REMARK SMILES IDX 31 66 24 67 25 68 29 69 32 70 26 71 27 72 30 73 28 74 54 75
REMARK SMILES IDX 55 76 63 77 56 78 57 79 61 80 64 81 58 82 59 83 62 84 60 85
REMARK SMILES IDX 39 86 40 87 48 88 41 89 42 90 46 91 49 92 43 93 44 94 47 95
REMARK SMILES IDX 45 96
REMARK H PARENT 69 49 37 60
REMARK Flexibility Score: inf
ROOT
ATOM      1  C   UNL A   1      31.064  30.016  24.481  1.00  0.00     0.274 C 
ENDROOT
BRANCH   1   2
ATOM      2  O   UNL A   1      30.786  28.626  24.213  1.00  0.00    -0.462 OA
BRANCH   2   3
ATOM      3  C   UNL A   1      31.292  28.139  23.050  1.00  0.00     0.310 C 
ATOM      4  O   UNL A   1      30.627  27.906  22.043  1.00  0.00    -0.252 OA
BRANCH   3   5
ATOM      5  C   UNL A   1      32.801  27.958  23.051  1.00  0.00     0.166 C 
BRANCH   5   6
ATOM      6  C   UNL A   1      33.315  26.610  23.488  1.00  0.00     0.052 A 
ATOM      7  C   UNL A   1      33.315  27.051  25.984  1.00  0.00     0.046 C 
ATOM      8  C   UNL A   1      33.532  26.207  24.759  1.00  0.00    -0.029 A 
ATOM      9  C   UNL A   1      34.037  24.842  24.983  1.00  0.00     0.021 A 
ATOM     10  C   UNL A   1      33.643  25.724  22.337  1.00  0.00     0.340 A 
ATOM     11  C   UNL A   1      34.551  24.138  23.899  1.00  0.00     0.142 A 
ATOM     12  C   UNL A   1      34.033  24.201  26.226  1.00  0.00     0.016 A 
ATOM     13  O   UNL A   1      33.284  25.996  21.196  1.00  0.00    -0.246 OA
ATOM     14  O   UNL A   1      34.470  24.646  22.594  1.00  0.00    -0.422 OA
ATOM     15  C   UNL A   1      35.092  22.857  24.022  1.00  0.00     0.094 A 
ATOM     16  C   UNL A   1      34.499  22.887  26.348  1.00  0.00     0.047 A 
ATOM     17  C   UNL A   1      35.007  22.201  25.243  1.00  0.00     0.123 A 
BRANCH  17  18
ATOM     18  O   UNL A   1      35.279  20.883  25.475  1.00  0.00    -0.489 OA
BRANCH  18  19
ATOM     19  C   UNL A   1      34.211  19.954  25.684  1.00  0.00     0.270 C 
BRANCH  19  20
ATOM     20  C   UNL A   1      33.722  19.120  24.516  1.00  0.00     0.044 A 
ATOM     21  C   UNL A   1      32.748  19.703  23.691  1.00  0.00     0.131 A 
ATOM     22  C   UNL A   1      34.149  17.826  24.190  1.00  0.00     0.050 A 
ATOM     23  F   UNL A   1      32.351  20.964  23.924  1.00  0.00    -0.207 F 
ATOM     24  C   UNL A   1      32.153  19.014  22.637  1.00  0.00     0.040 A 
ATOM     25  C   UNL A   1      33.532  17.115  23.149  1.00  0.00     0.021 A 
ATOM     26  Cl  UNL A   1      35.449  17.029  25.001  1.00  0.00    -0.084 Cl
ATOM     27  C   UNL A   1      32.528  17.703  22.380  1.00  0.00     0.005 A 
ENDBRANCH  19  20
ENDBRANCH  18  19
ENDBRANCH  17  18
ENDBRANCH   5   6
ENDBRANCH   3   5
ENDBRANCH   2   3
ENDBRANCH   1   2
BRANCH   1  28
ATOM     28  C   UNL A   1      31.423  30.214  25.952  1.00  0.00     0.275 C 
BRANCH  28  29
ATOM     29  O   UNL A   1      32.836  30.452  26.076  1.00  0.00    -0.458 OA
BRANCH  29  30
ATOM     30  C   UNL A   1      33.194  31.396  26.973  1.00  0.00     0.338 C 
ATOM     31  O   UNL A   1      32.575  32.410  27.268  1.00  0.00    -0.246 OA
BRANCH  30  32
ATOM     32  C   UNL A   1      34.481  31.045  27.606  1.00  0.00     0.060 A 
ATOM     33  C   UNL A   1      34.777  29.729  27.966  1.00  0.00     0.016 A 
ATOM     34  C   UNL A   1      35.359  32.075  27.950  1.00  0.00     0.016 A 
ATOM     35  C   UNL A   1      35.905  29.455  28.742  1.00  0.00     0.010 A 
ATOM     36  C   UNL A   1      36.535  31.785  28.645  1.00  0.00     0.010 A 
ATOM     37  C   UNL A   1      36.809  30.477  29.077  1.00  0.00    -0.014 A 
BRANCH  37  38
ATOM     38  C   UNL A   1      38.040  30.194  29.865  1.00  0.00     0.031 A 
ATOM     39  C   UNL A   1      39.122  29.307  29.305  1.00  0.00     0.074 A 
ATOM     40  C   UNL A   1      38.176  30.698  31.106  1.00  0.00     0.049 A 
ATOM     41  N   UNL A   1      40.158  28.781  29.910  1.00  0.00    -0.248 NA
ATOM     42  C   UNL A   1      39.019  28.955  27.881  1.00  0.00     0.031 C 
ATOM     43  C   UNL A   1      37.222  31.589  31.769  1.00  0.00     0.029 A 
ATOM     44  N   UNL A   1      39.170  30.526  32.038  1.00  0.00    -0.354 N 
ATOM     45  C   UNL A   1      40.797  27.996  28.958  1.00  0.00     0.074 A 
ATOM     46  C   UNL A   1      40.036  28.117  27.732  1.00  0.00     0.031 C 
ATOM     47  C   UNL A   1      37.686  31.902  32.987  1.00  0.00     0.029 A 
ATOM     48  C   UNL A   1      38.928  31.175  33.223  1.00  0.00     0.049 A 
ATOM     49  H   UNL A   1      39.979  29.988  31.873  1.00  0.00     0.167 HD
ATOM     50  C   UNL A   1      41.913  27.241  29.098  1.00  0.00     0.037 A 
ATOM     51  C   UNL A   1      39.601  31.155  34.389  1.00  0.00     0.037 A 
ATOM     52  C   UNL A   1      42.702  27.161  30.300  1.00  0.00     0.049 A 
ATOM     53  C   UNL A   1      40.827  30.300  34.522  1.00  0.00     0.074 A 
ATOM     54  C   UNL A   1      43.869  26.448  30.522  1.00  0.00     0.029 A 
ATOM     55  N   UNL A   1      42.411  27.827  31.480  1.00  0.00    -0.354 N 
ATOM     56  N   UNL A   1      41.396  29.528  33.630  1.00  0.00    -0.248 NA
ATOM     57  C   UNL A   1      41.492  30.298  35.832  1.00  0.00     0.031 C 
ATOM     58  C   UNL A   1      44.270  26.663  31.846  1.00  0.00     0.029 A 
ATOM     59  C   UNL A   1      43.371  27.534  32.437  1.00  0.00     0.049 A 
ATOM     60  H   UNL A   1      41.639  28.421  31.619  1.00  0.00     0.167 HD
ATOM     61  C   UNL A   1      42.486  28.952  34.265  1.00  0.00     0.074 A 
ATOM     62  C   UNL A   1      42.511  29.478  35.615  1.00  0.00     0.031 C 
ATOM     63  C   UNL A   1      43.381  28.062  33.775  1.00  0.00     0.037 A 
BRANCH  50  64
ATOM     64  C   UNL A   1      42.350  26.416  27.923  1.00  0.00     0.064 A 
ATOM     65  C   UNL A   1      41.784  25.165  27.648  1.00  0.00     0.173 A 
ATOM     66  C   UNL A   1      43.304  26.919  27.025  1.00  0.00     0.173 A 
ATOM     67  F   UNL A   1      40.876  24.637  28.484  1.00  0.00    -0.203 F 
ATOM     68  C   UNL A   1      42.168  24.438  26.524  1.00  0.00     0.198 A 
ATOM     69  C   UNL A   1      43.671  26.200  25.890  1.00  0.00     0.198 A 
ATOM     70  F   UNL A   1      43.871  28.117  27.240  1.00  0.00    -0.203 F 
ATOM     71  F   UNL A   1      41.635  23.229  26.295  1.00  0.00    -0.200 F 
ATOM     72  C   UNL A   1      43.104  24.959  25.643  1.00  0.00     0.200 A 
ATOM     73  F   UNL A   1      44.567  26.710  25.036  1.00  0.00    -0.200 F 
ATOM     74  F   UNL A   1      43.464  24.263  24.555  1.00  0.00    -0.200 F 
ENDBRANCH  50  64
BRANCH  51  75
ATOM     75  C   UNL A   1      39.099  31.952  35.534  1.00  0.00     0.064 A 
ATOM     76  C   UNL A   1      38.283  31.368  36.512  1.00  0.00     0.173 A 
ATOM     77  C   UNL A   1      39.446  33.303  35.689  1.00  0.00     0.173 A 
ATOM     78  F   UNL A   1      37.906  30.087  36.391  1.00  0.00    -0.203 F 
ATOM     79  C   UNL A   1      37.832  32.107  37.603  1.00  0.00     0.198 A 
ATOM     80  C   UNL A   1      39.015  34.033  36.793  1.00  0.00     0.198 A 
ATOM     81  F   UNL A   1      40.226  33.903  34.778  1.00  0.00    -0.203 F 
ATOM     82  F   UNL A   1      37.030  31.535  38.511  1.00  0.00    -0.200 F 
ATOM     83  C   UNL A   1      38.205  33.436  37.747  1.00  0.00     0.200 A 
ATOM     84  F   UNL A   1      39.388  35.312  36.935  1.00  0.00    -0.200 F 
ATOM     85  F   UNL A   1      37.780  34.142  38.804  1.00  0.00    -0.200 F 
ENDBRANCH  51  75
BRANCH  63  86
ATOM     86  C   UNL A   1      44.471  27.615  34.700  1.00  0.00     0.064 A 
ATOM     87  C   UNL A   1      45.680  28.320  34.795  1.00  0.00     0.173 A 
ATOM     88  C   UNL A   1      44.298  26.487  35.515  1.00  0.00     0.173 A 
ATOM     89  F   UNL A   1      45.896  29.396  34.023  1.00  0.00    -0.203 F 
ATOM     90  C   UNL A   1      46.686  27.898  35.659  1.00  0.00     0.198 A 
ATOM     91  C   UNL A   1      45.298  26.079  36.391  1.00  0.00     0.198 A 
ATOM     92  F   UNL A   1      43.158  25.782  35.459  1.00  0.00    -0.203 F 
ATOM     93  F   UNL A   1      47.849  28.562  35.708  1.00  0.00    -0.200 F 
ATOM     94  C   UNL A   1      46.493  26.780  36.460  1.00  0.00     0.200 A 
ATOM     95  F   UNL A   1      45.110  25.003  37.167  1.00  0.00    -0.200 F 
ATOM     96  F   UNL A   1      47.463  26.375  37.291  1.00  0.00    -0.200 F 
ENDBRANCH  63  86
ENDBRANCH  37  38
ENDBRANCH  30  32
ENDBRANCH  29  30
ENDBRANCH  28  29
ENDBRANCH   1  28
TORSDOF 15
ENDMDL
MODEL 2
REMARK VINA RESULT:     -12.8      1.756      2.985
REMARK SMILES Cc1c(CC(=O)OCCOC(=O)c2ccc(-c3c4nc(c(-c5c(F)c(F)c(F)c(F)c5F)c5ccc([nH]5)c(-c5c(F)c(F)c(F)c(F)c5F)c5nc(c(-c6c(F)c(F)c(F)c(F)c6F)c6ccc3[nH]6)C=C5)C=C4)cc2)c(=O)oc2cc(OCc3c(F)cccc3Cl)ccc12
REMARK SMILES IDX 8 1 7 2 5 3 6 4 4 5 3 6 1 7 2 8 94 9 76 10 79 11 93 12 77 13
REMARK SMILES IDX 78 14 80 15 92 16 81 17 82 18 83 19 84 20 85 21 90 22 86 23
REMARK SMILES IDX 87 24 89 25 91 26 88 27 9 28 10 29 11 30 12 31 13 32 14 33
REMARK SMILES IDX 75 34 15 35 74 36 16 37 17 38 18 39 68 40 19 41 73 42 67 43
REMARK SMILES IDX 69 44 20 45 72 46 66 47 65 48 21 50 53 51 33 52 52 53 34 54
REMARK SMILES IDX 37 55 51 56 70 57 35 58 36 59 50 61 71 62 38 63 22 64 23 65
REMARK SMILES IDX 31 66 24 67 25 68 29 69 32 70 26 71 27 72 30 73 28 74 54 75
REMARK SMILES IDX 55 76 63 77 56 78 57 79 61 80 64 81 58 82 59 83 62 84 60 85
REMARK SMILES IDX 39 86 40 87 48 88 41 89 42 90 46 91 49 92 43 93 44 94 47 95
REMARK SMILES IDX 45 96
REMARK H PARENT 69 49 37 60
REMARK Flexibility Score: inf
ROOT
ATOM      1  C   UNL A   1      31.049  29.865  24.936  1.00  0.00     0.274 C 
ENDROOT
BRANCH   1   2
ATOM      2  O   UNL A   1      31.429  29.008  23.839  1.00  0.00    -0.462 OA
BRANCH   2   3
ATOM      3  C   UNL A   1      30.409  28.563  23.060  1.00  0.00     0.310 C 
ATOM      4  O   UNL A   1      29.991  29.142  22.061  1.00  0.00    -0.252 OA
BRANCH   3   5
ATOM      5  C   UNL A   1      29.842  27.217  23.480  1.00  0.00     0.166 C 
BRANCH   5   6
ATOM      6  C   UNL A   1      30.840  26.113  23.723  1.00  0.00     0.052 A 
ATOM      7  C   UNL A   1      31.771  25.985  21.369  1.00  0.00     0.046 C 
ATOM      8  C   UNL A   1      31.686  25.581  22.814  1.00  0.00    -0.029 A 
ATOM      9  C   UNL A   1      32.592  24.506  23.250  1.00  0.00     0.021 A 
ATOM     10  C   UNL A   1      30.774  25.582  25.113  1.00  0.00     0.340 A 
ATOM     11  C   UNL A   1      32.344  23.879  24.467  1.00  0.00     0.142 A 
ATOM     12  C   UNL A   1      33.698  24.069  22.513  1.00  0.00     0.016 A 
ATOM     13  O   UNL A   1      30.154  26.168  25.994  1.00  0.00    -0.246 OA
ATOM     14  O   UNL A   1      31.343  24.342  25.334  1.00  0.00    -0.422 OA
ATOM     15  C   UNL A   1      33.121  22.822  24.942  1.00  0.00     0.094 A 
ATOM     16  C   UNL A   1      34.532  23.064  23.014  1.00  0.00     0.047 A 
ATOM     17  C   UNL A   1      34.262  22.453  24.241  1.00  0.00     0.123 A 
BRANCH  17  18
ATOM     18  O   UNL A   1      35.241  21.605  24.675  1.00  0.00    -0.489 OA
BRANCH  18  19
ATOM     19  C   UNL A   1      36.594  21.787  24.246  1.00  0.00     0.270 C 
BRANCH  19  20
ATOM     20  C   UNL A   1      37.632  22.240  25.254  1.00  0.00     0.044 A 
ATOM     21  C   UNL A   1      37.500  23.547  25.749  1.00  0.00     0.131 A 
ATOM     22  C   UNL A   1      38.706  21.478  25.732  1.00  0.00     0.050 A 
ATOM     23  F   UNL A   1      36.452  24.296  25.371  1.00  0.00    -0.207 F 
ATOM     24  C   UNL A   1      38.432  24.115  26.613  1.00  0.00     0.040 A 
ATOM     25  C   UNL A   1      39.665  22.055  26.579  1.00  0.00     0.021 A 
ATOM     26  Cl  UNL A   1      38.920  19.807  25.351  1.00  0.00    -0.084 Cl
ATOM     27  C   UNL A   1      39.535  23.374  27.010  1.00  0.00     0.005 A 
ENDBRANCH  19  20
ENDBRANCH  18  19
ENDBRANCH  17  18
ENDBRANCH   5   6
ENDBRANCH   3   5
ENDBRANCH   2   3
ENDBRANCH   1   2
BRANCH   1  28
ATOM     28  C   UNL A   1      31.873  29.539  26.179  1.00  0.00     0.275 C 
BRANCH  28  29
ATOM     29  O   UNL A   1      33.177  30.136  26.062  1.00  0.00    -0.458 OA
BRANCH  29  30
ATOM     30  C   UNL A   1      33.464  31.095  26.968  1.00  0.00     0.338 C 
ATOM     31  O   UNL A   1      32.769  32.055  27.275  1.00  0.00    -0.246 OA
BRANCH  30  32
ATOM     32  C   UNL A   1      34.777  30.840  27.592  1.00  0.00     0.060 A 
ATOM     33  C   UNL A   1      35.159  29.554  27.978  1.00  0.00     0.016 A 
ATOM     34  C   UNL A   1      35.593  31.931  27.902  1.00  0.00     0.016 A 
ATOM     35  C   UNL A   1      36.311  29.369  28.746  1.00  0.00     0.010 A 
ATOM     36  C   UNL A   1      36.792  31.731  28.588  1.00  0.00     0.010 A 
ATOM     37  C   UNL A   1      37.152  30.453  29.046  1.00  0.00    -0.014 A 
BRANCH  37  38
ATOM     38  C   UNL A   1      38.407  30.265  29.825  1.00  0.00     0.031 A 
ATOM     39  C   UNL A   1      39.543  29.450  29.265  1.00  0.00     0.074 A 
ATOM     40  C   UNL A   1      38.519  30.792  31.060  1.00  0.00     0.049 A 
ATOM     41  N   UNL A   1      40.618  29.004  29.865  1.00  0.00    -0.248 NA
ATOM     42  C   UNL A   1      39.452  29.076  27.845  1.00  0.00     0.031 C 
ATOM     43  C   UNL A   1      37.511  31.621  31.723  1.00  0.00     0.029 A 
ATOM     44  N   UNL A   1      39.531  30.700  31.984  1.00  0.00    -0.354 N 
ATOM     45  C   UNL A   1      41.303  28.255  28.916  1.00  0.00     0.074 A 
ATOM     46  C   UNL A   1      40.524  28.309  27.696  1.00  0.00     0.031 C 
ATOM     47  C   UNL A   1      37.963  31.980  32.933  1.00  0.00     0.029 A 
ATOM     48  C   UNL A   1      39.255  31.344  33.165  1.00  0.00     0.049 A 
ATOM     49  H   UNL A   1      40.373  30.218  31.817  1.00  0.00     0.167 HD
ATOM     50  C   UNL A   1      42.470  27.582  29.053  1.00  0.00     0.037 A 
ATOM     51  C   UNL A   1      39.937  31.384  34.324  1.00  0.00     0.037 A 
ATOM     52  C   UNL A   1      43.273  27.571  30.248  1.00  0.00     0.049 A 
ATOM     53  C   UNL A   1      41.221  30.619  34.454  1.00  0.00     0.074 A 
ATOM     54  C   UNL A   1      44.489  26.943  30.466  1.00  0.00     0.029 A 
ATOM     55  N   UNL A   1      42.948  28.228  31.424  1.00  0.00    -0.354 N 
ATOM     56  N   UNL A   1      41.835  29.878  33.565  1.00  0.00    -0.248 NA
ATOM     57  C   UNL A   1      41.897  30.678  35.758  1.00  0.00     0.031 C 
ATOM     58  C   UNL A   1      44.886  27.200  31.784  1.00  0.00     0.029 A 
ATOM     59  C   UNL A   1      43.934  28.014  32.374  1.00  0.00     0.049 A 
ATOM     60  H   UNL A   1      42.137  28.768  31.563  1.00  0.00     0.167 HD
ATOM     61  C   UNL A   1      42.968  29.387  34.196  1.00  0.00     0.074 A 
ATOM     62  C   UNL A   1      42.969  29.929  35.540  1.00  0.00     0.031 C 
ATOM     63  C   UNL A   1      43.918  28.556  33.707  1.00  0.00     0.037 A 
BRANCH  50  64
ATOM     64  C   UNL A   1      42.952  26.776  27.882  1.00  0.00     0.064 A 
ATOM     65  C   UNL A   1      42.649  25.415  27.747  1.00  0.00     0.173 A 
ATOM     66  C   UNL A   1      43.676  27.395  26.852  1.00  0.00     0.173 A 
ATOM     67  F   UNL A   1      41.970  24.777  28.712  1.00  0.00    -0.203 F 
ATOM     68  C   UNL A   1      43.064  24.698  26.627  1.00  0.00     0.198 A 
ATOM     69  C   UNL A   1      44.072  26.682  25.723  1.00  0.00     0.198 A 
ATOM     70  F   UNL A   1      43.987  28.699  26.931  1.00  0.00    -0.203 F 
ATOM     71  F   UNL A   1      42.788  23.390  26.531  1.00  0.00    -0.200 F 
ATOM     72  C   UNL A   1      43.768  25.333  25.614  1.00  0.00     0.200 A 
ATOM     73  F   UNL A   1      44.742  27.298  24.742  1.00  0.00    -0.200 F 
ATOM     74  F   UNL A   1      44.156  24.644  24.532  1.00  0.00    -0.200 F 
ENDBRANCH  50  64
BRANCH  51  75
ATOM     75  C   UNL A   1      39.391  32.157  35.466  1.00  0.00     0.064 A 
ATOM     76  C   UNL A   1      39.672  33.522  35.608  1.00  0.00     0.173 A 
ATOM     77  C   UNL A   1      38.557  31.554  36.419  1.00  0.00     0.173 A 
ATOM     78  F   UNL A   1      40.485  34.132  34.733  1.00  0.00    -0.203 F 
ATOM     79  C   UNL A   1      39.139  34.257  36.665  1.00  0.00     0.198 A 
ATOM     80  C   UNL A   1      38.005  32.296  37.461  1.00  0.00     0.198 A 
ATOM     81  F   UNL A   1      38.261  30.250  36.323  1.00  0.00    -0.203 F 
ATOM     82  F   UNL A   1      39.444  35.554  36.796  1.00  0.00    -0.200 F 
ATOM     83  C   UNL A   1      38.300  33.645  37.585  1.00  0.00     0.200 A 
ATOM     84  F   UNL A   1      37.185  31.705  38.340  1.00  0.00    -0.200 F 
ATOM     85  F   UNL A   1      37.778  34.356  38.594  1.00  0.00    -0.200 F 
ENDBRANCH  51  75
BRANCH  63  86
ATOM     86  C   UNL A   1      45.046  28.197  34.625  1.00  0.00     0.064 A 
ATOM     87  C   UNL A   1      45.013  27.028  35.398  1.00  0.00     0.173 A 
ATOM     88  C   UNL A   1      46.179  29.018  34.718  1.00  0.00     0.173 A 
ATOM     89  F   UNL A   1      43.942  26.220  35.355  1.00  0.00    -0.203 F 
ATOM     90  C   UNL A   1      46.067  26.703  36.247  1.00  0.00     0.198 A 
ATOM     91  C   UNL A   1      47.239  28.681  35.553  1.00  0.00     0.198 A 
ATOM     92  F   UNL A   1      46.256  30.147  33.997  1.00  0.00    -0.203 F 
ATOM     93  F   UNL A   1      46.000  25.600  37.006  1.00  0.00    -0.200 F 
ATOM     94  C   UNL A   1      47.181  27.527  36.321  1.00  0.00     0.200 A 
ATOM     95  F   UNL A   1      48.316  29.475  35.620  1.00  0.00    -0.200 F 
ATOM     96  F   UNL A   1      48.194  27.213  37.140  1.00  0.00    -0.200 F 
ENDBRANCH  63  86
ENDBRANCH  37  38
ENDBRANCH  30  32
ENDBRANCH  29  30
ENDBRANCH  28  29
ENDBRANCH   1  28
TORSDOF 15
ENDMDL
MODEL 3
REMARK VINA RESULT:     -12.7      4.484     10.158
REMARK SMILES Cc1c(CC(=O)OCCOC(=O)c2ccc(-c3c4nc(c(-c5c(F)c(F)c(F)c(F)c5F)c5ccc([nH]5)c(-c5c(F)c(F)c(F)c(F)c5F)c5nc(c(-c6c(F)c(F)c(F)c(F)c6F)c6ccc3[nH]6)C=C5)C=C4)cc2)c(=O)oc2cc(OCc3c(F)cccc3Cl)ccc12
REMARK SMILES IDX 8 1 7 2 5 3 6 4 4 5 3 6 1 7 2 8 94 9 76 10 79 11 93 12 77 13
REMARK SMILES IDX 78 14 80 15 92 16 81 17 82 18 83 19 84 20 85 21 90 22 86 23
REMARK SMILES IDX 87 24 89 25 91 26 88 27 9 28 10 29 11 30 12 31 13 32 14 33
REMARK SMILES IDX 75 34 15 35 74 36 16 37 17 38 18 39 68 40 19 41 73 42 67 43
REMARK SMILES IDX 69 44 20 45 72 46 66 47 65 48 21 50 53 51 33 52 52 53 34 54
REMARK SMILES IDX 37 55 51 56 70 57 35 58 36 59 50 61 71 62 38 63 22 64 23 65
REMARK SMILES IDX 31 66 24 67 25 68 29 69 32 70 26 71 27 72 30 73 28 74 54 75
REMARK SMILES IDX 55 76 63 77 56 78 57 79 61 80 64 81 58 82 59 83 62 84 60 85
REMARK SMILES IDX 39 86 40 87 48 88 41 89 42 90 46 91 49 92 43 93 44 94 47 95
REMARK SMILES IDX 45 96
REMARK H PARENT 69 49 37 60
REMARK Flexibility Score: inf
ROOT
ATOM      1  C   UNL A   1      35.628  21.439  24.583  1.00  0.00     0.274 C 
ENDROOT
BRANCH   1   2
ATOM      2  O   UNL A   1      34.451  20.613  24.455  1.00  0.00    -0.462 OA
BRANCH   2   3
ATOM      3  C   UNL A   1      33.274  21.215  24.769  1.00  0.00     0.310 C 
ATOM      4  O   UNL A   1      32.263  21.174  24.073  1.00  0.00    -0.252 OA
BRANCH   3   5
ATOM      5  C   UNL A   1      33.267  21.911  26.120  1.00  0.00     0.166 C 
BRANCH   5   6
ATOM      6  C   UNL A   1      32.891  23.371  26.121  1.00  0.00     0.052 A 
ATOM      7  C   UNL A   1      35.182  24.304  25.572  1.00  0.00     0.046 C 
ATOM      8  C   UNL A   1      33.714  24.413  25.875  1.00  0.00    -0.029 A 
ATOM      9  C   UNL A   1      33.152  25.773  25.920  1.00  0.00     0.021 A 
ATOM     10  C   UNL A   1      31.466  23.591  26.496  1.00  0.00     0.340 A 
ATOM     11  C   UNL A   1      31.900  25.956  26.498  1.00  0.00     0.142 A 
ATOM     12  C   UNL A   1      33.800  26.905  25.414  1.00  0.00     0.016 A 
ATOM     13  O   UNL A   1      30.664  22.665  26.539  1.00  0.00    -0.246 OA
ATOM     14  O   UNL A   1      31.119  24.865  26.906  1.00  0.00    -0.422 OA
ATOM     15  C   UNL A   1      31.306  27.213  26.626  1.00  0.00     0.094 A 
ATOM     16  C   UNL A   1      33.182  28.159  25.464  1.00  0.00     0.047 A 
ATOM     17  C   UNL A   1      31.922  28.314  26.048  1.00  0.00     0.123 A 
BRANCH  17  18
ATOM     18  O   UNL A   1      31.378  29.556  25.887  1.00  0.00    -0.489 OA
BRANCH  18  19
ATOM     19  C   UNL A   1      31.239  30.117  24.578  1.00  0.00     0.270 C 
BRANCH  19  20
ATOM     20  C   UNL A   1      29.902  30.016  23.871  1.00  0.00     0.044 A 
ATOM     21  C   UNL A   1      29.099  31.167  23.873  1.00  0.00     0.131 A 
ATOM     22  C   UNL A   1      29.397  28.882  23.220  1.00  0.00     0.050 A 
ATOM     23  F   UNL A   1      29.565  32.297  24.428  1.00  0.00    -0.207 F 
ATOM     24  C   UNL A   1      27.816  31.184  23.335  1.00  0.00     0.040 A 
ATOM     25  C   UNL A   1      28.092  28.883  22.703  1.00  0.00     0.021 A 
ATOM     26  Cl  UNL A   1      30.317  27.440  22.984  1.00  0.00    -0.084 Cl
ATOM     27  C   UNL A   1      27.298  30.027  22.769  1.00  0.00     0.005 A 
ENDBRANCH  19  20
ENDBRANCH  18  19
ENDBRANCH  17  18
ENDBRANCH   5   6
ENDBRANCH   3   5
ENDBRANCH   2   3
ENDBRANCH   1   2
BRANCH   1  28
ATOM     28  C   UNL A   1      36.801  20.618  25.113  1.00  0.00     0.275 C 
BRANCH  28  29
ATOM     29  O   UNL A   1      37.493  21.365  26.128  1.00  0.00    -0.458 OA
BRANCH  29  30
ATOM     30  C   UNL A   1      38.841  21.280  26.101  1.00  0.00     0.338 C 
ATOM     31  O   UNL A   1      39.515  20.328  25.731  1.00  0.00    -0.246 OA
BRANCH  30  32
ATOM     32  C   UNL A   1      39.447  22.536  26.584  1.00  0.00     0.060 A 
ATOM     33  C   UNL A   1      39.003  23.778  26.128  1.00  0.00     0.016 A 
ATOM     34  C   UNL A   1      40.562  22.461  27.423  1.00  0.00     0.016 A 
ATOM     35  C   UNL A   1      39.722  24.934  26.440  1.00  0.00     0.010 A 
ATOM     36  C   UNL A   1      41.222  23.628  27.811  1.00  0.00     0.010 A 
ATOM     37  C   UNL A   1      40.831  24.877  27.300  1.00  0.00    -0.014 A 
BRANCH  37  38
ATOM     38  C   UNL A   1      41.581  26.106  27.679  1.00  0.00     0.031 A 
ATOM     39  C   UNL A   1      40.925  27.179  28.509  1.00  0.00     0.074 A 
ATOM     40  C   UNL A   1      42.843  26.286  27.245  1.00  0.00     0.049 A 
ATOM     41  N   UNL A   1      41.335  28.396  28.764  1.00  0.00    -0.248 NA
ATOM     42  C   UNL A   1      39.632  26.843  29.124  1.00  0.00     0.031 C 
ATOM     43  C   UNL A   1      43.613  25.326  26.453  1.00  0.00     0.029 A 
ATOM     44  N   UNL A   1      43.700  27.348  27.402  1.00  0.00    -0.354 N 
ATOM     45  C   UNL A   1      40.330  28.987  29.520  1.00  0.00     0.074 A 
ATOM     46  C   UNL A   1      39.291  27.994  29.688  1.00  0.00     0.031 C 
ATOM     47  C   UNL A   1      44.832  25.829  26.214  1.00  0.00     0.029 A 
ATOM     48  C   UNL A   1      44.904  27.178  26.764  1.00  0.00     0.049 A 
ATOM     49  H   UNL A   1      43.473  28.154  27.920  1.00  0.00     0.167 HD
ATOM     50  C   UNL A   1      40.280  30.244  30.022  1.00  0.00     0.037 A 
ATOM     51  C   UNL A   1      45.938  28.024  26.599  1.00  0.00     0.037 A 
ATOM     52  C   UNL A   1      41.336  31.217  29.902  1.00  0.00     0.049 A 
ATOM     53  C   UNL A   1      45.852  29.416  27.153  1.00  0.00     0.074 A 
ATOM     54  C   UNL A   1      41.386  32.505  30.410  1.00  0.00     0.029 A 
ATOM     55  N   UNL A   1      42.533  31.003  29.238  1.00  0.00    -0.354 N 
ATOM     56  N   UNL A   1      44.879  29.977  27.827  1.00  0.00    -0.248 NA
ATOM     57  C   UNL A   1      47.000  30.298  26.906  1.00  0.00     0.031 C 
ATOM     58  C   UNL A   1      42.604  33.080  30.030  1.00  0.00     0.029 A 
ATOM     59  C   UNL A   1      43.325  32.139  29.314  1.00  0.00     0.049 A 
ATOM     60  H   UNL A   1      42.785  30.169  28.780  1.00  0.00     0.167 HD
ATOM     61  C   UNL A   1      45.296  31.274  28.088  1.00  0.00     0.074 A 
ATOM     62  C   UNL A   1      46.620  31.412  27.516  1.00  0.00     0.031 C 
ATOM     63  C   UNL A   1      44.637  32.263  28.737  1.00  0.00     0.037 A 
BRANCH  50  64
ATOM     64  C   UNL A   1      39.029  30.660  30.740  1.00  0.00     0.064 A 
ATOM     65  C   UNL A   1      37.926  31.187  30.056  1.00  0.00     0.173 A 
ATOM     66  C   UNL A   1      38.915  30.466  32.125  1.00  0.00     0.173 A 
ATOM     67  F   UNL A   1      37.992  31.401  28.733  1.00  0.00    -0.203 F 
ATOM     68  C   UNL A   1      36.756  31.519  30.735  1.00  0.00     0.198 A 
ATOM     69  C   UNL A   1      37.737  30.779  32.798  1.00  0.00     0.198 A 
ATOM     70  F   UNL A   1      39.942  29.959  32.825  1.00  0.00    -0.203 F 
ATOM     71  F   UNL A   1      35.722  32.049  30.066  1.00  0.00    -0.200 F 
ATOM     72  C   UNL A   1      36.660  31.308  32.103  1.00  0.00     0.200 A 
ATOM     73  F   UNL A   1      37.643  30.565  34.117  1.00  0.00    -0.200 F 
ATOM     74  F   UNL A   1      35.529  31.618  32.753  1.00  0.00    -0.200 F 
ENDBRANCH  50  64
BRANCH  51  75
ATOM     75  C   UNL A   1      47.131  27.578  25.839  1.00  0.00     0.064 A 
ATOM     76  C   UNL A   1      47.169  27.673  24.443  1.00  0.00     0.173 A 
ATOM     77  C   UNL A   1      48.265  27.076  26.496  1.00  0.00     0.173 A 
ATOM     78  F   UNL A   1      46.098  28.124  23.773  1.00  0.00    -0.203 F 
ATOM     79  C   UNL A   1      48.299  27.280  23.729  1.00  0.00     0.198 A 
ATOM     80  C   UNL A   1      49.403  26.707  25.783  1.00  0.00     0.198 A 
ATOM     81  F   UNL A   1      48.274  26.968  27.833  1.00  0.00    -0.203 F 
ATOM     82  F   UNL A   1      48.302  27.353  22.391  1.00  0.00    -0.200 F 
ATOM     83  C   UNL A   1      49.417  26.805  24.400  1.00  0.00     0.200 A 
ATOM     84  F   UNL A   1      50.485  26.262  26.435  1.00  0.00    -0.200 F 
ATOM     85  F   UNL A   1      50.508  26.439  23.712  1.00  0.00    -0.200 F 
ENDBRANCH  51  75
BRANCH  63  86
ATOM     86  C   UNL A   1      45.347  33.574  28.878  1.00  0.00     0.064 A 
ATOM     87  C   UNL A   1      46.204  33.826  29.958  1.00  0.00     0.173 A 
ATOM     88  C   UNL A   1      45.186  34.579  27.913  1.00  0.00     0.173 A 
ATOM     89  F   UNL A   1      46.375  32.900  30.914  1.00  0.00    -0.203 F 
ATOM     90  C   UNL A   1      46.861  35.047  30.078  1.00  0.00     0.198 A 
ATOM     91  C   UNL A   1      45.859  35.791  28.026  1.00  0.00     0.198 A 
ATOM     92  F   UNL A   1      44.377  34.382  26.861  1.00  0.00    -0.203 F 
ATOM     93  F   UNL A   1      47.647  35.283  31.138  1.00  0.00    -0.200 F 
ATOM     94  C   UNL A   1      46.692  36.027  29.110  1.00  0.00     0.200 A 
ATOM     95  F   UNL A   1      45.698  36.735  27.089  1.00  0.00    -0.200 F 
ATOM     96  F   UNL A   1      47.324  37.203  29.228  1.00  0.00    -0.200 F 
ENDBRANCH  63  86
ENDBRANCH  37  38
ENDBRANCH  30  32
ENDBRANCH  29  30
ENDBRANCH  28  29
ENDBRANCH   1  28
TORSDOF 15
ENDMDL
