MODEL 1
REMARK VINA RESULT:     -12.5      0.000      0.000
REMARK SMILES CC1CCN(C(=O)N[C@@H]2C=C[C@H](C(=O)OCCOC(=O)c3ccc(-c4c5nc(c(-c6c(F)c(F)c(F)c(F)c6F)c6ccc([nH]6)c(-c6c(F)c(F)c(F)c(F)c6F)c6nc(c(-c7c(F)c(F)c(F)c(F)c7F)c7ccc4[nH]7)C=C6)C=C5)cc3)C2)CC1
REMARK SMILES IDX 17 1 16 2 15 3 13 4 14 5 12 6 9 7 10 8 84 9 11 10 8 11 1 12
REMARK SMILES IDX 2 13 3 14 86 15 4 16 85 17 5 18 6 19 7 20 18 22 19 23 20 24
REMARK SMILES IDX 21 25 22 26 83 27 23 28 82 29 24 30 25 31 26 32 76 33 27 34
REMARK SMILES IDX 81 35 75 36 77 37 28 38 80 39 74 40 73 41 29 43 61 44 41 45
REMARK SMILES IDX 60 46 42 47 45 48 59 49 78 50 43 51 44 52 58 54 79 55 46 56
REMARK SMILES IDX 30 57 31 58 39 59 32 60 33 61 37 62 40 63 34 64 35 65 38 66
REMARK SMILES IDX 36 67 62 68 63 69 71 70 64 71 65 72 69 73 72 74 66 75 67 76
REMARK SMILES IDX 70 77 68 78 47 79 48 80 56 81 49 82 50 83 54 84 57 85 51 86
REMARK SMILES IDX 52 87 55 88 53 89
REMARK H PARENT 8 21 77 42 45 53
REMARK Flexibility Score: inf
ROOT
ATOM      1  C   UNL A   1      31.127  30.488  25.249  1.00  0.00     0.275 C 
ENDROOT
BRANCH   1   2
ATOM      2  C   UNL A   1      30.660  29.327  24.250  1.00  0.00     0.274 C 
BRANCH   2   3
ATOM      3  O   UNL A   1      31.216  29.313  22.870  1.00  0.00    -0.462 OA
BRANCH   3   4
ATOM      4  C   UNL A   1      31.478  28.075  22.291  1.00  0.00     0.312 C 
ATOM      5  O   UNL A   1      30.608  27.430  21.714  1.00  0.00    -0.252 OA
BRANCH   4   6
ATOM      6  C   UNL A   1      32.946  27.526  22.522  1.00  0.00     0.124 C 
ATOM      7  C   UNL A   1      33.770  26.924  24.838  1.00  0.00     0.107 C 
ATOM      8  C   UNL A   1      34.344  28.215  24.341  1.00  0.00    -0.006 C 
ATOM      9  C   UNL A   1      33.259  26.373  23.502  1.00  0.00     0.048 C 
ATOM     10  C   UNL A   1      33.884  28.555  23.124  1.00  0.00    -0.014 C 
BRANCH   7  11
ATOM     11  N   UNL A   1      32.871  27.284  25.919  1.00  0.00    -0.332 N 
ATOM     12  C   UNL A   1      31.438  23.213  22.950  1.00  0.00     0.008 C 
ATOM     13  C   UNL A   1      30.985  23.528  24.388  1.00  0.00    -0.011 C 
ATOM     14  C   UNL A   1      30.367  24.898  24.688  1.00  0.00     0.025 C 
ATOM     15  C   UNL A   1      32.061  23.136  25.419  1.00  0.00     0.025 C 
ATOM     16  C   UNL A   1      30.278  25.228  26.150  1.00  0.00     0.121 C 
ATOM     17  C   UNL A   1      32.483  24.197  26.466  1.00  0.00     0.121 C 
ATOM     18  N   UNL A   1      31.647  25.382  26.535  1.00  0.00    -0.325 N 
ATOM     19  C   UNL A   1      32.027  26.663  26.763  1.00  0.00     0.317 C 
ATOM     20  O   UNL A   1      31.439  27.366  27.590  1.00  0.00    -0.249 OA
ATOM     21  H   UNL A   1      32.882  28.254  26.081  1.00  0.00     0.165 HD
ENDBRANCH   7  11
ENDBRANCH   4   6
ENDBRANCH   3   4
ENDBRANCH   2   3
ENDBRANCH   1   2
BRANCH   1  22
ATOM     22  O   UNL A   1      32.341  30.211  26.058  1.00  0.00    -0.458 OA
BRANCH  22  23
ATOM     23  C   UNL A   1      32.865  31.228  26.824  1.00  0.00     0.338 C 
ATOM     24  O   UNL A   1      32.260  32.229  27.163  1.00  0.00    -0.246 OA
BRANCH  23  25
ATOM     25  C   UNL A   1      34.207  30.868  27.433  1.00  0.00     0.060 A 
ATOM     26  C   UNL A   1      35.096  31.907  27.753  1.00  0.00     0.016 A 
ATOM     27  C   UNL A   1      34.623  29.570  27.729  1.00  0.00     0.016 A 
ATOM     28  C   UNL A   1      36.225  31.692  28.566  1.00  0.00     0.010 A 
ATOM     29  C   UNL A   1      35.847  29.342  28.420  1.00  0.00     0.010 A 
ATOM     30  C   UNL A   1      36.642  30.400  28.909  1.00  0.00    -0.014 A 
BRANCH  30  31
ATOM     31  C   UNL A   1      37.900  30.175  29.715  1.00  0.00     0.031 A 
ATOM     32  C   UNL A   1      39.026  29.305  29.187  1.00  0.00     0.074 A 
ATOM     33  C   UNL A   1      38.114  30.784  30.904  1.00  0.00     0.049 A 
ATOM     34  N   UNL A   1      40.134  28.917  29.781  1.00  0.00    -0.248 NA
ATOM     35  C   UNL A   1      38.918  28.841  27.797  1.00  0.00     0.031 C 
ATOM     36  C   UNL A   1      37.263  31.812  31.501  1.00  0.00     0.029 A 
ATOM     37  N   UNL A   1      39.134  30.631  31.828  1.00  0.00    -0.354 N 
ATOM     38  C   UNL A   1      40.848  28.190  28.836  1.00  0.00     0.074 A 
ATOM     39  C   UNL A   1      40.072  28.217  27.617  1.00  0.00     0.031 C 
ATOM     40  C   UNL A   1      37.766  32.160  32.701  1.00  0.00     0.029 A 
ATOM     41  C   UNL A   1      38.953  31.355  32.985  1.00  0.00     0.049 A 
ATOM     42  H   UNL A   1      39.918  30.056  31.670  1.00  0.00     0.167 HD
ATOM     43  C   UNL A   1      42.019  27.519  28.960  1.00  0.00     0.037 A 
ATOM     44  C   UNL A   1      39.630  31.344  34.156  1.00  0.00     0.037 A 
ATOM     45  C   UNL A   1      42.774  27.381  30.175  1.00  0.00     0.049 A 
ATOM     46  C   UNL A   1      40.825  30.435  34.344  1.00  0.00     0.074 A 
ATOM     47  C   UNL A   1      43.887  26.591  30.416  1.00  0.00     0.029 A 
ATOM     48  N   UNL A   1      42.485  28.035  31.359  1.00  0.00    -0.354 N 
ATOM     49  N   UNL A   1      41.425  29.663  33.472  1.00  0.00    -0.248 NA
ATOM     50  C   UNL A   1      41.423  30.380  35.691  1.00  0.00     0.031 C 
ATOM     51  C   UNL A   1      44.247  26.737  31.760  1.00  0.00     0.029 A 
ATOM     52  C   UNL A   1      43.386  27.652  32.340  1.00  0.00     0.049 A 
ATOM     53  H   UNL A   1      41.749  28.676  31.485  1.00  0.00     0.167 HD
ATOM     54  C   UNL A   1      42.471  29.050  34.155  1.00  0.00     0.074 A 
ATOM     55  C   UNL A   1      42.440  29.547  35.512  1.00  0.00     0.031 C 
ATOM     56  C   UNL A   1      43.371  28.149  33.691  1.00  0.00     0.037 A 
BRANCH  43  57
ATOM     57  C   UNL A   1      42.493  26.780  27.746  1.00  0.00     0.064 A 
ATOM     58  C   UNL A   1      42.083  25.467  27.475  1.00  0.00     0.173 A 
ATOM     59  C   UNL A   1      43.406  27.383  26.867  1.00  0.00     0.173 A 
ATOM     60  F   UNL A   1      41.232  24.842  28.303  1.00  0.00    -0.203 F 
ATOM     61  C   UNL A   1      42.595  24.772  26.383  1.00  0.00     0.198 A 
ATOM     62  C   UNL A   1      43.899  26.693  25.766  1.00  0.00     0.198 A 
ATOM     63  F   UNL A   1      43.830  28.636  27.090  1.00  0.00    -0.203 F 
ATOM     64  F   UNL A   1      42.236  23.499  26.172  1.00  0.00    -0.200 F 
ATOM     65  C   UNL A   1      43.502  25.386  25.530  1.00  0.00     0.200 A 
ATOM     66  F   UNL A   1      44.775  27.287  24.943  1.00  0.00    -0.200 F 
ATOM     67  F   UNL A   1      44.008  24.709  24.489  1.00  0.00    -0.200 F 
ENDBRANCH  43  57
BRANCH  44  68
ATOM     68  C   UNL A   1      39.151  32.160  35.311  1.00  0.00     0.064 A 
ATOM     69  C   UNL A   1      39.569  33.486  35.498  1.00  0.00     0.173 A 
ATOM     70  C   UNL A   1      38.335  31.592  36.302  1.00  0.00     0.173 A 
ATOM     71  F   UNL A   1      40.398  34.059  34.612  1.00  0.00    -0.203 F 
ATOM     72  C   UNL A   1      39.199  34.206  36.634  1.00  0.00     0.198 A 
ATOM     73  C   UNL A   1      37.942  32.322  37.423  1.00  0.00     0.198 A 
ATOM     74  F   UNL A   1      37.936  30.316  36.194  1.00  0.00    -0.203 F 
ATOM     75  F   UNL A   1      39.665  35.449  36.819  1.00  0.00    -0.200 F 
ATOM     76  C   UNL A   1      38.381  33.626  37.592  1.00  0.00     0.200 A 
ATOM     77  F   UNL A   1      37.161  31.753  38.350  1.00  0.00    -0.200 F 
ATOM     78  F   UNL A   1      38.037  34.313  38.690  1.00  0.00    -0.200 F 
ENDBRANCH  44  68
BRANCH  56  79
ATOM     79  C   UNL A   1      44.422  27.644  34.637  1.00  0.00     0.064 A 
ATOM     80  C   UNL A   1      44.238  26.473  35.385  1.00  0.00     0.173 A 
ATOM     81  C   UNL A   1      45.658  28.302  34.743  1.00  0.00     0.173 A 
ATOM     82  F   UNL A   1      43.072  25.812  35.326  1.00  0.00    -0.203 F 
ATOM     83  C   UNL A   1      45.247  25.983  36.210  1.00  0.00     0.198 A 
ATOM     84  C   UNL A   1      46.672  27.799  35.554  1.00  0.00     0.198 A 
ATOM     85  F   UNL A   1      45.889  29.424  34.044  1.00  0.00    -0.203 F 
ATOM     86  F   UNL A   1      45.040  24.874  36.935  1.00  0.00    -0.200 F 
ATOM     87  C   UNL A   1      46.466  26.641  36.289  1.00  0.00     0.200 A 
ATOM     88  F   UNL A   1      47.852  28.430  35.618  1.00  0.00    -0.200 F 
ATOM     89  F   UNL A   1      47.440  26.163  37.075  1.00  0.00    -0.200 F 
ENDBRANCH  56  79
ENDBRANCH  30  31
ENDBRANCH  23  25
ENDBRANCH  22  23
ENDBRANCH   1  22
TORSDOF 12
ENDMDL
MODEL 2
REMARK VINA RESULT:     -12.5      4.399      9.655
REMARK SMILES CC1CCN(C(=O)N[C@@H]2C=C[C@H](C(=O)OCCOC(=O)c3ccc(-c4c5nc(c(-c6c(F)c(F)c(F)c(F)c6F)c6ccc([nH]6)c(-c6c(F)c(F)c(F)c(F)c6F)c6nc(c(-c7c(F)c(F)c(F)c(F)c7F)c7ccc4[nH]7)C=C6)C=C5)cc3)C2)CC1
REMARK SMILES IDX 17 1 16 2 15 3 13 4 14 5 12 6 9 7 10 8 84 9 11 10 8 11 1 12
REMARK SMILES IDX 2 13 3 14 86 15 4 16 85 17 5 18 6 19 7 20 18 22 19 23 20 24
REMARK SMILES IDX 21 25 22 26 83 27 23 28 82 29 24 30 25 31 26 32 76 33 27 34
REMARK SMILES IDX 81 35 75 36 77 37 28 38 80 39 74 40 73 41 29 43 61 44 41 45
REMARK SMILES IDX 60 46 42 47 45 48 59 49 78 50 43 51 44 52 58 54 79 55 46 56
REMARK SMILES IDX 30 57 31 58 39 59 32 60 33 61 37 62 40 63 34 64 35 65 38 66
REMARK SMILES IDX 36 67 62 68 63 69 71 70 64 71 65 72 69 73 72 74 66 75 67 76
REMARK SMILES IDX 70 77 68 78 47 79 48 80 56 81 49 82 50 83 54 84 57 85 51 86
REMARK SMILES IDX 52 87 55 88 53 89
REMARK H PARENT 8 21 77 42 45 53
REMARK Flexibility Score: inf
ROOT
ATOM      1  C   UNL A   1      35.852  21.023  25.655  1.00  0.00     0.275 C 
ENDROOT
BRANCH   1   2
ATOM      2  C   UNL A   1      34.547  21.826  25.192  1.00  0.00     0.274 C 
BRANCH   2   3
ATOM      3  O   UNL A   1      34.721  23.170  24.578  1.00  0.00    -0.462 OA
BRANCH   3   4
ATOM      4  C   UNL A   1      34.857  23.237  23.195  1.00  0.00     0.312 C 
ATOM      5  O   UNL A   1      35.956  23.218  22.648  1.00  0.00    -0.252 OA
BRANCH   4   6
ATOM      6  C   UNL A   1      33.504  23.441  22.398  1.00  0.00     0.124 C 
ATOM      7  C   UNL A   1      31.342  23.975  23.603  1.00  0.00     0.107 C 
ATOM      8  C   UNL A   1      31.398  22.557  23.123  1.00  0.00    -0.006 C 
ATOM      9  C   UNL A   1      32.485  24.547  22.755  1.00  0.00     0.048 C 
ATOM     10  C   UNL A   1      32.557  22.260  22.511  1.00  0.00    -0.014 C 
BRANCH   7  11
ATOM     11  N   UNL A   1      31.416  23.903  25.050  1.00  0.00    -0.332 N 
ATOM     12  C   UNL A   1      33.671  28.063  22.804  1.00  0.00     0.008 C 
ATOM     13  C   UNL A   1      33.174  27.939  24.256  1.00  0.00    -0.011 C 
ATOM     14  C   UNL A   1      33.690  26.783  25.121  1.00  0.00     0.025 C 
ATOM     15  C   UNL A   1      31.643  28.094  24.346  1.00  0.00     0.025 C 
ATOM     16  C   UNL A   1      32.903  26.554  26.379  1.00  0.00     0.121 C 
ATOM     17  C   UNL A   1      30.848  27.010  25.115  1.00  0.00     0.121 C 
ATOM     18  N   UNL A   1      31.644  26.078  25.894  1.00  0.00    -0.325 N 
ATOM     19  C   UNL A   1      31.428  24.754  26.092  1.00  0.00     0.317 C 
ATOM     20  O   UNL A   1      31.481  24.261  27.222  1.00  0.00    -0.249 OA
ATOM     21  H   UNL A   1      31.471  22.969  25.356  1.00  0.00     0.165 HD
ENDBRANCH   7  11
ENDBRANCH   4   6
ENDBRANCH   3   4
ENDBRANCH   2   3
ENDBRANCH   1   2
BRANCH   1  22
ATOM     22  O   UNL A   1      37.124  21.390  24.982  1.00  0.00    -0.458 OA
BRANCH  22  23
ATOM     23  C   UNL A   1      38.309  21.138  25.636  1.00  0.00     0.338 C 
ATOM     24  O   UNL A   1      38.912  20.080  25.605  1.00  0.00    -0.246 OA
BRANCH  23  25
ATOM     25  C   UNL A   1      38.942  22.395  26.203  1.00  0.00     0.060 A 
ATOM     26  C   UNL A   1      40.141  22.273  26.922  1.00  0.00     0.016 A 
ATOM     27  C   UNL A   1      38.431  23.683  26.043  1.00  0.00     0.016 A 
ATOM     28  C   UNL A   1      40.933  23.395  27.237  1.00  0.00     0.010 A 
ATOM     29  C   UNL A   1      39.165  24.815  26.501  1.00  0.00     0.010 A 
ATOM     30  C   UNL A   1      40.460  24.698  27.049  1.00  0.00    -0.014 A 
BRANCH  30  31
ATOM     31  C   UNL A   1      41.284  25.895  27.464  1.00  0.00     0.031 A 
ATOM     32  C   UNL A   1      40.691  26.999  28.321  1.00  0.00     0.074 A 
ATOM     33  C   UNL A   1      42.596  26.009  27.155  1.00  0.00     0.049 A 
ATOM     34  N   UNL A   1      41.216  28.148  28.687  1.00  0.00    -0.248 NA
ATOM     35  C   UNL A   1      39.349  26.770  28.872  1.00  0.00     0.031 C 
ATOM     36  C   UNL A   1      43.415  24.979  26.519  1.00  0.00     0.029 A 
ATOM     37  N   UNL A   1      43.483  27.055  27.348  1.00  0.00    -0.354 N 
ATOM     38  C   UNL A   1      40.283  28.755  29.518  1.00  0.00     0.074 A 
ATOM     39  C   UNL A   1      39.171  27.838  29.634  1.00  0.00     0.031 C 
ATOM     40  C   UNL A   1      44.661  25.456  26.333  1.00  0.00     0.029 A 
ATOM     41  C   UNL A   1      44.727  26.842  26.797  1.00  0.00     0.049 A 
ATOM     42  H   UNL A   1      43.244  27.877  27.834  1.00  0.00     0.167 HD
ATOM     43  C   UNL A   1      40.306  29.977  30.104  1.00  0.00     0.037 A 
ATOM     44  C   UNL A   1      45.784  27.671  26.639  1.00  0.00     0.037 A 
ATOM     45  C   UNL A   1      41.340  30.960  29.938  1.00  0.00     0.049 A 
ATOM     46  C   UNL A   1      45.717  29.101  27.128  1.00  0.00     0.074 A 
ATOM     47  C   UNL A   1      41.362  32.274  30.375  1.00  0.00     0.029 A 
ATOM     48  N   UNL A   1      42.531  30.742  29.268  1.00  0.00    -0.354 N 
ATOM     49  N   UNL A   1      44.777  29.700  27.815  1.00  0.00    -0.248 NA
ATOM     50  C   UNL A   1      46.854  29.979  26.796  1.00  0.00     0.031 C 
ATOM     51  C   UNL A   1      42.551  32.865  29.932  1.00  0.00     0.029 A 
ATOM     52  C   UNL A   1      43.287  31.904  29.262  1.00  0.00     0.049 A 
ATOM     53  H   UNL A   1      42.800  29.890  28.856  1.00  0.00     0.167 HD
ATOM     54  C   UNL A   1      45.214  31.007  28.011  1.00  0.00     0.074 A 
ATOM     55  C   UNL A   1      46.511  31.117  27.384  1.00  0.00     0.031 C 
ATOM     56  C   UNL A   1      44.584  32.022  28.650  1.00  0.00     0.037 A 
BRANCH  43  57
ATOM     57  C   UNL A   1      39.095  30.354  30.904  1.00  0.00     0.064 A 
ATOM     58  C   UNL A   1      37.980  30.960  30.309  1.00  0.00     0.173 A 
ATOM     59  C   UNL A   1      39.074  30.143  32.291  1.00  0.00     0.173 A 
ATOM     60  F   UNL A   1      37.968  31.205  28.990  1.00  0.00    -0.203 F 
ATOM     61  C   UNL A   1      36.897  31.372  31.082  1.00  0.00     0.198 A 
ATOM     62  C   UNL A   1      37.982  30.537  33.056  1.00  0.00     0.198 A 
ATOM     63  F   UNL A   1      40.121  29.571  32.903  1.00  0.00    -0.203 F 
ATOM     64  F   UNL A   1      35.865  32.002  30.505  1.00  0.00    -0.200 F 
ATOM     65  C   UNL A   1      36.899  31.160  32.453  1.00  0.00     0.200 A 
ATOM     66  F   UNL A   1      37.986  30.332  34.380  1.00  0.00    -0.200 F 
ATOM     67  F   UNL A   1      35.864  31.574  33.198  1.00  0.00    -0.200 F 
ENDBRANCH  43  57
BRANCH  44  68
ATOM     68  C   UNL A   1      46.995  27.214  25.896  1.00  0.00     0.064 A 
ATOM     69  C   UNL A   1      48.072  26.601  26.553  1.00  0.00     0.173 A 
ATOM     70  C   UNL A   1      47.135  27.469  24.523  1.00  0.00     0.173 A 
ATOM     71  F   UNL A   1      48.016  26.387  27.877  1.00  0.00    -0.203 F 
ATOM     72  C   UNL A   1      49.242  26.271  25.869  1.00  0.00     0.198 A 
ATOM     73  C   UNL A   1      48.293  27.113  23.834  1.00  0.00     0.198 A 
ATOM     74  F   UNL A   1      46.152  28.088  23.851  1.00  0.00    -0.203 F 
ATOM     75  F   UNL A   1      50.281  25.745  26.533  1.00  0.00    -0.200 F 
ATOM     76  C   UNL A   1      49.349  26.522  24.509  1.00  0.00     0.200 A 
ATOM     77  F   UNL A   1      48.395  27.368  22.523  1.00  0.00    -0.200 F 
ATOM     78  F   UNL A   1      50.479  26.218  23.854  1.00  0.00    -0.200 F 
ENDBRANCH  44  68
BRANCH  56  79
ATOM     79  C   UNL A   1      45.283  33.348  28.736  1.00  0.00     0.064 A 
ATOM     80  C   UNL A   1      45.069  34.356  27.785  1.00  0.00     0.173 A 
ATOM     81  C   UNL A   1      46.122  33.640  29.824  1.00  0.00     0.173 A 
ATOM     82  F   UNL A   1      44.284  34.125  26.723  1.00  0.00    -0.203 F 
ATOM     83  C   UNL A   1      45.677  35.603  27.914  1.00  0.00     0.198 A 
ATOM     84  C   UNL A   1      46.712  34.895  29.959  1.00  0.00     0.198 A 
ATOM     85  F   UNL A   1      46.355  32.714  30.766  1.00  0.00    -0.203 F 
ATOM     86  F   UNL A   1      45.478  36.544  26.979  1.00  0.00    -0.200 F 
ATOM     87  C   UNL A   1      46.491  35.875  29.003  1.00  0.00     0.200 A 
ATOM     88  F   UNL A   1      47.488  35.158  31.019  1.00  0.00    -0.200 F 
ATOM     89  F   UNL A   1      47.065  37.079  29.131  1.00  0.00    -0.200 F 
ENDBRANCH  56  79
ENDBRANCH  30  31
ENDBRANCH  23  25
ENDBRANCH  22  23
ENDBRANCH   1  22
TORSDOF 12
ENDMDL
MODEL 3
REMARK VINA RESULT:     -12.4      4.128      9.986
REMARK SMILES CC1CCN(C(=O)N[C@@H]2C=C[C@H](C(=O)OCCOC(=O)c3ccc(-c4c5nc(c(-c6c(F)c(F)c(F)c(F)c6F)c6ccc([nH]6)c(-c6c(F)c(F)c(F)c(F)c6F)c6nc(c(-c7c(F)c(F)c(F)c(F)c7F)c7ccc4[nH]7)C=C6)C=C5)cc3)C2)CC1
REMARK SMILES IDX 17 1 16 2 15 3 13 4 14 5 12 6 9 7 10 8 84 9 11 10 8 11 1 12
REMARK SMILES IDX 2 13 3 14 86 15 4 16 85 17 5 18 6 19 7 20 18 22 19 23 20 24
REMARK SMILES IDX 21 25 22 26 83 27 23 28 82 29 24 30 25 31 26 32 76 33 27 34
REMARK SMILES IDX 81 35 75 36 77 37 28 38 80 39 74 40 73 41 29 43 61 44 41 45
REMARK SMILES IDX 60 46 42 47 45 48 59 49 78 50 43 51 44 52 58 54 79 55 46 56
REMARK SMILES IDX 30 57 31 58 39 59 32 60 33 61 37 62 40 63 34 64 35 65 38 66
REMARK SMILES IDX 36 67 62 68 63 69 71 70 64 71 65 72 69 73 72 74 66 75 67 76
REMARK SMILES IDX 70 77 68 78 47 79 48 80 56 81 49 82 50 83 54 84 57 85 51 86
REMARK SMILES IDX 52 87 55 88 53 89
REMARK H PARENT 8 21 77 42 45 53
REMARK Flexibility Score: inf
ROOT
ATOM      1  C   UNL A   1      33.676  33.230  28.068  1.00  0.00     0.275 C 
ENDROOT
BRANCH   1   2
ATOM      2  C   UNL A   1      33.969  34.316  29.208  1.00  0.00     0.274 C 
BRANCH   2   3
ATOM      3  O   UNL A   1      32.899  34.612  30.198  1.00  0.00    -0.462 OA
BRANCH   3   4
ATOM      4  C   UNL A   1      33.052  35.740  30.998  1.00  0.00     0.312 C 
ATOM      5  O   UNL A   1      32.964  36.877  30.543  1.00  0.00    -0.252 OA
BRANCH   4   6
ATOM      6  C   UNL A   1      33.446  35.445  32.503  1.00  0.00     0.124 C 
ATOM      7  C   UNL A   1      35.841  34.951  33.157  1.00  0.00     0.107 C 
ATOM      8  C   UNL A   1      34.982  33.725  33.154  1.00  0.00    -0.006 C 
ATOM      9  C   UNL A   1      34.730  36.008  33.155  1.00  0.00     0.048 C 
ATOM     10  C   UNL A   1      33.717  33.977  32.776  1.00  0.00    -0.014 C 
BRANCH   7  11
ATOM     11  N   UNL A   1      36.758  34.792  32.044  1.00  0.00    -0.332 N 
ATOM     12  C   UNL A   1      38.855  34.601  36.841  1.00  0.00     0.008 C 
ATOM     13  C   UNL A   1      39.438  34.015  35.542  1.00  0.00    -0.011 C 
ATOM     14  C   UNL A   1      39.626  34.937  34.331  1.00  0.00     0.025 C 
ATOM     15  C   UNL A   1      38.753  32.688  35.161  1.00  0.00     0.025 C 
ATOM     16  C   UNL A   1      39.871  34.215  33.038  1.00  0.00     0.121 C 
ATOM     17  C   UNL A   1      38.211  32.540  33.717  1.00  0.00     0.121 C 
ATOM     18  N   UNL A   1      38.619  33.571  32.781  1.00  0.00    -0.325 N 
ATOM     19  C   UNL A   1      37.897  34.125  31.777  1.00  0.00     0.317 C 
ATOM     20  O   UNL A   1      38.368  34.249  30.643  1.00  0.00    -0.249 OA
ATOM     21  H   UNL A   1      36.466  35.318  31.266  1.00  0.00     0.165 HD
ENDBRANCH   7  11
ENDBRANCH   4   6
ENDBRANCH   3   4
ENDBRANCH   2   3
ENDBRANCH   1   2
BRANCH   1  22
ATOM     22  O   UNL A   1      34.821  32.375  27.664  1.00  0.00    -0.458 OA
BRANCH  22  23
ATOM     23  C   UNL A   1      34.651  31.008  27.666  1.00  0.00     0.338 C 
ATOM     24  O   UNL A   1      33.712  30.421  27.159  1.00  0.00    -0.246 OA
BRANCH  23  25
ATOM     25  C   UNL A   1      35.886  30.267  28.142  1.00  0.00     0.060 A 
ATOM     26  C   UNL A   1      36.961  30.120  27.251  1.00  0.00     0.016 A 
ATOM     27  C   UNL A   1      36.050  29.736  29.421  1.00  0.00     0.016 A 
ATOM     28  C   UNL A   1      38.233  29.702  27.689  1.00  0.00     0.010 A 
ATOM     29  C   UNL A   1      37.297  29.172  29.817  1.00  0.00     0.010 A 
ATOM     30  C   UNL A   1      38.433  29.201  28.980  1.00  0.00    -0.014 A 
BRANCH  30  31
ATOM     31  C   UNL A   1      39.783  28.682  29.415  1.00  0.00     0.031 A 
ATOM     32  C   UNL A   1      40.648  29.460  30.391  1.00  0.00     0.074 A 
ATOM     33  C   UNL A   1      40.256  27.478  29.016  1.00  0.00     0.049 A 
ATOM     34  N   UNL A   1      41.876  29.219  30.797  1.00  0.00    -0.248 NA
ATOM     35  C   UNL A   1      40.045  30.640  31.025  1.00  0.00     0.031 C 
ATOM     36  C   UNL A   1      39.512  26.481  28.249  1.00  0.00     0.029 A 
ATOM     37  N   UNL A   1      41.489  26.880  29.215  1.00  0.00    -0.354 N 
ATOM     38  C   UNL A   1      42.173  30.199  31.737  1.00  0.00     0.074 A 
ATOM     39  C   UNL A   1      40.990  31.019  31.871  1.00  0.00     0.031 C 
ATOM     40  C   UNL A   1      40.310  25.425  28.004  1.00  0.00     0.029 A 
ATOM     41  C   UNL A   1      41.640  25.679  28.559  1.00  0.00     0.049 A 
ATOM     42  H   UNL A   1      42.194  27.278  29.776  1.00  0.00     0.167 HD
ATOM     43  C   UNL A   1      43.327  30.440  32.405  1.00  0.00     0.037 A 
ATOM     44  C   UNL A   1      42.726  24.893  28.380  1.00  0.00     0.037 A 
ATOM     45  C   UNL A   1      44.556  29.716  32.231  1.00  0.00     0.049 A 
ATOM     46  C   UNL A   1      44.062  25.284  28.973  1.00  0.00     0.074 A 
ATOM     47  C   UNL A   1      45.807  29.997  32.757  1.00  0.00     0.029 A 
ATOM     48  N   UNL A   1      44.695  28.577  31.459  1.00  0.00    -0.354 N 
ATOM     49  N   UNL A   1      44.356  26.280  29.770  1.00  0.00    -0.248 NA
ATOM     50  C   UNL A   1      45.224  24.449  28.618  1.00  0.00     0.031 C 
ATOM     51  C   UNL A   1      46.712  29.048  32.269  1.00  0.00     0.029 A 
ATOM     52  C   UNL A   1      46.014  28.152  31.478  1.00  0.00     0.049 A 
ATOM     53  H   UNL A   1      43.965  28.134  30.969  1.00  0.00     0.167 HD
ATOM     54  C   UNL A   1      45.720  26.181  30.025  1.00  0.00     0.074 A 
ATOM     55  C   UNL A   1      46.201  25.020  29.311  1.00  0.00     0.031 C 
ATOM     56  C   UNL A   1      46.501  26.991  30.780  1.00  0.00     0.037 A 
BRANCH  43  57
ATOM     57  C   UNL A   1      43.331  31.628  33.319  1.00  0.00     0.064 A 
ATOM     58  C   UNL A   1      42.902  31.535  34.650  1.00  0.00     0.173 A 
ATOM     59  C   UNL A   1      43.730  32.885  32.837  1.00  0.00     0.173 A 
ATOM     60  F   UNL A   1      42.486  30.360  35.145  1.00  0.00    -0.203 F 
ATOM     61  C   UNL A   1      42.841  32.668  35.458  1.00  0.00     0.198 A 
ATOM     62  C   UNL A   1      43.687  34.009  33.654  1.00  0.00     0.198 A 
ATOM     63  F   UNL A   1      44.143  33.021  31.568  1.00  0.00    -0.203 F 
ATOM     64  F   UNL A   1      42.374  32.571  36.710  1.00  0.00    -0.200 F 
ATOM     65  C   UNL A   1      43.234  33.902  34.960  1.00  0.00     0.200 A 
ATOM     66  F   UNL A   1      44.067  35.200  33.171  1.00  0.00    -0.200 F 
ATOM     67  F   UNL A   1      43.158  34.993  35.734  1.00  0.00    -0.200 F 
ENDBRANCH  43  57
BRANCH  44  68
ATOM     68  C   UNL A   1      42.643  23.678  27.517  1.00  0.00     0.064 A 
ATOM     69  C   UNL A   1      42.262  22.432  28.037  1.00  0.00     0.173 A 
ATOM     70  C   UNL A   1      43.033  23.725  26.169  1.00  0.00     0.173 A 
ATOM     71  F   UNL A   1      41.937  22.318  29.334  1.00  0.00    -0.203 F 
ATOM     72  C   UNL A   1      42.287  21.282  27.247  1.00  0.00     0.198 A 
ATOM     73  C   UNL A   1      43.030  22.581  25.373  1.00  0.00     0.198 A 
ATOM     74  F   UNL A   1      43.442  24.883  25.629  1.00  0.00    -0.203 F 
ATOM     75  F   UNL A   1      41.982  20.093  27.786  1.00  0.00    -0.200 F 
ATOM     76  C   UNL A   1      42.665  21.359  25.915  1.00  0.00     0.200 A 
ATOM     77  F   UNL A   1      43.407  22.659  24.090  1.00  0.00    -0.200 F 
ATOM     78  F   UNL A   1      42.703  20.251  25.160  1.00  0.00    -0.200 F 
ENDBRANCH  44  68
BRANCH  56  79
ATOM     79  C   UNL A   1      47.959  26.656  30.907  1.00  0.00     0.064 A 
ATOM     80  C   UNL A   1      48.426  25.765  31.883  1.00  0.00     0.173 A 
ATOM     81  C   UNL A   1      48.890  27.177  29.995  1.00  0.00     0.173 A 
ATOM     82  F   UNL A   1      47.579  25.245  32.784  1.00  0.00    -0.203 F 
ATOM     83  C   UNL A   1      49.773  25.415  31.948  1.00  0.00     0.198 A 
ATOM     84  C   UNL A   1      50.233  26.810  30.051  1.00  0.00     0.198 A 
ATOM     85  F   UNL A   1      48.495  28.029  29.037  1.00  0.00    -0.203 F 
ATOM     86  F   UNL A   1      50.202  24.579  32.905  1.00  0.00    -0.200 F 
ATOM     87  C   UNL A   1      50.674  25.931  31.028  1.00  0.00     0.200 A 
ATOM     88  F   UNL A   1      51.098  27.301  29.153  1.00  0.00    -0.200 F 
ATOM     89  F   UNL A   1      51.967  25.585  31.085  1.00  0.00    -0.200 F 
ENDBRANCH  56  79
ENDBRANCH  30  31
ENDBRANCH  23  25
ENDBRANCH  22  23
ENDBRANCH   1  22
TORSDOF 12
ENDMDL
