MODEL 1
REMARK VINA RESULT:     -12.3      0.000      0.000
REMARK SMILES COC(=O)c1ccccc1-c1ccc(/C=C(\C#N)C(=O)OCCOC(=O)c2ccc(-c3c4nc(c(-c5c(F)c(F)c(F)c(F)c5F)c5ccc([nH]5)c(-c5c(F)c(F)c(F)c(F)c5F)c5nc(c(-c6c(F)c(F)c(F)c(F)c6F)c6ccc3[nH]6)C=C5)C=C4)cc2)o1
REMARK SMILES IDX 22 1 21 2 19 3 20 4 16 5 15 6 14 7 11 8 12 9 90 10 13 11
REMARK SMILES IDX 10 12 5 13 6 14 7 15 9 16 8 17 3 18 4 19 2 20 1 21 17 22
REMARK SMILES IDX 18 23 23 24 24 25 25 26 26 27 27 28 28 29 89 30 29 31 88 32
REMARK SMILES IDX 30 33 31 34 32 35 82 36 33 37 87 38 81 39 83 40 34 41 86 42
REMARK SMILES IDX 80 43 79 44 35 46 67 47 47 48 66 49 48 50 51 51 65 52 84 53
REMARK SMILES IDX 49 54 50 55 64 57 85 58 52 59 36 60 37 61 45 62 38 63 39 64
REMARK SMILES IDX 43 65 46 66 40 67 41 68 44 69 42 70 68 71 69 72 77 73 70 74
REMARK SMILES IDX 71 75 75 76 78 77 72 78 73 79 76 80 74 81 53 82 54 83 62 84
REMARK SMILES IDX 55 85 56 86 60 87 63 88 57 89 58 90 61 91 59 92
REMARK H PARENT 83 45 51 56
REMARK Flexibility Score: inf
ROOT
ATOM      1  C   UNL A   1      31.853  28.733  25.183  1.00  0.00     0.275 C 
ENDROOT
BRANCH   1   2
ATOM      2  O   UNL A   1      31.641  28.671  23.759  1.00  0.00    -0.458 OA
BRANCH   2   3
ATOM      3  C   UNL A   1      30.656  27.838  23.352  1.00  0.00     0.349 C 
ATOM      4  O   UNL A   1      29.461  28.097  23.315  1.00  0.00    -0.245 OA
BRANCH   3   5
ATOM      5  C   UNL A   1      31.210  26.543  22.922  1.00  0.00     0.141 C 
ATOM      6  C   UNL A   1      30.875  25.419  23.589  1.00  0.00     0.074 C 
BRANCH   6   7
ATOM      7  C   UNL A   1      31.551  24.162  23.492  1.00  0.00     0.129 A 
ATOM      8  C   UNL A   1      33.161  22.623  23.640  1.00  0.00     0.135 A 
ATOM      9  C   UNL A   1      32.049  21.967  23.165  1.00  0.00     0.051 A 
ATOM     10  O   UNL A   1      32.862  23.934  23.847  1.00  0.00    -0.457 OA
ATOM     11  C   UNL A   1      31.029  22.943  23.067  1.00  0.00     0.051 A 
BRANCH   8  12
ATOM     12  C   UNL A   1      34.533  22.220  23.929  1.00  0.00     0.032 A 
ATOM     13  C   UNL A   1      34.851  21.146  24.781  1.00  0.00     0.071 A 
ATOM     14  C   UNL A   1      36.189  20.869  25.114  1.00  0.00     0.016 A 
ATOM     15  C   UNL A   1      37.219  21.644  24.585  1.00  0.00     0.001 A 
ATOM     16  C   UNL A   1      35.590  22.978  23.393  1.00  0.00     0.013 A 
ATOM     17  C   UNL A   1      36.920  22.694  23.721  1.00  0.00     0.001 A 
BRANCH  13  18
ATOM     18  C   UNL A   1      33.826  20.275  25.401  1.00  0.00     0.338 C 
ATOM     19  O   UNL A   1      33.219  20.571  26.416  1.00  0.00    -0.246 OA
BRANCH  18  20
ATOM     20  O   UNL A   1      33.710  19.119  24.702  1.00  0.00    -0.465 OA
ATOM     21  C   UNL A   1      32.855  18.153  25.307  1.00  0.00     0.282 C 
ENDBRANCH  18  20
ENDBRANCH  13  18
ENDBRANCH   8  12
ENDBRANCH   6   7
BRANCH   5  22
ATOM     22  C   UNL A   1      32.526  26.593  22.165  1.00  0.00     0.107 C 
ATOM     23  N   UNL A   1      33.619  26.634  21.537  1.00  0.00    -0.192 NA
ENDBRANCH   5  22
ENDBRANCH   3   5
ENDBRANCH   2   3
ENDBRANCH   1   2
BRANCH   1  24
ATOM     24  C   UNL A   1      31.877  30.187  25.652  1.00  0.00     0.275 C 
BRANCH  24  25
ATOM     25  O   UNL A   1      32.492  30.280  26.952  1.00  0.00    -0.458 OA
BRANCH  25  26
ATOM     26  C   UNL A   1      33.146  31.437  27.209  1.00  0.00     0.338 C 
ATOM     27  O   UNL A   1      32.692  32.566  27.192  1.00  0.00    -0.246 OA
BRANCH  26  28
ATOM     28  C   UNL A   1      34.528  31.160  27.643  1.00  0.00     0.060 A 
ATOM     29  C   UNL A   1      34.879  29.855  27.958  1.00  0.00     0.016 A 
ATOM     30  C   UNL A   1      35.408  32.194  27.940  1.00  0.00     0.016 A 
ATOM     31  C   UNL A   1      36.014  29.587  28.715  1.00  0.00     0.010 A 
ATOM     32  C   UNL A   1      36.635  31.902  28.553  1.00  0.00     0.010 A 
ATOM     33  C   UNL A   1      36.935  30.600  28.999  1.00  0.00    -0.014 A 
BRANCH  33  34
ATOM     34  C   UNL A   1      38.169  30.301  29.786  1.00  0.00     0.031 A 
ATOM     35  C   UNL A   1      39.264  29.456  29.184  1.00  0.00     0.074 A 
ATOM     36  C   UNL A   1      38.340  30.794  31.032  1.00  0.00     0.049 A 
ATOM     37  N   UNL A   1      40.274  28.866  29.770  1.00  0.00    -0.248 NA
ATOM     38  C   UNL A   1      39.202  29.230  27.731  1.00  0.00     0.031 C 
ATOM     39  C   UNL A   1      37.413  31.684  31.735  1.00  0.00     0.029 A 
ATOM     40  N   UNL A   1      39.368  30.622  31.932  1.00  0.00    -0.354 N 
ATOM     41  C   UNL A   1      40.911  28.127  28.779  1.00  0.00     0.074 A 
ATOM     42  C   UNL A   1      40.184  28.358  27.549  1.00  0.00     0.031 C 
ATOM     43  C   UNL A   1      37.935  32.024  32.922  1.00  0.00     0.029 A 
ATOM     44  C   UNL A   1      39.168  31.276  33.125  1.00  0.00     0.049 A 
ATOM     45  H   UNL A   1      40.168  30.083  31.739  1.00  0.00     0.167 HD
ATOM     46  C   UNL A   1      41.995  27.323  28.893  1.00  0.00     0.037 A 
ATOM     47  C   UNL A   1      39.855  31.232  34.283  1.00  0.00     0.037 A 
ATOM     48  C   UNL A   1      42.764  27.165  30.100  1.00  0.00     0.049 A 
ATOM     49  C   UNL A   1      41.041  30.319  34.392  1.00  0.00     0.074 A 
ATOM     50  C   UNL A   1      43.887  26.384  30.314  1.00  0.00     0.029 A 
ATOM     51  N   UNL A   1      42.503  27.824  31.293  1.00  0.00    -0.354 N 
ATOM     52  N   UNL A   1      41.573  29.542  33.481  1.00  0.00    -0.248 NA
ATOM     53  C   UNL A   1      41.702  30.249  35.703  1.00  0.00     0.031 C 
ATOM     54  C   UNL A   1      44.288  26.548  31.644  1.00  0.00     0.029 A 
ATOM     55  C   UNL A   1      43.440  27.463  32.247  1.00  0.00     0.049 A 
ATOM     56  H   UNL A   1      41.762  28.455  31.438  1.00  0.00     0.167 HD
ATOM     57  C   UNL A   1      42.632  28.897  34.102  1.00  0.00     0.074 A 
ATOM     58  C   UNL A   1      42.684  29.391  35.462  1.00  0.00     0.031 C 
ATOM     59  C   UNL A   1      43.479  27.970  33.594  1.00  0.00     0.037 A 
BRANCH  46  60
ATOM     60  C   UNL A   1      42.392  26.512  27.693  1.00  0.00     0.064 A 
ATOM     61  C   UNL A   1      43.390  26.931  26.802  1.00  0.00     0.173 A 
ATOM     62  C   UNL A   1      41.782  25.269  27.456  1.00  0.00     0.173 A 
ATOM     63  F   UNL A   1      43.992  28.117  26.973  1.00  0.00    -0.203 F 
ATOM     64  C   UNL A   1      43.745  26.147  25.705  1.00  0.00     0.198 A 
ATOM     65  C   UNL A   1      42.160  24.475  26.377  1.00  0.00     0.198 A 
ATOM     66  F   UNL A   1      40.825  24.818  28.281  1.00  0.00    -0.203 F 
ATOM     67  F   UNL A   1      44.669  26.588  24.840  1.00  0.00    -0.200 F 
ATOM     68  C   UNL A   1      43.136  24.918  25.498  1.00  0.00     0.200 A 
ATOM     69  F   UNL A   1      41.578  23.283  26.187  1.00  0.00    -0.200 F 
ATOM     70  F   UNL A   1      43.485  24.163  24.447  1.00  0.00    -0.200 F 
ENDBRANCH  46  60
BRANCH  47  71
ATOM     71  C   UNL A   1      39.391  32.026  35.452  1.00  0.00     0.064 A 
ATOM     72  C   UNL A   1      38.506  31.479  36.390  1.00  0.00     0.173 A 
ATOM     73  C   UNL A   1      39.832  33.342  35.660  1.00  0.00     0.173 A 
ATOM     74  F   UNL A   1      38.034  30.236  36.220  1.00  0.00    -0.203 F 
ATOM     75  C   UNL A   1      38.075  32.221  37.489  1.00  0.00     0.198 A 
ATOM     76  C   UNL A   1      39.428  34.069  36.778  1.00  0.00     0.198 A 
ATOM     77  F   UNL A   1      40.678  33.914  34.792  1.00  0.00    -0.203 F 
ATOM     78  F   UNL A   1      37.198  31.687  38.350  1.00  0.00    -0.200 F 
ATOM     79  C   UNL A   1      38.545  33.510  37.688  1.00  0.00     0.200 A 
ATOM     80  F   UNL A   1      39.899  35.308  36.975  1.00  0.00    -0.200 F 
ATOM     81  F   UNL A   1      38.142  34.216  38.753  1.00  0.00    -0.200 F 
ENDBRANCH  47  71
BRANCH  59  82
ATOM     82  C   UNL A   1      44.554  27.458  34.506  1.00  0.00     0.064 A 
ATOM     83  C   UNL A   1      45.787  28.114  34.626  1.00  0.00     0.173 A 
ATOM     84  C   UNL A   1      44.336  26.312  35.285  1.00  0.00     0.173 A 
ATOM     85  F   UNL A   1      46.048  29.201  33.886  1.00  0.00    -0.203 F 
ATOM     86  C   UNL A   1      46.774  27.626  35.478  1.00  0.00     0.198 A 
ATOM     87  C   UNL A   1      45.314  25.843  36.155  1.00  0.00     0.198 A 
ATOM     88  F   UNL A   1      43.170  25.653  35.206  1.00  0.00    -0.203 F 
ATOM     89  F   UNL A   1      47.963  28.241  35.545  1.00  0.00    -0.200 F 
ATOM     90  C   UNL A   1      46.535  26.496  36.246  1.00  0.00     0.200 A 
ATOM     91  F   UNL A   1      45.079  24.756  36.903  1.00  0.00    -0.200 F 
ATOM     92  F   UNL A   1      47.485  26.029  37.068  1.00  0.00    -0.200 F 
ENDBRANCH  59  82
ENDBRANCH  33  34
ENDBRANCH  26  28
ENDBRANCH  25  26
ENDBRANCH  24  25
ENDBRANCH   1  24
TORSDOF 16
ENDMDL
MODEL 2
REMARK VINA RESULT:     -12.2      1.150      2.350
REMARK SMILES COC(=O)c1ccccc1-c1ccc(/C=C(\C#N)C(=O)OCCOC(=O)c2ccc(-c3c4nc(c(-c5c(F)c(F)c(F)c(F)c5F)c5ccc([nH]5)c(-c5c(F)c(F)c(F)c(F)c5F)c5nc(c(-c6c(F)c(F)c(F)c(F)c6F)c6ccc3[nH]6)C=C5)C=C4)cc2)o1
REMARK SMILES IDX 22 1 21 2 19 3 20 4 16 5 15 6 14 7 11 8 12 9 90 10 13 11
REMARK SMILES IDX 10 12 5 13 6 14 7 15 9 16 8 17 3 18 4 19 2 20 1 21 17 22
REMARK SMILES IDX 18 23 23 24 24 25 25 26 26 27 27 28 28 29 89 30 29 31 88 32
REMARK SMILES IDX 30 33 31 34 32 35 82 36 33 37 87 38 81 39 83 40 34 41 86 42
REMARK SMILES IDX 80 43 79 44 35 46 67 47 47 48 66 49 48 50 51 51 65 52 84 53
REMARK SMILES IDX 49 54 50 55 64 57 85 58 52 59 36 60 37 61 45 62 38 63 39 64
REMARK SMILES IDX 43 65 46 66 40 67 41 68 44 69 42 70 68 71 69 72 77 73 70 74
REMARK SMILES IDX 71 75 75 76 78 77 72 78 73 79 76 80 74 81 53 82 54 83 62 84
REMARK SMILES IDX 55 85 56 86 60 87 63 88 57 89 58 90 61 91 59 92
REMARK H PARENT 83 45 51 56
REMARK Flexibility Score: inf
ROOT
ATOM      1  C   UNL A   1      32.044  29.341  25.276  1.00  0.00     0.275 C 
ENDROOT
BRANCH   1   2
ATOM      2  O   UNL A   1      32.665  28.405  26.181  1.00  0.00    -0.458 OA
BRANCH   2   3
ATOM      3  C   UNL A   1      31.839  27.477  26.716  1.00  0.00     0.349 C 
ATOM      4  O   UNL A   1      31.078  27.644  27.659  1.00  0.00    -0.245 OA
BRANCH   3   5
ATOM      5  C   UNL A   1      31.949  26.199  25.992  1.00  0.00     0.141 C 
ATOM      6  C   UNL A   1      33.166  25.661  25.769  1.00  0.00     0.074 C 
BRANCH   6   7
ATOM      7  C   UNL A   1      33.454  24.613  24.839  1.00  0.00     0.129 A 
ATOM      8  C   UNL A   1      33.577  22.573  23.940  1.00  0.00     0.135 A 
ATOM      9  C   UNL A   1      34.081  23.437  22.995  1.00  0.00     0.051 A 
ATOM     10  O   UNL A   1      33.191  23.276  25.039  1.00  0.00    -0.457 OA
ATOM     11  C   UNL A   1      34.007  24.730  23.566  1.00  0.00     0.051 A 
BRANCH   8  12
ATOM     12  C   UNL A   1      33.404  21.126  24.005  1.00  0.00     0.032 A 
ATOM     13  C   UNL A   1      34.288  20.280  24.700  1.00  0.00     0.071 A 
ATOM     14  C   UNL A   1      34.138  18.884  24.639  1.00  0.00     0.016 A 
ATOM     15  C   UNL A   1      33.095  18.321  23.906  1.00  0.00     0.001 A 
ATOM     16  C   UNL A   1      32.348  20.537  23.286  1.00  0.00     0.013 A 
ATOM     17  C   UNL A   1      32.198  19.147  23.234  1.00  0.00     0.001 A 
BRANCH  13  18
ATOM     18  C   UNL A   1      35.432  20.784  25.494  1.00  0.00     0.338 C 
ATOM     19  O   UNL A   1      35.303  21.416  26.529  1.00  0.00    -0.246 OA
BRANCH  18  20
ATOM     20  O   UNL A   1      36.600  20.475  24.881  1.00  0.00    -0.465 OA
ATOM     21  C   UNL A   1      37.430  21.600  24.603  1.00  0.00     0.282 C 
ENDBRANCH  18  20
ENDBRANCH  13  18
ENDBRANCH   8  12
ENDBRANCH   6   7
BRANCH   5  22
ATOM     22  C   UNL A   1      30.802  25.855  25.056  1.00  0.00     0.107 C 
ATOM     23  N   UNL A   1      29.851  25.570  24.278  1.00  0.00    -0.192 NA
ENDBRANCH   5  22
ENDBRANCH   3   5
ENDBRANCH   2   3
ENDBRANCH   1   2
BRANCH   1  24
ATOM     24  C   UNL A   1      31.782  30.668  25.987  1.00  0.00     0.275 C 
BRANCH  24  25
ATOM     25  O   UNL A   1      32.530  30.729  27.217  1.00  0.00    -0.458 OA
BRANCH  25  26
ATOM     26  C   UNL A   1      33.274  31.846  27.397  1.00  0.00     0.338 C 
ATOM     27  O   UNL A   1      32.905  33.004  27.316  1.00  0.00    -0.246 OA
BRANCH  26  28
ATOM     28  C   UNL A   1      34.638  31.491  27.830  1.00  0.00     0.060 A 
ATOM     29  C   UNL A   1      34.896  30.181  28.209  1.00  0.00     0.016 A 
ATOM     30  C   UNL A   1      35.595  32.471  28.062  1.00  0.00     0.016 A 
ATOM     31  C   UNL A   1      36.019  29.870  28.968  1.00  0.00     0.010 A 
ATOM     32  C   UNL A   1      36.806  32.121  28.677  1.00  0.00     0.010 A 
ATOM     33  C   UNL A   1      37.016  30.825  29.188  1.00  0.00    -0.014 A 
BRANCH  33  34
ATOM     34  C   UNL A   1      38.236  30.478  29.977  1.00  0.00     0.031 A 
ATOM     35  C   UNL A   1      39.306  29.606  29.369  1.00  0.00     0.074 A 
ATOM     36  C   UNL A   1      38.417  30.949  31.230  1.00  0.00     0.049 A 
ATOM     37  N   UNL A   1      40.295  28.977  29.951  1.00  0.00    -0.248 NA
ATOM     38  C   UNL A   1      39.245  29.401  27.912  1.00  0.00     0.031 C 
ATOM     39  C   UNL A   1      37.515  31.858  31.940  1.00  0.00     0.029 A 
ATOM     40  N   UNL A   1      39.434  30.733  32.131  1.00  0.00    -0.354 N 
ATOM     41  C   UNL A   1      40.913  28.231  28.954  1.00  0.00     0.074 A 
ATOM     42  C   UNL A   1      40.200  28.501  27.723  1.00  0.00     0.031 C 
ATOM     43  C   UNL A   1      38.042  32.167  33.133  1.00  0.00     0.029 A 
ATOM     44  C   UNL A   1      39.249  31.378  33.332  1.00  0.00     0.049 A 
ATOM     45  H   UNL A   1      40.218  30.171  31.936  1.00  0.00     0.167 HD
ATOM     46  C   UNL A   1      41.970  27.391  29.062  1.00  0.00     0.037 A 
ATOM     47  C   UNL A   1      39.929  31.296  34.493  1.00  0.00     0.037 A 
ATOM     48  C   UNL A   1      42.728  27.194  30.270  1.00  0.00     0.049 A 
ATOM     49  C   UNL A   1      41.085  30.345  34.596  1.00  0.00     0.074 A 
ATOM     50  C   UNL A   1      43.825  26.375  30.479  1.00  0.00     0.029 A 
ATOM     51  N   UNL A   1      42.483  27.845  31.471  1.00  0.00    -0.354 N 
ATOM     52  N   UNL A   1      41.596  29.563  33.677  1.00  0.00    -0.248 NA
ATOM     53  C   UNL A   1      41.737  30.237  35.908  1.00  0.00     0.031 C 
ATOM     54  C   UNL A   1      44.225  26.509  31.813  1.00  0.00     0.029 A 
ATOM     55  C   UNL A   1      43.403  27.442  32.424  1.00  0.00     0.049 A 
ATOM     56  H   UNL A   1      41.761  28.498  31.621  1.00  0.00     0.167 HD
ATOM     57  C   UNL A   1      42.631  28.877  34.294  1.00  0.00     0.074 A 
ATOM     58  C   UNL A   1      42.693  29.352  35.661  1.00  0.00     0.031 C 
ATOM     59  C   UNL A   1      43.452  27.931  33.778  1.00  0.00     0.037 A 
BRANCH  46  60
ATOM     60  C   UNL A   1      42.347  26.584  27.853  1.00  0.00     0.064 A 
ATOM     61  C   UNL A   1      41.745  25.353  27.557  1.00  0.00     0.173 A 
ATOM     62  C   UNL A   1      43.306  27.077  26.954  1.00  0.00     0.173 A 
ATOM     63  F   UNL A   1      40.835  24.828  28.391  1.00  0.00    -0.203 F 
ATOM     64  C   UNL A   1      42.107  24.635  26.419  1.00  0.00     0.198 A 
ATOM     65  C   UNL A   1      43.644  26.371  25.802  1.00  0.00     0.198 A 
ATOM     66  F   UNL A   1      43.909  28.253  27.187  1.00  0.00    -0.203 F 
ATOM     67  F   UNL A   1      41.552  23.438  26.179  1.00  0.00    -0.200 F 
ATOM     68  C   UNL A   1      43.050  25.148  25.539  1.00  0.00     0.200 A 
ATOM     69  F   UNL A   1      44.547  26.876  24.950  1.00  0.00    -0.200 F 
ATOM     70  F   UNL A   1      43.390  24.458  24.441  1.00  0.00    -0.200 F 
ENDBRANCH  46  60
BRANCH  47  71
ATOM     71  C   UNL A   1      39.484  32.090  35.670  1.00  0.00     0.064 A 
ATOM     72  C   UNL A   1      39.980  33.380  35.899  1.00  0.00     0.173 A 
ATOM     73  C   UNL A   1      38.547  31.580  36.582  1.00  0.00     0.173 A 
ATOM     74  F   UNL A   1      40.898  33.901  35.072  1.00  0.00    -0.203 F 
ATOM     75  C   UNL A   1      39.560  34.127  36.998  1.00  0.00     0.198 A 
ATOM     76  C   UNL A   1      38.102  32.341  37.660  1.00  0.00     0.198 A 
ATOM     77  F   UNL A   1      38.042  30.350  36.410  1.00  0.00    -0.203 F 
ATOM     78  F   UNL A   1      40.078  35.343  37.215  1.00  0.00    -0.200 F 
ATOM     79  C   UNL A   1      38.613  33.612  37.870  1.00  0.00     0.200 A 
ATOM     80  F   UNL A   1      37.173  31.846  38.490  1.00  0.00    -0.200 F 
ATOM     81  F   UNL A   1      38.198  34.338  38.918  1.00  0.00    -0.200 F 
ENDBRANCH  47  71
BRANCH  59  82
ATOM     82  C   UNL A   1      44.505  27.373  34.687  1.00  0.00     0.064 A 
ATOM     83  C   UNL A   1      45.756  27.990  34.824  1.00  0.00     0.173 A 
ATOM     84  C   UNL A   1      44.248  26.223  35.449  1.00  0.00     0.173 A 
ATOM     85  F   UNL A   1      46.055  29.079  34.102  1.00  0.00    -0.203 F 
ATOM     86  C   UNL A   1      46.723  27.459  35.674  1.00  0.00     0.198 A 
ATOM     87  C   UNL A   1      45.207  25.712  36.317  1.00  0.00     0.198 A 
ATOM     88  F   UNL A   1      43.064  25.601  35.354  1.00  0.00    -0.203 F 
ATOM     89  F   UNL A   1      47.930  28.037  35.756  1.00  0.00    -0.200 F 
ATOM     90  C   UNL A   1      46.446  26.326  36.424  1.00  0.00     0.200 A 
ATOM     91  F   UNL A   1      44.935  24.621  37.048  1.00  0.00    -0.200 F 
ATOM     92  F   UNL A   1      47.377  25.819  37.244  1.00  0.00    -0.200 F 
ENDBRANCH  59  82
ENDBRANCH  33  34
ENDBRANCH  26  28
ENDBRANCH  25  26
ENDBRANCH  24  25
ENDBRANCH   1  24
TORSDOF 16
ENDMDL
MODEL 3
REMARK VINA RESULT:     -12.0      3.194      8.893
REMARK SMILES COC(=O)c1ccccc1-c1ccc(/C=C(\C#N)C(=O)OCCOC(=O)c2ccc(-c3c4nc(c(-c5c(F)c(F)c(F)c(F)c5F)c5ccc([nH]5)c(-c5c(F)c(F)c(F)c(F)c5F)c5nc(c(-c6c(F)c(F)c(F)c(F)c6F)c6ccc3[nH]6)C=C5)C=C4)cc2)o1
REMARK SMILES IDX 22 1 21 2 19 3 20 4 16 5 15 6 14 7 11 8 12 9 90 10 13 11
REMARK SMILES IDX 10 12 5 13 6 14 7 15 9 16 8 17 3 18 4 19 2 20 1 21 17 22
REMARK SMILES IDX 18 23 23 24 24 25 25 26 26 27 27 28 28 29 89 30 29 31 88 32
REMARK SMILES IDX 30 33 31 34 32 35 82 36 33 37 87 38 81 39 83 40 34 41 86 42
REMARK SMILES IDX 80 43 79 44 35 46 67 47 47 48 66 49 48 50 51 51 65 52 84 53
REMARK SMILES IDX 49 54 50 55 64 57 85 58 52 59 36 60 37 61 45 62 38 63 39 64
REMARK SMILES IDX 43 65 46 66 40 67 41 68 44 69 42 70 68 71 69 72 77 73 70 74
REMARK SMILES IDX 71 75 75 76 78 77 72 78 73 79 76 80 74 81 53 82 54 83 62 84
REMARK SMILES IDX 55 85 56 86 60 87 63 88 57 89 58 90 61 91 59 92
REMARK H PARENT 83 45 51 56
REMARK Flexibility Score: inf
ROOT
ATOM      1  C   UNL A   1      33.971  35.054  28.243  1.00  0.00     0.275 C 
ENDROOT
BRANCH   1   2
ATOM      2  O   UNL A   1      33.479  33.733  27.944  1.00  0.00    -0.458 OA
BRANCH   2   3
ATOM      3  C   UNL A   1      34.214  32.711  28.440  1.00  0.00     0.349 C 
ATOM      4  O   UNL A   1      34.938  32.754  29.425  1.00  0.00    -0.245 OA
BRANCH   3   5
ATOM      5  C   UNL A   1      34.018  31.490  27.642  1.00  0.00     0.141 C 
ATOM      6  C   UNL A   1      32.773  31.128  27.268  1.00  0.00     0.074 C 
BRANCH   6   7
ATOM      7  C   UNL A   1      32.395  29.842  26.769  1.00  0.00     0.129 A 
ATOM      8  C   UNL A   1      32.171  28.107  25.382  1.00  0.00     0.135 A 
ATOM      9  C   UNL A   1      31.602  27.719  26.573  1.00  0.00     0.051 A 
ATOM     10  O   UNL A   1      32.656  29.372  25.501  1.00  0.00    -0.457 OA
ATOM     11  C   UNL A   1      31.739  28.820  27.451  1.00  0.00     0.051 A 
BRANCH   8  12
ATOM     12  C   UNL A   1      32.330  27.474  24.078  1.00  0.00     0.032 A 
ATOM     13  C   UNL A   1      31.339  27.518  23.079  1.00  0.00     0.071 A 
ATOM     14  C   UNL A   1      31.498  26.799  21.882  1.00  0.00     0.016 A 
ATOM     15  C   UNL A   1      32.652  26.049  21.660  1.00  0.00     0.001 A 
ATOM     16  C   UNL A   1      33.494  26.725  23.825  1.00  0.00     0.013 A 
ATOM     17  C   UNL A   1      33.651  26.016  22.629  1.00  0.00     0.001 A 
BRANCH  13  18
ATOM     18  C   UNL A   1      30.076  28.277  23.229  1.00  0.00     0.338 C 
ATOM     19  O   UNL A   1      29.017  27.761  23.542  1.00  0.00    -0.246 OA
BRANCH  18  20
ATOM     20  O   UNL A   1      30.277  29.583  22.928  1.00  0.00    -0.465 OA
ATOM     21  C   UNL A   1      29.338  30.121  22.000  1.00  0.00     0.282 C 
ENDBRANCH  18  20
ENDBRANCH  13  18
ENDBRANCH   8  12
ENDBRANCH   6   7
BRANCH   5  22
ATOM     22  C   UNL A   1      35.094  30.424  27.767  1.00  0.00     0.107 C 
ATOM     23  N   UNL A   1      35.987  29.539  27.872  1.00  0.00    -0.192 NA
ENDBRANCH   5  22
ENDBRANCH   3   5
ENDBRANCH   2   3
ENDBRANCH   1   2
BRANCH   1  24
ATOM     24  C   UNL A   1      32.905  35.859  28.985  1.00  0.00     0.275 C 
BRANCH  24  25
ATOM     25  O   UNL A   1      32.500  35.163  30.181  1.00  0.00    -0.458 OA
BRANCH  25  26
ATOM     26  C   UNL A   1      32.747  35.808  31.346  1.00  0.00     0.338 C 
ATOM     27  O   UNL A   1      32.163  36.777  31.796  1.00  0.00    -0.246 OA
BRANCH  26  28
ATOM     28  C   UNL A   1      33.794  35.105  32.109  1.00  0.00     0.060 A 
ATOM     29  C   UNL A   1      35.079  35.629  32.117  1.00  0.00     0.016 A 
ATOM     30  C   UNL A   1      33.570  33.838  32.636  1.00  0.00     0.016 A 
ATOM     31  C   UNL A   1      36.165  34.843  32.484  1.00  0.00     0.010 A 
ATOM     32  C   UNL A   1      34.646  33.110  33.165  1.00  0.00     0.010 A 
ATOM     33  C   UNL A   1      35.970  33.579  33.049  1.00  0.00    -0.014 A 
BRANCH  33  34
ATOM     34  C   UNL A   1      37.138  32.749  33.471  1.00  0.00     0.031 A 
ATOM     35  C   UNL A   1      37.747  32.941  34.838  1.00  0.00     0.074 A 
ATOM     36  C   UNL A   1      37.656  31.805  32.656  1.00  0.00     0.049 A 
ATOM     37  N   UNL A   1      38.901  32.529  35.298  1.00  0.00    -0.248 NA
ATOM     38  C   UNL A   1      36.960  33.717  35.811  1.00  0.00     0.031 C 
ATOM     39  C   UNL A   1      37.145  31.442  31.332  1.00  0.00     0.029 A 
ATOM     40  N   UNL A   1      38.732  30.963  32.829  1.00  0.00    -0.354 N 
ATOM     41  C   UNL A   1      39.018  33.070  36.573  1.00  0.00     0.074 A 
ATOM     42  C   UNL A   1      37.809  33.826  36.823  1.00  0.00     0.031 C 
ATOM     43  C   UNL A   1      37.862  30.423  30.841  1.00  0.00     0.029 A 
ATOM     44  C   UNL A   1      38.966  30.144  31.749  1.00  0.00     0.049 A 
ATOM     45  H   UNL A   1      39.280  30.949  33.646  1.00  0.00     0.167 HD
ATOM     46  C   UNL A   1      40.046  32.954  37.447  1.00  0.00     0.037 A 
ATOM     47  C   UNL A   1      39.989  29.309  31.478  1.00  0.00     0.037 A 
ATOM     48  C   UNL A   1      41.208  32.132  37.227  1.00  0.00     0.049 A 
ATOM     49  C   UNL A   1      41.127  29.211  32.452  1.00  0.00     0.074 A 
ATOM     50  C   UNL A   1      42.298  31.936  38.057  1.00  0.00     0.029 A 
ATOM     51  N   UNL A   1      41.416  31.345  36.103  1.00  0.00    -0.354 N 
ATOM     52  N   UNL A   1      41.280  29.810  33.607  1.00  0.00    -0.248 NA
ATOM     53  C   UNL A   1      42.253  28.349  32.067  1.00  0.00     0.031 C 
ATOM     54  C   UNL A   1      43.180  31.054  37.422  1.00  0.00     0.029 A 
ATOM     55  C   UNL A   1      42.618  30.668  36.216  1.00  0.00     0.049 A 
ATOM     56  H   UNL A   1      40.798  31.278  35.339  1.00  0.00     0.167 HD
ATOM     57  C   UNL A   1      42.511  29.394  34.091  1.00  0.00     0.074 A 
ATOM     58  C   UNL A   1      43.055  28.472  33.115  1.00  0.00     0.031 C 
ATOM     59  C   UNL A   1      43.140  29.750  35.236  1.00  0.00     0.037 A 
BRANCH  46  60
ATOM     60  C   UNL A   1      39.989  33.771  38.706  1.00  0.00     0.064 A 
ATOM     61  C   UNL A   1      39.325  33.326  39.858  1.00  0.00     0.173 A 
ATOM     62  C   UNL A   1      40.649  35.009  38.767  1.00  0.00     0.173 A 
ATOM     63  F   UNL A   1      38.664  32.158  39.848  1.00  0.00    -0.203 F 
ATOM     64  C   UNL A   1      39.302  34.102  41.015  1.00  0.00     0.198 A 
ATOM     65  C   UNL A   1      40.650  35.768  39.935  1.00  0.00     0.198 A 
ATOM     66  F   UNL A   1      41.305  35.479  37.695  1.00  0.00    -0.203 F 
ATOM     67  F   UNL A   1      38.622  33.679  42.091  1.00  0.00    -0.200 F 
ATOM     68  C   UNL A   1      39.971  35.317  41.055  1.00  0.00     0.200 A 
ATOM     69  F   UNL A   1      41.306  36.935  39.972  1.00  0.00    -0.200 F 
ATOM     70  F   UNL A   1      39.954  36.058  42.172  1.00  0.00    -0.200 F 
ENDBRANCH  46  60
BRANCH  47  71
ATOM     71  C   UNL A   1      40.012  28.556  30.195  1.00  0.00     0.064 A 
ATOM     72  C   UNL A   1      40.659  29.076  29.066  1.00  0.00     0.173 A 
ATOM     73  C   UNL A   1      39.400  27.299  30.077  1.00  0.00     0.173 A 
ATOM     74  F   UNL A   1      41.234  30.285  29.121  1.00  0.00    -0.203 F 
ATOM     75  C   UNL A   1      40.686  28.368  27.865  1.00  0.00     0.198 A 
ATOM     76  C   UNL A   1      39.459  26.578  28.886  1.00  0.00     0.198 A 
ATOM     77  F   UNL A   1      38.767  26.757  31.127  1.00  0.00    -0.203 F 
ATOM     78  F   UNL A   1      41.278  28.905  26.790  1.00  0.00    -0.200 F 
ATOM     79  C   UNL A   1      40.097  27.116  27.780  1.00  0.00     0.200 A 
ATOM     80  F   UNL A   1      38.904  25.360  28.814  1.00  0.00    -0.200 F 
ATOM     81  F   UNL A   1      40.138  26.430  26.629  1.00  0.00    -0.200 F 
ENDBRANCH  47  71
BRANCH  59  82
ATOM     82  C   UNL A   1      44.471  29.116  35.509  1.00  0.00     0.064 A 
ATOM     83  C   UNL A   1      45.667  29.709  35.080  1.00  0.00     0.173 A 
ATOM     84  C   UNL A   1      44.550  27.915  36.229  1.00  0.00     0.173 A 
ATOM     85  F   UNL A   1      45.640  30.847  34.371  1.00  0.00    -0.203 F 
ATOM     86  C   UNL A   1      46.895  29.108  35.342  1.00  0.00     0.198 A 
ATOM     87  C   UNL A   1      45.781  27.331  36.511  1.00  0.00     0.198 A 
ATOM     88  F   UNL A   1      43.434  27.312  36.662  1.00  0.00    -0.203 F 
ATOM     89  F   UNL A   1      48.024  29.667  34.883  1.00  0.00    -0.200 F 
ATOM     90  C   UNL A   1      46.952  27.924  36.062  1.00  0.00     0.200 A 
ATOM     91  F   UNL A   1      45.835  26.191  37.215  1.00  0.00    -0.200 F 
ATOM     92  F   UNL A   1      48.135  27.348  36.316  1.00  0.00    -0.200 F 
ENDBRANCH  59  82
ENDBRANCH  33  34
ENDBRANCH  26  28
ENDBRANCH  25  26
ENDBRANCH  24  25
ENDBRANCH   1  24
TORSDOF 16
ENDMDL
