MODEL 1
REMARK VINA RESULT:     -12.8      0.000      0.000
REMARK SMILES C[C@@H]1OCC[C@@H]1c1nnc(-c2cccc(C(=O)OCCOC(=O)c3ccc(-c4c5nc(c(-c6c(F)c(F)c(F)c(F)c6F)c6ccc([nH]6)c(-c6c(F)c(F)c(F)c(F)c6F)c6nc(c(-c7c(F)c(F)c(F)c(F)c7F)c7ccc4[nH]7)C=C6)C=C5)cc3)c2)o1
REMARK SMILES IDX 19 1 18 2 16 3 17 4 15 5 11 6 12 7 87 8 13 9 14 10 10 11
REMARK SMILES IDX 7 12 8 13 88 14 9 15 6 16 1 17 2 18 3 19 4 20 5 21 20 22
REMARK SMILES IDX 21 23 22 24 23 25 24 26 25 27 86 28 26 29 85 30 27 31 28 32
REMARK SMILES IDX 29 33 79 34 30 35 84 36 78 37 80 38 31 39 83 40 77 41 76 42
REMARK SMILES IDX 32 44 64 45 44 46 63 47 45 48 48 49 62 50 81 51 46 52 47 53
REMARK SMILES IDX 61 55 82 56 49 57 33 58 34 59 42 60 35 61 36 62 40 63 43 64
REMARK SMILES IDX 37 65 38 66 41 67 39 68 65 69 66 70 74 71 67 72 68 73 72 74
REMARK SMILES IDX 75 75 69 76 70 77 73 78 71 79 50 80 51 81 59 82 52 83 53 84
REMARK SMILES IDX 57 85 60 86 54 87 55 88 58 89 56 90
REMARK H PARENT 80 43 48 54
REMARK Flexibility Score: inf
ROOT
ATOM      1  C   UNL A   1      33.603  32.089  27.608  1.00  0.00     0.275 C 
ENDROOT
BRANCH   1   2
ATOM      2  O   UNL A   1      33.023  30.778  27.464  1.00  0.00    -0.458 OA
BRANCH   2   3
ATOM      3  C   UNL A   1      33.889  29.768  27.184  1.00  0.00     0.338 C 
ATOM      4  O   UNL A   1      34.992  29.605  27.663  1.00  0.00    -0.246 OA
BRANCH   3   5
ATOM      5  C   UNL A   1      33.249  28.776  26.278  1.00  0.00     0.060 A 
ATOM      6  C   UNL A   1      31.545  28.093  24.694  1.00  0.00     0.040 A 
ATOM      7  C   UNL A   1      32.020  26.777  24.752  1.00  0.00     0.014 A 
ATOM      8  C   UNL A   1      32.143  29.088  25.485  1.00  0.00     0.029 A 
ATOM      9  C   UNL A   1      33.144  26.470  25.515  1.00  0.00     0.002 A 
ATOM     10  C   UNL A   1      33.778  27.476  26.245  1.00  0.00     0.016 A 
BRANCH   6  11
ATOM     11  C   UNL A   1      30.516  28.440  23.741  1.00  0.00     0.247 A 
ATOM     12  C   UNL A   1      29.466  29.803  22.497  1.00  0.00     0.222 A 
ATOM     13  N   UNL A   1      29.024  28.600  22.190  1.00  0.00    -0.112 NA
ATOM     14  O   UNL A   1      30.425  29.775  23.466  1.00  0.00    -0.420 OA
ATOM     15  N   UNL A   1      29.723  27.710  22.989  1.00  0.00    -0.108 NA
BRANCH  12  16
ATOM     16  C   UNL A   1      29.160  31.106  21.875  1.00  0.00     0.109 C 
ATOM     17  C   UNL A   1      27.470  31.751  23.762  1.00  0.00     0.039 C 
ATOM     18  C   UNL A   1      28.541  32.187  22.762  1.00  0.00     0.127 C 
ATOM     19  O   UNL A   1      27.897  33.105  21.849  1.00  0.00    -0.378 OA
ATOM     20  C   UNL A   1      27.778  32.475  20.565  1.00  0.00     0.161 C 
ATOM     21  C   UNL A   1      28.163  31.023  20.740  1.00  0.00     0.044 C 
ENDBRANCH  12  16
ENDBRANCH   6  11
ENDBRANCH   3   5
ENDBRANCH   2   3
ENDBRANCH   1   2
BRANCH   1  22
ATOM     22  C   UNL A   1      32.515  33.163  27.662  1.00  0.00     0.275 C 
BRANCH  22  23
ATOM     23  O   UNL A   1      33.110  34.472  27.574  1.00  0.00    -0.458 OA
BRANCH  23  24
ATOM     24  C   UNL A   1      33.161  35.171  28.729  1.00  0.00     0.338 C 
ATOM     25  O   UNL A   1      32.381  36.017  29.132  1.00  0.00    -0.246 OA
BRANCH  24  26
ATOM     26  C   UNL A   1      34.287  34.685  29.539  1.00  0.00     0.060 A 
ATOM     27  C   UNL A   1      35.558  34.733  28.972  1.00  0.00     0.016 A 
ATOM     28  C   UNL A   1      34.087  34.055  30.765  1.00  0.00     0.016 A 
ATOM     29  C   UNL A   1      36.635  34.114  29.598  1.00  0.00     0.010 A 
ATOM     30  C   UNL A   1      35.179  33.465  31.418  1.00  0.00     0.010 A 
ATOM     31  C   UNL A   1      36.456  33.458  30.822  1.00  0.00    -0.014 A 
BRANCH  31  32
ATOM     32  C   UNL A   1      37.582  32.676  31.403  1.00  0.00     0.031 A 
ATOM     33  C   UNL A   1      38.043  32.959  32.809  1.00  0.00     0.074 A 
ATOM     34  C   UNL A   1      38.147  31.666  30.713  1.00  0.00     0.049 A 
ATOM     35  N   UNL A   1      39.048  32.445  33.475  1.00  0.00    -0.248 NA
ATOM     36  C   UNL A   1      37.273  33.958  33.566  1.00  0.00     0.031 C 
ATOM     37  C   UNL A   1      37.764  31.245  29.366  1.00  0.00     0.029 A 
ATOM     38  N   UNL A   1      39.153  30.798  31.060  1.00  0.00    -0.354 N 
ATOM     39  C   UNL A   1      39.058  33.090  34.705  1.00  0.00     0.074 A 
ATOM     40  C   UNL A   1      37.964  34.037  34.694  1.00  0.00     0.031 C 
ATOM     41  C   UNL A   1      38.502  30.180  29.013  1.00  0.00     0.029 A 
ATOM     42  C   UNL A   1      39.448  29.878  30.084  1.00  0.00     0.049 A 
ATOM     43  H   UNL A   1      39.618  30.831  31.927  1.00  0.00     0.167 HD
ATOM     44  C   UNL A   1      39.900  32.908  35.751  1.00  0.00     0.037 A 
ATOM     45  C   UNL A   1      40.388  28.914  30.047  1.00  0.00     0.037 A 
ATOM     46  C   UNL A   1      40.956  31.930  35.789  1.00  0.00     0.049 A 
ATOM     47  C   UNL A   1      41.313  28.734  31.220  1.00  0.00     0.074 A 
ATOM     48  C   UNL A   1      41.863  31.676  36.803  1.00  0.00     0.029 A 
ATOM     49  N   UNL A   1      41.233  31.030  34.772  1.00  0.00    -0.354 N 
ATOM     50  N   UNL A   1      41.346  29.385  32.356  1.00  0.00    -0.248 NA
ATOM     51  C   UNL A   1      42.338  27.687  31.099  1.00  0.00     0.031 C 
ATOM     52  C   UNL A   1      42.705  30.637  36.389  1.00  0.00     0.029 A 
ATOM     53  C   UNL A   1      42.296  30.218  35.134  1.00  0.00     0.049 A 
ATOM     54  H   UNL A   1      40.745  30.974  33.918  1.00  0.00     0.167 HD
ATOM     55  C   UNL A   1      42.379  28.820  33.091  1.00  0.00     0.074 A 
ATOM     56  C   UNL A   1      42.935  27.755  32.281  1.00  0.00     0.031 C 
ATOM     57  C   UNL A   1      42.831  29.156  34.324  1.00  0.00     0.037 A 
BRANCH  44  58
ATOM     58  C   UNL A   1      39.733  33.811  36.937  1.00  0.00     0.064 A 
ATOM     59  C   UNL A   1      40.330  35.079  36.994  1.00  0.00     0.173 A 
ATOM     60  C   UNL A   1      38.940  33.409  38.023  1.00  0.00     0.173 A 
ATOM     61  F   UNL A   1      41.109  35.503  35.988  1.00  0.00    -0.203 F 
ATOM     62  C   UNL A   1      40.159  35.901  38.105  1.00  0.00     0.198 A 
ATOM     63  C   UNL A   1      38.749  34.244  39.121  1.00  0.00     0.198 A 
ATOM     64  F   UNL A   1      38.344  32.207  38.015  1.00  0.00    -0.203 F 
ATOM     65  F   UNL A   1      40.775  37.090  38.159  1.00  0.00    -0.200 F 
ATOM     66  C   UNL A   1      39.364  35.486  39.164  1.00  0.00     0.200 A 
ATOM     67  F   UNL A   1      37.972  33.844  40.137  1.00  0.00    -0.200 F 
ATOM     68  F   UNL A   1      39.197  36.280  40.230  1.00  0.00    -0.200 F 
ENDBRANCH  44  58
BRANCH  45  69
ATOM     69  C   UNL A   1      40.513  28.045  28.847  1.00  0.00     0.064 A 
ATOM     70  C   UNL A   1      41.298  28.432  27.753  1.00  0.00     0.173 A 
ATOM     71  C   UNL A   1      39.836  26.819  28.764  1.00  0.00     0.173 A 
ATOM     72  F   UNL A   1      41.941  29.609  27.773  1.00  0.00    -0.203 F 
ATOM     73  C   UNL A   1      41.391  27.633  26.616  1.00  0.00     0.198 A 
ATOM     74  C   UNL A   1      39.953  26.007  27.639  1.00  0.00     0.198 A 
ATOM     75  F   UNL A   1      39.068  26.406  29.782  1.00  0.00    -0.203 F 
ATOM     76  F   UNL A   1      42.113  28.047  25.566  1.00  0.00    -0.200 F 
ATOM     77  C   UNL A   1      40.725  26.418  26.562  1.00  0.00     0.200 A 
ATOM     78  F   UNL A   1      39.316  24.829  27.596  1.00  0.00    -0.200 F 
ATOM     79  F   UNL A   1      40.817  25.648  25.470  1.00  0.00    -0.200 F 
ENDBRANCH  45  69
BRANCH  57  80
ATOM     80  C   UNL A   1      43.958  28.339  34.885  1.00  0.00     0.064 A 
ATOM     81  C   UNL A   1      45.296  28.735  34.744  1.00  0.00     0.173 A 
ATOM     82  C   UNL A   1      43.694  27.155  35.589  1.00  0.00     0.173 A 
ATOM     83  F   UNL A   1      45.602  29.852  34.066  1.00  0.00    -0.203 F 
ATOM     84  C   UNL A   1      46.331  27.959  35.259  1.00  0.00     0.198 A 
ATOM     85  C   UNL A   1      44.729  26.395  36.125  1.00  0.00     0.198 A 
ATOM     86  F   UNL A   1      42.431  26.736  35.757  1.00  0.00    -0.203 F 
ATOM     87  F   UNL A   1      47.604  28.330  35.068  1.00  0.00    -0.200 F 
ATOM     88  C   UNL A   1      46.046  26.792  35.953  1.00  0.00     0.200 A 
ATOM     89  F   UNL A   1      44.452  25.272  36.803  1.00  0.00    -0.200 F 
ATOM     90  F   UNL A   1      47.042  26.045  36.447  1.00  0.00    -0.200 F 
ENDBRANCH  57  80
ENDBRANCH  31  32
ENDBRANCH  24  26
ENDBRANCH  23  24
ENDBRANCH  22  23
ENDBRANCH   1  22
TORSDOF 13
ENDMDL
MODEL 2
REMARK VINA RESULT:     -12.7      6.944     12.285
REMARK SMILES C[C@@H]1OCC[C@@H]1c1nnc(-c2cccc(C(=O)OCCOC(=O)c3ccc(-c4c5nc(c(-c6c(F)c(F)c(F)c(F)c6F)c6ccc([nH]6)c(-c6c(F)c(F)c(F)c(F)c6F)c6nc(c(-c7c(F)c(F)c(F)c(F)c7F)c7ccc4[nH]7)C=C6)C=C5)cc3)c2)o1
REMARK SMILES IDX 19 1 18 2 16 3 17 4 15 5 11 6 12 7 87 8 13 9 14 10 10 11
REMARK SMILES IDX 7 12 8 13 88 14 9 15 6 16 1 17 2 18 3 19 4 20 5 21 20 22
REMARK SMILES IDX 21 23 22 24 23 25 24 26 25 27 86 28 26 29 85 30 27 31 28 32
REMARK SMILES IDX 29 33 79 34 30 35 84 36 78 37 80 38 31 39 83 40 77 41 76 42
REMARK SMILES IDX 32 44 64 45 44 46 63 47 45 48 48 49 62 50 81 51 46 52 47 53
REMARK SMILES IDX 61 55 82 56 49 57 33 58 34 59 42 60 35 61 36 62 40 63 43 64
REMARK SMILES IDX 37 65 38 66 41 67 39 68 65 69 66 70 74 71 67 72 68 73 72 74
REMARK SMILES IDX 75 75 69 76 70 77 73 78 71 79 50 80 51 81 59 82 52 83 53 84
REMARK SMILES IDX 57 85 60 86 54 87 55 88 58 89 56 90
REMARK H PARENT 80 43 48 54
REMARK Flexibility Score: inf
ROOT
ATOM      1  C   UNL A   1      42.247  19.362  26.818  1.00  0.00     0.275 C 
ENDROOT
BRANCH   1   2
ATOM      2  O   UNL A   1      41.573  20.471  26.190  1.00  0.00    -0.458 OA
BRANCH   2   3
ATOM      3  C   UNL A   1      40.242  20.310  25.960  1.00  0.00     0.338 C 
ATOM      4  O   UNL A   1      39.672  19.270  25.701  1.00  0.00    -0.246 OA
BRANCH   3   5
ATOM      5  C   UNL A   1      39.520  21.588  26.199  1.00  0.00     0.060 A 
ATOM      6  C   UNL A   1      37.703  23.143  25.796  1.00  0.00     0.040 A 
ATOM      7  C   UNL A   1      38.347  24.100  26.589  1.00  0.00     0.014 A 
ATOM      8  C   UNL A   1      38.308  21.895  25.576  1.00  0.00     0.029 A 
ATOM      9  C   UNL A   1      39.538  23.785  27.240  1.00  0.00     0.002 A 
ATOM     10  C   UNL A   1      40.100  22.520  27.075  1.00  0.00     0.016 A 
BRANCH   6  11
ATOM     11  C   UNL A   1      36.372  23.405  25.300  1.00  0.00     0.247 A 
ATOM     12  C   UNL A   1      34.357  24.034  25.522  1.00  0.00     0.222 A 
ATOM     13  N   UNL A   1      34.560  23.879  24.229  1.00  0.00    -0.112 NA
ATOM     14  O   UNL A   1      35.470  23.763  26.261  1.00  0.00    -0.420 OA
ATOM     15  N   UNL A   1      35.880  23.487  24.084  1.00  0.00    -0.108 NA
BRANCH  12  16
ATOM     16  C   UNL A   1      33.173  24.554  26.233  1.00  0.00     0.109 C 
ATOM     17  C   UNL A   1      31.882  22.293  25.996  1.00  0.00     0.039 C 
ATOM     18  C   UNL A   1      32.199  23.535  26.828  1.00  0.00     0.127 C 
ATOM     19  O   UNL A   1      30.952  24.249  26.988  1.00  0.00    -0.378 OA
ATOM     20  C   UNL A   1      31.009  25.460  26.220  1.00  0.00     0.161 C 
ATOM     21  C   UNL A   1      32.258  25.393  25.368  1.00  0.00     0.044 C 
ENDBRANCH  12  16
ENDBRANCH   6  11
ENDBRANCH   3   5
ENDBRANCH   2   3
ENDBRANCH   1   2
BRANCH   1  22
ATOM     22  C   UNL A   1      43.076  18.580  25.798  1.00  0.00     0.275 C 
BRANCH  22  23
ATOM     23  O   UNL A   1      43.318  19.393  24.634  1.00  0.00    -0.458 OA
BRANCH  23  24
ATOM     24  C   UNL A   1      44.615  19.551  24.289  1.00  0.00     0.338 C 
ATOM     25  O   UNL A   1      45.354  18.745  23.750  1.00  0.00    -0.246 OA
BRANCH  24  26
ATOM     26  C   UNL A   1      45.025  20.935  24.568  1.00  0.00     0.060 A 
ATOM     27  C   UNL A   1      45.671  21.185  25.775  1.00  0.00     0.016 A 
ATOM     28  C   UNL A   1      44.650  21.989  23.738  1.00  0.00     0.016 A 
ATOM     29  C   UNL A   1      45.910  22.490  26.192  1.00  0.00     0.010 A 
ATOM     30  C   UNL A   1      44.926  23.305  24.137  1.00  0.00     0.010 A 
ATOM     31  C   UNL A   1      45.527  23.569  25.384  1.00  0.00    -0.014 A 
BRANCH  31  32
ATOM     32  C   UNL A   1      45.655  24.956  25.910  1.00  0.00     0.031 A 
ATOM     33  C   UNL A   1      46.967  25.686  25.783  1.00  0.00     0.074 A 
ATOM     34  C   UNL A   1      44.589  25.596  26.430  1.00  0.00     0.049 A 
ATOM     35  N   UNL A   1      47.309  26.867  26.237  1.00  0.00    -0.248 NA
ATOM     36  C   UNL A   1      48.039  24.992  25.053  1.00  0.00     0.031 C 
ATOM     37  C   UNL A   1      43.247  25.032  26.562  1.00  0.00     0.029 A 
ATOM     38  N   UNL A   1      44.467  26.871  26.928  1.00  0.00    -0.354 N 
ATOM     39  C   UNL A   1      48.643  27.035  25.889  1.00  0.00     0.074 A 
ATOM     40  C   UNL A   1      49.052  25.834  25.192  1.00  0.00     0.031 C 
ATOM     41  C   UNL A   1      42.428  25.966  27.075  1.00  0.00     0.029 A 
ATOM     42  C   UNL A   1      43.199  27.173  27.360  1.00  0.00     0.049 A 
ATOM     43  H   UNL A   1      45.216  27.507  26.970  1.00  0.00     0.167 HD
ATOM     44  C   UNL A   1      49.454  28.094  26.126  1.00  0.00     0.037 A 
ATOM     45  C   UNL A   1      42.716  28.289  27.940  1.00  0.00     0.037 A 
ATOM     46  C   UNL A   1      49.039  29.313  26.770  1.00  0.00     0.049 A 
ATOM     47  C   UNL A   1      43.638  29.451  28.195  1.00  0.00     0.074 A 
ATOM     48  C   UNL A   1      49.791  30.438  27.058  1.00  0.00     0.029 A 
ATOM     49  N   UNL A   1      47.750  29.572  27.210  1.00  0.00    -0.354 N 
ATOM     50  N   UNL A   1      44.910  29.577  27.909  1.00  0.00    -0.248 NA
ATOM     51  C   UNL A   1      43.055  30.624  28.862  1.00  0.00     0.031 C 
ATOM     52  C   UNL A   1      48.962  31.370  27.694  1.00  0.00     0.029 A 
ATOM     53  C   UNL A   1      47.685  30.840  27.766  1.00  0.00     0.049 A 
ATOM     54  H   UNL A   1      46.991  28.948  27.137  1.00  0.00     0.167 HD
ATOM     55  C   UNL A   1      45.276  30.844  28.344  1.00  0.00     0.074 A 
ATOM     56  C   UNL A   1      44.085  31.457  28.893  1.00  0.00     0.031 C 
ATOM     57  C   UNL A   1      46.491  31.442  28.298  1.00  0.00     0.037 A 
BRANCH  44  58
ATOM     58  C   UNL A   1      50.891  27.970  25.711  1.00  0.00     0.064 A 
ATOM     59  C   UNL A   1      51.306  28.213  24.393  1.00  0.00     0.173 A 
ATOM     60  C   UNL A   1      51.870  27.628  26.656  1.00  0.00     0.173 A 
ATOM     61  F   UNL A   1      50.406  28.528  23.450  1.00  0.00    -0.203 F 
ATOM     62  C   UNL A   1      52.645  28.093  24.032  1.00  0.00     0.198 A 
ATOM     63  C   UNL A   1      53.212  27.535  26.297  1.00  0.00     0.198 A 
ATOM     64  F   UNL A   1      51.525  27.390  27.930  1.00  0.00    -0.203 F 
ATOM     65  F   UNL A   1      53.015  28.285  22.759  1.00  0.00    -0.200 F 
ATOM     66  C   UNL A   1      53.598  27.761  24.985  1.00  0.00     0.200 A 
ATOM     67  F   UNL A   1      54.131  27.225  27.222  1.00  0.00    -0.200 F 
ATOM     68  F   UNL A   1      54.887  27.651  24.637  1.00  0.00    -0.200 F 
ENDBRANCH  44  58
BRANCH  45  69
ATOM     69  C   UNL A   1      41.284  28.361  28.333  1.00  0.00     0.064 A 
ATOM     70  C   UNL A   1      40.322  28.891  27.463  1.00  0.00     0.173 A 
ATOM     71  C   UNL A   1      40.853  27.917  29.592  1.00  0.00     0.173 A 
ATOM     72  F   UNL A   1      40.690  29.356  26.260  1.00  0.00    -0.203 F 
ATOM     73  C   UNL A   1      38.985  28.986  27.842  1.00  0.00     0.198 A 
ATOM     74  C   UNL A   1      39.512  27.985  29.959  1.00  0.00     0.198 A 
ATOM     75  F   UNL A   1      41.736  27.406  30.463  1.00  0.00    -0.203 F 
ATOM     76  F   UNL A   1      38.092  29.538  27.009  1.00  0.00    -0.200 F 
ATOM     77  C   UNL A   1      38.579  28.527  29.086  1.00  0.00     0.200 A 
ATOM     78  F   UNL A   1      39.123  27.531  31.158  1.00  0.00    -0.200 F 
ATOM     79  F   UNL A   1      37.292  28.616  29.449  1.00  0.00    -0.200 F 
ENDBRANCH  45  69
BRANCH  57  80
ATOM     80  C   UNL A   1      46.583  32.845  28.823  1.00  0.00     0.064 A 
ATOM     81  C   UNL A   1      46.890  33.111  30.165  1.00  0.00     0.173 A 
ATOM     82  C   UNL A   1      46.377  33.938  27.967  1.00  0.00     0.173 A 
ATOM     83  F   UNL A   1      47.080  32.100  31.027  1.00  0.00    -0.203 F 
ATOM     84  C   UNL A   1      46.958  34.418  30.639  1.00  0.00     0.198 A 
ATOM     85  C   UNL A   1      46.471  35.243  28.438  1.00  0.00     0.198 A 
ATOM     86  F   UNL A   1      46.087  33.737  26.673  1.00  0.00    -0.203 F 
ATOM     87  F   UNL A   1      47.203  34.647  31.936  1.00  0.00    -0.200 F 
ATOM     88  C   UNL A   1      46.753  35.483  29.774  1.00  0.00     0.200 A 
ATOM     89  F   UNL A   1      46.282  36.272  27.600  1.00  0.00    -0.200 F 
ATOM     90  F   UNL A   1      46.817  36.741  30.232  1.00  0.00    -0.200 F 
ENDBRANCH  57  80
ENDBRANCH  31  32
ENDBRANCH  24  26
ENDBRANCH  23  24
ENDBRANCH  22  23
ENDBRANCH   1  22
TORSDOF 13
ENDMDL
MODEL 3
REMARK VINA RESULT:     -12.6      6.776     12.102
REMARK SMILES C[C@@H]1OCC[C@@H]1c1nnc(-c2cccc(C(=O)OCCOC(=O)c3ccc(-c4c5nc(c(-c6c(F)c(F)c(F)c(F)c6F)c6ccc([nH]6)c(-c6c(F)c(F)c(F)c(F)c6F)c6nc(c(-c7c(F)c(F)c(F)c(F)c7F)c7ccc4[nH]7)C=C6)C=C5)cc3)c2)o1
REMARK SMILES IDX 19 1 18 2 16 3 17 4 15 5 11 6 12 7 87 8 13 9 14 10 10 11
REMARK SMILES IDX 7 12 8 13 88 14 9 15 6 16 1 17 2 18 3 19 4 20 5 21 20 22
REMARK SMILES IDX 21 23 22 24 23 25 24 26 25 27 86 28 26 29 85 30 27 31 28 32
REMARK SMILES IDX 29 33 79 34 30 35 84 36 78 37 80 38 31 39 83 40 77 41 76 42
REMARK SMILES IDX 32 44 64 45 44 46 63 47 45 48 48 49 62 50 81 51 46 52 47 53
REMARK SMILES IDX 61 55 82 56 49 57 33 58 34 59 42 60 35 61 36 62 40 63 43 64
REMARK SMILES IDX 37 65 38 66 41 67 39 68 65 69 66 70 74 71 67 72 68 73 72 74
REMARK SMILES IDX 75 75 69 76 70 77 73 78 71 79 50 80 51 81 59 82 52 83 53 84
REMARK SMILES IDX 57 85 60 86 54 87 55 88 58 89 56 90
REMARK H PARENT 80 43 48 54
REMARK Flexibility Score: inf
ROOT
ATOM      1  C   UNL A   1      39.360  21.252  26.139  1.00  0.00     0.275 C 
ENDROOT
BRANCH   1   2
ATOM      2  O   UNL A   1      38.342  21.830  25.297  1.00  0.00    -0.458 OA
BRANCH   2   3
ATOM      3  C   UNL A   1      37.785  22.988  25.741  1.00  0.00     0.338 C 
ATOM      4  O   UNL A   1      38.369  23.936  26.223  1.00  0.00    -0.246 OA
BRANCH   3   5
ATOM      5  C   UNL A   1      36.328  23.007  25.438  1.00  0.00     0.060 A 
ATOM      6  C   UNL A   1      34.244  21.935  24.816  1.00  0.00     0.040 A 
ATOM      7  C   UNL A   1      33.633  23.190  24.706  1.00  0.00     0.014 A 
ATOM      8  C   UNL A   1      35.604  21.847  25.153  1.00  0.00     0.029 A 
ATOM      9  C   UNL A   1      34.342  24.346  25.024  1.00  0.00     0.002 A 
ATOM     10  C   UNL A   1      35.674  24.249  25.426  1.00  0.00     0.016 A 
BRANCH   6  11
ATOM     11  C   UNL A   1      33.445  20.738  24.690  1.00  0.00     0.247 A 
ATOM     12  C   UNL A   1      33.080  18.665  24.969  1.00  0.00     0.222 A 
ATOM     13  N   UNL A   1      31.953  19.188  24.528  1.00  0.00    -0.112 NA
ATOM     14  O   UNL A   1      34.067  19.596  25.109  1.00  0.00    -0.420 OA
ATOM     15  N   UNL A   1      32.187  20.543  24.365  1.00  0.00    -0.108 NA
BRANCH  12  16
ATOM     16  C   UNL A   1      33.366  17.291  25.425  1.00  0.00     0.109 C 
ATOM     17  C   UNL A   1      34.376  16.602  23.114  1.00  0.00     0.039 C 
ATOM     18  C   UNL A   1      34.401  16.485  24.637  1.00  0.00     0.127 C 
ATOM     19  O   UNL A   1      34.117  15.100  24.945  1.00  0.00    -0.378 OA
ATOM     20  C   UNL A   1      32.814  15.014  25.538  1.00  0.00     0.161 C 
ATOM     21  C   UNL A   1      32.164  16.373  25.393  1.00  0.00     0.044 C 
ENDBRANCH  12  16
ENDBRANCH   6  11
ENDBRANCH   3   5
ENDBRANCH   2   3
ENDBRANCH   1   2
BRANCH   1  22
ATOM     22  C   UNL A   1      39.745  19.856  25.647  1.00  0.00     0.275 C 
BRANCH  22  23
ATOM     23  O   UNL A   1      40.629  19.227  26.595  1.00  0.00    -0.458 OA
BRANCH  23  24
ATOM     24  C   UNL A   1      41.926  19.147  26.224  1.00  0.00     0.338 C 
ATOM     25  O   UNL A   1      42.502  18.210  25.699  1.00  0.00    -0.246 OA
BRANCH  24  26
ATOM     26  C   UNL A   1      42.575  20.446  26.451  1.00  0.00     0.060 A 
ATOM     27  C   UNL A   1      42.587  20.942  27.752  1.00  0.00     0.016 A 
ATOM     28  C   UNL A   1      43.025  21.233  25.394  1.00  0.00     0.016 A 
ATOM     29  C   UNL A   1      43.005  22.243  28.009  1.00  0.00     0.010 A 
ATOM     30  C   UNL A   1      43.485  22.532  25.655  1.00  0.00     0.010 A 
ATOM     31  C   UNL A   1      43.445  23.061  26.960  1.00  0.00    -0.014 A 
BRANCH  31  32
ATOM     32  C   UNL A   1      43.747  24.494  27.230  1.00  0.00     0.031 A 
ATOM     33  C   UNL A   1      45.105  25.050  26.888  1.00  0.00     0.074 A 
ATOM     34  C   UNL A   1      42.795  25.321  27.706  1.00  0.00     0.049 A 
ATOM     35  N   UNL A   1      45.594  26.247  27.107  1.00  0.00    -0.248 NA
ATOM     36  C   UNL A   1      46.040  24.136  26.214  1.00  0.00     0.031 C 
ATOM     37  C   UNL A   1      41.422  24.932  28.027  1.00  0.00     0.029 A 
ATOM     38  N   UNL A   1      42.836  26.665  27.985  1.00  0.00    -0.354 N 
ATOM     39  C   UNL A   1      46.902  26.212  26.643  1.00  0.00     0.074 A 
ATOM     40  C   UNL A   1      47.136  24.878  26.135  1.00  0.00     0.031 C 
ATOM     41  C   UNL A   1      40.742  26.019  28.428  1.00  0.00     0.029 A 
ATOM     42  C   UNL A   1      41.643  27.167  28.447  1.00  0.00     0.049 A 
ATOM     43  H   UNL A   1      43.641  27.216  27.865  1.00  0.00     0.167 HD
ATOM     44  C   UNL A   1      47.826  27.204  26.637  1.00  0.00     0.037 A 
ATOM     45  C   UNL A   1      41.319  28.408  28.859  1.00  0.00     0.037 A 
ATOM     46  C   UNL A   1      47.583  28.549  27.090  1.00  0.00     0.049 A 
ATOM     47  C   UNL A   1      42.364  29.491  28.846  1.00  0.00     0.074 A 
ATOM     48  C   UNL A   1      48.459  29.620  27.127  1.00  0.00     0.029 A 
ATOM     49  N   UNL A   1      46.367  29.012  27.568  1.00  0.00    -0.354 N 
ATOM     50  N   UNL A   1      43.612  29.433  28.453  1.00  0.00    -0.248 NA
ATOM     51  C   UNL A   1      41.952  30.813  29.341  1.00  0.00     0.031 C 
ATOM     52  C   UNL A   1      47.779  30.726  27.650  1.00  0.00     0.029 A 
ATOM     53  C   UNL A   1      46.469  30.353  27.901  1.00  0.00     0.049 A 
ATOM     54  H   UNL A   1      45.550  28.468  27.656  1.00  0.00     0.167 HD
ATOM     55  C   UNL A   1      44.131  30.707  28.638  1.00  0.00     0.074 A 
ATOM     56  C   UNL A   1      43.054  31.526  29.156  1.00  0.00     0.031 C 
ATOM     57  C   UNL A   1      45.387  31.158  28.405  1.00  0.00     0.037 A 
BRANCH  44  58
ATOM     58  C   UNL A   1      49.203  26.862  26.149  1.00  0.00     0.064 A 
ATOM     59  C   UNL A   1      49.587  27.056  24.814  1.00  0.00     0.173 A 
ATOM     60  C   UNL A   1      50.160  26.355  27.041  1.00  0.00     0.173 A 
ATOM     61  F   UNL A   1      48.704  27.523  23.919  1.00  0.00    -0.203 F 
ATOM     62  C   UNL A   1      50.872  26.733  24.386  1.00  0.00     0.198 A 
ATOM     63  C   UNL A   1      51.452  26.058  26.615  1.00  0.00     0.198 A 
ATOM     64  F   UNL A   1      49.844  26.155  28.330  1.00  0.00    -0.203 F 
ATOM     65  F   UNL A   1      51.204  26.883  23.097  1.00  0.00    -0.200 F 
ATOM     66  C   UNL A   1      51.805  26.240  25.287  1.00  0.00     0.200 A 
ATOM     67  F   UNL A   1      52.354  25.593  27.491  1.00  0.00    -0.200 F 
ATOM     68  F   UNL A   1      53.042  25.934  24.874  1.00  0.00    -0.200 F 
ENDBRANCH  44  58
BRANCH  45  69
ATOM     69  C   UNL A   1      39.939  28.695  29.334  1.00  0.00     0.064 A 
ATOM     70  C   UNL A   1      38.956  29.168  28.454  1.00  0.00     0.173 A 
ATOM     71  C   UNL A   1      39.582  28.518  30.679  1.00  0.00     0.173 A 
ATOM     72  F   UNL A   1      39.258  29.381  27.165  1.00  0.00    -0.203 F 
ATOM     73  C   UNL A   1      37.672  29.465  28.904  1.00  0.00     0.198 A 
ATOM     74  C   UNL A   1      38.290  28.788  31.122  1.00  0.00     0.198 A 
ATOM     75  F   UNL A   1      40.488  28.072  31.561  1.00  0.00    -0.203 F 
ATOM     76  F   UNL A   1      36.763  29.958  28.052  1.00  0.00    -0.200 F 
ATOM     77  C   UNL A   1      37.337  29.268  30.235  1.00  0.00     0.200 A 
ATOM     78  F   UNL A   1      37.968  28.586  32.406  1.00  0.00    -0.200 F 
ATOM     79  F   UNL A   1      36.101  29.552  30.667  1.00  0.00    -0.200 F 
ENDBRANCH  45  69
BRANCH  57  80
ATOM     80  C   UNL A   1      45.654  32.610  28.673  1.00  0.00     0.064 A 
ATOM     81  C   UNL A   1      45.451  33.590  27.691  1.00  0.00     0.173 A 
ATOM     82  C   UNL A   1      46.103  33.028  29.935  1.00  0.00     0.173 A 
ATOM     83  F   UNL A   1      45.038  33.240  26.463  1.00  0.00    -0.203 F 
ATOM     84  C   UNL A   1      45.717  34.931  27.952  1.00  0.00     0.198 A 
ATOM     85  C   UNL A   1      46.343  34.372  30.201  1.00  0.00     0.198 A 
ATOM     86  F   UNL A   1      46.307  32.130  30.911  1.00  0.00    -0.203 F 
ATOM     87  F   UNL A   1      45.565  35.845  26.983  1.00  0.00    -0.200 F 
ATOM     88  C   UNL A   1      46.158  35.322  29.208  1.00  0.00     0.200 A 
ATOM     89  F   UNL A   1      46.761  34.749  31.418  1.00  0.00    -0.200 F 
ATOM     90  F   UNL A   1      46.416  36.613  29.458  1.00  0.00    -0.200 F 
ENDBRANCH  57  80
ENDBRANCH  31  32
ENDBRANCH  24  26
ENDBRANCH  23  24
ENDBRANCH  22  23
ENDBRANCH   1  22
TORSDOF 13
ENDMDL
