MODEL 1
REMARK VINA RESULT:     -12.7      0.000      0.000
REMARK SMILES C[NH+](C)CCc1nc(Nc2ccc(O)c(C(=O)OCCOC(=O)c3ccc(-c4c5nc(c(-c6c(F)c(F)c(F)c(F)c6F)c6ccc([nH]6)c(-c6c(F)c(F)c(F)c(F)c6F)c6nc(c(-c7c(F)c(F)c(F)c(F)c7F)c7ccc4[nH]7)C=C6)C=C5)cc3)c2)c2ccccc2n1
REMARK SMILES IDX 18 1 16 2 17 3 15 4 10 5 11 6 87 7 12 8 13 9 9 10 8 12 6 13
REMARK SMILES IDX 7 14 94 15 93 16 88 17 92 18 89 19 91 20 90 21 5 22 4 23
REMARK SMILES IDX 2 24 1 25 3 26 14 28 19 30 20 31 21 32 22 33 23 34 24 35
REMARK SMILES IDX 25 36 86 37 26 38 85 39 27 40 28 41 29 42 79 43 30 44 84 45
REMARK SMILES IDX 78 46 80 47 31 48 83 49 77 50 76 51 32 53 64 54 44 55 63 56
REMARK SMILES IDX 45 57 48 58 62 59 81 60 46 61 47 62 61 64 82 65 49 66 33 67
REMARK SMILES IDX 34 68 42 69 35 70 36 71 40 72 43 73 37 74 38 75 41 76 39 77
REMARK SMILES IDX 65 78 66 79 74 80 67 81 68 82 72 83 75 84 69 85 70 86 73 87
REMARK SMILES IDX 71 88 50 89 51 90 59 91 52 92 53 93 57 94 60 95 54 96 55 97
REMARK SMILES IDX 58 98 56 99
REMARK H PARENT 9 11 2 27 14 29 80 52 48 63
REMARK Flexibility Score: inf
ROOT
ATOM      1  O   UNL A   1      32.668  28.281  25.225  1.00  0.00    -0.458 OA
ENDROOT
BRANCH   1   2
ATOM      2  C   UNL A   1      33.387  28.116  24.086  1.00  0.00     0.342 C 
ATOM      3  O   UNL A   1      34.145  28.926  23.582  1.00  0.00    -0.246 OA
BRANCH   2   4
ATOM      4  C   UNL A   1      33.283  26.724  23.596  1.00  0.00     0.103 A 
ATOM      5  C   UNL A   1      33.178  24.361  24.210  1.00  0.00     0.041 A 
ATOM      6  C   UNL A   1      33.189  24.029  22.856  1.00  0.00     0.030 A 
ATOM      7  C   UNL A   1      33.282  25.708  24.561  1.00  0.00     0.045 A 
ATOM      8  C   UNL A   1      33.215  25.032  21.876  1.00  0.00     0.049 A 
ATOM      9  C   UNL A   1      33.249  26.380  22.246  1.00  0.00     0.130 A 
BRANCH   5  10
ATOM     10  N   UNL A   1      33.163  23.387  25.225  1.00  0.00    -0.340 N 
ATOM     11  H   UNL A   1      32.713  23.621  26.069  1.00  0.00     0.168 HD
BRANCH  10  12
ATOM     12  C   UNL A   1      33.744  22.096  25.137  1.00  0.00     0.142 A 
ATOM     13  C   UNL A   1      33.483  19.840  24.782  1.00  0.00     0.137 A 
ATOM     14  N   UNL A   1      32.924  21.044  24.960  1.00  0.00    -0.215 NA
ATOM     15  N   UNL A   1      34.804  19.633  24.702  1.00  0.00    -0.233 NA
ATOM     16  C   UNL A   1      35.613  20.658  24.969  1.00  0.00     0.076 A 
ATOM     17  C   UNL A   1      35.142  21.950  25.227  1.00  0.00     0.043 A 
ATOM     18  C   UNL A   1      36.981  20.420  25.011  1.00  0.00     0.029 A 
ATOM     19  C   UNL A   1      36.075  22.977  25.536  1.00  0.00     0.014 A 
ATOM     20  C   UNL A   1      37.898  21.427  25.321  1.00  0.00     0.002 A 
ATOM     21  C   UNL A   1      37.443  22.710  25.588  1.00  0.00     0.001 A 
BRANCH  13  22
ATOM     22  C   UNL A   1      32.538  18.680  24.641  1.00  0.00     0.138 C 
BRANCH  22  23
ATOM     23  C   UNL A   1      32.748  17.475  25.577  1.00  0.00     0.269 C 
BRANCH  23  24
ATOM     24  N   UNL A   1      33.244  16.186  25.061  1.00  0.00    -0.339 N 
ATOM     25  C   UNL A   1      34.694  16.046  25.152  1.00  0.00     0.332 C 
ATOM     26  C   UNL A   1      32.577  15.024  25.634  1.00  0.00     0.332 C 
ATOM     27  H   UNL A   1      33.001  16.210  24.072  1.00  0.00     0.347 HD
ENDBRANCH  23  24
ENDBRANCH  22  23
ENDBRANCH  13  22
ENDBRANCH  10  12
ENDBRANCH   5  10
BRANCH   9  28
ATOM     28  O   UNL A   1      33.302  27.347  21.285  1.00  0.00    -0.507 OA
ATOM     29  H   UNL A   1      33.892  27.258  20.562  1.00  0.00     0.293 HD
ENDBRANCH   9  28
ENDBRANCH   2   4
ENDBRANCH   1   2
BRANCH   1  30
ATOM     30  C   UNL A   1      31.448  29.039  25.100  1.00  0.00     0.275 C 
BRANCH  30  31
ATOM     31  C   UNL A   1      31.634  30.448  25.657  1.00  0.00     0.275 C 
BRANCH  31  32
ATOM     32  O   UNL A   1      32.432  30.382  26.854  1.00  0.00    -0.458 OA
BRANCH  32  33
ATOM     33  C   UNL A   1      33.095  31.506  27.191  1.00  0.00     0.338 C 
ATOM     34  O   UNL A   1      32.688  32.661  27.144  1.00  0.00    -0.246 OA
BRANCH  33  35
ATOM     35  C   UNL A   1      34.438  31.160  27.687  1.00  0.00     0.060 A 
ATOM     36  C   UNL A   1      34.744  29.831  27.959  1.00  0.00     0.016 A 
ATOM     37  C   UNL A   1      35.349  32.161  28.015  1.00  0.00     0.016 A 
ATOM     38  C   UNL A   1      35.892  29.506  28.678  1.00  0.00     0.010 A 
ATOM     39  C   UNL A   1      36.563  31.820  28.624  1.00  0.00     0.010 A 
ATOM     40  C   UNL A   1      36.828  30.495  29.020  1.00  0.00    -0.014 A 
BRANCH  40  41
ATOM     41  C   UNL A   1      38.040  30.152  29.827  1.00  0.00     0.031 A 
ATOM     42  C   UNL A   1      39.140  29.303  29.235  1.00  0.00     0.074 A 
ATOM     43  C   UNL A   1      38.189  30.620  31.083  1.00  0.00     0.049 A 
ATOM     44  N   UNL A   1      40.198  28.788  29.814  1.00  0.00    -0.248 NA
ATOM     45  C   UNL A   1      39.031  28.978  27.805  1.00  0.00     0.031 C 
ATOM     46  C   UNL A   1      37.236  31.478  31.787  1.00  0.00     0.029 A 
ATOM     47  N   UNL A   1      39.214  30.458  31.985  1.00  0.00    -0.354 N 
ATOM     48  C   UNL A   1      40.831  28.020  28.843  1.00  0.00     0.074 A 
ATOM     49  C   UNL A   1      40.043  28.139  27.636  1.00  0.00     0.031 C 
ATOM     50  C   UNL A   1      37.753  31.830  32.975  1.00  0.00     0.029 A 
ATOM     51  C   UNL A   1      39.026  31.144  33.161  1.00  0.00     0.049 A 
ATOM     52  H   UNL A   1      40.007  29.904  31.805  1.00  0.00     0.167 HD
ATOM     53  C   UNL A   1      41.966  27.283  28.946  1.00  0.00     0.037 A 
ATOM     54  C   UNL A   1      39.774  31.195  34.279  1.00  0.00     0.037 A 
ATOM     55  C   UNL A   1      42.792  27.213  30.123  1.00  0.00     0.049 A 
ATOM     56  C   UNL A   1      41.025  30.369  34.372  1.00  0.00     0.074 A 
ATOM     57  C   UNL A   1      43.971  26.511  30.313  1.00  0.00     0.029 A 
ATOM     58  N   UNL A   1      42.536  27.886  31.309  1.00  0.00    -0.354 N 
ATOM     59  N   UNL A   1      41.576  29.597  33.468  1.00  0.00    -0.248 NA
ATOM     60  C   UNL A   1      41.740  30.401  35.655  1.00  0.00     0.031 C 
ATOM     61  C   UNL A   1      44.414  26.736  31.622  1.00  0.00     0.029 A 
ATOM     62  C   UNL A   1      43.533  27.613  32.234  1.00  0.00     0.049 A 
ATOM     63  H   UNL A   1      41.762  28.471  31.470  1.00  0.00     0.167 HD
ATOM     64  C   UNL A   1      42.702  29.052  34.070  1.00  0.00     0.074 A 
ATOM     65  C   UNL A   1      42.772  29.607  35.406  1.00  0.00     0.031 C 
ATOM     66  C   UNL A   1      43.590  28.163  33.563  1.00  0.00     0.037 A 
BRANCH  53  67
ATOM     67  C   UNL A   1      42.364  26.460  27.753  1.00  0.00     0.064 A 
ATOM     68  C   UNL A   1      41.816  25.191  27.508  1.00  0.00     0.173 A 
ATOM     69  C   UNL A   1      43.299  26.958  26.832  1.00  0.00     0.173 A 
ATOM     70  F   UNL A   1      40.928  24.664  28.364  1.00  0.00    -0.203 F 
ATOM     71  C   UNL A   1      42.217  24.439  26.406  1.00  0.00     0.198 A 
ATOM     72  C   UNL A   1      43.674  26.215  25.716  1.00  0.00     0.198 A 
ATOM     73  F   UNL A   1      43.847  28.169  27.014  1.00  0.00    -0.203 F 
ATOM     74  F   UNL A   1      41.722  23.206  26.224  1.00  0.00    -0.200 F 
ATOM     75  C   UNL A   1      43.141  24.952  25.509  1.00  0.00     0.200 A 
ATOM     76  F   UNL A   1      44.558  26.720  24.844  1.00  0.00    -0.200 F 
ATOM     77  F   UNL A   1      43.525  24.227  24.450  1.00  0.00    -0.200 F 
ENDBRANCH  53  67
BRANCH  54  78
ATOM     78  C   UNL A   1      39.344  32.052  35.415  1.00  0.00     0.064 A 
ATOM     79  C   UNL A   1      38.481  31.554  36.399  1.00  0.00     0.173 A 
ATOM     80  C   UNL A   1      39.798  33.373  35.549  1.00  0.00     0.173 A 
ATOM     81  F   UNL A   1      37.993  30.308  36.294  1.00  0.00    -0.203 F 
ATOM     82  C   UNL A   1      38.085  32.346  37.476  1.00  0.00     0.198 A 
ATOM     83  C   UNL A   1      39.426  34.153  36.641  1.00  0.00     0.198 A 
ATOM     84  F   UNL A   1      40.621  33.897  34.629  1.00  0.00    -0.203 F 
ATOM     85  F   UNL A   1      37.230  31.858  38.384  1.00  0.00    -0.200 F 
ATOM     86  C   UNL A   1      38.568  33.640  37.602  1.00  0.00     0.200 A 
ATOM     87  F   UNL A   1      39.903  35.398  36.765  1.00  0.00    -0.200 F 
ATOM     88  F   UNL A   1      38.198  34.396  38.645  1.00  0.00    -0.200 F 
ENDBRANCH  54  78
BRANCH  66  89
ATOM     89  C   UNL A   1      44.726  27.756  34.455  1.00  0.00     0.064 A 
ATOM     90  C   UNL A   1      44.636  26.633  35.292  1.00  0.00     0.173 A 
ATOM     91  C   UNL A   1      45.915  28.500  34.477  1.00  0.00     0.173 A 
ATOM     92  F   UNL A   1      43.512  25.901  35.320  1.00  0.00    -0.203 F 
ATOM     93  C   UNL A   1      45.684  26.288  36.141  1.00  0.00     0.198 A 
ATOM     94  C   UNL A   1      46.971  28.137  35.309  1.00  0.00     0.198 A 
ATOM     95  F   UNL A   1      46.051  29.581  33.695  1.00  0.00    -0.203 F 
ATOM     96  F   UNL A   1      45.556  25.245  36.971  1.00  0.00    -0.200 F 
ATOM     97  C   UNL A   1      46.852  27.038  36.147  1.00  0.00     0.200 A 
ATOM     98  F   UNL A   1      48.100  28.858  35.308  1.00  0.00    -0.200 F 
ATOM     99  F   UNL A   1      47.856  26.709  36.970  1.00  0.00    -0.200 F 
ENDBRANCH  66  89
ENDBRANCH  40  41
ENDBRANCH  33  35
ENDBRANCH  32  33
ENDBRANCH  31  32
ENDBRANCH  30  31
ENDBRANCH   1  30
TORSDOF 17
ENDMDL
MODEL 2
REMARK VINA RESULT:     -12.5      5.674      9.303
REMARK SMILES C[NH+](C)CCc1nc(Nc2ccc(O)c(C(=O)OCCOC(=O)c3ccc(-c4c5nc(c(-c6c(F)c(F)c(F)c(F)c6F)c6ccc([nH]6)c(-c6c(F)c(F)c(F)c(F)c6F)c6nc(c(-c7c(F)c(F)c(F)c(F)c7F)c7ccc4[nH]7)C=C6)C=C5)cc3)c2)c2ccccc2n1
REMARK SMILES IDX 18 1 16 2 17 3 15 4 10 5 11 6 87 7 12 8 13 9 9 10 8 12 6 13
REMARK SMILES IDX 7 14 94 15 93 16 88 17 92 18 89 19 91 20 90 21 5 22 4 23
REMARK SMILES IDX 2 24 1 25 3 26 14 28 19 30 20 31 21 32 22 33 23 34 24 35
REMARK SMILES IDX 25 36 86 37 26 38 85 39 27 40 28 41 29 42 79 43 30 44 84 45
REMARK SMILES IDX 78 46 80 47 31 48 83 49 77 50 76 51 32 53 64 54 44 55 63 56
REMARK SMILES IDX 45 57 48 58 62 59 81 60 46 61 47 62 61 64 82 65 49 66 33 67
REMARK SMILES IDX 34 68 42 69 35 70 36 71 40 72 43 73 37 74 38 75 41 76 39 77
REMARK SMILES IDX 65 78 66 79 74 80 67 81 68 82 72 83 75 84 69 85 70 86 73 87
REMARK SMILES IDX 71 88 50 89 51 90 59 91 52 92 53 93 57 94 60 95 54 96 55 97
REMARK SMILES IDX 58 98 56 99
REMARK H PARENT 9 11 2 27 14 29 80 52 48 63
REMARK Flexibility Score: inf
ROOT
ATOM      1  O   UNL A   1      41.581  20.418  26.201  1.00  0.00    -0.458 OA
ENDROOT
BRANCH   1   2
ATOM      2  C   UNL A   1      40.254  20.256  25.966  1.00  0.00     0.342 C 
ATOM      3  O   UNL A   1      39.678  19.203  25.750  1.00  0.00    -0.246 OA
BRANCH   2   4
ATOM      4  C   UNL A   1      39.522  21.522  26.182  1.00  0.00     0.103 A 
ATOM      5  C   UNL A   1      37.589  22.880  25.554  1.00  0.00     0.041 A 
ATOM      6  C   UNL A   1      38.058  23.896  26.385  1.00  0.00     0.030 A 
ATOM      7  C   UNL A   1      38.362  21.724  25.422  1.00  0.00     0.045 A 
ATOM      8  C   UNL A   1      39.230  23.721  27.135  1.00  0.00     0.049 A 
ATOM      9  C   UNL A   1      39.955  22.528  27.043  1.00  0.00     0.130 A 
BRANCH   5  10
ATOM     10  N   UNL A   1      36.424  23.018  24.777  1.00  0.00    -0.340 N 
ATOM     11  H   UNL A   1      36.460  23.643  24.017  1.00  0.00     0.168 HD
BRANCH  10  12
ATOM     12  C   UNL A   1      35.202  22.332  24.996  1.00  0.00     0.142 A 
ATOM     13  C   UNL A   1      34.028  20.356  25.010  1.00  0.00     0.137 A 
ATOM     14  N   UNL A   1      35.154  21.018  24.712  1.00  0.00    -0.215 NA
ATOM     15  N   UNL A   1      32.978  20.907  25.632  1.00  0.00    -0.233 NA
ATOM     16  C   UNL A   1      32.992  22.226  25.828  1.00  0.00     0.076 A 
ATOM     17  C   UNL A   1      34.090  23.030  25.504  1.00  0.00     0.043 A 
ATOM     18  C   UNL A   1      31.854  22.822  26.359  1.00  0.00     0.029 A 
ATOM     19  C   UNL A   1      34.004  24.433  25.715  1.00  0.00     0.014 A 
ATOM     20  C   UNL A   1      31.768  24.201  26.560  1.00  0.00     0.002 A 
ATOM     21  C   UNL A   1      32.846  25.011  26.235  1.00  0.00     0.001 A 
BRANCH  13  22
ATOM     22  C   UNL A   1      33.988  18.902  24.631  1.00  0.00     0.138 C 
BRANCH  22  23
ATOM     23  C   UNL A   1      33.072  17.978  25.454  1.00  0.00     0.269 C 
BRANCH  23  24
ATOM     24  N   UNL A   1      33.514  16.632  25.861  1.00  0.00    -0.339 N 
ATOM     25  C   UNL A   1      32.470  15.618  25.738  1.00  0.00     0.332 C 
ATOM     26  C   UNL A   1      34.741  16.191  25.211  1.00  0.00     0.332 C 
ATOM     27  H   UNL A   1      33.723  16.734  26.854  1.00  0.00     0.347 HD
ENDBRANCH  23  24
ENDBRANCH  22  23
ENDBRANCH  13  22
ENDBRANCH  10  12
ENDBRANCH   5  10
BRANCH   9  28
ATOM     28  O   UNL A   1      41.109  22.379  27.755  1.00  0.00    -0.507 OA
ATOM     29  H   UNL A   1      41.827  21.899  27.391  1.00  0.00     0.293 HD
ENDBRANCH   9  28
ENDBRANCH   2   4
ENDBRANCH   1   2
BRANCH   1  30
ATOM     30  C   UNL A   1      42.247  19.320  26.856  1.00  0.00     0.275 C 
BRANCH  30  31
ATOM     31  C   UNL A   1      43.060  18.510  25.849  1.00  0.00     0.275 C 
BRANCH  31  32
ATOM     32  O   UNL A   1      43.241  19.288  24.652  1.00  0.00    -0.458 OA
BRANCH  32  33
ATOM     33  C   UNL A   1      44.513  19.473  24.246  1.00  0.00     0.338 C 
ATOM     34  O   UNL A   1      45.243  18.671  23.676  1.00  0.00    -0.246 OA
BRANCH  33  35
ATOM     35  C   UNL A   1      44.938  20.848  24.556  1.00  0.00     0.060 A 
ATOM     36  C   UNL A   1      45.593  21.106  25.756  1.00  0.00     0.016 A 
ATOM     37  C   UNL A   1      44.568  21.905  23.728  1.00  0.00     0.016 A 
ATOM     38  C   UNL A   1      45.760  22.416  26.199  1.00  0.00     0.010 A 
ATOM     39  C   UNL A   1      44.853  23.221  24.116  1.00  0.00     0.010 A 
ATOM     40  C   UNL A   1      45.398  23.500  25.384  1.00  0.00    -0.014 A 
BRANCH  40  41
ATOM     41  C   UNL A   1      45.540  24.906  25.876  1.00  0.00     0.031 A 
ATOM     42  C   UNL A   1      46.847  25.646  25.716  1.00  0.00     0.074 A 
ATOM     43  C   UNL A   1      44.498  25.549  26.441  1.00  0.00     0.049 A 
ATOM     44  N   UNL A   1      47.209  26.812  26.194  1.00  0.00    -0.248 NA
ATOM     45  C   UNL A   1      47.894  24.982  24.924  1.00  0.00     0.031 C 
ATOM     46  C   UNL A   1      43.161  24.989  26.638  1.00  0.00     0.029 A 
ATOM     47  N   UNL A   1      44.393  26.829  26.932  1.00  0.00    -0.354 N 
ATOM     48  C   UNL A   1      48.539  26.982  25.829  1.00  0.00     0.074 A 
ATOM     49  C   UNL A   1      48.923  25.801  25.085  1.00  0.00     0.031 C 
ATOM     50  C   UNL A   1      42.353  25.939  27.133  1.00  0.00     0.029 A 
ATOM     51  C   UNL A   1      43.134  27.144  27.384  1.00  0.00     0.049 A 
ATOM     52  H   UNL A   1      45.148  27.460  26.957  1.00  0.00     0.167 HD
ATOM     53  C   UNL A   1      49.368  28.024  26.089  1.00  0.00     0.037 A 
ATOM     54  C   UNL A   1      42.662  28.263  27.964  1.00  0.00     0.037 A 
ATOM     55  C   UNL A   1      48.976  29.230  26.770  1.00  0.00     0.049 A 
ATOM     56  C   UNL A   1      43.598  29.404  28.245  1.00  0.00     0.074 A 
ATOM     57  C   UNL A   1      49.741  30.349  27.058  1.00  0.00     0.029 A 
ATOM     58  N   UNL A   1      47.702  29.486  27.255  1.00  0.00    -0.354 N 
ATOM     59  N   UNL A   1      44.869  29.523  27.951  1.00  0.00    -0.248 NA
ATOM     60  C   UNL A   1      43.035  30.554  28.964  1.00  0.00     0.031 C 
ATOM     61  C   UNL A   1      48.937  31.270  27.742  1.00  0.00     0.029 A 
ATOM     62  C   UNL A   1      47.661  30.742  27.842  1.00  0.00     0.049 A 
ATOM     63  H   UNL A   1      46.940  28.867  27.192  1.00  0.00     0.167 HD
ATOM     64  C   UNL A   1      45.259  30.759  28.448  1.00  0.00     0.074 A 
ATOM     65  C   UNL A   1      44.082  31.365  29.034  1.00  0.00     0.031 C 
ATOM     66  C   UNL A   1      46.487  31.333  28.430  1.00  0.00     0.037 A 
BRANCH  53  67
ATOM     67  C   UNL A   1      50.803  27.888  25.659  1.00  0.00     0.064 A 
ATOM     68  C   UNL A   1      51.211  28.141  24.341  1.00  0.00     0.173 A 
ATOM     69  C   UNL A   1      51.785  27.513  26.589  1.00  0.00     0.173 A 
ATOM     70  F   UNL A   1      50.309  28.490  23.411  1.00  0.00    -0.203 F 
ATOM     71  C   UNL A   1      52.543  27.989  23.963  1.00  0.00     0.198 A 
ATOM     72  C   UNL A   1      53.120  27.391  26.213  1.00  0.00     0.198 A 
ATOM     73  F   UNL A   1      51.450  27.267  27.865  1.00  0.00    -0.203 F 
ATOM     74  F   UNL A   1      52.900  28.181  22.685  1.00  0.00    -0.200 F 
ATOM     75  C   UNL A   1      53.497  27.619  24.899  1.00  0.00     0.200 A 
ATOM     76  F   UNL A   1      54.042  27.046  27.124  1.00  0.00    -0.200 F 
ATOM     77  F   UNL A   1      54.778  27.473  24.532  1.00  0.00    -0.200 F 
ENDBRANCH  53  67
BRANCH  54  78
ATOM     78  C   UNL A   1      41.227  28.349  28.339  1.00  0.00     0.064 A 
ATOM     79  C   UNL A   1      40.783  27.880  29.582  1.00  0.00     0.173 A 
ATOM     80  C   UNL A   1      40.276  28.915  27.476  1.00  0.00     0.173 A 
ATOM     81  F   UNL A   1      41.649  27.299  30.427  1.00  0.00    -0.203 F 
ATOM     82  C   UNL A   1      39.441  27.971  29.948  1.00  0.00     0.198 A 
ATOM     83  C   UNL A   1      38.941  29.033  27.855  1.00  0.00     0.198 A 
ATOM     84  F   UNL A   1      40.651  29.372  26.272  1.00  0.00    -0.203 F 
ATOM     85  F   UNL A   1      39.036  27.482  31.127  1.00  0.00    -0.200 F 
ATOM     86  C   UNL A   1      38.524  28.559  29.089  1.00  0.00     0.200 A 
ATOM     87  F   UNL A   1      38.061  29.611  27.026  1.00  0.00    -0.200 F 
ATOM     88  F   UNL A   1      37.237  28.659  29.447  1.00  0.00    -0.200 F 
ENDBRANCH  54  78
BRANCH  66  89
ATOM     89  C   UNL A   1      46.606  32.697  29.044  1.00  0.00     0.064 A 
ATOM     90  C   UNL A   1      46.949  32.866  30.394  1.00  0.00     0.173 A 
ATOM     91  C   UNL A   1      46.372  33.847  28.275  1.00  0.00     0.173 A 
ATOM     92  F   UNL A   1      47.164  31.796  31.175  1.00  0.00    -0.203 F 
ATOM     93  C   UNL A   1      47.021  34.136  30.960  1.00  0.00     0.198 A 
ATOM     94  C   UNL A   1      46.470  35.116  28.838  1.00  0.00     0.198 A 
ATOM     95  F   UNL A   1      46.044  33.738  26.979  1.00  0.00    -0.203 F 
ATOM     96  F   UNL A   1      47.295  34.273  32.264  1.00  0.00    -0.200 F 
ATOM     97  C   UNL A   1      46.784  35.260  30.181  1.00  0.00     0.200 A 
ATOM     98  F   UNL A   1      46.248  36.200  28.083  1.00  0.00    -0.200 F 
ATOM     99  F   UNL A   1      46.847  36.481  30.729  1.00  0.00    -0.200 F 
ENDBRANCH  66  89
ENDBRANCH  40  41
ENDBRANCH  33  35
ENDBRANCH  32  33
ENDBRANCH  31  32
ENDBRANCH  30  31
ENDBRANCH   1  30
TORSDOF 17
ENDMDL
MODEL 3
REMARK VINA RESULT:     -12.4      4.526     10.014
REMARK SMILES C[NH+](C)CCc1nc(Nc2ccc(O)c(C(=O)OCCOC(=O)c3ccc(-c4c5nc(c(-c6c(F)c(F)c(F)c(F)c6F)c6ccc([nH]6)c(-c6c(F)c(F)c(F)c(F)c6F)c6nc(c(-c7c(F)c(F)c(F)c(F)c7F)c7ccc4[nH]7)C=C6)C=C5)cc3)c2)c2ccccc2n1
REMARK SMILES IDX 18 1 16 2 17 3 15 4 10 5 11 6 87 7 12 8 13 9 9 10 8 12 6 13
REMARK SMILES IDX 7 14 94 15 93 16 88 17 92 18 89 19 91 20 90 21 5 22 4 23
REMARK SMILES IDX 2 24 1 25 3 26 14 28 19 30 20 31 21 32 22 33 23 34 24 35
REMARK SMILES IDX 25 36 86 37 26 38 85 39 27 40 28 41 29 42 79 43 30 44 84 45
REMARK SMILES IDX 78 46 80 47 31 48 83 49 77 50 76 51 32 53 64 54 44 55 63 56
REMARK SMILES IDX 45 57 48 58 62 59 81 60 46 61 47 62 61 64 82 65 49 66 33 67
REMARK SMILES IDX 34 68 42 69 35 70 36 71 40 72 43 73 37 74 38 75 41 76 39 77
REMARK SMILES IDX 65 78 66 79 74 80 67 81 68 82 72 83 75 84 69 85 70 86 73 87
REMARK SMILES IDX 71 88 50 89 51 90 59 91 52 92 53 93 57 94 60 95 54 96 55 97
REMARK SMILES IDX 58 98 56 99
REMARK H PARENT 9 11 2 27 14 29 80 52 48 63
REMARK Flexibility Score: inf
ROOT
ATOM      1  O   UNL A   1      34.538  21.505  23.992  1.00  0.00    -0.458 OA
ENDROOT
BRANCH   1   2
ATOM      2  C   UNL A   1      33.183  21.528  23.929  1.00  0.00     0.342 C 
ATOM      3  O   UNL A   1      32.468  20.715  23.369  1.00  0.00    -0.246 OA
BRANCH   2   4
ATOM      4  C   UNL A   1      32.633  22.593  24.796  1.00  0.00     0.103 A 
ATOM      5  C   UNL A   1      32.796  24.932  25.485  1.00  0.00     0.041 A 
ATOM      6  C   UNL A   1      31.794  24.704  26.428  1.00  0.00     0.030 A 
ATOM      7  C   UNL A   1      33.241  23.854  24.718  1.00  0.00     0.045 A 
ATOM      8  C   UNL A   1      31.191  23.442  26.536  1.00  0.00     0.049 A 
ATOM      9  C   UNL A   1      31.603  22.390  25.711  1.00  0.00     0.130 A 
BRANCH   5  10
ATOM     10  N   UNL A   1      33.434  26.179  25.350  1.00  0.00    -0.340 N 
ATOM     11  H   UNL A   1      34.418  26.188  25.382  1.00  0.00     0.168 HD
BRANCH  10  12
ATOM     12  C   UNL A   1      32.780  27.424  25.171  1.00  0.00     0.142 A 
ATOM     13  C   UNL A   1      31.131  28.653  24.145  1.00  0.00     0.137 A 
ATOM     14  N   UNL A   1      31.810  27.502  24.242  1.00  0.00    -0.215 NA
ATOM     15  N   UNL A   1      31.314  29.701  24.957  1.00  0.00    -0.233 NA
ATOM     16  C   UNL A   1      32.335  29.655  25.814  1.00  0.00     0.076 A 
ATOM     17  C   UNL A   1      33.150  28.529  25.964  1.00  0.00     0.043 A 
ATOM     18  C   UNL A   1      32.606  30.788  26.571  1.00  0.00     0.029 A 
ATOM     19  C   UNL A   1      34.238  28.580  26.876  1.00  0.00     0.014 A 
ATOM     20  C   UNL A   1      33.680  30.841  27.463  1.00  0.00     0.002 A 
ATOM     21  C   UNL A   1      34.501  29.734  27.615  1.00  0.00     0.001 A 
BRANCH  13  22
ATOM     22  C   UNL A   1      30.091  28.724  23.061  1.00  0.00     0.138 C 
BRANCH  22  23
ATOM     23  C   UNL A   1      29.511  30.110  22.724  1.00  0.00     0.269 C 
BRANCH  23  24
ATOM     24  N   UNL A   1      28.055  30.349  22.731  1.00  0.00    -0.339 N 
ATOM     25  C   UNL A   1      27.278  29.179  23.126  1.00  0.00     0.332 C 
ATOM     26  C   UNL A   1      27.653  31.520  23.500  1.00  0.00     0.332 C 
ATOM     27  H   UNL A   1      27.837  30.546  21.755  1.00  0.00     0.347 HD
ENDBRANCH  23  24
ENDBRANCH  22  23
ENDBRANCH  13  22
ENDBRANCH  10  12
ENDBRANCH   5  10
BRANCH   9  28
ATOM     28  O   UNL A   1      31.029  21.159  25.845  1.00  0.00    -0.507 OA
ATOM     29  H   UNL A   1      30.152  21.082  26.165  1.00  0.00     0.293 HD
ENDBRANCH   9  28
ENDBRANCH   2   4
ENDBRANCH   1   2
BRANCH   1  30
ATOM     30  C   UNL A   1      35.110  20.645  24.997  1.00  0.00     0.275 C 
BRANCH  30  31
ATOM     31  C   UNL A   1      36.062  21.430  25.896  1.00  0.00     0.275 C 
BRANCH  31  32
ATOM     32  O   UNL A   1      37.261  21.737  25.162  1.00  0.00    -0.458 OA
BRANCH  32  33
ATOM     33  C   UNL A   1      38.425  21.394  25.750  1.00  0.00     0.338 C 
ATOM     34  O   UNL A   1      38.962  20.294  25.766  1.00  0.00    -0.246 OA
BRANCH  33  35
ATOM     35  C   UNL A   1      39.030  22.579  26.381  1.00  0.00     0.060 A 
ATOM     36  C   UNL A   1      38.514  23.841  26.100  1.00  0.00     0.016 A 
ATOM     37  C   UNL A   1      40.192  22.459  27.139  1.00  0.00     0.016 A 
ATOM     38  C   UNL A   1      39.224  24.985  26.456  1.00  0.00     0.010 A 
ATOM     39  C   UNL A   1      40.836  23.612  27.606  1.00  0.00     0.010 A 
ATOM     40  C   UNL A   1      40.397  24.894  27.222  1.00  0.00    -0.014 A 
BRANCH  40  41
ATOM     41  C   UNL A   1      41.179  26.120  27.568  1.00  0.00     0.031 A 
ATOM     42  C   UNL A   1      40.573  27.198  28.436  1.00  0.00     0.074 A 
ATOM     43  C   UNL A   1      42.450  26.273  27.143  1.00  0.00     0.049 A 
ATOM     44  N   UNL A   1      41.036  28.388  28.734  1.00  0.00    -0.248 NA
ATOM     45  C   UNL A   1      39.263  26.905  29.038  1.00  0.00     0.031 C 
ATOM     46  C   UNL A   1      43.193  25.312  26.327  1.00  0.00     0.029 A 
ATOM     47  N   UNL A   1      43.353  27.287  27.358  1.00  0.00    -0.354 N 
ATOM     48  C   UNL A   1      40.046  29.008  29.488  1.00  0.00     0.074 A 
ATOM     49  C   UNL A   1      38.957  28.063  29.606  1.00  0.00     0.031 C 
ATOM     50  C   UNL A   1      44.455  25.742  26.178  1.00  0.00     0.029 A 
ATOM     51  C   UNL A   1      44.586  27.055  26.799  1.00  0.00     0.049 A 
ATOM     52  H   UNL A   1      43.137  28.102  27.866  1.00  0.00     0.167 HD
ATOM     53  C   UNL A   1      40.043  30.251  30.032  1.00  0.00     0.037 A 
ATOM     54  C   UNL A   1      45.693  27.821  26.758  1.00  0.00     0.037 A 
ATOM     55  C   UNL A   1      41.148  31.171  29.976  1.00  0.00     0.049 A 
ATOM     56  C   UNL A   1      45.665  29.194  27.365  1.00  0.00     0.074 A 
ATOM     57  C   UNL A   1      41.244  32.443  30.517  1.00  0.00     0.029 A 
ATOM     58  N   UNL A   1      42.361  30.913  29.354  1.00  0.00    -0.354 N 
ATOM     59  N   UNL A   1      44.700  29.792  28.018  1.00  0.00    -0.248 NA
ATOM     60  C   UNL A   1      46.877  30.009  27.201  1.00  0.00     0.031 C 
ATOM     61  C   UNL A   1      42.505  32.964  30.200  1.00  0.00     0.029 A 
ATOM     62  C   UNL A   1      43.210  32.001  29.497  1.00  0.00     0.049 A 
ATOM     63  H   UNL A   1      42.586  30.080  28.882  1.00  0.00     0.167 HD
ATOM     64  C   UNL A   1      45.184  31.051  28.344  1.00  0.00     0.074 A 
ATOM     65  C   UNL A   1      46.542  31.119  27.844  1.00  0.00     0.031 C 
ATOM     66  C   UNL A   1      44.555  32.063  28.990  1.00  0.00     0.037 A 
BRANCH  53  67
ATOM     67  C   UNL A   1      38.781  30.702  30.713  1.00  0.00     0.064 A 
ATOM     68  C   UNL A   1      37.688  31.209  29.994  1.00  0.00     0.173 A 
ATOM     69  C   UNL A   1      38.660  30.609  32.109  1.00  0.00     0.173 A 
ATOM     70  F   UNL A   1      37.757  31.331  28.660  1.00  0.00    -0.203 F 
ATOM     71  C   UNL A   1      36.537  31.640  30.650  1.00  0.00     0.198 A 
ATOM     72  C   UNL A   1      37.496  31.013  32.758  1.00  0.00     0.198 A 
ATOM     73  F   UNL A   1      39.672  30.123  32.843  1.00  0.00    -0.203 F 
ATOM     74  F   UNL A   1      35.529  32.175  29.947  1.00  0.00    -0.200 F 
ATOM     75  C   UNL A   1      36.440  31.538  32.029  1.00  0.00     0.200 A 
ATOM     76  F   UNL A   1      37.401  30.900  34.090  1.00  0.00    -0.200 F 
ATOM     77  F   UNL A   1      35.332  31.953  32.658  1.00  0.00    -0.200 F 
ENDBRANCH  53  67
BRANCH  54  78
ATOM     78  C   UNL A   1      46.920  27.307  26.096  1.00  0.00     0.064 A 
ATOM     79  C   UNL A   1      47.152  27.544  24.735  1.00  0.00     0.173 A 
ATOM     80  C   UNL A   1      47.891  26.587  26.810  1.00  0.00     0.173 A 
ATOM     81  F   UNL A   1      46.236  28.198  24.004  1.00  0.00    -0.203 F 
ATOM     82  C   UNL A   1      48.308  27.080  24.111  1.00  0.00     0.198 A 
ATOM     83  C   UNL A   1      49.060  26.150  26.192  1.00  0.00     0.198 A 
ATOM     84  F   UNL A   1      47.712  26.329  28.113  1.00  0.00    -0.203 F 
ATOM     85  F   UNL A   1      48.489  27.288  22.800  1.00  0.00    -0.200 F 
ATOM     86  C   UNL A   1      49.266  26.394  24.842  1.00  0.00     0.200 A 
ATOM     87  F   UNL A   1      49.987  25.497  26.905  1.00  0.00    -0.200 F 
ATOM     88  F   UNL A   1      50.384  25.960  24.245  1.00  0.00    -0.200 F 
ENDBRANCH  54  78
BRANCH  66  89
ATOM     89  C   UNL A   1      45.344  33.320  29.210  1.00  0.00     0.064 A 
ATOM     90  C   UNL A   1      46.137  33.498  30.353  1.00  0.00     0.173 A 
ATOM     91  C   UNL A   1      45.302  34.360  28.269  1.00  0.00     0.173 A 
ATOM     92  F   UNL A   1      46.194  32.540  31.291  1.00  0.00    -0.203 F 
ATOM     93  C   UNL A   1      46.835  34.685  30.562  1.00  0.00     0.198 A 
ATOM     94  C   UNL A   1      46.022  35.535  28.469  1.00  0.00     0.198 A 
ATOM     95  F   UNL A   1      44.560  34.237  27.158  1.00  0.00    -0.203 F 
ATOM     96  F   UNL A   1      47.542  34.856  31.687  1.00  0.00    -0.200 F 
ATOM     97  C   UNL A   1      46.779  35.701  29.618  1.00  0.00     0.200 A 
ATOM     98  F   UNL A   1      45.972  36.512  27.553  1.00  0.00    -0.200 F 
ATOM     99  F   UNL A   1      47.445  36.845  29.825  1.00  0.00    -0.200 F 
ENDBRANCH  66  89
ENDBRANCH  40  41
ENDBRANCH  33  35
ENDBRANCH  32  33
ENDBRANCH  31  32
ENDBRANCH  30  31
ENDBRANCH   1  30
TORSDOF 17
ENDMDL
