MODEL 1
REMARK VINA RESULT:     -10.7      0.000      0.000
REMARK SMILES CCOc1ccccc1[C@@H](O)[C@@H](C)[C@@H](C)C(=O)OCCOC(=O)c1ccc(-c2c3nc(c(-c4c(F)c(F)c(F)c(F)c4F)c4ccc([nH]4)c(-c4c(F)c(F)c(F)c(F)c4F)c4nc(c(-c5c(F)c(F)c(F)c(F)c5F)c5ccc2[nH]5)C=C4)C=C3)cc1
REMARK SMILES IDX 18 1 16 2 17 3 14 4 15 5 12 6 13 7 10 8 9 9 4 10 5 11 6 12
REMARK SMILES IDX 8 13 7 14 3 15 2 16 1 17 11 18 19 20 20 21 21 22 22 23 23 24
REMARK SMILES IDX 24 25 25 26 86 27 26 28 85 29 27 30 28 31 29 32 79 33 30 34
REMARK SMILES IDX 84 35 78 36 80 37 31 38 83 39 77 40 76 41 32 43 64 44 44 45
REMARK SMILES IDX 63 46 45 47 48 48 62 49 81 50 46 51 47 52 61 54 82 55 49 56
REMARK SMILES IDX 33 57 34 58 42 59 35 60 36 61 40 62 43 63 37 64 38 65 41 66
REMARK SMILES IDX 39 67 65 68 66 69 74 70 67 71 68 72 72 73 75 74 69 75 70 76
REMARK SMILES IDX 73 77 71 78 50 79 51 80 59 81 52 82 53 83 57 84 60 85 54 86
REMARK SMILES IDX 55 87 58 88 56 89
REMARK H PARENT 11 19 80 42 48 53
REMARK Flexibility Score: inf
ROOT
ATOM      1  O   UNL A   1      32.251  28.359  24.658  1.00  0.00    -0.462 OA
ENDROOT
BRANCH   1   2
ATOM      2  C   UNL A   1      31.855  27.069  24.511  1.00  0.00     0.309 C 
ATOM      3  O   UNL A   1      30.779  26.716  24.040  1.00  0.00    -0.252 OA
BRANCH   2   4
ATOM      4  C   UNL A   1      32.871  26.060  25.025  1.00  0.00     0.102 C 
ATOM      5  C   UNL A   1      33.660  26.764  26.128  1.00  0.00     0.020 C 
BRANCH   4   6
ATOM      6  C   UNL A   1      33.740  25.346  23.938  1.00  0.00     0.033 C 
ATOM      7  C   UNL A   1      33.367  25.881  22.540  1.00  0.00     0.011 C 
BRANCH   6   8
ATOM      8  C   UNL A   1      33.571  23.800  24.029  1.00  0.00     0.152 C 
BRANCH   8   9
ATOM      9  C   UNL A   1      34.785  23.030  24.503  1.00  0.00     0.023 A 
ATOM     10  C   UNL A   1      34.773  21.629  24.582  1.00  0.00     0.125 A 
ATOM     11  C   UNL A   1      35.900  20.922  25.002  1.00  0.00     0.047 A 
ATOM     12  C   UNL A   1      37.066  21.613  25.333  1.00  0.00     0.004 A 
ATOM     13  C   UNL A   1      35.965  23.709  24.853  1.00  0.00     0.010 A 
ATOM     14  C   UNL A   1      37.097  23.004  25.261  1.00  0.00     0.001 A 
BRANCH  10  15
ATOM     15  O   UNL A   1      33.602  20.962  24.337  1.00  0.00    -0.493 OA
BRANCH  15  16
ATOM     16  C   UNL A   1      33.270  20.037  25.378  1.00  0.00     0.226 C 
ATOM     17  C   UNL A   1      32.876  18.729  24.713  1.00  0.00     0.049 C 
ENDBRANCH  15  16
ENDBRANCH  10  15
ENDBRANCH   8   9
BRANCH   8  18
ATOM     18  O   UNL A   1      32.497  23.499  24.928  1.00  0.00    -0.388 OA
ATOM     19  H   UNL A   1      31.721  23.214  24.420  1.00  0.00     0.211 HD
ENDBRANCH   8  18
ENDBRANCH   6   8
ENDBRANCH   4   6
ENDBRANCH   2   4
ENDBRANCH   1   2
BRANCH   1  20
ATOM     20  C   UNL A   1      31.194  29.338  24.590  1.00  0.00     0.274 C 
BRANCH  20  21
ATOM     21  C   UNL A   1      31.423  30.457  25.607  1.00  0.00     0.275 C 
BRANCH  21  22
ATOM     22  O   UNL A   1      32.756  30.368  26.141  1.00  0.00    -0.458 OA
BRANCH  22  23
ATOM     23  C   UNL A   1      33.111  31.337  27.009  1.00  0.00     0.338 C 
ATOM     24  O   UNL A   1      32.513  32.379  27.246  1.00  0.00    -0.246 OA
BRANCH  23  25
ATOM     25  C   UNL A   1      34.393  30.993  27.643  1.00  0.00     0.060 A 
ATOM     26  C   UNL A   1      34.708  29.670  27.969  1.00  0.00     0.016 A 
ATOM     27  C   UNL A   1      35.258  32.029  27.997  1.00  0.00     0.016 A 
ATOM     28  C   UNL A   1      35.874  29.387  28.685  1.00  0.00     0.010 A 
ATOM     29  C   UNL A   1      36.447  31.739  28.666  1.00  0.00     0.010 A 
ATOM     30  C   UNL A   1      36.754  30.419  29.039  1.00  0.00    -0.014 A 
BRANCH  30  31
ATOM     31  C   UNL A   1      37.986  30.152  29.825  1.00  0.00     0.031 A 
ATOM     32  C   UNL A   1      39.049  29.248  29.267  1.00  0.00     0.074 A 
ATOM     33  C   UNL A   1      38.129  30.673  31.057  1.00  0.00     0.049 A 
ATOM     34  N   UNL A   1      40.108  28.750  29.853  1.00  0.00    -0.248 NA
ATOM     35  C   UNL A   1      38.893  28.845  27.861  1.00  0.00     0.031 C 
ATOM     36  C   UNL A   1      37.186  31.583  31.705  1.00  0.00     0.029 A 
ATOM     37  N   UNL A   1      39.118  30.493  31.992  1.00  0.00    -0.354 N 
ATOM     38  C   UNL A   1      40.722  27.944  28.904  1.00  0.00     0.074 A 
ATOM     39  C   UNL A   1      39.916  28.015  27.703  1.00  0.00     0.031 C 
ATOM     40  C   UNL A   1      37.643  31.886  32.930  1.00  0.00     0.029 A 
ATOM     41  C   UNL A   1      38.878  31.148  33.175  1.00  0.00     0.049 A 
ATOM     42  H   UNL A   1      39.922  29.948  31.830  1.00  0.00     0.167 HD
ATOM     43  C   UNL A   1      41.855  27.209  29.025  1.00  0.00     0.037 A 
ATOM     44  C   UNL A   1      39.557  31.126  34.337  1.00  0.00     0.037 A 
ATOM     45  C   UNL A   1      42.673  27.164  30.209  1.00  0.00     0.049 A 
ATOM     46  C   UNL A   1      40.789  30.272  34.460  1.00  0.00     0.074 A 
ATOM     47  C   UNL A   1      43.863  26.485  30.412  1.00  0.00     0.029 A 
ATOM     48  N   UNL A   1      42.385  27.827  31.392  1.00  0.00    -0.354 N 
ATOM     49  N   UNL A   1      41.359  29.509  33.561  1.00  0.00    -0.248 NA
ATOM     50  C   UNL A   1      41.460  30.267  35.767  1.00  0.00     0.031 C 
ATOM     51  C   UNL A   1      44.274  26.708  31.731  1.00  0.00     0.029 A 
ATOM     52  C   UNL A   1      43.362  27.556  32.337  1.00  0.00     0.049 A 
ATOM     53  H   UNL A   1      41.600  28.403  31.540  1.00  0.00     0.167 HD
ATOM     54  C   UNL A   1      42.463  28.946  34.184  1.00  0.00     0.074 A 
ATOM     55  C   UNL A   1      42.491  29.464  35.537  1.00  0.00     0.031 C 
ATOM     56  C   UNL A   1      43.374  28.077  33.680  1.00  0.00     0.037 A 
BRANCH  43  57
ATOM     57  C   UNL A   1      42.264  26.371  27.851  1.00  0.00     0.064 A 
ATOM     58  C   UNL A   1      43.250  26.792  26.948  1.00  0.00     0.173 A 
ATOM     59  C   UNL A   1      41.680  25.110  27.647  1.00  0.00     0.173 A 
ATOM     60  F   UNL A   1      43.827  27.995  27.092  1.00  0.00    -0.203 F 
ATOM     61  C   UNL A   1      43.621  25.993  25.870  1.00  0.00     0.198 A 
ATOM     62  C   UNL A   1      42.071  24.305  26.581  1.00  0.00     0.198 A 
ATOM     63  F   UNL A   1      40.735  24.660  28.485  1.00  0.00    -0.203 F 
ATOM     64  F   UNL A   1      44.536  26.433  24.996  1.00  0.00    -0.200 F 
ATOM     65  C   UNL A   1      43.035  24.748  25.690  1.00  0.00     0.200 A 
ATOM     66  F   UNL A   1      41.509  23.099  26.414  1.00  0.00    -0.200 F 
ATOM     67  F   UNL A   1      43.396  23.979  24.654  1.00  0.00    -0.200 F 
ENDBRANCH  43  57
BRANCH  44  68
ATOM     68  C   UNL A   1      39.073  31.933  35.484  1.00  0.00     0.064 A 
ATOM     69  C   UNL A   1      38.264  31.358  36.473  1.00  0.00     0.173 A 
ATOM     70  C   UNL A   1      39.425  33.284  35.627  1.00  0.00     0.173 A 
ATOM     71  F   UNL A   1      37.882  30.079  36.363  1.00  0.00    -0.203 F 
ATOM     72  C   UNL A   1      37.820  32.106  37.561  1.00  0.00     0.198 A 
ATOM     73  C   UNL A   1      39.000  34.023  36.728  1.00  0.00     0.198 A 
ATOM     74  F   UNL A   1      40.195  33.878  34.704  1.00  0.00    -0.203 F 
ATOM     75  F   UNL A   1      37.024  31.542  38.478  1.00  0.00    -0.200 F 
ATOM     76  C   UNL A   1      38.195  33.435  37.693  1.00  0.00     0.200 A 
ATOM     77  F   UNL A   1      39.372  35.305  36.855  1.00  0.00    -0.200 F 
ATOM     78  F   UNL A   1      37.778  34.150  38.745  1.00  0.00    -0.200 F 
ENDBRANCH  44  68
BRANCH  56  79
ATOM     79  C   UNL A   1      44.489  27.652  34.587  1.00  0.00     0.064 A 
ATOM     80  C   UNL A   1      45.679  28.387  34.676  1.00  0.00     0.173 A 
ATOM     81  C   UNL A   1      44.352  26.515  35.396  1.00  0.00     0.173 A 
ATOM     82  F   UNL A   1      45.863  29.471  33.908  1.00  0.00    -0.203 F 
ATOM     83  C   UNL A   1      46.703  27.986  35.531  1.00  0.00     0.198 A 
ATOM     84  C   UNL A   1      45.367  26.130  36.267  1.00  0.00     0.198 A 
ATOM     85  F   UNL A   1      43.229  25.781  35.348  1.00  0.00    -0.203 F 
ATOM     86  F   UNL A   1      47.849  28.680  35.573  1.00  0.00    -0.200 F 
ATOM     87  C   UNL A   1      46.544  26.862  36.329  1.00  0.00     0.200 A 
ATOM     88  F   UNL A   1      45.211  25.049  37.043  1.00  0.00    -0.200 F 
ATOM     89  F   UNL A   1      47.529  26.480  37.153  1.00  0.00    -0.200 F 
ENDBRANCH  56  79
ENDBRANCH  30  31
ENDBRANCH  23  25
ENDBRANCH  22  23
ENDBRANCH  21  22
ENDBRANCH  20  21
ENDBRANCH   1  20
TORSDOF 17
ENDMDL
MODEL 2
REMARK VINA RESULT:     -10.6      0.915      2.253
REMARK SMILES CCOc1ccccc1[C@@H](O)[C@@H](C)[C@@H](C)C(=O)OCCOC(=O)c1ccc(-c2c3nc(c(-c4c(F)c(F)c(F)c(F)c4F)c4ccc([nH]4)c(-c4c(F)c(F)c(F)c(F)c4F)c4nc(c(-c5c(F)c(F)c(F)c(F)c5F)c5ccc2[nH]5)C=C4)C=C3)cc1
REMARK SMILES IDX 18 1 16 2 17 3 14 4 15 5 12 6 13 7 10 8 9 9 4 10 5 11 6 12
REMARK SMILES IDX 8 13 7 14 3 15 2 16 1 17 11 18 19 20 20 21 21 22 22 23 23 24
REMARK SMILES IDX 24 25 25 26 86 27 26 28 85 29 27 30 28 31 29 32 79 33 30 34
REMARK SMILES IDX 84 35 78 36 80 37 31 38 83 39 77 40 76 41 32 43 64 44 44 45
REMARK SMILES IDX 63 46 45 47 48 48 62 49 81 50 46 51 47 52 61 54 82 55 49 56
REMARK SMILES IDX 33 57 34 58 42 59 35 60 36 61 40 62 43 63 37 64 38 65 41 66
REMARK SMILES IDX 39 67 65 68 66 69 74 70 67 71 68 72 72 73 75 74 69 75 70 76
REMARK SMILES IDX 73 77 71 78 50 79 51 80 59 81 52 82 53 83 57 84 60 85 54 86
REMARK SMILES IDX 55 87 58 88 56 89
REMARK H PARENT 11 19 80 42 48 53
REMARK Flexibility Score: inf
ROOT
ATOM      1  O   UNL A   1      31.095  27.782  24.739  1.00  0.00    -0.462 OA
ENDROOT
BRANCH   1   2
ATOM      2  C   UNL A   1      31.925  27.323  23.767  1.00  0.00     0.309 C 
ATOM      3  O   UNL A   1      32.208  27.935  22.742  1.00  0.00    -0.252 OA
BRANCH   2   4
ATOM      4  C   UNL A   1      32.468  25.929  24.040  1.00  0.00     0.102 C 
ATOM      5  C   UNL A   1      33.990  26.064  24.107  1.00  0.00     0.020 C 
BRANCH   4   6
ATOM      6  C   UNL A   1      31.943  24.791  23.104  1.00  0.00     0.033 C 
ATOM      7  C   UNL A   1      30.804  24.024  23.806  1.00  0.00     0.011 C 
BRANCH   6   8
ATOM      8  C   UNL A   1      33.108  23.842  22.688  1.00  0.00     0.152 C 
BRANCH   8   9
ATOM      9  C   UNL A   1      32.970  22.399  23.123  1.00  0.00     0.023 A 
ATOM     10  C   UNL A   1      33.567  21.935  24.305  1.00  0.00     0.125 A 
ATOM     11  C   UNL A   1      33.421  20.608  24.712  1.00  0.00     0.047 A 
ATOM     12  C   UNL A   1      32.656  19.729  23.945  1.00  0.00     0.004 A 
ATOM     13  C   UNL A   1      32.213  21.495  22.357  1.00  0.00     0.010 A 
ATOM     14  C   UNL A   1      32.055  20.172  22.768  1.00  0.00     0.001 A 
BRANCH  10  15
ATOM     15  O   UNL A   1      34.384  22.778  25.009  1.00  0.00    -0.493 OA
BRANCH  15  16
ATOM     16  C   UNL A   1      35.770  22.454  24.854  1.00  0.00     0.226 C 
ATOM     17  C   UNL A   1      36.570  23.683  25.254  1.00  0.00     0.049 C 
ENDBRANCH  15  16
ENDBRANCH  10  15
ENDBRANCH   8   9
BRANCH   8  18
ATOM     18  O   UNL A   1      33.228  23.848  21.261  1.00  0.00    -0.388 OA
ATOM     19  H   UNL A   1      33.389  24.753  20.954  1.00  0.00     0.211 HD
ENDBRANCH   8  18
ENDBRANCH   6   8
ENDBRANCH   4   6
ENDBRANCH   2   4
ENDBRANCH   1   2
BRANCH   1  20
ATOM     20  C   UNL A   1      31.751  28.329  25.900  1.00  0.00     0.274 C 
BRANCH  20  21
ATOM     21  C   UNL A   1      31.646  29.855  25.916  1.00  0.00     0.275 C 
BRANCH  21  22
ATOM     22  O   UNL A   1      32.962  30.436  25.909  1.00  0.00    -0.458 OA
BRANCH  22  23
ATOM     23  C   UNL A   1      33.227  31.313  26.898  1.00  0.00     0.338 C 
ATOM     24  O   UNL A   1      32.556  32.279  27.235  1.00  0.00    -0.246 OA
BRANCH  23  25
ATOM     25  C   UNL A   1      34.509  30.973  27.536  1.00  0.00     0.060 A 
ATOM     26  C   UNL A   1      34.784  29.668  27.958  1.00  0.00     0.016 A 
ATOM     27  C   UNL A   1      35.415  32.001  27.793  1.00  0.00     0.016 A 
ATOM     28  C   UNL A   1      35.954  29.399  28.674  1.00  0.00     0.010 A 
ATOM     29  C   UNL A   1      36.607  31.721  28.462  1.00  0.00     0.010 A 
ATOM     30  C   UNL A   1      36.876  30.425  28.932  1.00  0.00    -0.014 A 
BRANCH  30  31
ATOM     31  C   UNL A   1      38.112  30.174  29.716  1.00  0.00     0.031 A 
ATOM     32  C   UNL A   1      39.176  29.264  29.168  1.00  0.00     0.074 A 
ATOM     33  C   UNL A   1      38.261  30.718  30.937  1.00  0.00     0.049 A 
ATOM     34  N   UNL A   1      40.239  28.779  29.757  1.00  0.00    -0.248 NA
ATOM     35  C   UNL A   1      39.012  28.834  27.771  1.00  0.00     0.031 C 
ATOM     36  C   UNL A   1      37.320  31.638  31.573  1.00  0.00     0.029 A 
ATOM     37  N   UNL A   1      39.257  30.558  31.870  1.00  0.00    -0.354 N 
ATOM     38  C   UNL A   1      40.849  27.958  28.819  1.00  0.00     0.074 A 
ATOM     39  C   UNL A   1      40.036  28.004  27.622  1.00  0.00     0.031 C 
ATOM     40  C   UNL A   1      37.783  31.965  32.791  1.00  0.00     0.029 A 
ATOM     41  C   UNL A   1      39.022  31.234  33.041  1.00  0.00     0.049 A 
ATOM     42  H   UNL A   1      40.061  30.013  31.713  1.00  0.00     0.167 HD
ATOM     43  C   UNL A   1      41.985  27.228  28.947  1.00  0.00     0.037 A 
ATOM     44  C   UNL A   1      39.708  31.236  34.200  1.00  0.00     0.037 A 
ATOM     45  C   UNL A   1      42.810  27.207  30.126  1.00  0.00     0.049 A 
ATOM     46  C   UNL A   1      40.942  30.387  34.332  1.00  0.00     0.074 A 
ATOM     47  C   UNL A   1      44.003  26.535  30.335  1.00  0.00     0.029 A 
ATOM     48  N   UNL A   1      42.527  27.890  31.300  1.00  0.00    -0.354 N 
ATOM     49  N   UNL A   1      41.510  29.609  33.443  1.00  0.00    -0.248 NA
ATOM     50  C   UNL A   1      41.622  30.408  35.634  1.00  0.00     0.031 C 
ATOM     51  C   UNL A   1      44.422  26.783  31.647  1.00  0.00     0.029 A 
ATOM     52  C   UNL A   1      43.510  27.639  32.243  1.00  0.00     0.049 A 
ATOM     53  H   UNL A   1      41.742  28.467  31.441  1.00  0.00     0.167 HD
ATOM     54  C   UNL A   1      42.619  29.061  34.070  1.00  0.00     0.074 A 
ATOM     55  C   UNL A   1      42.653  29.604  35.412  1.00  0.00     0.031 C 
ATOM     56  C   UNL A   1      43.529  28.185  33.576  1.00  0.00     0.037 A 
BRANCH  43  57
ATOM     57  C   UNL A   1      42.389  26.369  27.786  1.00  0.00     0.064 A 
ATOM     58  C   UNL A   1      41.842  25.094  27.584  1.00  0.00     0.173 A 
ATOM     59  C   UNL A   1      43.315  26.845  26.845  1.00  0.00     0.173 A 
ATOM     60  F   UNL A   1      40.964  24.589  28.463  1.00  0.00    -0.203 F 
ATOM     61  C   UNL A   1      42.224  24.317  26.493  1.00  0.00     0.198 A 
ATOM     62  C   UNL A   1      43.677  26.074  25.744  1.00  0.00     0.198 A 
ATOM     63  F   UNL A   1      43.864  28.060  26.992  1.00  0.00    -0.203 F 
ATOM     64  F   UNL A   1      41.720  23.085  26.341  1.00  0.00    -0.200 F 
ATOM     65  C   UNL A   1      43.138  24.810  25.572  1.00  0.00     0.200 A 
ATOM     66  F   UNL A   1      44.553  26.555  24.850  1.00  0.00    -0.200 F 
ATOM     67  F   UNL A   1      43.502  24.061  24.521  1.00  0.00    -0.200 F 
ENDBRANCH  43  57
BRANCH  44  68
ATOM     68  C   UNL A   1      39.228  32.063  35.334  1.00  0.00     0.064 A 
ATOM     69  C   UNL A   1      38.423  31.505  36.336  1.00  0.00     0.173 A 
ATOM     70  C   UNL A   1      39.581  33.415  35.453  1.00  0.00     0.173 A 
ATOM     71  F   UNL A   1      38.040  30.223  36.249  1.00  0.00    -0.203 F 
ATOM     72  C   UNL A   1      37.983  32.271  37.413  1.00  0.00     0.198 A 
ATOM     73  C   UNL A   1      39.160  34.174  36.542  1.00  0.00     0.198 A 
ATOM     74  F   UNL A   1      40.347  33.994  34.517  1.00  0.00    -0.203 F 
ATOM     75  F   UNL A   1      37.190  31.723  38.342  1.00  0.00    -0.200 F 
ATOM     76  C   UNL A   1      38.359  33.602  37.520  1.00  0.00     0.200 A 
ATOM     77  F   UNL A   1      39.533  35.457  36.647  1.00  0.00    -0.200 F 
ATOM     78  F   UNL A   1      37.946  34.336  38.562  1.00  0.00    -0.200 F 
ENDBRANCH  44  68
BRANCH  56  79
ATOM     79  C   UNL A   1      44.650  27.780  34.484  1.00  0.00     0.064 A 
ATOM     80  C   UNL A   1      44.557  26.643  35.299  1.00  0.00     0.173 A 
ATOM     81  C   UNL A   1      45.841  28.520  34.516  1.00  0.00     0.173 A 
ATOM     82  F   UNL A   1      43.430  25.915  35.316  1.00  0.00    -0.203 F 
ATOM     83  C   UNL A   1      45.611  26.272  36.130  1.00  0.00     0.198 A 
ATOM     84  C   UNL A   1      46.902  28.133  35.331  1.00  0.00     0.198 A 
ATOM     85  F   UNL A   1      45.979  29.613  33.751  1.00  0.00    -0.203 F 
ATOM     86  F   UNL A   1      45.487  25.205  36.931  1.00  0.00    -0.200 F 
ATOM     87  C   UNL A   1      46.783  27.014  36.141  1.00  0.00     0.200 A 
ATOM     88  F   UNL A   1      48.037  28.845  35.335  1.00  0.00    -0.200 F 
ATOM     89  F   UNL A   1      47.798  26.654  36.940  1.00  0.00    -0.200 F 
ENDBRANCH  56  79
ENDBRANCH  30  31
ENDBRANCH  23  25
ENDBRANCH  22  23
ENDBRANCH  21  22
ENDBRANCH  20  21
ENDBRANCH   1  20
TORSDOF 17
ENDMDL
MODEL 3
REMARK VINA RESULT:     -10.5      4.134      9.816
REMARK SMILES CCOc1ccccc1[C@@H](O)[C@@H](C)[C@@H](C)C(=O)OCCOC(=O)c1ccc(-c2c3nc(c(-c4c(F)c(F)c(F)c(F)c4F)c4ccc([nH]4)c(-c4c(F)c(F)c(F)c(F)c4F)c4nc(c(-c5c(F)c(F)c(F)c(F)c5F)c5ccc2[nH]5)C=C4)C=C3)cc1
REMARK SMILES IDX 18 1 16 2 17 3 14 4 15 5 12 6 13 7 10 8 9 9 4 10 5 11 6 12
REMARK SMILES IDX 8 13 7 14 3 15 2 16 1 17 11 18 19 20 20 21 21 22 22 23 23 24
REMARK SMILES IDX 24 25 25 26 86 27 26 28 85 29 27 30 28 31 29 32 79 33 30 34
REMARK SMILES IDX 84 35 78 36 80 37 31 38 83 39 77 40 76 41 32 43 64 44 44 45
REMARK SMILES IDX 63 46 45 47 48 48 62 49 81 50 46 51 47 52 61 54 82 55 49 56
REMARK SMILES IDX 33 57 34 58 42 59 35 60 36 61 40 62 43 63 37 64 38 65 41 66
REMARK SMILES IDX 39 67 65 68 66 69 74 70 67 71 68 72 72 73 75 74 69 75 70 76
REMARK SMILES IDX 73 77 71 78 50 79 51 80 59 81 52 82 53 83 57 84 60 85 54 86
REMARK SMILES IDX 55 87 58 88 56 89
REMARK H PARENT 11 19 80 42 48 53
REMARK Flexibility Score: inf
ROOT
ATOM      1  O   UNL A   1      34.372  21.960  25.582  1.00  0.00    -0.462 OA
ENDROOT
BRANCH   1   2
ATOM      2  C   UNL A   1      33.065  22.150  25.269  1.00  0.00     0.309 C 
ATOM      3  O   UNL A   1      32.240  21.252  25.136  1.00  0.00    -0.252 OA
BRANCH   2   4
ATOM      4  C   UNL A   1      32.696  23.610  25.055  1.00  0.00     0.102 C 
ATOM      5  C   UNL A   1      33.314  24.386  26.219  1.00  0.00     0.020 C 
BRANCH   4   6
ATOM      6  C   UNL A   1      31.184  23.905  24.789  1.00  0.00     0.033 C 
ATOM      7  C   UNL A   1      30.955  24.124  23.279  1.00  0.00     0.011 C 
BRANCH   6   8
ATOM      8  C   UNL A   1      30.707  25.128  25.628  1.00  0.00     0.152 C 
BRANCH   8   9
ATOM      9  C   UNL A   1      30.224  26.324  24.836  1.00  0.00     0.023 A 
ATOM     10  C   UNL A   1      31.044  27.445  24.639  1.00  0.00     0.125 A 
ATOM     11  C   UNL A   1      30.601  28.538  23.891  1.00  0.00     0.047 A 
ATOM     12  C   UNL A   1      29.331  28.513  23.315  1.00  0.00     0.004 A 
ATOM     13  C   UNL A   1      28.942  26.323  24.259  1.00  0.00     0.010 A 
ATOM     14  C   UNL A   1      28.502  27.408  23.501  1.00  0.00     0.001 A 
BRANCH  10  15
ATOM     15  O   UNL A   1      32.255  27.500  25.274  1.00  0.00    -0.493 OA
BRANCH  15  16
ATOM     16  C   UNL A   1      32.364  28.627  26.150  1.00  0.00     0.226 C 
ATOM     17  C   UNL A   1      31.819  28.203  27.504  1.00  0.00     0.049 C 
ENDBRANCH  15  16
ENDBRANCH  10  15
ENDBRANCH   8   9
BRANCH   8  18
ATOM     18  O   UNL A   1      29.631  24.719  26.481  1.00  0.00    -0.388 OA
ATOM     19  H   UNL A   1      28.801  24.730  25.980  1.00  0.00     0.211 HD
ENDBRANCH   8  18
ENDBRANCH   6   8
ENDBRANCH   4   6
ENDBRANCH   2   4
ENDBRANCH   1   2
BRANCH   1  20
ATOM     20  C   UNL A   1      34.919  20.684  25.194  1.00  0.00     0.274 C 
BRANCH  20  21
ATOM     21  C   UNL A   1      36.398  20.813  24.828  1.00  0.00     0.275 C 
BRANCH  21  22
ATOM     22  O   UNL A   1      37.073  21.630  25.801  1.00  0.00    -0.458 OA
BRANCH  22  23
ATOM     23  C   UNL A   1      38.396  21.409  25.943  1.00  0.00     0.338 C 
ATOM     24  O   UNL A   1      39.003  20.368  25.731  1.00  0.00    -0.246 OA
BRANCH  23  25
ATOM     25  C   UNL A   1      39.053  22.625  26.447  1.00  0.00     0.060 A 
ATOM     26  C   UNL A   1      38.576  23.897  26.114  1.00  0.00     0.016 A 
ATOM     27  C   UNL A   1      40.221  22.486  27.197  1.00  0.00     0.016 A 
ATOM     28  C   UNL A   1      39.293  25.033  26.501  1.00  0.00     0.010 A 
ATOM     29  C   UNL A   1      40.907  23.622  27.626  1.00  0.00     0.010 A 
ATOM     30  C   UNL A   1      40.464  24.905  27.261  1.00  0.00    -0.014 A 
BRANCH  30  31
ATOM     31  C   UNL A   1      41.262  26.093  27.661  1.00  0.00     0.031 A 
ATOM     32  C   UNL A   1      40.618  27.196  28.453  1.00  0.00     0.074 A 
ATOM     33  C   UNL A   1      42.544  26.209  27.271  1.00  0.00     0.049 A 
ATOM     34  N   UNL A   1      41.079  28.384  28.752  1.00  0.00    -0.248 NA
ATOM     35  C   UNL A   1      39.267  26.926  28.971  1.00  0.00     0.031 C 
ATOM     36  C   UNL A   1      43.295  25.202  26.523  1.00  0.00     0.029 A 
ATOM     37  N   UNL A   1      43.436  27.240  27.437  1.00  0.00    -0.354 N 
ATOM     38  C   UNL A   1      40.064  29.018  29.455  1.00  0.00     0.074 A 
ATOM     39  C   UNL A   1      38.959  28.086  29.537  1.00  0.00     0.031 C 
ATOM     40  C   UNL A   1      44.536  25.662  26.297  1.00  0.00     0.029 A 
ATOM     41  C   UNL A   1      44.649  27.016  26.833  1.00  0.00     0.049 A 
ATOM     42  H   UNL A   1      43.227  28.059  27.940  1.00  0.00     0.167 HD
ATOM     43  C   UNL A   1      40.056  30.266  29.984  1.00  0.00     0.037 A 
ATOM     44  C   UNL A   1      45.717  27.823  26.695  1.00  0.00     0.037 A 
ATOM     45  C   UNL A   1      41.166  31.180  29.930  1.00  0.00     0.049 A 
ATOM     46  C   UNL A   1      45.669  29.218  27.254  1.00  0.00     0.074 A 
ATOM     47  C   UNL A   1      41.269  32.449  30.476  1.00  0.00     0.029 A 
ATOM     48  N   UNL A   1      42.370  30.922  29.292  1.00  0.00    -0.354 N 
ATOM     49  N   UNL A   1      44.705  29.812  27.912  1.00  0.00    -0.248 NA
ATOM     50  C   UNL A   1      46.855  30.058  27.036  1.00  0.00     0.031 C 
ATOM     51  C   UNL A   1      42.521  32.972  30.135  1.00  0.00     0.029 A 
ATOM     52  C   UNL A   1      43.213  32.016  29.411  1.00  0.00     0.049 A 
ATOM     53  H   UNL A   1      42.592  30.086  28.822  1.00  0.00     0.167 HD
ATOM     54  C   UNL A   1      45.169  31.087  28.202  1.00  0.00     0.074 A 
ATOM     55  C   UNL A   1      46.509  31.178  27.658  1.00  0.00     0.031 C 
ATOM     56  C   UNL A   1      44.542  32.092  28.861  1.00  0.00     0.037 A 
BRANCH  43  57
ATOM     57  C   UNL A   1      38.791  30.728  30.645  1.00  0.00     0.064 A 
ATOM     58  C   UNL A   1      37.723  31.261  29.910  1.00  0.00     0.173 A 
ATOM     59  C   UNL A   1      38.637  30.604  32.035  1.00  0.00     0.173 A 
ATOM     60  F   UNL A   1      37.829  31.413  28.581  1.00  0.00    -0.203 F 
ATOM     61  C   UNL A   1      36.554  31.674  30.543  1.00  0.00     0.198 A 
ATOM     62  C   UNL A   1      37.457  30.997  32.662  1.00  0.00     0.198 A 
ATOM     63  F   UNL A   1      39.627  30.097  32.782  1.00  0.00    -0.203 F 
ATOM     64  F   UNL A   1      35.562  32.219  29.826  1.00  0.00    -0.200 F 
ATOM     65  C   UNL A   1      36.421  31.538  31.918  1.00  0.00     0.200 A 
ATOM     66  F   UNL A   1      37.326  30.856  33.988  1.00  0.00    -0.200 F 
ATOM     67  F   UNL A   1      35.293  31.933  32.525  1.00  0.00    -0.200 F 
ENDBRANCH  43  57
BRANCH  44  68
ATOM     68  C   UNL A   1      46.920  27.331  25.980  1.00  0.00     0.064 A 
ATOM     69  C   UNL A   1      47.041  27.484  24.592  1.00  0.00     0.173 A 
ATOM     70  C   UNL A   1      47.979  26.721  26.668  1.00  0.00     0.173 A 
ATOM     71  F   UNL A   1      46.042  28.037  23.892  1.00  0.00    -0.203 F 
ATOM     72  C   UNL A   1      48.176  27.039  23.917  1.00  0.00     0.198 A 
ATOM     73  C   UNL A   1      49.123  26.298  25.995  1.00  0.00     0.198 A 
ATOM     74  F   UNL A   1      47.908  26.550  27.996  1.00  0.00    -0.203 F 
ATOM     75  F   UNL A   1      48.255  27.170  22.587  1.00  0.00    -0.200 F 
ATOM     76  C   UNL A   1      49.220  26.455  24.620  1.00  0.00     0.200 A 
ATOM     77  F   UNL A   1      50.133  25.742  26.679  1.00  0.00    -0.200 F 
ATOM     78  F   UNL A   1      50.315  26.038  23.972  1.00  0.00    -0.200 F 
ENDBRANCH  44  68
BRANCH  56  79
ATOM     79  C   UNL A   1      45.307  33.367  29.050  1.00  0.00     0.064 A 
ATOM     80  C   UNL A   1      45.216  34.418  28.128  1.00  0.00     0.173 A 
ATOM     81  C   UNL A   1      46.115  33.549  30.182  1.00  0.00     0.173 A 
ATOM     82  F   UNL A   1      44.470  34.283  27.021  1.00  0.00    -0.203 F 
ATOM     83  C   UNL A   1      45.924  35.602  28.322  1.00  0.00     0.198 A 
ATOM     84  C   UNL A   1      46.804  34.742  30.385  1.00  0.00     0.198 A 
ATOM     85  F   UNL A   1      46.231  32.573  31.095  1.00  0.00    -0.203 F 
ATOM     86  F   UNL A   1      45.855  36.580  27.408  1.00  0.00    -0.200 F 
ATOM     87  C   UNL A   1      46.712  35.764  29.452  1.00  0.00     0.200 A 
ATOM     88  F   UNL A   1      47.559  34.902  31.480  1.00  0.00    -0.200 F 
ATOM     89  F   UNL A   1      47.391  36.905  29.638  1.00  0.00    -0.200 F 
ENDBRANCH  56  79
ENDBRANCH  30  31
ENDBRANCH  23  25
ENDBRANCH  22  23
ENDBRANCH  21  22
ENDBRANCH  20  21
ENDBRANCH   1  20
TORSDOF 17
ENDMDL
