MODEL 1
REMARK VINA RESULT:     -11.5      0.000      0.000
REMARK SMILES CC1(C)C(CNC(=O)[C@H]2C[C@H]2C(=O)OCCOC(=O)c2ccc(-c3c4nc(c(-c5c(F)c(F)c(F)c(F)c5F)c5ccc([nH]5)c(-c5c(F)c(F)c(F)c(F)c5F)c5nc(c(-c6c(F)c(F)c(F)c(F)c6F)c6ccc3[nH]6)C=C5)C=C4)cc2)C1(C)C
REMARK SMILES IDX 15 1 14 2 12 3 13 4 11 5 9 6 10 7 7 8 6 9 8 11 5 12 4 13
REMARK SMILES IDX 1 14 2 15 3 16 83 17 84 18 85 19 16 20 17 21 18 22 19 23
REMARK SMILES IDX 20 24 21 25 82 26 22 27 81 28 23 29 24 30 25 31 75 32 26 33
REMARK SMILES IDX 80 34 74 35 76 36 27 37 79 38 73 39 72 40 28 42 60 43 40 44
REMARK SMILES IDX 59 45 41 46 44 47 58 48 77 49 42 50 43 51 57 53 78 54 45 55
REMARK SMILES IDX 29 56 30 57 38 58 31 59 32 60 36 61 39 62 33 63 34 64 37 65
REMARK SMILES IDX 35 66 61 67 62 68 70 69 63 70 64 71 68 72 71 73 65 74 66 75
REMARK SMILES IDX 69 76 67 77 46 78 47 79 55 80 48 81 49 82 53 83 56 84 50 85
REMARK SMILES IDX 51 86 54 87 52 88
REMARK H PARENT 6 10 76 41 44 52
REMARK Flexibility Score: inf
ROOT
ATOM      1  C   UNL A   1      31.053  29.713  24.708  1.00  0.00     0.274 C 
ENDROOT
BRANCH   1   2
ATOM      2  O   UNL A   1      31.752  28.781  23.866  1.00  0.00    -0.462 OA
BRANCH   2   3
ATOM      3  C   UNL A   1      30.995  27.993  23.078  1.00  0.00     0.309 C 
ATOM      4  O   UNL A   1      30.532  28.306  21.988  1.00  0.00    -0.252 OA
BRANCH   3   5
ATOM      5  C   UNL A   1      30.830  26.604  23.554  1.00  0.00     0.112 C 
ATOM      6  C   UNL A   1      31.437  25.312  23.075  1.00  0.00     0.093 C 
ATOM      7  C   UNL A   1      31.911  25.949  24.367  1.00  0.00     0.030 C 
BRANCH   6   8
ATOM      8  C   UNL A   1      32.477  25.055  22.049  1.00  0.00     0.224 C 
ATOM      9  N   UNL A   1      32.853  23.750  21.853  1.00  0.00    -0.356 N 
ATOM     10  H   UNL A   1      33.464  23.592  21.098  1.00  0.00     0.163 HD
ATOM     11  O   UNL A   1      33.037  25.952  21.434  1.00  0.00    -0.275 OA
BRANCH   9  12
ATOM     12  C   UNL A   1      32.474  22.573  22.610  1.00  0.00     0.120 C 
BRANCH  12  13
ATOM     13  C   UNL A   1      33.408  22.381  23.765  1.00  0.00     0.021 C 
ATOM     14  C   UNL A   1      33.831  23.031  26.243  1.00  0.00     0.012 C 
ATOM     15  C   UNL A   1      32.959  22.322  25.225  1.00  0.00    -0.025 C 
ATOM     16  C   UNL A   1      31.496  22.411  25.599  1.00  0.00     0.012 C 
ATOM     17  C   UNL A   1      33.497  21.057  24.523  1.00  0.00    -0.025 C 
ATOM     18  C   UNL A   1      34.878  20.543  24.879  1.00  0.00     0.012 C 
ATOM     19  C   UNL A   1      32.563  19.919  24.166  1.00  0.00     0.012 C 
ENDBRANCH  12  13
ENDBRANCH   9  12
ENDBRANCH   6   8
ENDBRANCH   3   5
ENDBRANCH   2   3
ENDBRANCH   1   2
BRANCH   1  20
ATOM     20  C   UNL A   1      31.730  29.783  26.075  1.00  0.00     0.275 C 
BRANCH  20  21
ATOM     21  O   UNL A   1      33.038  30.376  25.964  1.00  0.00    -0.458 OA
BRANCH  21  22
ATOM     22  C   UNL A   1      33.340  31.260  26.944  1.00  0.00     0.338 C 
ATOM     23  O   UNL A   1      32.656  32.165  27.388  1.00  0.00    -0.246 OA
BRANCH  22  24
ATOM     24  C   UNL A   1      34.662  30.951  27.498  1.00  0.00     0.060 A 
ATOM     25  C   UNL A   1      34.959  29.621  27.803  1.00  0.00     0.016 A 
ATOM     26  C   UNL A   1      35.532  31.979  27.856  1.00  0.00     0.016 A 
ATOM     27  C   UNL A   1      36.124  29.315  28.500  1.00  0.00     0.010 A 
ATOM     28  C   UNL A   1      36.709  31.669  28.541  1.00  0.00     0.010 A 
ATOM     29  C   UNL A   1      37.000  30.338  28.890  1.00  0.00    -0.014 A 
BRANCH  29  30
ATOM     30  C   UNL A   1      38.188  30.017  29.720  1.00  0.00     0.031 A 
ATOM     31  C   UNL A   1      39.255  29.108  29.180  1.00  0.00     0.074 A 
ATOM     32  C   UNL A   1      38.315  30.559  30.943  1.00  0.00     0.049 A 
ATOM     33  N   UNL A   1      40.331  28.651  29.770  1.00  0.00    -0.248 NA
ATOM     34  C   UNL A   1      39.092  28.650  27.791  1.00  0.00     0.031 C 
ATOM     35  C   UNL A   1      37.364  31.485  31.558  1.00  0.00     0.029 A 
ATOM     36  N   UNL A   1      39.297  30.410  31.890  1.00  0.00    -0.354 N 
ATOM     37  C   UNL A   1      40.956  27.832  28.839  1.00  0.00     0.074 A 
ATOM     38  C   UNL A   1      40.135  27.845  27.647  1.00  0.00     0.031 C 
ATOM     39  C   UNL A   1      37.814  31.828  32.776  1.00  0.00     0.029 A 
ATOM     40  C   UNL A   1      39.056  31.110  33.045  1.00  0.00     0.049 A 
ATOM     41  H   UNL A   1      40.098  29.853  31.753  1.00  0.00     0.167 HD
ATOM     42  C   UNL A   1      42.111  27.136  28.970  1.00  0.00     0.037 A 
ATOM     43  C   UNL A   1      39.747  31.147  34.200  1.00  0.00     0.037 A 
ATOM     44  C   UNL A   1      42.939  27.149  30.148  1.00  0.00     0.049 A 
ATOM     45  C   UNL A   1      41.002  30.328  34.333  1.00  0.00     0.074 A 
ATOM     46  C   UNL A   1      44.143  26.503  30.364  1.00  0.00     0.029 A 
ATOM     47  N   UNL A   1      42.644  27.847  31.311  1.00  0.00    -0.354 N 
ATOM     48  N   UNL A   1      41.587  29.561  33.445  1.00  0.00    -0.248 NA
ATOM     49  C   UNL A   1      41.688  30.375  35.631  1.00  0.00     0.031 C 
ATOM     50  C   UNL A   1      44.559  26.777  31.671  1.00  0.00     0.029 A 
ATOM     51  C   UNL A   1      43.635  27.628  32.256  1.00  0.00     0.049 A 
ATOM     52  H   UNL A   1      41.851  28.413  31.444  1.00  0.00     0.167 HD
ATOM     53  C   UNL A   1      42.718  29.051  34.068  1.00  0.00     0.074 A 
ATOM     54  C   UNL A   1      42.746  29.608  35.405  1.00  0.00     0.031 C 
ATOM     55  C   UNL A   1      43.649  28.196  33.579  1.00  0.00     0.037 A 
BRANCH  42  56
ATOM     56  C   UNL A   1      42.538  26.274  27.818  1.00  0.00     0.064 A 
ATOM     57  C   UNL A   1      43.440  26.731  26.847  1.00  0.00     0.173 A 
ATOM     58  C   UNL A   1      42.072  24.954  27.715  1.00  0.00     0.173 A 
ATOM     59  F   UNL A   1      43.905  27.989  26.896  1.00  0.00    -0.203 F 
ATOM     60  C   UNL A   1      43.844  25.905  25.802  1.00  0.00     0.198 A 
ATOM     61  C   UNL A   1      42.498  24.123  26.682  1.00  0.00     0.198 A 
ATOM     62  F   UNL A   1      41.212  24.467  28.621  1.00  0.00    -0.203 F 
ATOM     63  F   UNL A   1      44.680  26.373  24.864  1.00  0.00    -0.200 F 
ATOM     64  C   UNL A   1      43.379  24.600  25.724  1.00  0.00     0.200 A 
ATOM     65  F   UNL A   1      42.055  22.860  26.615  1.00  0.00    -0.200 F 
ATOM     66  F   UNL A   1      43.777  23.804  24.722  1.00  0.00    -0.200 F 
ENDBRANCH  42  56
BRANCH  43  67
ATOM     67  C   UNL A   1      39.257  31.977  35.329  1.00  0.00     0.064 A 
ATOM     68  C   UNL A   1      39.598  33.333  35.430  1.00  0.00     0.173 A 
ATOM     69  C   UNL A   1      38.443  31.432  36.333  1.00  0.00     0.173 A 
ATOM     70  F   UNL A   1      40.396  33.891  34.508  1.00  0.00    -0.203 F 
ATOM     71  C   UNL A   1      39.155  34.108  36.499  1.00  0.00     0.198 A 
ATOM     72  C   UNL A   1      37.978  32.215  37.387  1.00  0.00     0.198 A 
ATOM     73  F   UNL A   1      38.090  30.139  36.285  1.00  0.00    -0.203 F 
ATOM     74  F   UNL A   1      39.531  35.390  36.594  1.00  0.00    -0.200 F 
ATOM     75  C   UNL A   1      38.340  33.550  37.473  1.00  0.00     0.200 A 
ATOM     76  F   UNL A   1      37.181  31.676  38.320  1.00  0.00    -0.200 F 
ATOM     77  F   UNL A   1      37.911  34.299  38.499  1.00  0.00    -0.200 F 
ENDBRANCH  43  67
BRANCH  55  78
ATOM     78  C   UNL A   1      44.790  27.837  34.482  1.00  0.00     0.064 A 
ATOM     79  C   UNL A   1      44.762  26.682  35.276  1.00  0.00     0.173 A 
ATOM     80  C   UNL A   1      45.938  28.641  34.530  1.00  0.00     0.173 A 
ATOM     81  F   UNL A   1      43.678  25.890  35.277  1.00  0.00    -0.203 F 
ATOM     82  C   UNL A   1      45.834  26.356  36.103  1.00  0.00     0.198 A 
ATOM     83  C   UNL A   1      47.019  28.299  35.338  1.00  0.00     0.198 A 
ATOM     84  F   UNL A   1      46.016  29.755  33.786  1.00  0.00    -0.203 F 
ATOM     85  F   UNL A   1      45.768  25.270  36.886  1.00  0.00    -0.200 F 
ATOM     86  C   UNL A   1      46.964  27.161  36.128  1.00  0.00     0.200 A 
ATOM     87  F   UNL A   1      48.113  29.072  35.354  1.00  0.00    -0.200 F 
ATOM     88  F   UNL A   1      47.995  26.843  36.921  1.00  0.00    -0.200 F 
ENDBRANCH  55  78
ENDBRANCH  29  30
ENDBRANCH  22  24
ENDBRANCH  21  22
ENDBRANCH  20  21
ENDBRANCH   1  20
TORSDOF 14
ENDMDL
MODEL 2
REMARK VINA RESULT:     -11.5      4.387      9.665
REMARK SMILES CC1(C)C(CNC(=O)[C@H]2C[C@H]2C(=O)OCCOC(=O)c2ccc(-c3c4nc(c(-c5c(F)c(F)c(F)c(F)c5F)c5ccc([nH]5)c(-c5c(F)c(F)c(F)c(F)c5F)c5nc(c(-c6c(F)c(F)c(F)c(F)c6F)c6ccc3[nH]6)C=C5)C=C4)cc2)C1(C)C
REMARK SMILES IDX 15 1 14 2 12 3 13 4 11 5 9 6 10 7 7 8 6 9 8 11 5 12 4 13
REMARK SMILES IDX 1 14 2 15 3 16 83 17 84 18 85 19 16 20 17 21 18 22 19 23
REMARK SMILES IDX 20 24 21 25 82 26 22 27 81 28 23 29 24 30 25 31 75 32 26 33
REMARK SMILES IDX 80 34 74 35 76 36 27 37 79 38 73 39 72 40 28 42 60 43 40 44
REMARK SMILES IDX 59 45 41 46 44 47 58 48 77 49 42 50 43 51 57 53 78 54 45 55
REMARK SMILES IDX 29 56 30 57 38 58 31 59 32 60 36 61 39 62 33 63 34 64 37 65
REMARK SMILES IDX 35 66 61 67 62 68 70 69 63 70 64 71 68 72 71 73 65 74 66 75
REMARK SMILES IDX 69 76 67 77 46 78 47 79 55 80 48 81 49 82 53 83 56 84 50 85
REMARK SMILES IDX 51 86 54 87 52 88
REMARK H PARENT 6 10 76 41 44 52
REMARK Flexibility Score: inf
ROOT
ATOM      1  C   UNL A   1      35.132  20.377  25.018  1.00  0.00     0.274 C 
ENDROOT
BRANCH   1   2
ATOM      2  O   UNL A   1      34.059  21.284  25.325  1.00  0.00    -0.462 OA
BRANCH   2   3
ATOM      3  C   UNL A   1      32.807  20.832  25.117  1.00  0.00     0.309 C 
ATOM      4  O   UNL A   1      32.402  19.706  25.378  1.00  0.00    -0.252 OA
BRANCH   3   5
ATOM      5  C   UNL A   1      31.845  21.847  24.639  1.00  0.00     0.112 C 
ATOM      6  C   UNL A   1      31.217  23.024  25.336  1.00  0.00     0.093 C 
ATOM      7  C   UNL A   1      32.313  23.236  24.311  1.00  0.00     0.030 C 
BRANCH   6   8
ATOM      8  C   UNL A   1      31.460  23.591  26.685  1.00  0.00     0.224 C 
ATOM      9  N   UNL A   1      31.130  24.909  26.877  1.00  0.00    -0.356 N 
ATOM     10  H   UNL A   1      31.200  25.234  27.804  1.00  0.00     0.163 HD
ATOM     11  O   UNL A   1      31.987  22.954  27.587  1.00  0.00    -0.275 OA
BRANCH   9  12
ATOM     12  C   UNL A   1      30.696  25.888  25.901  1.00  0.00     0.120 C 
BRANCH  12  13
ATOM     13  C   UNL A   1      31.345  27.210  26.173  1.00  0.00     0.021 C 
ATOM     14  C   UNL A   1      33.555  28.336  26.940  1.00  0.00     0.012 C 
ATOM     15  C   UNL A   1      32.819  27.508  25.904  1.00  0.00    -0.025 C 
ATOM     16  C   UNL A   1      33.729  26.470  25.285  1.00  0.00     0.012 C 
ATOM     17  C   UNL A   1      31.720  28.174  25.049  1.00  0.00    -0.025 C 
ATOM     18  C   UNL A   1      31.412  29.645  25.253  1.00  0.00     0.012 C 
ATOM     19  C   UNL A   1      31.515  27.766  23.605  1.00  0.00     0.012 C 
ENDBRANCH  12  13
ENDBRANCH   9  12
ENDBRANCH   6   8
ENDBRANCH   3   5
ENDBRANCH   2   3
ENDBRANCH   1   2
BRANCH   1  20
ATOM     20  C   UNL A   1      36.384  21.167  24.644  1.00  0.00     0.275 C 
BRANCH  20  21
ATOM     21  O   UNL A   1      37.015  21.707  25.822  1.00  0.00    -0.458 OA
BRANCH  21  22
ATOM     22  C   UNL A   1      38.355  21.531  25.874  1.00  0.00     0.338 C 
ATOM     23  O   UNL A   1      39.014  20.590  25.466  1.00  0.00    -0.246 OA
BRANCH  22  24
ATOM     24  C   UNL A   1      38.987  22.712  26.470  1.00  0.00     0.060 A 
ATOM     25  C   UNL A   1      38.476  23.971  26.146  1.00  0.00     0.016 A 
ATOM     26  C   UNL A   1      40.162  22.583  27.208  1.00  0.00     0.016 A 
ATOM     27  C   UNL A   1      39.161  25.117  26.540  1.00  0.00     0.010 A 
ATOM     28  C   UNL A   1      40.840  23.735  27.617  1.00  0.00     0.010 A 
ATOM     29  C   UNL A   1      40.358  25.008  27.263  1.00  0.00    -0.014 A 
BRANCH  29  30
ATOM     30  C   UNL A   1      41.135  26.228  27.592  1.00  0.00     0.031 A 
ATOM     31  C   UNL A   1      40.495  27.335  28.380  1.00  0.00     0.074 A 
ATOM     32  C   UNL A   1      42.418  26.329  27.203  1.00  0.00     0.049 A 
ATOM     33  N   UNL A   1      40.979  28.507  28.709  1.00  0.00    -0.248 NA
ATOM     34  C   UNL A   1      39.125  27.095  28.863  1.00  0.00     0.031 C 
ATOM     35  C   UNL A   1      43.158  25.304  26.468  1.00  0.00     0.029 A 
ATOM     36  N   UNL A   1      43.327  27.343  27.372  1.00  0.00    -0.354 N 
ATOM     37  C   UNL A   1      39.969  29.153  29.410  1.00  0.00     0.074 A 
ATOM     38  C   UNL A   1      38.839  28.248  29.451  1.00  0.00     0.031 C 
ATOM     39  C   UNL A   1      44.411  25.738  26.256  1.00  0.00     0.029 A 
ATOM     40  C   UNL A   1      44.546  27.088  26.796  1.00  0.00     0.049 A 
ATOM     41  H   UNL A   1      43.123  28.174  27.858  1.00  0.00     0.167 HD
ATOM     42  C   UNL A   1      39.987  30.387  29.968  1.00  0.00     0.037 A 
ATOM     43  C   UNL A   1      45.640  27.866  26.695  1.00  0.00     0.037 A 
ATOM     44  C   UNL A   1      41.123  31.271  29.949  1.00  0.00     0.049 A 
ATOM     45  C   UNL A   1      45.616  29.249  27.285  1.00  0.00     0.074 A 
ATOM     46  C   UNL A   1      41.249  32.527  30.516  1.00  0.00     0.029 A 
ATOM     47  N   UNL A   1      42.331  30.988  29.329  1.00  0.00    -0.354 N 
ATOM     48  N   UNL A   1      44.658  29.848  27.950  1.00  0.00    -0.248 NA
ATOM     49  C   UNL A   1      46.824  30.067  27.104  1.00  0.00     0.031 C 
ATOM     50  C   UNL A   1      42.520  33.022  30.204  1.00  0.00     0.029 A 
ATOM     51  C   UNL A   1      43.201  32.057  29.480  1.00  0.00     0.049 A 
ATOM     52  H   UNL A   1      42.541  30.153  28.853  1.00  0.00     0.167 HD
ATOM     53  C   UNL A   1      45.152  31.102  28.283  1.00  0.00     0.074 A 
ATOM     54  C   UNL A   1      46.501  31.172  27.761  1.00  0.00     0.031 C 
ATOM     55  C   UNL A   1      44.543  32.107  28.959  1.00  0.00     0.037 A 
BRANCH  42  56
ATOM     56  C   UNL A   1      38.728  30.871  30.625  1.00  0.00     0.064 A 
ATOM     57  C   UNL A   1      37.652  31.377  29.882  1.00  0.00     0.173 A 
ATOM     58  C   UNL A   1      38.581  30.782  32.018  1.00  0.00     0.173 A 
ATOM     59  F   UNL A   1      37.749  31.493  28.549  1.00  0.00    -0.203 F 
ATOM     60  C   UNL A   1      36.482  31.795  30.510  1.00  0.00     0.198 A 
ATOM     61  C   UNL A   1      37.400  31.178  32.641  1.00  0.00     0.198 A 
ATOM     62  F   UNL A   1      39.578  30.300  32.774  1.00  0.00    -0.203 F 
ATOM     63  F   UNL A   1      35.480  32.309  29.784  1.00  0.00    -0.200 F 
ATOM     64  C   UNL A   1      36.355  31.689  31.888  1.00  0.00     0.200 A 
ATOM     65  F   UNL A   1      37.276  31.064  33.970  1.00  0.00    -0.200 F 
ATOM     66  F   UNL A   1      35.225  32.084  32.490  1.00  0.00    -0.200 F 
ENDBRANCH  42  56
BRANCH  43  67
ATOM     67  C   UNL A   1      46.845  27.360  25.990  1.00  0.00     0.064 A 
ATOM     68  C   UNL A   1      47.856  26.682  26.686  1.00  0.00     0.173 A 
ATOM     69  C   UNL A   1      47.015  27.548  24.611  1.00  0.00     0.173 A 
ATOM     70  F   UNL A   1      47.750  26.501  28.010  1.00  0.00    -0.203 F 
ATOM     71  C   UNL A   1      48.996  26.224  26.030  1.00  0.00     0.198 A 
ATOM     72  C   UNL A   1      48.143  27.065  23.952  1.00  0.00     0.198 A 
ATOM     73  F   UNL A   1      46.078  28.193  23.900  1.00  0.00    -0.203 F 
ATOM     74  F   UNL A   1      49.967  25.616  26.726  1.00  0.00    -0.200 F 
ATOM     75  C   UNL A   1      49.135  26.409  24.663  1.00  0.00     0.200 A 
ATOM     76  F   UNL A   1      48.268  27.237  22.629  1.00  0.00    -0.200 F 
ATOM     77  F   UNL A   1      50.231  25.964  24.032  1.00  0.00    -0.200 F 
ENDBRANCH  43  67
BRANCH  55  78
ATOM     78  C   UNL A   1      45.340  33.353  29.198  1.00  0.00     0.064 A 
ATOM     79  C   UNL A   1      46.165  33.492  30.324  1.00  0.00     0.173 A 
ATOM     80  C   UNL A   1      45.303  34.408  28.274  1.00  0.00     0.173 A 
ATOM     81  F   UNL A   1      46.220  32.516  31.244  1.00  0.00    -0.203 F 
ATOM     82  C   UNL A   1      46.907  34.652  30.527  1.00  0.00     0.198 A 
ATOM     83  C   UNL A   1      46.067  35.556  28.468  1.00  0.00     0.198 A 
ATOM     84  F   UNL A   1      44.533  34.322  27.179  1.00  0.00    -0.203 F 
ATOM     85  F   UNL A   1      47.656  34.782  31.632  1.00  0.00    -0.200 F 
ATOM     86  C   UNL A   1      46.863  35.680  29.596  1.00  0.00     0.200 A 
ATOM     87  F   UNL A   1      46.029  36.544  27.563  1.00  0.00    -0.200 F 
ATOM     88  F   UNL A   1      47.581  36.793  29.792  1.00  0.00    -0.200 F 
ENDBRANCH  55  78
ENDBRANCH  29  30
ENDBRANCH  22  24
ENDBRANCH  21  22
ENDBRANCH  20  21
ENDBRANCH   1  20
TORSDOF 14
ENDMDL
MODEL 3
REMARK VINA RESULT:     -11.4      1.137      2.277
REMARK SMILES CC1(C)C(CNC(=O)[C@H]2C[C@H]2C(=O)OCCOC(=O)c2ccc(-c3c4nc(c(-c5c(F)c(F)c(F)c(F)c5F)c5ccc([nH]5)c(-c5c(F)c(F)c(F)c(F)c5F)c5nc(c(-c6c(F)c(F)c(F)c(F)c6F)c6ccc3[nH]6)C=C5)C=C4)cc2)C1(C)C
REMARK SMILES IDX 15 1 14 2 12 3 13 4 11 5 9 6 10 7 7 8 6 9 8 11 5 12 4 13
REMARK SMILES IDX 1 14 2 15 3 16 83 17 84 18 85 19 16 20 17 21 18 22 19 23
REMARK SMILES IDX 20 24 21 25 82 26 22 27 81 28 23 29 24 30 25 31 75 32 26 33
REMARK SMILES IDX 80 34 74 35 76 36 27 37 79 38 73 39 72 40 28 42 60 43 40 44
REMARK SMILES IDX 59 45 41 46 44 47 58 48 77 49 42 50 43 51 57 53 78 54 45 55
REMARK SMILES IDX 29 56 30 57 38 58 31 59 32 60 36 61 39 62 33 63 34 64 37 65
REMARK SMILES IDX 35 66 61 67 62 68 70 69 63 70 64 71 68 72 71 73 65 74 66 75
REMARK SMILES IDX 69 76 67 77 46 78 47 79 55 80 48 81 49 82 53 83 56 84 50 85
REMARK SMILES IDX 51 86 54 87 52 88
REMARK H PARENT 6 10 76 41 44 52
REMARK Flexibility Score: inf
ROOT
ATOM      1  C   UNL A   1      31.745  28.886  26.814  1.00  0.00     0.274 C 
ENDROOT
BRANCH   1   2
ATOM      2  O   UNL A   1      31.543  28.241  25.545  1.00  0.00    -0.462 OA
BRANCH   2   3
ATOM      3  C   UNL A   1      32.176  27.067  25.356  1.00  0.00     0.309 C 
ATOM      4  O   UNL A   1      33.294  26.783  25.770  1.00  0.00    -0.252 OA
BRANCH   3   5
ATOM      5  C   UNL A   1      31.374  26.022  24.687  1.00  0.00     0.112 C 
ATOM      6  C   UNL A   1      30.936  24.658  25.152  1.00  0.00     0.093 C 
ATOM      7  C   UNL A   1      29.941  25.800  25.083  1.00  0.00     0.030 C 
BRANCH   6   8
ATOM      8  C   UNL A   1      31.082  23.994  26.470  1.00  0.00     0.224 C 
ATOM      9  N   UNL A   1      32.323  23.498  26.786  1.00  0.00    -0.356 N 
ATOM     10  H   UNL A   1      32.424  23.158  27.704  1.00  0.00     0.163 HD
ATOM     11  O   UNL A   1      30.143  23.825  27.236  1.00  0.00    -0.275 OA
BRANCH   9  12
ATOM     12  C   UNL A   1      33.503  23.406  25.949  1.00  0.00     0.120 C 
BRANCH  12  13
ATOM     13  C   UNL A   1      33.750  21.980  25.564  1.00  0.00     0.021 C 
ATOM     14  C   UNL A   1      32.796  19.987  24.202  1.00  0.00     0.012 C 
ATOM     15  C   UNL A   1      33.378  21.387  24.205  1.00  0.00    -0.025 C 
ATOM     16  C   UNL A   1      32.760  22.241  23.120  1.00  0.00     0.012 C 
ATOM     17  C   UNL A   1      34.860  21.587  24.589  1.00  0.00    -0.025 C 
ATOM     18  C   UNL A   1      35.703  20.376  24.939  1.00  0.00     0.012 C 
ATOM     19  C   UNL A   1      35.690  22.660  23.918  1.00  0.00     0.012 C 
ENDBRANCH  12  13
ENDBRANCH   9  12
ENDBRANCH   6   8
ENDBRANCH   3   5
ENDBRANCH   2   3
ENDBRANCH   1   2
BRANCH   1  20
ATOM     20  C   UNL A   1      31.772  30.401  26.624  1.00  0.00     0.275 C 
BRANCH  20  21
ATOM     21  O   UNL A   1      33.115  30.859  26.372  1.00  0.00    -0.458 OA
BRANCH  21  22
ATOM     22  C   UNL A   1      33.568  31.783  27.249  1.00  0.00     0.338 C 
ATOM     23  O   UNL A   1      33.023  32.806  27.626  1.00  0.00    -0.246 OA
BRANCH  22  24
ATOM     24  C   UNL A   1      34.866  31.361  27.785  1.00  0.00     0.060 A 
ATOM     25  C   UNL A   1      35.007  30.042  28.219  1.00  0.00     0.016 A 
ATOM     26  C   UNL A   1      35.876  32.298  28.000  1.00  0.00     0.016 A 
ATOM     27  C   UNL A   1      36.158  29.657  28.902  1.00  0.00     0.010 A 
ATOM     28  C   UNL A   1      37.037  31.907  28.672  1.00  0.00     0.010 A 
ATOM     29  C   UNL A   1      37.174  30.591  29.150  1.00  0.00    -0.014 A 
BRANCH  29  30
ATOM     30  C   UNL A   1      38.351  30.203  29.965  1.00  0.00     0.031 A 
ATOM     31  C   UNL A   1      39.382  29.270  29.396  1.00  0.00     0.074 A 
ATOM     32  C   UNL A   1      38.502  30.705  31.203  1.00  0.00     0.049 A 
ATOM     33  N   UNL A   1      40.442  28.756  29.969  1.00  0.00    -0.248 NA
ATOM     34  C   UNL A   1      39.198  28.857  27.996  1.00  0.00     0.031 C 
ATOM     35  C   UNL A   1      37.589  31.649  31.847  1.00  0.00     0.029 A 
ATOM     36  N   UNL A   1      39.481  30.493  32.141  1.00  0.00    -0.354 N 
ATOM     37  C   UNL A   1      41.033  27.941  29.013  1.00  0.00     0.074 A 
ATOM     38  C   UNL A   1      40.210  28.018  27.825  1.00  0.00     0.031 C 
ATOM     39  C   UNL A   1      38.055  31.940  33.072  1.00  0.00     0.029 A 
ATOM     40  C   UNL A   1      39.269  31.168  33.317  1.00  0.00     0.049 A 
ATOM     41  H   UNL A   1      40.259  29.910  31.986  1.00  0.00     0.167 HD
ATOM     42  C   UNL A   1      42.161  27.198  29.120  1.00  0.00     0.037 A 
ATOM     43  C   UNL A   1      39.964  31.147  34.470  1.00  0.00     0.037 A 
ATOM     44  C   UNL A   1      42.992  27.148  30.295  1.00  0.00     0.049 A 
ATOM     45  C   UNL A   1      41.188  30.278  34.574  1.00  0.00     0.074 A 
ATOM     46  C   UNL A   1      44.172  26.451  30.488  1.00  0.00     0.029 A 
ATOM     47  N   UNL A   1      42.727  27.823  31.478  1.00  0.00    -0.354 N 
ATOM     48  N   UNL A   1      41.742  29.515  33.664  1.00  0.00    -0.248 NA
ATOM     49  C   UNL A   1      41.879  30.263  35.871  1.00  0.00     0.031 C 
ATOM     50  C   UNL A   1      44.601  26.672  31.801  1.00  0.00     0.029 A 
ATOM     51  C   UNL A   1      43.712  27.541  32.412  1.00  0.00     0.049 A 
ATOM     52  H   UNL A   1      41.957  28.415  31.630  1.00  0.00     0.167 HD
ATOM     53  C   UNL A   1      42.854  28.945  34.268  1.00  0.00     0.074 A 
ATOM     54  C   UNL A   1      42.907  29.463  35.620  1.00  0.00     0.031 C 
ATOM     55  C   UNL A   1      43.751  28.070  33.751  1.00  0.00     0.037 A 
BRANCH  42  56
ATOM     56  C   UNL A   1      42.552  26.354  27.943  1.00  0.00     0.064 A 
ATOM     57  C   UNL A   1      42.033  25.065  27.753  1.00  0.00     0.173 A 
ATOM     58  C   UNL A   1      43.423  26.863  26.969  1.00  0.00     0.173 A 
ATOM     59  F   UNL A   1      41.205  24.529  28.662  1.00  0.00    -0.203 F 
ATOM     60  C   UNL A   1      42.388  24.309  26.638  1.00  0.00     0.198 A 
ATOM     61  C   UNL A   1      43.757  26.114  25.843  1.00  0.00     0.198 A 
ATOM     62  F   UNL A   1      43.942  28.092  27.102  1.00  0.00    -0.203 F 
ATOM     63  F   UNL A   1      41.909  23.066  26.493  1.00  0.00    -0.200 F 
ATOM     64  C   UNL A   1      43.244  24.836  25.682  1.00  0.00     0.200 A 
ATOM     65  F   UNL A   1      44.574  26.630  24.916  1.00  0.00    -0.200 F 
ATOM     66  F   UNL A   1      43.577  24.111  24.605  1.00  0.00    -0.200 F 
ENDBRANCH  42  56
BRANCH  43  67
ATOM     67  C   UNL A   1      39.509  31.962  35.623  1.00  0.00     0.064 A 
ATOM     68  C   UNL A   1      38.561  31.466  36.529  1.00  0.00     0.173 A 
ATOM     69  C   UNL A   1      40.005  33.256  35.842  1.00  0.00     0.173 A 
ATOM     70  F   UNL A   1      38.039  30.244  36.346  1.00  0.00    -0.203 F 
ATOM     71  C   UNL A   1      38.118  32.237  37.601  1.00  0.00     0.198 A 
ATOM     72  C   UNL A   1      39.582  34.015  36.930  1.00  0.00     0.198 A 
ATOM     73  F   UNL A   1      40.912  33.779  35.002  1.00  0.00    -0.203 F 
ATOM     74  F   UNL A   1      37.181  31.755  38.428  1.00  0.00    -0.200 F 
ATOM     75  C   UNL A   1      38.635  33.508  37.804  1.00  0.00     0.200 A 
ATOM     76  F   UNL A   1      40.091  35.239  37.129  1.00  0.00    -0.200 F 
ATOM     77  F   UNL A   1      38.210  34.248  38.839  1.00  0.00    -0.200 F 
ENDBRANCH  43  67
BRANCH  55  78
ATOM     78  C   UNL A   1      44.880  27.643  34.639  1.00  0.00     0.064 A 
ATOM     79  C   UNL A   1      44.792  26.493  35.437  1.00  0.00     0.173 A 
ATOM     80  C   UNL A   1      46.076  28.375  34.669  1.00  0.00     0.173 A 
ATOM     81  F   UNL A   1      43.661  25.770  35.455  1.00  0.00    -0.203 F 
ATOM     82  C   UNL A   1      45.853  26.104  36.250  1.00  0.00     0.198 A 
ATOM     83  C   UNL A   1      47.145  27.968  35.463  1.00  0.00     0.198 A 
ATOM     84  F   UNL A   1      46.212  29.480  33.921  1.00  0.00    -0.203 F 
ATOM     85  F   UNL A   1      45.731  25.025  37.037  1.00  0.00    -0.200 F 
ATOM     86  C   UNL A   1      47.030  26.837  36.257  1.00  0.00     0.200 A 
ATOM     87  F   UNL A   1      48.285  28.673  35.462  1.00  0.00    -0.200 F 
ATOM     88  F   UNL A   1      48.051  26.458  37.037  1.00  0.00    -0.200 F 
ENDBRANCH  55  78
ENDBRANCH  29  30
ENDBRANCH  22  24
ENDBRANCH  21  22
ENDBRANCH  20  21
ENDBRANCH   1  20
TORSDOF 14
ENDMDL
