MODEL 1
REMARK VINA RESULT:     -12.0      0.000      0.000
REMARK SMILES COc1ccc(C[N@@H+]2C[C@@H](C(=O)OCCOC(=O)c3ccc(-c4c5nc(c(-c6c(F)c(F)c(F)c(F)c6F)c6ccc([nH]6)c(-c6c(F)c(F)c(F)c(F)c6F)c6nc(c(-c7c(F)c(F)c(F)c(F)c7F)c7ccc4[nH]7)C=C6)C=C5)cc3)[C@H](c3ccccc3OC)C2)c(OC)c1
REMARK SMILES IDX 14 1 13 2 11 3 12 4 10 5 8 6 9 7 91 8 82 10 7 11 6 12 3 13
REMARK SMILES IDX 4 14 95 15 5 16 92 17 2 18 1 19 93 20 94 21 83 22 84 23
REMARK SMILES IDX 88 24 85 25 87 26 86 27 89 28 90 29 15 30 16 31 17 32 18 33
REMARK SMILES IDX 19 34 20 35 81 36 21 37 80 38 22 39 23 40 24 41 74 42 25 43
REMARK SMILES IDX 79 44 73 45 75 46 26 47 78 48 72 49 71 50 27 52 59 53 39 54
REMARK SMILES IDX 58 55 40 56 43 57 57 58 76 59 41 60 42 61 56 63 77 64 44 65
REMARK SMILES IDX 28 66 29 67 37 68 30 69 31 70 35 71 38 72 32 73 33 74 36 75
REMARK SMILES IDX 34 76 60 77 61 78 69 79 62 80 63 81 67 82 70 83 64 84 65 85
REMARK SMILES IDX 68 86 66 87 45 88 46 89 54 90 47 91 48 92 52 93 55 94 49 95
REMARK SMILES IDX 50 96 53 97 51 98
REMARK H PARENT 8 9 75 51 43 62
REMARK Flexibility Score: inf
ROOT
ATOM      1  C   UNL A   1      32.732  28.797  25.608  1.00  0.00     0.274 C 
ENDROOT
BRANCH   1   2
ATOM      2  O   UNL A   1      33.961  28.766  24.852  1.00  0.00    -0.462 OA
BRANCH   2   3
ATOM      3  C   UNL A   1      33.848  28.363  23.553  1.00  0.00     0.315 C 
ATOM      4  O   UNL A   1      34.357  28.962  22.618  1.00  0.00    -0.252 OA
BRANCH   3   5
ATOM      5  C   UNL A   1      33.044  27.097  23.424  1.00  0.00     0.167 C 
ATOM      6  N   UNL A   1      33.339  24.982  22.336  1.00  0.00    -0.330 N 
ATOM      7  C   UNL A   1      34.075  26.049  22.982  1.00  0.00     0.278 C 
ATOM      8  C   UNL A   1      32.204  25.642  21.673  1.00  0.00     0.272 C 
ATOM      9  H   UNL A   1      33.895  24.496  21.633  1.00  0.00     0.348 HD
ATOM     10  C   UNL A   1      31.915  27.031  22.345  1.00  0.00     0.098 C 
BRANCH   6  11
ATOM     11  C   UNL A   1      33.039  23.830  23.216  1.00  0.00     0.303 C 
BRANCH  11  12
ATOM     12  C   UNL A   1      34.189  23.282  24.042  1.00  0.00     0.048 A 
ATOM     13  C   UNL A   1      36.581  22.869  25.431  1.00  0.00     0.122 A 
ATOM     14  C   UNL A   1      36.508  22.558  24.079  1.00  0.00     0.047 A 
ATOM     15  C   UNL A   1      35.431  23.256  26.122  1.00  0.00     0.093 A 
ATOM     16  C   UNL A   1      35.307  22.724  23.394  1.00  0.00     0.017 A 
ATOM     17  C   UNL A   1      34.222  23.430  25.436  1.00  0.00     0.131 A 
BRANCH  13  18
ATOM     18  O   UNL A   1      37.842  22.878  25.962  1.00  0.00    -0.497 OA
ATOM     19  C   UNL A   1      38.600  21.704  25.709  1.00  0.00     0.278 C 
ENDBRANCH  13  18
BRANCH  17  20
ATOM     20  O   UNL A   1      33.050  23.826  26.025  1.00  0.00    -0.496 OA
ATOM     21  C   UNL A   1      32.387  22.870  26.842  1.00  0.00     0.278 C 
ENDBRANCH  17  20
ENDBRANCH  11  12
ENDBRANCH   6  11
BRANCH  10  22
ATOM     22  C   UNL A   1      30.446  27.293  22.769  1.00  0.00     0.004 A 
ATOM     23  C   UNL A   1      29.804  28.517  22.488  1.00  0.00     0.008 A 
ATOM     24  C   UNL A   1      29.699  26.420  23.591  1.00  0.00     0.122 A 
ATOM     25  C   UNL A   1      28.491  28.812  22.877  1.00  0.00     0.001 A 
ATOM     26  C   UNL A   1      28.351  26.679  23.930  1.00  0.00     0.047 A 
ATOM     27  C   UNL A   1      27.741  27.872  23.557  1.00  0.00     0.004 A 
BRANCH  24  28
ATOM     28  O   UNL A   1      30.352  25.526  24.403  1.00  0.00    -0.496 OA
ATOM     29  C   UNL A   1      30.251  25.806  25.788  1.00  0.00     0.278 C 
ENDBRANCH  24  28
ENDBRANCH  10  22
ENDBRANCH   3   5
ENDBRANCH   2   3
ENDBRANCH   1   2
BRANCH   1  30
ATOM     30  C   UNL A   1      32.200  30.207  25.921  1.00  0.00     0.275 C 
BRANCH  30  31
ATOM     31  O   UNL A   1      32.507  30.642  27.263  1.00  0.00    -0.458 OA
BRANCH  31  32
ATOM     32  C   UNL A   1      33.270  31.759  27.354  1.00  0.00     0.338 C 
ATOM     33  O   UNL A   1      32.896  32.909  27.184  1.00  0.00    -0.246 OA
BRANCH  32  34
ATOM     34  C   UNL A   1      34.608  31.446  27.904  1.00  0.00     0.060 A 
ATOM     35  C   UNL A   1      34.799  30.155  28.402  1.00  0.00     0.016 A 
ATOM     36  C   UNL A   1      35.629  32.384  28.029  1.00  0.00     0.016 A 
ATOM     37  C   UNL A   1      35.997  29.760  28.976  1.00  0.00     0.010 A 
ATOM     38  C   UNL A   1      36.832  32.007  28.657  1.00  0.00     0.010 A 
ATOM     39  C   UNL A   1      37.018  30.693  29.135  1.00  0.00    -0.014 A 
BRANCH  39  40
ATOM     40  C   UNL A   1      38.183  30.309  29.966  1.00  0.00     0.031 A 
ATOM     41  C   UNL A   1      39.217  29.397  29.372  1.00  0.00     0.074 A 
ATOM     42  C   UNL A   1      38.389  30.856  31.178  1.00  0.00     0.049 A 
ATOM     43  N   UNL A   1      40.261  28.841  29.931  1.00  0.00    -0.248 NA
ATOM     44  C   UNL A   1      39.055  29.080  27.944  1.00  0.00     0.031 C 
ATOM     45  C   UNL A   1      37.543  31.870  31.804  1.00  0.00     0.029 A 
ATOM     46  N   UNL A   1      39.386  30.635  32.097  1.00  0.00    -0.354 N 
ATOM     47  C   UNL A   1      40.860  28.081  28.934  1.00  0.00     0.074 A 
ATOM     48  C   UNL A   1      40.062  28.244  27.738  1.00  0.00     0.031 C 
ATOM     49  C   UNL A   1      38.048  32.174  33.012  1.00  0.00     0.029 A 
ATOM     50  C   UNL A   1      39.215  31.333  33.267  1.00  0.00     0.049 A 
ATOM     51  H   UNL A   1      40.149  30.036  31.932  1.00  0.00     0.167 HD
ATOM     52  C   UNL A   1      41.972  27.315  29.016  1.00  0.00     0.037 A 
ATOM     53  C   UNL A   1      39.900  31.262  34.426  1.00  0.00     0.037 A 
ATOM     54  C   UNL A   1      42.769  27.176  30.207  1.00  0.00     0.049 A 
ATOM     55  C   UNL A   1      41.065  30.309  34.532  1.00  0.00     0.074 A 
ATOM     56  C   UNL A   1      43.897  26.400  30.407  1.00  0.00     0.029 A 
ATOM     57  N   UNL A   1      42.520  27.835  31.403  1.00  0.00    -0.354 N 
ATOM     58  N   UNL A   1      41.591  29.534  33.613  1.00  0.00    -0.248 NA
ATOM     59  C   UNL A   1      41.726  30.214  35.841  1.00  0.00     0.031 C 
ATOM     60  C   UNL A   1      44.298  26.548  31.739  1.00  0.00     0.029 A 
ATOM     61  C   UNL A   1      43.460  27.466  32.352  1.00  0.00     0.049 A 
ATOM     62  H   UNL A   1      41.784  28.472  31.554  1.00  0.00     0.167 HD
ATOM     63  C   UNL A   1      42.656  28.883  34.223  1.00  0.00     0.074 A 
ATOM     64  C   UNL A   1      42.714  29.368  35.586  1.00  0.00     0.031 C 
ATOM     65  C   UNL A   1      43.509  27.966  33.703  1.00  0.00     0.037 A 
BRANCH  52  66
ATOM     66  C   UNL A   1      42.350  26.516  27.802  1.00  0.00     0.064 A 
ATOM     67  C   UNL A   1      43.307  26.964  26.881  1.00  0.00     0.173 A 
ATOM     68  C   UNL A   1      41.739  25.275  27.563  1.00  0.00     0.173 A 
ATOM     69  F   UNL A   1      43.907  28.151  27.052  1.00  0.00    -0.203 F 
ATOM     70  C   UNL A   1      43.618  26.213  25.750  1.00  0.00     0.198 A 
ATOM     71  C   UNL A   1      42.076  24.511  26.450  1.00  0.00     0.198 A 
ATOM     72  F   UNL A   1      40.817  24.799  28.413  1.00  0.00    -0.203 F 
ATOM     73  F   UNL A   1      44.494  26.685  24.853  1.00  0.00    -0.200 F 
ATOM     74  C   UNL A   1      43.008  24.984  25.539  1.00  0.00     0.200 A 
ATOM     75  F   UNL A   1      41.494  23.320  26.255  1.00  0.00    -0.200 F 
ATOM     76  F   UNL A   1      43.310  24.261  24.452  1.00  0.00    -0.200 F 
ENDBRANCH  52  66
BRANCH  53  77
ATOM     77  C   UNL A   1      39.473  32.071  35.601  1.00  0.00     0.064 A 
ATOM     78  C   UNL A   1      38.544  31.576  36.526  1.00  0.00     0.173 A 
ATOM     79  C   UNL A   1      39.952  33.376  35.797  1.00  0.00     0.173 A 
ATOM     80  F   UNL A   1      38.027  30.348  36.366  1.00  0.00    -0.203 F 
ATOM     81  C   UNL A   1      38.096  32.360  37.589  1.00  0.00     0.198 A 
ATOM     82  C   UNL A   1      39.529  34.146  36.877  1.00  0.00     0.198 A 
ATOM     83  F   UNL A   1      40.831  33.906  34.933  1.00  0.00    -0.203 F 
ATOM     84  F   UNL A   1      37.162  31.884  38.423  1.00  0.00    -0.200 F 
ATOM     85  C   UNL A   1      38.594  33.642  37.767  1.00  0.00     0.200 A 
ATOM     86  F   UNL A   1      40.020  35.381  37.049  1.00  0.00    -0.200 F 
ATOM     87  F   UNL A   1      38.161  34.396  38.786  1.00  0.00    -0.200 F 
ENDBRANCH  53  77
BRANCH  65  88
ATOM     88  C   UNL A   1      44.608  27.462  34.596  1.00  0.00     0.064 A 
ATOM     89  C   UNL A   1      45.838  28.129  34.706  1.00  0.00     0.173 A 
ATOM     90  C   UNL A   1      44.415  26.313  35.378  1.00  0.00     0.173 A 
ATOM     91  F   UNL A   1      46.080  29.225  33.970  1.00  0.00    -0.203 F 
ATOM     92  C   UNL A   1      46.843  27.645  35.538  1.00  0.00     0.198 A 
ATOM     93  C   UNL A   1      45.409  25.852  36.237  1.00  0.00     0.198 A 
ATOM     94  F   UNL A   1      43.254  25.641  35.320  1.00  0.00    -0.203 F 
ATOM     95  F   UNL A   1      48.030  28.265  35.582  1.00  0.00    -0.200 F 
ATOM     96  C   UNL A   1      46.626  26.511  36.308  1.00  0.00     0.200 A 
ATOM     97  F   UNL A   1      45.189  24.767  36.992  1.00  0.00    -0.200 F 
ATOM     98  F   UNL A   1      47.593  26.050  37.114  1.00  0.00    -0.200 F 
ENDBRANCH  65  88
ENDBRANCH  39  40
ENDBRANCH  32  34
ENDBRANCH  31  32
ENDBRANCH  30  31
ENDBRANCH   1  30
TORSDOF 17
ENDMDL
MODEL 2
REMARK VINA RESULT:     -11.9      1.129      4.017
REMARK SMILES COc1ccc(C[N@@H+]2C[C@@H](C(=O)OCCOC(=O)c3ccc(-c4c5nc(c(-c6c(F)c(F)c(F)c(F)c6F)c6ccc([nH]6)c(-c6c(F)c(F)c(F)c(F)c6F)c6nc(c(-c7c(F)c(F)c(F)c(F)c7F)c7ccc4[nH]7)C=C6)C=C5)cc3)[C@H](c3ccccc3OC)C2)c(OC)c1
REMARK SMILES IDX 14 1 13 2 11 3 12 4 10 5 8 6 9 7 91 8 82 10 7 11 6 12 3 13
REMARK SMILES IDX 4 14 95 15 5 16 92 17 2 18 1 19 93 20 94 21 83 22 84 23
REMARK SMILES IDX 88 24 85 25 87 26 86 27 89 28 90 29 15 30 16 31 17 32 18 33
REMARK SMILES IDX 19 34 20 35 81 36 21 37 80 38 22 39 23 40 24 41 74 42 25 43
REMARK SMILES IDX 79 44 73 45 75 46 26 47 78 48 72 49 71 50 27 52 59 53 39 54
REMARK SMILES IDX 58 55 40 56 43 57 57 58 76 59 41 60 42 61 56 63 77 64 44 65
REMARK SMILES IDX 28 66 29 67 37 68 30 69 31 70 35 71 38 72 32 73 33 74 36 75
REMARK SMILES IDX 34 76 60 77 61 78 69 79 62 80 63 81 67 82 70 83 64 84 65 85
REMARK SMILES IDX 68 86 66 87 45 88 46 89 54 90 47 91 48 92 52 93 55 94 49 95
REMARK SMILES IDX 50 96 53 97 51 98
REMARK H PARENT 8 9 75 51 43 62
REMARK Flexibility Score: inf
ROOT
ATOM      1  C   UNL A   1      33.142  29.426  25.563  1.00  0.00     0.274 C 
ENDROOT
BRANCH   1   2
ATOM      2  O   UNL A   1      33.482  28.433  26.554  1.00  0.00    -0.462 OA
BRANCH   2   3
ATOM      3  C   UNL A   1      32.457  27.631  26.965  1.00  0.00     0.315 C 
ATOM      4  O   UNL A   1      31.917  27.736  28.056  1.00  0.00    -0.252 OA
BRANCH   3   5
ATOM      5  C   UNL A   1      32.071  26.627  25.911  1.00  0.00     0.167 C 
ATOM      6  N   UNL A   1      30.056  25.496  25.277  1.00  0.00    -0.330 N 
ATOM      7  C   UNL A   1      30.542  26.741  25.836  1.00  0.00     0.278 C 
ATOM      8  C   UNL A   1      30.981  24.464  25.768  1.00  0.00     0.272 C 
ATOM      9  H   UNL A   1      29.112  25.271  25.591  1.00  0.00     0.348 HD
ATOM     10  C   UNL A   1      32.350  25.112  26.179  1.00  0.00     0.098 C 
BRANCH   6  11
ATOM     11  C   UNL A   1      29.797  25.544  23.820  1.00  0.00     0.303 C 
BRANCH  11  12
ATOM     12  C   UNL A   1      29.577  26.916  23.208  1.00  0.00     0.048 A 
ATOM     13  C   UNL A   1      29.299  29.653  22.704  1.00  0.00     0.122 A 
ATOM     14  C   UNL A   1      28.202  28.917  23.134  1.00  0.00     0.047 A 
ATOM     15  C   UNL A   1      30.498  29.005  22.395  1.00  0.00     0.093 A 
ATOM     16  C   UNL A   1      28.327  27.547  23.346  1.00  0.00     0.017 A 
ATOM     17  C   UNL A   1      30.629  27.628  22.613  1.00  0.00     0.131 A 
BRANCH  13  18
ATOM     18  O   UNL A   1      29.140  31.012  22.730  1.00  0.00    -0.497 OA
ATOM     19  C   UNL A   1      27.879  31.451  23.215  1.00  0.00     0.278 C 
ENDBRANCH  13  18
BRANCH  17  20
ATOM     20  O   UNL A   1      31.770  26.911  22.359  1.00  0.00    -0.496 OA
ATOM     21  C   UNL A   1      32.997  27.627  22.388  1.00  0.00     0.278 C 
ENDBRANCH  17  20
ENDBRANCH  11  12
ENDBRANCH   6  11
BRANCH  10  22
ATOM     22  C   UNL A   1      33.623  24.459  25.581  1.00  0.00     0.004 A 
ATOM     23  C   UNL A   1      33.916  24.538  24.205  1.00  0.00     0.008 A 
ATOM     24  C   UNL A   1      34.489  23.616  26.313  1.00  0.00     0.122 A 
ATOM     25  C   UNL A   1      35.036  23.939  23.613  1.00  0.00     0.001 A 
ATOM     26  C   UNL A   1      35.659  23.064  25.741  1.00  0.00     0.047 A 
ATOM     27  C   UNL A   1      35.941  23.241  24.391  1.00  0.00     0.004 A 
BRANCH  24  28
ATOM     28  O   UNL A   1      34.031  22.987  27.444  1.00  0.00    -0.496 OA
ATOM     29  C   UNL A   1      34.075  21.572  27.391  1.00  0.00     0.278 C 
ENDBRANCH  24  28
ENDBRANCH  10  22
ENDBRANCH   3   5
ENDBRANCH   2   3
ENDBRANCH   1   2
BRANCH   1  30
ATOM     30  C   UNL A   1      32.308  30.607  26.090  1.00  0.00     0.275 C 
BRANCH  30  31
ATOM     31  O   UNL A   1      32.676  31.008  27.428  1.00  0.00    -0.458 OA
BRANCH  31  32
ATOM     32  C   UNL A   1      33.495  32.086  27.509  1.00  0.00     0.338 C 
ATOM     33  O   UNL A   1      33.178  33.252  27.334  1.00  0.00    -0.246 OA
BRANCH  32  34
ATOM     34  C   UNL A   1      34.818  31.710  28.055  1.00  0.00     0.060 A 
ATOM     35  C   UNL A   1      34.923  30.444  28.636  1.00  0.00     0.016 A 
ATOM     36  C   UNL A   1      35.909  32.574  28.098  1.00  0.00     0.016 A 
ATOM     37  C   UNL A   1      36.102  29.997  29.213  1.00  0.00     0.010 A 
ATOM     38  C   UNL A   1      37.094  32.149  28.729  1.00  0.00     0.010 A 
ATOM     39  C   UNL A   1      37.193  30.858  29.291  1.00  0.00    -0.014 A 
BRANCH  39  40
ATOM     40  C   UNL A   1      38.344  30.443  30.125  1.00  0.00     0.031 A 
ATOM     41  C   UNL A   1      39.377  29.538  29.519  1.00  0.00     0.074 A 
ATOM     42  C   UNL A   1      38.540  30.956  31.353  1.00  0.00     0.049 A 
ATOM     43  N   UNL A   1      40.410  28.958  30.075  1.00  0.00    -0.248 NA
ATOM     44  C   UNL A   1      39.230  29.259  28.081  1.00  0.00     0.031 C 
ATOM     45  C   UNL A   1      37.696  31.961  31.995  1.00  0.00     0.029 A 
ATOM     46  N   UNL A   1      39.525  30.703  32.277  1.00  0.00    -0.354 N 
ATOM     47  C   UNL A   1      41.014  28.220  29.066  1.00  0.00     0.074 A 
ATOM     48  C   UNL A   1      40.232  28.420  27.865  1.00  0.00     0.031 C 
ATOM     49  C   UNL A   1      38.189  32.229  33.217  1.00  0.00     0.029 A 
ATOM     50  C   UNL A   1      39.346  31.371  33.463  1.00  0.00     0.049 A 
ATOM     51  H   UNL A   1      40.284  30.101  32.106  1.00  0.00     0.167 HD
ATOM     52  C   UNL A   1      42.119  27.442  29.141  1.00  0.00     0.037 A 
ATOM     53  C   UNL A   1      40.017  31.264  34.628  1.00  0.00     0.037 A 
ATOM     54  C   UNL A   1      42.900  27.265  30.337  1.00  0.00     0.049 A 
ATOM     55  C   UNL A   1      41.172  30.299  34.722  1.00  0.00     0.074 A 
ATOM     56  C   UNL A   1      44.020  26.475  30.530  1.00  0.00     0.029 A 
ATOM     57  N   UNL A   1      42.643  27.895  31.546  1.00  0.00    -0.354 N 
ATOM     58  N   UNL A   1      41.702  29.544  33.789  1.00  0.00    -0.248 NA
ATOM     59  C   UNL A   1      41.816  30.164  36.036  1.00  0.00     0.031 C 
ATOM     60  C   UNL A   1      44.407  26.584  31.869  1.00  0.00     0.029 A 
ATOM     61  C   UNL A   1      43.569  27.493  32.496  1.00  0.00     0.049 A 
ATOM     62  H   UNL A   1      41.911  28.533  31.706  1.00  0.00     0.167 HD
ATOM     63  C   UNL A   1      42.755  28.868  34.394  1.00  0.00     0.074 A 
ATOM     64  C   UNL A   1      42.800  29.317  35.770  1.00  0.00     0.031 C 
ATOM     65  C   UNL A   1      43.606  27.957  33.861  1.00  0.00     0.037 A 
BRANCH  52  66
ATOM     66  C   UNL A   1      42.504  26.672  27.911  1.00  0.00     0.064 A 
ATOM     67  C   UNL A   1      43.421  27.170  26.974  1.00  0.00     0.173 A 
ATOM     68  C   UNL A   1      41.944  25.407  27.673  1.00  0.00     0.173 A 
ATOM     69  F   UNL A   1      43.971  28.381  27.144  1.00  0.00    -0.203 F 
ATOM     70  C   UNL A   1      43.739  26.444  25.829  1.00  0.00     0.198 A 
ATOM     71  C   UNL A   1      42.289  24.669  26.545  1.00  0.00     0.198 A 
ATOM     72  F   UNL A   1      41.063  24.883  28.538  1.00  0.00    -0.203 F 
ATOM     73  F   UNL A   1      44.573  26.962  24.917  1.00  0.00    -0.200 F 
ATOM     74  C   UNL A   1      43.179  25.191  25.618  1.00  0.00     0.200 A 
ATOM     75  F   UNL A   1      41.756  23.455  26.350  1.00  0.00    -0.200 F 
ATOM     76  F   UNL A   1      43.488  24.492  24.518  1.00  0.00    -0.200 F 
ENDBRANCH  52  66
BRANCH  53  77
ATOM     77  C   UNL A   1      39.583  32.046  35.818  1.00  0.00     0.064 A 
ATOM     78  C   UNL A   1      38.566  31.580  36.664  1.00  0.00     0.173 A 
ATOM     79  C   UNL A   1      40.145  33.299  36.109  1.00  0.00     0.173 A 
ATOM     80  F   UNL A   1      37.969  30.406  36.411  1.00  0.00    -0.203 F 
ATOM     81  C   UNL A   1      38.116  32.345  37.740  1.00  0.00     0.198 A 
ATOM     82  C   UNL A   1      39.719  34.046  37.204  1.00  0.00     0.198 A 
ATOM     83  F   UNL A   1      41.111  33.800  35.325  1.00  0.00    -0.203 F 
ATOM     84  F   UNL A   1      37.101  31.902  38.495  1.00  0.00    -0.200 F 
ATOM     85  C   UNL A   1      38.697  33.573  38.013  1.00  0.00     0.200 A 
ATOM     86  F   UNL A   1      40.289  35.230  37.468  1.00  0.00    -0.200 F 
ATOM     87  F   UNL A   1      38.262  34.308  39.045  1.00  0.00    -0.200 F 
ENDBRANCH  53  77
BRANCH  65  88
ATOM     88  C   UNL A   1      44.691  27.421  34.753  1.00  0.00     0.064 A 
ATOM     89  C   UNL A   1      44.525  26.242  35.495  1.00  0.00     0.173 A 
ATOM     90  C   UNL A   1      45.927  28.080  34.840  1.00  0.00     0.173 A 
ATOM     91  F   UNL A   1      43.358  25.579  35.458  1.00  0.00    -0.203 F 
ATOM     92  C   UNL A   1      45.542  25.763  36.316  1.00  0.00     0.198 A 
ATOM     93  C   UNL A   1      46.954  27.579  35.634  1.00  0.00     0.198 A 
ATOM     94  F   UNL A   1      46.144  29.207  34.144  1.00  0.00    -0.203 F 
ATOM     95  F   UNL A   1      45.340  24.667  37.060  1.00  0.00    -0.200 F 
ATOM     96  C   UNL A   1      46.758  26.428  36.380  1.00  0.00     0.200 A 
ATOM     97  F   UNL A   1      48.134  28.214  35.679  1.00  0.00    -0.200 F 
ATOM     98  F   UNL A   1      47.739  25.962  37.165  1.00  0.00    -0.200 F 
ENDBRANCH  65  88
ENDBRANCH  39  40
ENDBRANCH  32  34
ENDBRANCH  31  32
ENDBRANCH  30  31
ENDBRANCH   1  30
TORSDOF 17
ENDMDL
MODEL 3
REMARK VINA RESULT:     -11.8      4.260      9.868
REMARK SMILES COc1ccc(C[N@@H+]2C[C@@H](C(=O)OCCOC(=O)c3ccc(-c4c5nc(c(-c6c(F)c(F)c(F)c(F)c6F)c6ccc([nH]6)c(-c6c(F)c(F)c(F)c(F)c6F)c6nc(c(-c7c(F)c(F)c(F)c(F)c7F)c7ccc4[nH]7)C=C6)C=C5)cc3)[C@H](c3ccccc3OC)C2)c(OC)c1
REMARK SMILES IDX 14 1 13 2 11 3 12 4 10 5 8 6 9 7 91 8 82 10 7 11 6 12 3 13
REMARK SMILES IDX 4 14 95 15 5 16 92 17 2 18 1 19 93 20 94 21 83 22 84 23
REMARK SMILES IDX 88 24 85 25 87 26 86 27 89 28 90 29 15 30 16 31 17 32 18 33
REMARK SMILES IDX 19 34 20 35 81 36 21 37 80 38 22 39 23 40 24 41 74 42 25 43
REMARK SMILES IDX 79 44 73 45 75 46 26 47 78 48 72 49 71 50 27 52 59 53 39 54
REMARK SMILES IDX 58 55 40 56 43 57 57 58 76 59 41 60 42 61 56 63 77 64 44 65
REMARK SMILES IDX 28 66 29 67 37 68 30 69 31 70 35 71 38 72 32 73 33 74 36 75
REMARK SMILES IDX 34 76 60 77 61 78 69 79 62 80 63 81 67 82 70 83 64 84 65 85
REMARK SMILES IDX 68 86 66 87 45 88 46 89 54 90 47 91 48 92 52 93 55 94 49 95
REMARK SMILES IDX 50 96 53 97 51 98
REMARK H PARENT 8 9 75 51 43 62
REMARK Flexibility Score: inf
ROOT
ATOM      1  C   UNL A   1      36.456  21.108  24.904  1.00  0.00     0.274 C 
ENDROOT
BRANCH   1   2
ATOM      2  O   UNL A   1      35.865  21.810  26.018  1.00  0.00    -0.462 OA
BRANCH   2   3
ATOM      3  C   UNL A   1      35.622  23.138  25.819  1.00  0.00     0.315 C 
ATOM      4  O   UNL A   1      36.457  24.010  26.008  1.00  0.00    -0.252 OA
BRANCH   3   5
ATOM      5  C   UNL A   1      34.219  23.386  25.330  1.00  0.00     0.167 C 
ATOM      6  N   UNL A   1      32.288  24.529  26.169  1.00  0.00    -0.330 N 
ATOM      7  C   UNL A   1      33.736  24.568  26.181  1.00  0.00     0.278 C 
ATOM      8  C   UNL A   1      31.940  23.102  26.112  1.00  0.00     0.272 C 
ATOM      9  H   UNL A   1      31.881  24.936  27.011  1.00  0.00     0.348 HD
ATOM     10  C   UNL A   1      33.143  22.272  25.541  1.00  0.00     0.098 C 
BRANCH   6  11
ATOM     11  C   UNL A   1      31.663  25.424  25.169  1.00  0.00     0.303 C 
BRANCH  11  12
ATOM     12  C   UNL A   1      31.488  26.879  25.566  1.00  0.00     0.048 A 
ATOM     13  C   UNL A   1      31.829  29.535  26.373  1.00  0.00     0.122 A 
ATOM     14  C   UNL A   1      31.646  28.544  27.328  1.00  0.00     0.047 A 
ATOM     15  C   UNL A   1      31.708  29.228  25.015  1.00  0.00     0.093 A 
ATOM     16  C   UNL A   1      31.435  27.227  26.928  1.00  0.00     0.017 A 
ATOM     17  C   UNL A   1      31.502  27.904  24.609  1.00  0.00     0.131 A 
BRANCH  13  18
ATOM     18  O   UNL A   1      32.239  30.747  26.857  1.00  0.00    -0.497 OA
ATOM     19  C   UNL A   1      33.598  30.791  27.268  1.00  0.00     0.278 C 
ENDBRANCH  13  18
BRANCH  17  20
ATOM     20  O   UNL A   1      31.390  27.506  23.302  1.00  0.00    -0.496 OA
ATOM     21  C   UNL A   1      30.547  28.284  22.463  1.00  0.00     0.278 C 
ENDBRANCH  17  20
ENDBRANCH  11  12
ENDBRANCH   6  11
BRANCH  10  22
ATOM     22  C   UNL A   1      32.814  21.306  24.372  1.00  0.00     0.004 A 
ATOM     23  C   UNL A   1      32.202  21.764  23.187  1.00  0.00     0.008 A 
ATOM     24  C   UNL A   1      32.945  19.902  24.454  1.00  0.00     0.122 A 
ATOM     25  C   UNL A   1      31.858  20.927  22.117  1.00  0.00     0.001 A 
ATOM     26  C   UNL A   1      32.665  19.057  23.356  1.00  0.00     0.047 A 
ATOM     27  C   UNL A   1      32.135  19.574  22.178  1.00  0.00     0.004 A 
BRANCH  24  28
ATOM     28  O   UNL A   1      32.952  19.291  25.684  1.00  0.00    -0.496 OA
ATOM     29  C   UNL A   1      32.594  17.920  25.662  1.00  0.00     0.278 C 
ENDBRANCH  24  28
ENDBRANCH  10  22
ENDBRANCH   3   5
ENDBRANCH   2   3
ENDBRANCH   1   2
BRANCH   1  30
ATOM     30  C   UNL A   1      37.805  20.432  25.206  1.00  0.00     0.275 C 
BRANCH  30  31
ATOM     31  O   UNL A   1      38.886  21.376  25.372  1.00  0.00    -0.458 OA
BRANCH  31  32
ATOM     32  C   UNL A   1      39.691  21.158  26.442  1.00  0.00     0.338 C 
ATOM     33  O   UNL A   1      40.070  20.074  26.855  1.00  0.00    -0.246 OA
BRANCH  32  34
ATOM     34  C   UNL A   1      40.252  22.428  26.953  1.00  0.00     0.060 A 
ATOM     35  C   UNL A   1      39.878  23.597  26.285  1.00  0.00     0.016 A 
ATOM     36  C   UNL A   1      41.184  22.501  27.985  1.00  0.00     0.016 A 
ATOM     37  C   UNL A   1      40.370  24.840  26.651  1.00  0.00     0.010 A 
ATOM     38  C   UNL A   1      41.729  23.752  28.329  1.00  0.00     0.010 A 
ATOM     39  C   UNL A   1      41.324  24.927  27.660  1.00  0.00    -0.014 A 
BRANCH  39  40
ATOM     40  C   UNL A   1      42.006  26.227  27.858  1.00  0.00     0.031 A 
ATOM     41  C   UNL A   1      41.305  27.290  28.653  1.00  0.00     0.074 A 
ATOM     42  C   UNL A   1      43.274  26.421  27.451  1.00  0.00     0.049 A 
ATOM     43  N   UNL A   1      41.648  28.533  28.872  1.00  0.00    -0.248 NA
ATOM     44  C   UNL A   1      40.046  26.888  29.301  1.00  0.00     0.031 C 
ATOM     45  C   UNL A   1      44.120  25.419  26.807  1.00  0.00     0.029 A 
ATOM     46  N   UNL A   1      44.074  27.536  27.531  1.00  0.00    -0.354 N 
ATOM     47  C   UNL A   1      40.633  29.071  29.652  1.00  0.00     0.074 A 
ATOM     48  C   UNL A   1      39.659  28.022  29.865  1.00  0.00     0.031 C 
ATOM     49  C   UNL A   1      45.316  25.968  26.533  1.00  0.00     0.029 A 
ATOM     50  C   UNL A   1      45.298  27.374  26.930  1.00  0.00     0.049 A 
ATOM     51  H   UNL A   1      43.796  28.369  27.975  1.00  0.00     0.167 HD
ATOM     52  C   UNL A   1      40.525  30.329  30.140  1.00  0.00     0.037 A 
ATOM     53  C   UNL A   1      46.272  28.275  26.690  1.00  0.00     0.037 A 
ATOM     54  C   UNL A   1      41.510  31.359  29.937  1.00  0.00     0.049 A 
ATOM     55  C   UNL A   1      46.075  29.702  27.138  1.00  0.00     0.074 A 
ATOM     56  C   UNL A   1      41.484  32.675  30.361  1.00  0.00     0.029 A 
ATOM     57  N   UNL A   1      42.704  31.183  29.252  1.00  0.00    -0.354 N 
ATOM     58  N   UNL A   1      45.083  30.233  27.813  1.00  0.00    -0.248 NA
ATOM     59  C   UNL A   1      47.132  30.659  26.780  1.00  0.00     0.031 C 
ATOM     60  C   UNL A   1      42.636  33.311  29.886  1.00  0.00     0.029 A 
ATOM     61  C   UNL A   1      43.412  32.374  29.222  1.00  0.00     0.049 A 
ATOM     62  H   UNL A   1      43.004  30.337  28.848  1.00  0.00     0.167 HD
ATOM     63  C   UNL A   1      45.408  31.573  27.984  1.00  0.00     0.074 A 
ATOM     64  C   UNL A   1      46.698  31.771  27.358  1.00  0.00     0.031 C 
ATOM     65  C   UNL A   1      44.702  32.552  28.602  1.00  0.00     0.037 A 
BRANCH  52  66
ATOM     66  C   UNL A   1      39.266  30.675  30.881  1.00  0.00     0.064 A 
ATOM     67  C   UNL A   1      38.125  31.163  30.229  1.00  0.00     0.173 A 
ATOM     68  C   UNL A   1      39.205  30.507  32.273  1.00  0.00     0.173 A 
ATOM     69  F   UNL A   1      38.136  31.360  28.902  1.00  0.00    -0.203 F 
ATOM     70  C   UNL A   1      36.980  31.500  30.947  1.00  0.00     0.198 A 
ATOM     71  C   UNL A   1      38.048  30.813  32.983  1.00  0.00     0.198 A 
ATOM     72  F   UNL A   1      40.268  30.042  32.947  1.00  0.00    -0.203 F 
ATOM     73  F   UNL A   1      35.920  32.019  30.312  1.00  0.00    -0.200 F 
ATOM     74  C   UNL A   1      36.940  31.318  32.322  1.00  0.00     0.200 A 
ATOM     75  F   UNL A   1      38.008  30.625  34.310  1.00  0.00    -0.200 F 
ATOM     76  F   UNL A   1      35.836  31.639  33.011  1.00  0.00    -0.200 F 
ENDBRANCH  52  66
BRANCH  53  77
ATOM     77  C   UNL A   1      47.495  27.877  25.941  1.00  0.00     0.064 A 
ATOM     78  C   UNL A   1      47.494  27.785  24.542  1.00  0.00     0.173 A 
ATOM     79  C   UNL A   1      48.678  27.534  26.613  1.00  0.00     0.173 A 
ATOM     80  F   UNL A   1      46.378  28.066  23.852  1.00  0.00    -0.203 F 
ATOM     81  C   UNL A   1      48.622  27.348  23.847  1.00  0.00     0.198 A 
ATOM     82  C   UNL A   1      49.815  27.130  25.916  1.00  0.00     0.198 A 
ATOM     83  F   UNL A   1      48.731  27.589  27.952  1.00  0.00    -0.203 F 
ATOM     84  F   UNL A   1      48.574  27.212  22.515  1.00  0.00    -0.200 F 
ATOM     85  C   UNL A   1      49.783  27.028  24.535  1.00  0.00     0.200 A 
ATOM     86  F   UNL A   1      50.936  26.829  26.585  1.00  0.00    -0.200 F 
ATOM     87  F   UNL A   1      50.864  26.605  23.866  1.00  0.00    -0.200 F 
ENDBRANCH  53  77
BRANCH  65  88
ATOM     88  C   UNL A   1      45.331  33.915  28.675  1.00  0.00     0.064 A 
ATOM     89  C   UNL A   1      45.085  34.898  27.704  1.00  0.00     0.173 A 
ATOM     90  C   UNL A   1      46.167  34.253  29.750  1.00  0.00     0.173 A 
ATOM     91  F   UNL A   1      44.303  34.623  26.648  1.00  0.00    -0.203 F 
ATOM     92  C   UNL A   1      45.679  36.154  27.790  1.00  0.00     0.198 A 
ATOM     93  C   UNL A   1      46.731  35.522  29.852  1.00  0.00     0.198 A 
ATOM     94  F   UNL A   1      46.429  33.355  30.713  1.00  0.00    -0.203 F 
ATOM     95  F   UNL A   1      45.475  37.057  26.821  1.00  0.00    -0.200 F 
ATOM     96  C   UNL A   1      46.495  36.468  28.867  1.00  0.00     0.200 A 
ATOM     97  F   UNL A   1      47.505  35.827  30.903  1.00  0.00    -0.200 F 
ATOM     98  F   UNL A   1      47.061  37.679  28.952  1.00  0.00    -0.200 F 
ENDBRANCH  65  88
ENDBRANCH  39  40
ENDBRANCH  32  34
ENDBRANCH  31  32
ENDBRANCH  30  31
ENDBRANCH   1  30
TORSDOF 17
ENDMDL
