MODEL 1
REMARK VINA RESULT:     -12.3      0.000      0.000
REMARK SMILES C=C(C)COc1ccc2c(C)c(CC(=O)OCCOC(=O)c3ccc(-c4c5nc(c(-c6c(F)c(F)c(F)c(F)c6F)c6ccc([nH]6)c(-c6c(F)c(F)c(F)c(F)c6F)c6nc(c(-c7c(F)c(F)c(F)c(F)c7F)c7ccc4[nH]7)C=C6)C=C5)cc3)c(=O)oc2c1
REMARK SMILES IDX 17 1 16 2 14 3 15 4 13 5 12 6 6 7 7 8 89 9 8 10 88 11 9 12
REMARK SMILES IDX 87 13 10 14 85 15 11 16 86 17 5 18 4 19 2 20 1 21 3 22 18 23
REMARK SMILES IDX 19 24 20 25 21 26 22 27 23 28 84 29 24 30 83 31 25 32 26 33
REMARK SMILES IDX 27 34 77 35 28 36 82 37 76 38 78 39 29 40 81 41 75 42 74 43
REMARK SMILES IDX 30 45 62 46 42 47 61 48 43 49 46 50 60 51 79 52 44 53 45 54
REMARK SMILES IDX 59 56 80 57 47 58 31 59 32 60 40 61 33 62 34 63 38 64 41 65
REMARK SMILES IDX 35 66 36 67 39 68 37 69 63 70 64 71 72 72 65 73 66 74 70 75
REMARK SMILES IDX 73 76 67 77 68 78 71 79 69 80 48 81 49 82 57 83 50 84 51 85
REMARK SMILES IDX 55 86 58 87 52 88 53 89 56 90 54 91
REMARK H PARENT 78 44 46 55
REMARK Flexibility Score: inf
ROOT
ATOM      1  C   UNL A   1      31.294  29.421  24.960  1.00  0.00     0.274 C 
ENDROOT
BRANCH   1   2
ATOM      2  O   UNL A   1      32.453  29.348  24.106  1.00  0.00    -0.462 OA
BRANCH   2   3
ATOM      3  C   UNL A   1      32.373  28.495  23.050  1.00  0.00     0.310 C 
ATOM      4  O   UNL A   1      31.410  28.403  22.295  1.00  0.00    -0.252 OA
BRANCH   3   5
ATOM      5  C   UNL A   1      33.652  27.709  22.808  1.00  0.00     0.166 C 
BRANCH   5   6
ATOM      6  C   UNL A   1      33.612  26.276  23.282  1.00  0.00     0.052 A 
ATOM      7  C   UNL A   1      33.857  21.613  25.169  1.00  0.00     0.123 A 
ATOM      8  C   UNL A   1      33.835  22.444  26.284  1.00  0.00     0.047 A 
ATOM      9  C   UNL A   1      33.688  22.140  23.897  1.00  0.00     0.094 A 
ATOM     10  C   UNL A   1      33.750  23.831  26.110  1.00  0.00     0.016 A 
ATOM     11  C   UNL A   1      33.618  23.521  23.743  1.00  0.00     0.142 A 
ATOM     12  C   UNL A   1      33.686  24.395  24.824  1.00  0.00     0.021 A 
ATOM     13  O   UNL A   1      33.493  23.980  22.427  1.00  0.00    -0.422 OA
ATOM     14  C   UNL A   1      33.732  25.847  24.559  1.00  0.00    -0.029 A 
ATOM     15  C   UNL A   1      33.433  25.328  22.147  1.00  0.00     0.340 A 
ATOM     16  C   UNL A   1      33.952  26.740  25.751  1.00  0.00     0.046 C 
ATOM     17  O   UNL A   1      33.278  25.730  20.997  1.00  0.00    -0.246 OA
BRANCH   7  18
ATOM     18  O   UNL A   1      34.030  20.265  25.327  1.00  0.00    -0.489 OA
BRANCH  18  19
ATOM     19  C   UNL A   1      32.878  19.548  24.842  1.00  0.00     0.260 C 
BRANCH  19  20
ATOM     20  C   UNL A   1      33.265  18.408  23.922  1.00  0.00    -0.043 C 
ATOM     21  C   UNL A   1      32.526  18.072  22.850  1.00  0.00     0.011 C 
ATOM     22  C   UNL A   1      34.547  17.700  24.251  1.00  0.00     0.042 C 
ENDBRANCH  19  20
ENDBRANCH  18  19
ENDBRANCH   7  18
ENDBRANCH   5   6
ENDBRANCH   3   5
ENDBRANCH   2   3
ENDBRANCH   1   2
BRANCH   1  23
ATOM     23  C   UNL A   1      31.698  30.014  26.307  1.00  0.00     0.275 C 
BRANCH  23  24
ATOM     24  O   UNL A   1      32.986  30.643  26.169  1.00  0.00    -0.458 OA
BRANCH  24  25
ATOM     25  C   UNL A   1      33.263  31.631  27.048  1.00  0.00     0.338 C 
ATOM     26  O   UNL A   1      32.616  32.646  27.251  1.00  0.00    -0.246 OA
BRANCH  25  27
ATOM     27  C   UNL A   1      34.511  31.316  27.774  1.00  0.00     0.060 A 
ATOM     28  C   UNL A   1      35.476  32.299  28.007  1.00  0.00     0.016 A 
ATOM     29  C   UNL A   1      34.754  29.998  28.165  1.00  0.00     0.016 A 
ATOM     30  C   UNL A   1      36.699  31.957  28.584  1.00  0.00     0.010 A 
ATOM     31  C   UNL A   1      35.940  29.678  28.832  1.00  0.00     0.010 A 
ATOM     32  C   UNL A   1      36.930  30.653  29.043  1.00  0.00    -0.014 A 
BRANCH  32  33
ATOM     33  C   UNL A   1      38.167  30.316  29.798  1.00  0.00     0.031 A 
ATOM     34  C   UNL A   1      39.201  29.392  29.218  1.00  0.00     0.074 A 
ATOM     35  C   UNL A   1      38.339  30.811  31.041  1.00  0.00     0.049 A 
ATOM     36  N   UNL A   1      40.231  28.833  29.802  1.00  0.00    -0.248 NA
ATOM     37  C   UNL A   1      39.054  29.041  27.798  1.00  0.00     0.031 C 
ATOM     38  C   UNL A   1      37.425  31.729  31.722  1.00  0.00     0.029 A 
ATOM     39  N   UNL A   1      39.340  30.601  31.958  1.00  0.00    -0.354 N 
ATOM     40  C   UNL A   1      40.827  28.031  28.839  1.00  0.00     0.074 A 
ATOM     41  C   UNL A   1      40.046  28.175  27.629  1.00  0.00     0.031 C 
ATOM     42  C   UNL A   1      37.917  32.025  32.933  1.00  0.00     0.029 A 
ATOM     43  C   UNL A   1      39.134  31.253  33.150  1.00  0.00     0.049 A 
ATOM     44  H   UNL A   1      40.128  30.038  31.780  1.00  0.00     0.167 HD
ATOM     45  C   UNL A   1      41.923  27.243  28.959  1.00  0.00     0.037 A 
ATOM     46  C   UNL A   1      39.817  31.202  34.308  1.00  0.00     0.037 A 
ATOM     47  C   UNL A   1      42.726  27.134  30.151  1.00  0.00     0.049 A 
ATOM     48  C   UNL A   1      41.007  30.297  34.423  1.00  0.00     0.074 A 
ATOM     49  C   UNL A   1      43.881  26.396  30.349  1.00  0.00     0.029 A 
ATOM     50  N   UNL A   1      42.462  27.787  31.344  1.00  0.00    -0.354 N 
ATOM     51  N   UNL A   1      41.538  29.515  33.518  1.00  0.00    -0.248 NA
ATOM     52  C   UNL A   1      41.673  30.248  35.732  1.00  0.00     0.031 C 
ATOM     53  C   UNL A   1      44.298  26.577  31.672  1.00  0.00     0.029 A 
ATOM     54  C   UNL A   1      43.421  27.454  32.289  1.00  0.00     0.049 A 
ATOM     55  H   UNL A   1      41.705  28.397  31.498  1.00  0.00     0.167 HD
ATOM     56  C   UNL A   1      42.599  28.877  34.144  1.00  0.00     0.074 A 
ATOM     57  C   UNL A   1      42.651  29.383  35.501  1.00  0.00     0.031 C 
ATOM     58  C   UNL A   1      43.448  27.951  33.639  1.00  0.00     0.037 A 
BRANCH  45  59
ATOM     59  C   UNL A   1      42.318  26.411  27.775  1.00  0.00     0.064 A 
ATOM     60  C   UNL A   1      43.326  26.819  26.891  1.00  0.00     0.173 A 
ATOM     61  C   UNL A   1      41.721  25.159  27.564  1.00  0.00     0.173 A 
ATOM     62  F   UNL A   1      43.917  28.013  27.045  1.00  0.00    -0.203 F 
ATOM     63  C   UNL A   1      43.715  26.007  25.828  1.00  0.00     0.198 A 
ATOM     64  C   UNL A   1      42.126  24.341  26.511  1.00  0.00     0.198 A 
ATOM     65  F   UNL A   1      40.755  24.723  28.385  1.00  0.00    -0.203 F 
ATOM     66  F   UNL A   1      44.661  26.427  24.977  1.00  0.00    -0.200 F 
ATOM     67  C   UNL A   1      43.120  24.767  25.643  1.00  0.00     0.200 A 
ATOM     68  F   UNL A   1      41.557  23.140  26.340  1.00  0.00    -0.200 F 
ATOM     69  F   UNL A   1      43.503  23.984  24.626  1.00  0.00    -0.200 F 
ENDBRANCH  45  59
BRANCH  46  70
ATOM     70  C   UNL A   1      39.351  32.007  35.465  1.00  0.00     0.064 A 
ATOM     71  C   UNL A   1      38.486  31.458  36.419  1.00  0.00     0.173 A 
ATOM     72  C   UNL A   1      39.787  33.327  35.655  1.00  0.00     0.173 A 
ATOM     73  F   UNL A   1      38.026  30.208  36.263  1.00  0.00    -0.203 F 
ATOM     74  C   UNL A   1      38.076  32.199  37.524  1.00  0.00     0.198 A 
ATOM     75  C   UNL A   1      39.395  34.058  36.771  1.00  0.00     0.198 A 
ATOM     76  F   UNL A   1      40.616  33.894  34.766  1.00  0.00    -0.203 F 
ATOM     77  F   UNL A   1      37.227  31.661  38.411  1.00  0.00    -0.200 F 
ATOM     78  C   UNL A   1      38.537  33.496  37.704  1.00  0.00     0.200 A 
ATOM     79  F   UNL A   1      39.854  35.305  36.949  1.00  0.00    -0.200 F 
ATOM     80  F   UNL A   1      38.152  34.203  38.775  1.00  0.00    -0.200 F 
ENDBRANCH  46  70
BRANCH  58  81
ATOM     81  C   UNL A   1      44.502  27.425  34.563  1.00  0.00     0.064 A 
ATOM     82  C   UNL A   1      44.320  26.223  35.263  1.00  0.00     0.173 A 
ATOM     83  C   UNL A   1      45.707  28.119  34.741  1.00  0.00     0.173 A 
ATOM     84  F   UNL A   1      43.175  25.536  35.138  1.00  0.00    -0.203 F 
ATOM     85  C   UNL A   1      45.303  25.744  36.125  1.00  0.00     0.198 A 
ATOM     86  C   UNL A   1      46.695  27.626  35.590  1.00  0.00     0.198 A 
ATOM     87  F   UNL A   1      45.925  29.272  34.093  1.00  0.00    -0.203 F 
ATOM     88  F   UNL A   1      45.094  24.614  36.815  1.00  0.00    -0.200 F 
ATOM     89  C   UNL A   1      46.490  26.443  36.284  1.00  0.00     0.200 A 
ATOM     90  F   UNL A   1      47.844  28.300  35.739  1.00  0.00    -0.200 F 
ATOM     91  F   UNL A   1      47.434  25.982  37.115  1.00  0.00    -0.200 F 
ENDBRANCH  58  81
ENDBRANCH  32  33
ENDBRANCH  25  27
ENDBRANCH  24  25
ENDBRANCH  23  24
ENDBRANCH   1  23
TORSDOF 15
ENDMDL
MODEL 2
REMARK VINA RESULT:     -12.3      0.308      1.973
REMARK SMILES C=C(C)COc1ccc2c(C)c(CC(=O)OCCOC(=O)c3ccc(-c4c5nc(c(-c6c(F)c(F)c(F)c(F)c6F)c6ccc([nH]6)c(-c6c(F)c(F)c(F)c(F)c6F)c6nc(c(-c7c(F)c(F)c(F)c(F)c7F)c7ccc4[nH]7)C=C6)C=C5)cc3)c(=O)oc2c1
REMARK SMILES IDX 17 1 16 2 14 3 15 4 13 5 12 6 6 7 7 8 89 9 8 10 88 11 9 12
REMARK SMILES IDX 87 13 10 14 85 15 11 16 86 17 5 18 4 19 2 20 1 21 3 22 18 23
REMARK SMILES IDX 19 24 20 25 21 26 22 27 23 28 84 29 24 30 83 31 25 32 26 33
REMARK SMILES IDX 27 34 77 35 28 36 82 37 76 38 78 39 29 40 81 41 75 42 74 43
REMARK SMILES IDX 30 45 62 46 42 47 61 48 43 49 46 50 60 51 79 52 44 53 45 54
REMARK SMILES IDX 59 56 80 57 47 58 31 59 32 60 40 61 33 62 34 63 38 64 41 65
REMARK SMILES IDX 35 66 36 67 39 68 37 69 63 70 64 71 72 72 65 73 66 74 70 75
REMARK SMILES IDX 73 76 67 77 68 78 71 79 69 80 48 81 49 82 57 83 50 84 51 85
REMARK SMILES IDX 55 86 58 87 52 88 53 89 56 90 54 91
REMARK H PARENT 78 44 46 55
REMARK Flexibility Score: inf
ROOT
ATOM      1  C   UNL A   1      31.224  29.705  24.838  1.00  0.00     0.274 C 
ENDROOT
BRANCH   1   2
ATOM      2  O   UNL A   1      32.328  29.500  23.935  1.00  0.00    -0.462 OA
BRANCH   2   3
ATOM      3  C   UNL A   1      32.185  28.503  23.021  1.00  0.00     0.310 C 
ATOM      4  O   UNL A   1      31.135  28.219  22.453  1.00  0.00    -0.252 OA
BRANCH   3   5
ATOM      5  C   UNL A   1      33.493  27.810  22.671  1.00  0.00     0.166 C 
BRANCH   5   6
ATOM      6  C   UNL A   1      33.598  26.382  23.150  1.00  0.00     0.052 A 
ATOM      7  C   UNL A   1      34.335  21.771  25.036  1.00  0.00     0.123 A 
ATOM      8  C   UNL A   1      34.299  22.605  26.148  1.00  0.00     0.047 A 
ATOM      9  C   UNL A   1      34.057  22.272  23.773  1.00  0.00     0.094 A 
ATOM     10  C   UNL A   1      34.088  23.978  25.974  1.00  0.00     0.016 A 
ATOM     11  C   UNL A   1      33.863  23.641  23.618  1.00  0.00     0.142 A 
ATOM     12  C   UNL A   1      33.911  24.525  24.692  1.00  0.00     0.021 A 
ATOM     13  O   UNL A   1      33.632  24.078  22.309  1.00  0.00    -0.422 OA
ATOM     14  C   UNL A   1      33.819  25.974  24.420  1.00  0.00    -0.029 A 
ATOM     15  C   UNL A   1      33.444  25.414  22.028  1.00  0.00     0.340 A 
ATOM     16  C   UNL A   1      34.024  26.892  25.596  1.00  0.00     0.046 C 
ATOM     17  O   UNL A   1      33.197  25.793  20.887  1.00  0.00    -0.246 OA
BRANCH   7  18
ATOM     18  O   UNL A   1      34.630  20.444  25.189  1.00  0.00    -0.489 OA
BRANCH  18  19
ATOM     19  C   UNL A   1      33.424  19.655  25.188  1.00  0.00     0.260 C 
BRANCH  19  20
ATOM     20  C   UNL A   1      33.519  18.473  24.244  1.00  0.00    -0.043 C 
ATOM     21  C   UNL A   1      32.538  18.169  23.378  1.00  0.00     0.011 C 
ATOM     22  C   UNL A   1      34.794  17.683  24.302  1.00  0.00     0.042 C 
ENDBRANCH  19  20
ENDBRANCH  18  19
ENDBRANCH   7  18
ENDBRANCH   5   6
ENDBRANCH   3   5
ENDBRANCH   2   3
ENDBRANCH   1   2
BRANCH   1  23
ATOM     23  C   UNL A   1      31.750  29.781  26.268  1.00  0.00     0.275 C 
BRANCH  23  24
ATOM     24  O   UNL A   1      33.100  30.282  26.239  1.00  0.00    -0.458 OA
BRANCH  24  25
ATOM     25  C   UNL A   1      33.374  31.303  27.080  1.00  0.00     0.338 C 
ATOM     26  O   UNL A   1      32.713  32.314  27.259  1.00  0.00    -0.246 OA
BRANCH  25  27
ATOM     27  C   UNL A   1      34.638  31.034  27.796  1.00  0.00     0.060 A 
ATOM     28  C   UNL A   1      35.593  32.037  27.974  1.00  0.00     0.016 A 
ATOM     29  C   UNL A   1      34.905  29.735  28.235  1.00  0.00     0.016 A 
ATOM     30  C   UNL A   1      36.830  31.734  28.543  1.00  0.00     0.010 A 
ATOM     31  C   UNL A   1      36.106  29.457  28.894  1.00  0.00     0.010 A 
ATOM     32  C   UNL A   1      37.086  30.452  29.049  1.00  0.00    -0.014 A 
BRANCH  32  33
ATOM     33  C   UNL A   1      38.340  30.162  29.796  1.00  0.00     0.031 A 
ATOM     34  C   UNL A   1      39.380  29.235  29.231  1.00  0.00     0.074 A 
ATOM     35  C   UNL A   1      38.523  30.701  31.018  1.00  0.00     0.049 A 
ATOM     36  N   UNL A   1      40.429  28.713  29.818  1.00  0.00    -0.248 NA
ATOM     37  C   UNL A   1      39.217  28.832  27.826  1.00  0.00     0.031 C 
ATOM     38  C   UNL A   1      37.604  31.627  31.681  1.00  0.00     0.029 A 
ATOM     39  N   UNL A   1      39.541  30.539  31.926  1.00  0.00    -0.354 N 
ATOM     40  C   UNL A   1      41.023  27.887  28.873  1.00  0.00     0.074 A 
ATOM     41  C   UNL A   1      40.221  27.978  27.671  1.00  0.00     0.031 C 
ATOM     42  C   UNL A   1      38.110  31.972  32.874  1.00  0.00     0.029 A 
ATOM     43  C   UNL A   1      39.343  31.228  33.097  1.00  0.00     0.049 A 
ATOM     44  H   UNL A   1      40.336  29.983  31.754  1.00  0.00     0.167 HD
ATOM     45  C   UNL A   1      42.134  27.122  29.003  1.00  0.00     0.037 A 
ATOM     46  C   UNL A   1      40.044  31.228  34.246  1.00  0.00     0.037 A 
ATOM     47  C   UNL A   1      42.957  27.067  30.184  1.00  0.00     0.049 A 
ATOM     48  C   UNL A   1      41.250  30.347  34.373  1.00  0.00     0.074 A 
ATOM     49  C   UNL A   1      44.126  26.355  30.389  1.00  0.00     0.029 A 
ATOM     50  N   UNL A   1      42.700  27.757  31.358  1.00  0.00    -0.354 N 
ATOM     51  N   UNL A   1      41.781  29.542  33.487  1.00  0.00    -0.248 NA
ATOM     52  C   UNL A   1      41.937  30.354  35.672  1.00  0.00     0.031 C 
ATOM     53  C   UNL A   1      44.560  26.588  31.699  1.00  0.00     0.029 A 
ATOM     54  C   UNL A   1      43.678  27.472  32.299  1.00  0.00     0.049 A 
ATOM     55  H   UNL A   1      41.935  28.359  31.504  1.00  0.00     0.167 HD
ATOM     56  C   UNL A   1      42.861  28.944  34.117  1.00  0.00     0.074 A 
ATOM     57  C   UNL A   1      42.926  29.496  35.455  1.00  0.00     0.031 C 
ATOM     58  C   UNL A   1      43.718  28.014  33.631  1.00  0.00     0.037 A 
BRANCH  45  59
ATOM     59  C   UNL A   1      42.524  26.257  27.841  1.00  0.00     0.064 A 
ATOM     60  C   UNL A   1      41.936  25.004  27.624  1.00  0.00     0.173 A 
ATOM     61  C   UNL A   1      43.454  26.721  26.899  1.00  0.00     0.173 A 
ATOM     62  F   UNL A   1      41.050  24.512  28.503  1.00  0.00    -0.203 F 
ATOM     63  C   UNL A   1      42.273  24.239  26.510  1.00  0.00     0.198 A 
ATOM     64  C   UNL A   1      43.775  25.963  25.775  1.00  0.00     0.198 A 
ATOM     65  F   UNL A   1      44.042  27.916  27.061  1.00  0.00    -0.203 F 
ATOM     66  F   UNL A   1      41.720  23.032  26.335  1.00  0.00    -0.200 F 
ATOM     67  C   UNL A   1      43.187  24.722  25.583  1.00  0.00     0.200 A 
ATOM     68  F   UNL A   1      44.651  26.435  24.878  1.00  0.00    -0.200 F 
ATOM     69  F   UNL A   1      43.502  23.989  24.507  1.00  0.00    -0.200 F 
ENDBRANCH  45  59
BRANCH  46  70
ATOM     70  C   UNL A   1      39.582  32.065  35.382  1.00  0.00     0.064 A 
ATOM     71  C   UNL A   1      40.027  33.384  35.528  1.00  0.00     0.173 A 
ATOM     72  C   UNL A   1      38.663  31.572  36.321  1.00  0.00     0.173 A 
ATOM     73  F   UNL A   1      40.924  33.887  34.667  1.00  0.00    -0.203 F 
ATOM     74  C   UNL A   1      39.569  34.182  36.573  1.00  0.00     0.198 A 
ATOM     75  C   UNL A   1      38.188  32.379  37.350  1.00  0.00     0.198 A 
ATOM     76  F   UNL A   1      38.210  30.314  36.220  1.00  0.00    -0.203 F 
ATOM     77  F   UNL A   1      40.029  35.434  36.708  1.00  0.00    -0.200 F 
ATOM     78  C   UNL A   1      38.643  33.682  37.478  1.00  0.00     0.200 A 
ATOM     79  F   UNL A   1      37.283  31.897  38.213  1.00  0.00    -0.200 F 
ATOM     80  F   UNL A   1      38.192  34.457  38.474  1.00  0.00    -0.200 F 
ENDBRANCH  46  70
BRANCH  58  81
ATOM     81  C   UNL A   1      44.794  27.538  34.556  1.00  0.00     0.064 A 
ATOM     82  C   UNL A   1      46.025  28.203  34.641  1.00  0.00     0.173 A 
ATOM     83  C   UNL A   1      44.590  26.416  35.372  1.00  0.00     0.173 A 
ATOM     84  F   UNL A   1      46.272  29.269  33.865  1.00  0.00    -0.203 F 
ATOM     85  C   UNL A   1      47.023  27.750  35.499  1.00  0.00     0.198 A 
ATOM     86  C   UNL A   1      45.584  25.977  36.243  1.00  0.00     0.198 A 
ATOM     87  F   UNL A   1      43.429  25.748  35.324  1.00  0.00    -0.203 F 
ATOM     88  F   UNL A   1      48.207  28.376  35.537  1.00  0.00    -0.200 F 
ATOM     89  C   UNL A   1      46.800  26.640  36.302  1.00  0.00     0.200 A 
ATOM     90  F   UNL A   1      45.366  24.909  37.021  1.00  0.00    -0.200 F 
ATOM     91  F   UNL A   1      47.762  26.204  37.126  1.00  0.00    -0.200 F 
ENDBRANCH  58  81
ENDBRANCH  32  33
ENDBRANCH  25  27
ENDBRANCH  24  25
ENDBRANCH  23  24
ENDBRANCH   1  23
TORSDOF 15
ENDMDL
MODEL 3
REMARK VINA RESULT:     -12.2      1.086      1.501
REMARK SMILES C=C(C)COc1ccc2c(C)c(CC(=O)OCCOC(=O)c3ccc(-c4c5nc(c(-c6c(F)c(F)c(F)c(F)c6F)c6ccc([nH]6)c(-c6c(F)c(F)c(F)c(F)c6F)c6nc(c(-c7c(F)c(F)c(F)c(F)c7F)c7ccc4[nH]7)C=C6)C=C5)cc3)c(=O)oc2c1
REMARK SMILES IDX 17 1 16 2 14 3 15 4 13 5 12 6 6 7 7 8 89 9 8 10 88 11 9 12
REMARK SMILES IDX 87 13 10 14 85 15 11 16 86 17 5 18 4 19 2 20 1 21 3 22 18 23
REMARK SMILES IDX 19 24 20 25 21 26 22 27 23 28 84 29 24 30 83 31 25 32 26 33
REMARK SMILES IDX 27 34 77 35 28 36 82 37 76 38 78 39 29 40 81 41 75 42 74 43
REMARK SMILES IDX 30 45 62 46 42 47 61 48 43 49 46 50 60 51 79 52 44 53 45 54
REMARK SMILES IDX 59 56 80 57 47 58 31 59 32 60 40 61 33 62 34 63 38 64 41 65
REMARK SMILES IDX 35 66 36 67 39 68 37 69 63 70 64 71 72 72 65 73 66 74 70 75
REMARK SMILES IDX 73 76 67 77 68 78 71 79 69 80 48 81 49 82 57 83 50 84 51 85
REMARK SMILES IDX 55 86 58 87 52 88 53 89 56 90 54 91
REMARK H PARENT 78 44 46 55
REMARK Flexibility Score: inf
ROOT
ATOM      1  C   UNL A   1      31.705  28.508  26.315  1.00  0.00     0.274 C 
ENDROOT
BRANCH   1   2
ATOM      2  O   UNL A   1      32.041  28.056  24.989  1.00  0.00    -0.462 OA
BRANCH   2   3
ATOM      3  C   UNL A   1      33.092  27.198  24.889  1.00  0.00     0.310 C 
ATOM      4  O   UNL A   1      33.874  27.155  23.946  1.00  0.00    -0.252 OA
BRANCH   3   5
ATOM      5  C   UNL A   1      33.287  26.334  26.126  1.00  0.00     0.166 C 
BRANCH   5   6
ATOM      6  C   UNL A   1      33.079  24.856  25.903  1.00  0.00     0.052 A 
ATOM      7  C   UNL A   1      32.672  19.970  24.748  1.00  0.00     0.123 A 
ATOM      8  C   UNL A   1      34.035  20.235  24.685  1.00  0.00     0.047 A 
ATOM      9  C   UNL A   1      31.789  20.940  25.198  1.00  0.00     0.094 A 
ATOM     10  C   UNL A   1      34.503  21.524  24.974  1.00  0.00     0.016 A 
ATOM     11  C   UNL A   1      32.269  22.218  25.468  1.00  0.00     0.142 A 
ATOM     12  C   UNL A   1      33.613  22.552  25.328  1.00  0.00     0.021 A 
ATOM     13  O   UNL A   1      31.312  23.154  25.873  1.00  0.00    -0.422 OA
ATOM     14  C   UNL A   1      34.015  23.961  25.513  1.00  0.00    -0.029 A 
ATOM     15  C   UNL A   1      31.665  24.457  26.151  1.00  0.00     0.340 A 
ATOM     16  C   UNL A   1      35.451  24.295  25.207  1.00  0.00     0.046 C 
ATOM     17  O   UNL A   1      30.833  25.267  26.550  1.00  0.00    -0.246 OA
BRANCH   7  18
ATOM     18  O   UNL A   1      32.199  18.740  24.381  1.00  0.00    -0.489 OA
BRANCH  18  19
ATOM     19  C   UNL A   1      32.588  17.742  25.345  1.00  0.00     0.260 C 
BRANCH  19  20
ATOM     20  C   UNL A   1      33.185  16.516  24.683  1.00  0.00    -0.043 C 
ATOM     21  C   UNL A   1      33.939  16.598  23.573  1.00  0.00     0.011 C 
ATOM     22  C   UNL A   1      32.922  15.204  25.364  1.00  0.00     0.042 C 
ENDBRANCH  19  20
ENDBRANCH  18  19
ENDBRANCH   7  18
ENDBRANCH   5   6
ENDBRANCH   3   5
ENDBRANCH   2   3
ENDBRANCH   1   2
BRANCH   1  23
ATOM     23  C   UNL A   1      31.759  30.032  26.357  1.00  0.00     0.275 C 
BRANCH  23  24
ATOM     24  O   UNL A   1      33.136  30.448  26.314  1.00  0.00    -0.458 OA
BRANCH  24  25
ATOM     25  C   UNL A   1      33.467  31.495  27.103  1.00  0.00     0.338 C 
ATOM     26  O   UNL A   1      32.862  32.548  27.229  1.00  0.00    -0.246 OA
BRANCH  25  27
ATOM     27  C   UNL A   1      34.714  31.193  27.834  1.00  0.00     0.060 A 
ATOM     28  C   UNL A   1      35.696  32.170  28.017  1.00  0.00     0.016 A 
ATOM     29  C   UNL A   1      34.939  29.890  28.283  1.00  0.00     0.016 A 
ATOM     30  C   UNL A   1      36.918  31.835  28.601  1.00  0.00     0.010 A 
ATOM     31  C   UNL A   1      36.124  29.581  28.956  1.00  0.00     0.010 A 
ATOM     32  C   UNL A   1      37.131  30.549  29.117  1.00  0.00    -0.014 A 
BRANCH  32  33
ATOM     33  C   UNL A   1      38.369  30.227  29.879  1.00  0.00     0.031 A 
ATOM     34  C   UNL A   1      39.408  29.301  29.311  1.00  0.00     0.074 A 
ATOM     35  C   UNL A   1      38.535  30.736  31.116  1.00  0.00     0.049 A 
ATOM     36  N   UNL A   1      40.440  28.754  29.904  1.00  0.00    -0.248 NA
ATOM     37  C   UNL A   1      39.265  28.933  27.895  1.00  0.00     0.031 C 
ATOM     38  C   UNL A   1      37.615  31.657  31.784  1.00  0.00     0.029 A 
ATOM     39  N   UNL A   1      39.535  30.541  32.038  1.00  0.00    -0.354 N 
ATOM     40  C   UNL A   1      41.041  27.943  28.951  1.00  0.00     0.074 A 
ATOM     41  C   UNL A   1      40.262  28.070  27.738  1.00  0.00     0.031 C 
ATOM     42  C   UNL A   1      38.103  31.969  32.993  1.00  0.00     0.029 A 
ATOM     43  C   UNL A   1      39.323  31.205  33.221  1.00  0.00     0.049 A 
ATOM     44  H   UNL A   1      40.326  29.980  31.867  1.00  0.00     0.167 HD
ATOM     45  C   UNL A   1      42.141  27.162  29.083  1.00  0.00     0.037 A 
ATOM     46  C   UNL A   1      40.004  31.171  34.382  1.00  0.00     0.037 A 
ATOM     47  C   UNL A   1      42.942  27.070  30.277  1.00  0.00     0.049 A 
ATOM     48  C   UNL A   1      41.197  30.273  34.510  1.00  0.00     0.074 A 
ATOM     49  C   UNL A   1      44.100  26.340  30.486  1.00  0.00     0.029 A 
ATOM     50  N   UNL A   1      42.672  27.736  31.462  1.00  0.00    -0.354 N 
ATOM     51  N   UNL A   1      41.735  29.483  33.615  1.00  0.00    -0.248 NA
ATOM     52  C   UNL A   1      41.861  30.242  35.821  1.00  0.00     0.031 C 
ATOM     53  C   UNL A   1      44.513  26.539  31.808  1.00  0.00     0.029 A 
ATOM     54  C   UNL A   1      43.630  27.418  32.413  1.00  0.00     0.049 A 
ATOM     55  H   UNL A   1      41.912  28.344  31.608  1.00  0.00     0.167 HD
ATOM     56  C   UNL A   1      42.797  28.858  34.250  1.00  0.00     0.074 A 
ATOM     57  C   UNL A   1      42.843  29.379  35.601  1.00  0.00     0.031 C 
ATOM     58  C   UNL A   1      43.652  27.930  33.758  1.00  0.00     0.037 A 
BRANCH  45  59
ATOM     59  C   UNL A   1      42.543  26.319  27.909  1.00  0.00     0.064 A 
ATOM     60  C   UNL A   1      43.469  26.771  26.959  1.00  0.00     0.173 A 
ATOM     61  C   UNL A   1      42.039  25.017  27.773  1.00  0.00     0.173 A 
ATOM     62  F   UNL A   1      43.969  28.012  27.041  1.00  0.00    -0.203 F 
ATOM     63  C   UNL A   1      43.869  25.952  25.906  1.00  0.00     0.198 A 
ATOM     64  C   UNL A   1      42.456  24.193  26.729  1.00  0.00     0.198 A 
ATOM     65  F   UNL A   1      41.154  24.537  28.659  1.00  0.00    -0.203 F 
ATOM     66  F   UNL A   1      44.735  26.412  24.993  1.00  0.00    -0.200 F 
ATOM     67  C   UNL A   1      43.368  24.662  25.796  1.00  0.00     0.200 A 
ATOM     68  F   UNL A   1      41.978  22.945  26.630  1.00  0.00    -0.200 F 
ATOM     69  F   UNL A   1      43.762  23.873  24.788  1.00  0.00    -0.200 F 
ENDBRANCH  45  59
BRANCH  46  70
ATOM     70  C   UNL A   1      39.531  31.987  35.528  1.00  0.00     0.064 A 
ATOM     71  C   UNL A   1      38.561  31.493  36.409  1.00  0.00     0.173 A 
ATOM     72  C   UNL A   1      40.064  33.259  35.783  1.00  0.00     0.173 A 
ATOM     73  F   UNL A   1      38.007  30.291  36.188  1.00  0.00    -0.203 F 
ATOM     74  C   UNL A   1      38.142  32.242  37.505  1.00  0.00     0.198 A 
ATOM     75  C   UNL A   1      39.661  33.996  36.893  1.00  0.00     0.198 A 
ATOM     76  F   UNL A   1      40.995  33.773  34.966  1.00  0.00    -0.203 F 
ATOM     77  F   UNL A   1      37.193  31.759  38.320  1.00  0.00    -0.200 F 
ATOM     78  C   UNL A   1      38.698  33.489  37.751  1.00  0.00     0.200 A 
ATOM     79  F   UNL A   1      40.211  35.194  37.135  1.00  0.00    -0.200 F 
ATOM     80  F   UNL A   1      38.304  34.202  38.815  1.00  0.00    -0.200 F 
ENDBRANCH  46  70
BRANCH  58  81
ATOM     81  C   UNL A   1      44.706  27.419  34.690  1.00  0.00     0.064 A 
ATOM     82  C   UNL A   1      44.496  26.268  35.463  1.00  0.00     0.173 A 
ATOM     83  C   UNL A   1      45.939  28.077  34.803  1.00  0.00     0.173 A 
ATOM     84  F   UNL A   1      43.325  25.619  35.402  1.00  0.00    -0.203 F 
ATOM     85  C   UNL A   1      45.479  25.804  36.332  1.00  0.00     0.198 A 
ATOM     86  C   UNL A   1      46.927  27.598  35.659  1.00  0.00     0.198 A 
ATOM     87  F   UNL A   1      46.185  29.181  34.084  1.00  0.00    -0.203 F 
ATOM     88  F   UNL A   1      45.245  24.725  37.091  1.00  0.00    -0.200 F 
ATOM     89  C   UNL A   1      46.695  26.466  36.426  1.00  0.00     0.200 A 
ATOM     90  F   UNL A   1      48.103  28.235  35.745  1.00  0.00    -0.200 F 
ATOM     91  F   UNL A   1      47.640  26.019  37.264  1.00  0.00    -0.200 F 
ENDBRANCH  58  81
ENDBRANCH  32  33
ENDBRANCH  25  27
ENDBRANCH  24  25
ENDBRANCH  23  24
ENDBRANCH   1  23
TORSDOF 15
ENDMDL
