MODEL 1
REMARK VINA RESULT:     -10.2      0.000      0.000
REMARK SMILES CC[N@@H+](C/C(Cl)=C/Cl)C[C@@H](C)C(=O)OCCOC(=O)c1ccc(-c2c3nc(c(-c4c(F)c(F)c(F)c(F)c4F)c4ccc([nH]4)c(-c4c(F)c(F)c(F)c(F)c4F)c4nc(c(-c5c(F)c(F)c(F)c(F)c5F)c5ccc2[nH]5)C=C4)C=C3)cc1
REMARK SMILES IDX 15 1 14 2 12 3 13 4 10 5 11 6 9 7 3 8 2 10 1 11 4 12 5 13
REMARK SMILES IDX 6 14 7 15 8 16 16 17 17 18 18 19 19 20 20 21 21 22 82 23
REMARK SMILES IDX 22 24 81 25 23 26 24 27 25 28 75 29 26 30 80 31 74 32 76 33
REMARK SMILES IDX 27 34 79 35 73 36 72 37 28 39 60 40 40 41 59 42 41 43 44 44
REMARK SMILES IDX 58 45 77 46 42 47 43 48 57 50 78 51 45 52 29 53 30 54 38 55
REMARK SMILES IDX 31 56 32 57 36 58 39 59 33 60 34 61 37 62 35 63 61 64 62 65
REMARK SMILES IDX 70 66 63 67 64 68 68 69 71 70 65 71 66 72 69 73 67 74 46 75
REMARK SMILES IDX 47 76 55 77 48 78 49 79 53 80 56 81 50 82 51 83 54 84 52 85
REMARK H PARENT 3 9 76 38 44 49
REMARK Flexibility Score: inf
ROOT
ATOM      1  C   UNL A   1      36.158  20.722  25.013  1.00  0.00     0.274 C 
ENDROOT
BRANCH   1   2
ATOM      2  O   UNL A   1      35.889  21.645  26.087  1.00  0.00    -0.462 OA
BRANCH   2   3
ATOM      3  C   UNL A   1      35.419  22.865  25.719  1.00  0.00     0.314 C 
ATOM      4  O   UNL A   1      36.008  23.646  24.980  1.00  0.00    -0.252 OA
BRANCH   3   5
ATOM      5  C   UNL A   1      34.100  23.220  26.386  1.00  0.00     0.151 C 
ATOM      6  C   UNL A   1      33.942  22.334  27.615  1.00  0.00     0.026 C 
BRANCH   5   7
ATOM      7  C   UNL A   1      32.921  23.171  25.400  1.00  0.00     0.277 C 
BRANCH   7   8
ATOM      8  N   UNL A   1      32.823  24.216  24.382  1.00  0.00    -0.330 N 
ATOM      9  H   UNL A   1      33.718  24.608  24.674  1.00  0.00     0.348 HD
BRANCH   8  10
ATOM     10  C   UNL A   1      33.272  24.000  23.019  1.00  0.00     0.259 C 
ATOM     11  C   UNL A   1      32.882  22.644  22.440  1.00  0.00     0.071 C 
ENDBRANCH   8  10
BRANCH   8  12
ATOM     12  C   UNL A   1      31.874  25.305  24.607  1.00  0.00     0.312 C 
BRANCH  12  13
ATOM     13  C   UNL A   1      32.162  26.398  25.617  1.00  0.00     0.083 C 
ATOM     14  Cl  UNL A   1      33.842  26.878  25.621  1.00  0.00    -0.082 Cl
ATOM     15  C   UNL A   1      31.289  26.982  26.446  1.00  0.00     0.102 C 
ATOM     16  Cl  UNL A   1      31.649  28.195  27.606  1.00  0.00    -0.091 Cl
ENDBRANCH  12  13
ENDBRANCH   8  12
ENDBRANCH   7   8
ENDBRANCH   5   7
ENDBRANCH   3   5
ENDBRANCH   2   3
ENDBRANCH   1   2
BRANCH   1  17
ATOM     17  C   UNL A   1      37.608  20.229  25.000  1.00  0.00     0.275 C 
BRANCH  17  18
ATOM     18  O   UNL A   1      38.547  21.304  25.189  1.00  0.00    -0.458 OA
BRANCH  18  19
ATOM     19  C   UNL A   1      39.503  21.056  26.111  1.00  0.00     0.338 C 
ATOM     20  O   UNL A   1      40.065  19.990  26.319  1.00  0.00    -0.246 OA
BRANCH  19  21
ATOM     21  C   UNL A   1      39.911  22.293  26.791  1.00  0.00     0.060 A 
ATOM     22  C   UNL A   1      39.264  23.474  26.420  1.00  0.00     0.016 A 
ATOM     23  C   UNL A   1      40.996  22.328  27.671  1.00  0.00     0.016 A 
ATOM     24  C   UNL A   1      39.729  24.699  26.879  1.00  0.00     0.010 A 
ATOM     25  C   UNL A   1      41.462  23.565  28.136  1.00  0.00     0.010 A 
ATOM     26  C   UNL A   1      40.853  24.759  27.710  1.00  0.00    -0.014 A 
BRANCH  26  27
ATOM     27  C   UNL A   1      41.445  26.087  28.004  1.00  0.00     0.031 A 
ATOM     28  C   UNL A   1      42.805  26.427  27.462  1.00  0.00     0.074 A 
ATOM     29  C   UNL A   1      40.729  27.021  28.656  1.00  0.00     0.049 A 
ATOM     30  N   UNL A   1      43.495  27.534  27.581  1.00  0.00    -0.248 NA
ATOM     31  C   UNL A   1      43.480  25.382  26.676  1.00  0.00     0.031 C 
ATOM     32  C   UNL A   1      39.374  26.838  29.173  1.00  0.00     0.029 A 
ATOM     33  N   UNL A   1      41.036  28.323  28.969  1.00  0.00    -0.354 N 
ATOM     34  C   UNL A   1      44.690  27.310  26.908  1.00  0.00     0.074 A 
ATOM     35  C   UNL A   1      44.638  25.959  26.393  1.00  0.00     0.031 C 
ATOM     36  C   UNL A   1      38.954  27.993  29.715  1.00  0.00     0.029 A 
ATOM     37  C   UNL A   1      40.022  28.985  29.613  1.00  0.00     0.049 A 
ATOM     38  H   UNL A   1      41.901  28.740  28.752  1.00  0.00     0.167 HD
ATOM     39  C   UNL A   1      45.732  28.155  26.733  1.00  0.00     0.037 A 
ATOM     40  C   UNL A   1      39.964  30.251  30.071  1.00  0.00     0.037 A 
ATOM     41  C   UNL A   1      45.774  29.511  27.213  1.00  0.00     0.049 A 
ATOM     42  C   UNL A   1      41.145  31.162  29.881  1.00  0.00     0.074 A 
ATOM     43  C   UNL A   1      46.791  30.441  27.091  1.00  0.00     0.029 A 
ATOM     44  N   UNL A   1      44.740  30.136  27.896  1.00  0.00    -0.354 N 
ATOM     45  N   UNL A   1      42.282  30.930  29.273  1.00  0.00    -0.248 NA
ATOM     46  C   UNL A   1      41.035  32.514  30.448  1.00  0.00     0.031 C 
ATOM     47  C   UNL A   1      46.383  31.623  27.722  1.00  0.00     0.029 A 
ATOM     48  C   UNL A   1      45.100  31.437  28.208  1.00  0.00     0.049 A 
ATOM     49  H   UNL A   1      43.879  29.717  28.124  1.00  0.00     0.167 HD
ATOM     50  C   UNL A   1      43.012  32.108  29.365  1.00  0.00     0.074 A 
ATOM     51  C   UNL A   1      42.184  33.059  30.075  1.00  0.00     0.031 C 
ATOM     52  C   UNL A   1      44.258  32.374  28.904  1.00  0.00     0.037 A 
BRANCH  39  53
ATOM     53  C   UNL A   1      46.936  27.622  26.017  1.00  0.00     0.064 A 
ATOM     54  C   UNL A   1      47.052  27.689  24.621  1.00  0.00     0.173 A 
ATOM     55  C   UNL A   1      47.996  27.060  26.742  1.00  0.00     0.173 A 
ATOM     56  F   UNL A   1      46.056  28.203  23.884  1.00  0.00    -0.203 F 
ATOM     57  C   UNL A   1      48.182  27.192  23.976  1.00  0.00     0.198 A 
ATOM     58  C   UNL A   1      49.132  26.585  26.095  1.00  0.00     0.198 A 
ATOM     59  F   UNL A   1      47.931  26.975  28.079  1.00  0.00    -0.203 F 
ATOM     60  F   UNL A   1      48.258  27.229  22.638  1.00  0.00    -0.200 F 
ATOM     61  C   UNL A   1      49.222  26.646  24.712  1.00  0.00     0.200 A 
ATOM     62  F   UNL A   1      50.140  26.063  26.809  1.00  0.00    -0.200 F 
ATOM     63  F   UNL A   1      50.310  26.170  24.089  1.00  0.00    -0.200 F 
ENDBRANCH  39  53
BRANCH  40  64
ATOM     64  C   UNL A   1      38.738  30.734  30.754  1.00  0.00     0.064 A 
ATOM     65  C   UNL A   1      37.657  31.241  30.021  1.00  0.00     0.173 A 
ATOM     66  C   UNL A   1      38.630  30.714  32.152  1.00  0.00     0.173 A 
ATOM     67  F   UNL A   1      37.727  31.308  28.683  1.00  0.00    -0.203 F 
ATOM     68  C   UNL A   1      36.517  31.723  30.662  1.00  0.00     0.198 A 
ATOM     69  C   UNL A   1      37.482  31.173  32.790  1.00  0.00     0.198 A 
ATOM     70  F   UNL A   1      39.642  30.244  32.897  1.00  0.00    -0.203 F 
ATOM     71  F   UNL A   1      35.515  32.243  29.942  1.00  0.00    -0.200 F 
ATOM     72  C   UNL A   1      36.428  31.683  32.046  1.00  0.00     0.200 A 
ATOM     73  F   UNL A   1      37.397  31.128  34.127  1.00  0.00    -0.200 F 
ATOM     74  F   UNL A   1      35.333  32.147  32.662  1.00  0.00    -0.200 F 
ENDBRANCH  40  64
BRANCH  52  75
ATOM     75  C   UNL A   1      44.790  33.758  29.129  1.00  0.00     0.064 A 
ATOM     76  C   UNL A   1      45.545  34.077  30.267  1.00  0.00     0.173 A 
ATOM     77  C   UNL A   1      44.567  34.767  28.180  1.00  0.00     0.173 A 
ATOM     78  F   UNL A   1      45.772  33.148  31.207  1.00  0.00    -0.203 F 
ATOM     79  C   UNL A   1      46.039  35.364  30.457  1.00  0.00     0.198 A 
ATOM     80  C   UNL A   1      45.082  36.047  28.365  1.00  0.00     0.198 A 
ATOM     81  F   UNL A   1      43.855  34.509  27.073  1.00  0.00    -0.203 F 
ATOM     82  F   UNL A   1      46.725  35.658  31.571  1.00  0.00    -0.200 F 
ATOM     83  C   UNL A   1      45.811  36.345  29.505  1.00  0.00     0.200 A 
ATOM     84  F   UNL A   1      44.868  36.994  27.440  1.00  0.00    -0.200 F 
ATOM     85  F   UNL A   1      46.290  37.584  29.690  1.00  0.00    -0.200 F 
ENDBRANCH  52  75
ENDBRANCH  26  27
ENDBRANCH  19  21
ENDBRANCH  18  19
ENDBRANCH  17  18
ENDBRANCH   1  17
TORSDOF 16
ENDMDL
MODEL 2
REMARK VINA RESULT:     -10.1      4.891     10.014
REMARK SMILES CC[N@@H+](C/C(Cl)=C/Cl)C[C@@H](C)C(=O)OCCOC(=O)c1ccc(-c2c3nc(c(-c4c(F)c(F)c(F)c(F)c4F)c4ccc([nH]4)c(-c4c(F)c(F)c(F)c(F)c4F)c4nc(c(-c5c(F)c(F)c(F)c(F)c5F)c5ccc2[nH]5)C=C4)C=C3)cc1
REMARK SMILES IDX 15 1 14 2 12 3 13 4 10 5 11 6 9 7 3 8 2 10 1 11 4 12 5 13
REMARK SMILES IDX 6 14 7 15 8 16 16 17 17 18 18 19 19 20 20 21 21 22 82 23
REMARK SMILES IDX 22 24 81 25 23 26 24 27 25 28 75 29 26 30 80 31 74 32 76 33
REMARK SMILES IDX 27 34 79 35 73 36 72 37 28 39 60 40 40 41 59 42 41 43 44 44
REMARK SMILES IDX 58 45 77 46 42 47 43 48 57 50 78 51 45 52 29 53 30 54 38 55
REMARK SMILES IDX 31 56 32 57 36 58 39 59 33 60 34 61 37 62 35 63 61 64 62 65
REMARK SMILES IDX 70 66 63 67 64 68 68 69 71 70 65 71 66 72 69 73 67 74 46 75
REMARK SMILES IDX 47 76 55 77 48 78 49 79 53 80 56 81 50 82 51 83 54 84 52 85
REMARK H PARENT 3 9 76 38 44 49
REMARK Flexibility Score: inf
ROOT
ATOM      1  C   UNL A   1      31.442  30.325  25.668  1.00  0.00     0.274 C 
ENDROOT
BRANCH   1   2
ATOM      2  O   UNL A   1      32.363  29.295  26.080  1.00  0.00    -0.462 OA
BRANCH   2   3
ATOM      3  C   UNL A   1      31.806  28.184  26.629  1.00  0.00     0.314 C 
ATOM      4  O   UNL A   1      31.059  28.187  27.602  1.00  0.00    -0.252 OA
BRANCH   3   5
ATOM      5  C   UNL A   1      32.265  26.897  25.964  1.00  0.00     0.151 C 
ATOM      6  C   UNL A   1      33.777  26.970  25.794  1.00  0.00     0.026 C 
BRANCH   5   7
ATOM      7  C   UNL A   1      31.485  26.603  24.672  1.00  0.00     0.277 C 
BRANCH   7   8
ATOM      8  N   UNL A   1      31.627  27.528  23.548  1.00  0.00    -0.330 N 
ATOM      9  H   UNL A   1      31.548  28.329  24.176  1.00  0.00     0.348 HD
BRANCH   8  10
ATOM     10  C   UNL A   1      32.929  27.941  23.058  1.00  0.00     0.259 C 
ATOM     11  C   UNL A   1      33.627  26.902  22.186  1.00  0.00     0.071 C 
ENDBRANCH   8  10
BRANCH   8  12
ATOM     12  C   UNL A   1      30.492  27.683  22.640  1.00  0.00     0.312 C 
BRANCH  12  13
ATOM     13  C   UNL A   1      29.267  28.476  23.047  1.00  0.00     0.083 C 
ATOM     14  Cl  UNL A   1      27.961  27.453  23.600  1.00  0.00    -0.082 Cl
ATOM     15  C   UNL A   1      29.119  29.805  23.019  1.00  0.00     0.102 C 
ATOM     16  Cl  UNL A   1      27.706  30.677  23.453  1.00  0.00    -0.091 Cl
ENDBRANCH  12  13
ENDBRANCH   8  12
ENDBRANCH   7   8
ENDBRANCH   5   7
ENDBRANCH   3   5
ENDBRANCH   2   3
ENDBRANCH   1   2
BRANCH   1  17
ATOM     17  C   UNL A   1      31.622  31.631  26.448  1.00  0.00     0.275 C 
BRANCH  17  18
ATOM     18  O   UNL A   1      32.575  31.494  27.519  1.00  0.00    -0.458 OA
BRANCH  18  19
ATOM     19  C   UNL A   1      33.449  32.520  27.624  1.00  0.00     0.338 C 
ATOM     20  O   UNL A   1      33.191  33.714  27.572  1.00  0.00    -0.246 OA
BRANCH  19  21
ATOM     21  C   UNL A   1      34.797  32.031  27.949  1.00  0.00     0.060 A 
ATOM     22  C   UNL A   1      34.934  30.672  28.239  1.00  0.00     0.016 A 
ATOM     23  C   UNL A   1      35.879  32.901  28.104  1.00  0.00     0.016 A 
ATOM     24  C   UNL A   1      36.134  30.183  28.739  1.00  0.00     0.010 A 
ATOM     25  C   UNL A   1      37.090  32.405  28.605  1.00  0.00     0.010 A 
ATOM     26  C   UNL A   1      37.210  31.050  28.962  1.00  0.00    -0.014 A 
BRANCH  26  27
ATOM     27  C   UNL A   1      38.394  30.534  29.692  1.00  0.00     0.031 A 
ATOM     28  C   UNL A   1      38.584  30.894  31.139  1.00  0.00     0.074 A 
ATOM     29  C   UNL A   1      39.232  29.665  29.100  1.00  0.00     0.049 A 
ATOM     30  N   UNL A   1      39.533  30.535  31.967  1.00  0.00    -0.248 NA
ATOM     31  C   UNL A   1      37.567  31.772  31.738  1.00  0.00     0.031 C 
ATOM     32  C   UNL A   1      39.118  29.187  27.723  1.00  0.00     0.029 A 
ATOM     33  N   UNL A   1      40.332  29.009  29.594  1.00  0.00    -0.354 N 
ATOM     34  C   UNL A   1      39.242  31.161  33.172  1.00  0.00     0.074 A 
ATOM     35  C   UNL A   1      38.034  31.931  32.967  1.00  0.00     0.031 C 
ATOM     36  C   UNL A   1      40.092  28.291  27.490  1.00  0.00     0.029 A 
ATOM     37  C   UNL A   1      40.917  28.160  28.689  1.00  0.00     0.049 A 
ATOM     38  H   UNL A   1      40.669  29.136  30.511  1.00  0.00     0.167 HD
ATOM     39  C   UNL A   1      39.917  31.095  34.344  1.00  0.00     0.037 A 
ATOM     40  C   UNL A   1      41.998  27.366  28.815  1.00  0.00     0.037 A 
ATOM     41  C   UNL A   1      41.097  30.303  34.563  1.00  0.00     0.049 A 
ATOM     42  C   UNL A   1      42.742  27.329  30.122  1.00  0.00     0.074 A 
ATOM     43  C   UNL A   1      41.855  30.179  35.714  1.00  0.00     0.029 A 
ATOM     44  N   UNL A   1      41.682  29.483  33.609  1.00  0.00    -0.354 N 
ATOM     45  N   UNL A   1      42.477  27.950  31.244  1.00  0.00    -0.248 NA
ATOM     46  C   UNL A   1      43.941  26.481  30.176  1.00  0.00     0.031 C 
ATOM     47  C   UNL A   1      42.915  29.304  35.449  1.00  0.00     0.029 A 
ATOM     48  C   UNL A   1      42.797  28.857  34.144  1.00  0.00     0.049 A 
ATOM     49  H   UNL A   1      41.354  29.363  32.688  1.00  0.00     0.167 HD
ATOM     50  C   UNL A   1      43.460  27.553  32.142  1.00  0.00     0.074 A 
ATOM     51  C   UNL A   1      44.320  26.626  31.437  1.00  0.00     0.031 C 
ATOM     52  C   UNL A   1      43.635  27.928  33.432  1.00  0.00     0.037 A 
BRANCH  39  53
ATOM     53  C   UNL A   1      39.410  31.936  35.476  1.00  0.00     0.064 A 
ATOM     54  C   UNL A   1      38.504  31.433  36.419  1.00  0.00     0.173 A 
ATOM     55  C   UNL A   1      39.860  33.256  35.630  1.00  0.00     0.173 A 
ATOM     56  F   UNL A   1      38.032  30.182  36.303  1.00  0.00    -0.203 F 
ATOM     57  C   UNL A   1      38.049  32.230  37.468  1.00  0.00     0.198 A 
ATOM     58  C   UNL A   1      39.421  34.041  36.691  1.00  0.00     0.198 A 
ATOM     59  F   UNL A   1      40.729  33.781  34.754  1.00  0.00    -0.203 F 
ATOM     60  F   UNL A   1      37.152  31.744  38.337  1.00  0.00    -0.200 F 
ATOM     61  C   UNL A   1      38.511  33.530  37.606  1.00  0.00     0.200 A 
ATOM     62  F   UNL A   1      39.873  35.296  36.827  1.00  0.00    -0.200 F 
ATOM     63  F   UNL A   1      38.075  34.295  38.616  1.00  0.00    -0.200 F 
ENDBRANCH  39  53
BRANCH  40  64
ATOM     64  C   UNL A   1      42.444  26.536  27.668  1.00  0.00     0.064 A 
ATOM     65  C   UNL A   1      41.913  25.257  27.454  1.00  0.00     0.173 A 
ATOM     66  C   UNL A   1      43.419  27.000  26.772  1.00  0.00     0.173 A 
ATOM     67  F   UNL A   1      41.000  24.760  28.303  1.00  0.00    -0.203 F 
ATOM     68  C   UNL A   1      42.352  24.465  26.395  1.00  0.00     0.198 A 
ATOM     69  C   UNL A   1      43.839  26.217  25.700  1.00  0.00     0.198 A 
ATOM     70  F   UNL A   1      43.960  28.215  26.939  1.00  0.00    -0.203 F 
ATOM     71  F   UNL A   1      41.862  23.229  26.238  1.00  0.00    -0.200 F 
ATOM     72  C   UNL A   1      43.310  24.948  25.516  1.00  0.00     0.200 A 
ATOM     73  F   UNL A   1      44.760  26.689  24.850  1.00  0.00    -0.200 F 
ATOM     74  F   UNL A   1      43.732  24.186  24.497  1.00  0.00    -0.200 F 
ENDBRANCH  40  64
BRANCH  52  75
ATOM     75  C   UNL A   1      44.782  27.312  34.175  1.00  0.00     0.064 A 
ATOM     76  C   UNL A   1      44.639  26.103  34.872  1.00  0.00     0.173 A 
ATOM     77  C   UNL A   1      46.045  27.922  34.163  1.00  0.00     0.173 A 
ATOM     78  F   UNL A   1      43.447  25.490  34.922  1.00  0.00    -0.203 F 
ATOM     79  C   UNL A   1      45.716  25.539  35.549  1.00  0.00     0.198 A 
ATOM     80  C   UNL A   1      47.124  27.343  34.824  1.00  0.00     0.198 A 
ATOM     81  F   UNL A   1      46.232  29.076  33.506  1.00  0.00    -0.203 F 
ATOM     82  F   UNL A   1      45.548  24.403  36.242  1.00  0.00    -0.200 F 
ATOM     83  C   UNL A   1      46.957  26.156  35.521  1.00  0.00     0.200 A 
ATOM     84  F   UNL A   1      48.326  27.936  34.790  1.00  0.00    -0.200 F 
ATOM     85  F   UNL A   1      47.994  25.610  36.174  1.00  0.00    -0.200 F 
ENDBRANCH  52  75
ENDBRANCH  26  27
ENDBRANCH  19  21
ENDBRANCH  18  19
ENDBRANCH  17  18
ENDBRANCH   1  17
TORSDOF 16
ENDMDL
MODEL 3
REMARK VINA RESULT:     -10.0      4.813      9.905
REMARK SMILES CC[N@@H+](C/C(Cl)=C/Cl)C[C@@H](C)C(=O)OCCOC(=O)c1ccc(-c2c3nc(c(-c4c(F)c(F)c(F)c(F)c4F)c4ccc([nH]4)c(-c4c(F)c(F)c(F)c(F)c4F)c4nc(c(-c5c(F)c(F)c(F)c(F)c5F)c5ccc2[nH]5)C=C4)C=C3)cc1
REMARK SMILES IDX 15 1 14 2 12 3 13 4 10 5 11 6 9 7 3 8 2 10 1 11 4 12 5 13
REMARK SMILES IDX 6 14 7 15 8 16 16 17 17 18 18 19 19 20 20 21 21 22 82 23
REMARK SMILES IDX 22 24 81 25 23 26 24 27 25 28 75 29 26 30 80 31 74 32 76 33
REMARK SMILES IDX 27 34 79 35 73 36 72 37 28 39 60 40 40 41 59 42 41 43 44 44
REMARK SMILES IDX 58 45 77 46 42 47 43 48 57 50 78 51 45 52 29 53 30 54 38 55
REMARK SMILES IDX 31 56 32 57 36 58 39 59 33 60 34 61 37 62 35 63 61 64 62 65
REMARK SMILES IDX 70 66 63 67 64 68 68 69 71 70 65 71 66 72 69 73 67 74 46 75
REMARK SMILES IDX 47 76 55 77 48 78 49 79 53 80 56 81 50 82 51 83 54 84 52 85
REMARK H PARENT 3 9 76 38 44 49
REMARK Flexibility Score: inf
ROOT
ATOM      1  C   UNL A   1      32.251  29.607  25.183  1.00  0.00     0.274 C 
ENDROOT
BRANCH   1   2
ATOM      2  O   UNL A   1      31.352  28.481  25.245  1.00  0.00    -0.462 OA
BRANCH   2   3
ATOM      3  C   UNL A   1      30.640  28.225  24.116  1.00  0.00     0.314 C 
ATOM      4  O   UNL A   1      30.309  29.071  23.294  1.00  0.00    -0.252 OA
BRANCH   3   5
ATOM      5  C   UNL A   1      30.211  26.772  24.000  1.00  0.00     0.151 C 
ATOM      6  C   UNL A   1      28.692  26.739  23.880  1.00  0.00     0.026 C 
BRANCH   5   7
ATOM      7  C   UNL A   1      30.786  25.905  25.133  1.00  0.00     0.277 C 
BRANCH   7   8
ATOM      8  N   UNL A   1      31.579  24.730  24.774  1.00  0.00    -0.330 N 
ATOM      9  H   UNL A   1      31.887  24.622  25.741  1.00  0.00     0.348 HD
BRANCH   8  10
ATOM     10  C   UNL A   1      30.999  23.400  24.729  1.00  0.00     0.259 C 
ATOM     11  C   UNL A   1      30.661  22.819  26.098  1.00  0.00     0.071 C 
ENDBRANCH   8  10
BRANCH   8  12
ATOM     12  C   UNL A   1      32.821  24.942  24.033  1.00  0.00     0.312 C 
BRANCH  12  13
ATOM     13  C   UNL A   1      32.873  24.776  22.528  1.00  0.00     0.083 C 
ATOM     14  Cl  UNL A   1      33.542  23.234  22.049  1.00  0.00    -0.082 Cl
ATOM     15  C   UNL A   1      32.472  25.656  21.604  1.00  0.00     0.102 C 
ATOM     16  Cl  UNL A   1      32.574  25.457  19.903  1.00  0.00    -0.091 Cl
ENDBRANCH  12  13
ENDBRANCH   8  12
ENDBRANCH   7   8
ENDBRANCH   5   7
ENDBRANCH   3   5
ENDBRANCH   2   3
ENDBRANCH   1   2
BRANCH   1  17
ATOM     17  C   UNL A   1      31.821  30.762  26.091  1.00  0.00     0.275 C 
BRANCH  17  18
ATOM     18  O   UNL A   1      32.553  30.776  27.331  1.00  0.00    -0.458 OA
BRANCH  18  19
ATOM     19  C   UNL A   1      33.324  31.870  27.513  1.00  0.00     0.338 C 
ATOM     20  O   UNL A   1      32.957  33.036  27.518  1.00  0.00    -0.246 OA
BRANCH  19  21
ATOM     21  C   UNL A   1      34.705  31.491  27.847  1.00  0.00     0.060 A 
ATOM     22  C   UNL A   1      34.963  30.136  28.063  1.00  0.00     0.016 A 
ATOM     23  C   UNL A   1      35.696  32.448  28.081  1.00  0.00     0.016 A 
ATOM     24  C   UNL A   1      36.193  29.732  28.566  1.00  0.00     0.010 A 
ATOM     25  C   UNL A   1      36.937  32.038  28.587  1.00  0.00     0.010 A 
ATOM     26  C   UNL A   1      37.177  30.681  28.868  1.00  0.00    -0.014 A 
BRANCH  26  27
ATOM     27  C   UNL A   1      38.388  30.235  29.599  1.00  0.00     0.031 A 
ATOM     28  C   UNL A   1      38.589  30.663  31.027  1.00  0.00     0.074 A 
ATOM     29  C   UNL A   1      39.245  29.368  29.031  1.00  0.00     0.049 A 
ATOM     30  N   UNL A   1      39.562  30.371  31.853  1.00  0.00    -0.248 NA
ATOM     31  C   UNL A   1      37.553  31.534  31.604  1.00  0.00     0.031 C 
ATOM     32  C   UNL A   1      39.125  28.827  27.678  1.00  0.00     0.029 A 
ATOM     33  N   UNL A   1      40.373  28.769  29.535  1.00  0.00    -0.354 N 
ATOM     34  C   UNL A   1      39.269  31.039  33.035  1.00  0.00     0.074 A 
ATOM     35  C   UNL A   1      38.034  31.762  32.817  1.00  0.00     0.031 C 
ATOM     36  C   UNL A   1      40.123  27.953  27.468  1.00  0.00     0.029 A 
ATOM     37  C   UNL A   1      40.971  27.900  28.658  1.00  0.00     0.049 A 
ATOM     38  H   UNL A   1      40.720  28.947  30.440  1.00  0.00     0.167 HD
ATOM     39  C   UNL A   1      39.964  31.047  34.197  1.00  0.00     0.037 A 
ATOM     40  C   UNL A   1      42.079  27.147  28.800  1.00  0.00     0.037 A 
ATOM     41  C   UNL A   1      41.172  30.302  34.430  1.00  0.00     0.049 A 
ATOM     42  C   UNL A   1      42.844  27.191  30.094  1.00  0.00     0.074 A 
ATOM     43  C   UNL A   1      41.952  30.253  35.572  1.00  0.00     0.029 A 
ATOM     44  N   UNL A   1      41.769  29.460  33.502  1.00  0.00    -0.354 N 
ATOM     45  N   UNL A   1      42.576  27.852  31.193  1.00  0.00    -0.248 NA
ATOM     46  C   UNL A   1      44.071  26.384  30.164  1.00  0.00     0.031 C 
ATOM     47  C   UNL A   1      43.035  29.400  35.328  1.00  0.00     0.029 A 
ATOM     48  C   UNL A   1      42.911  28.894  34.045  1.00  0.00     0.049 A 
ATOM     49  H   UNL A   1      41.431  29.290  32.594  1.00  0.00     0.167 HD
ATOM     50  C   UNL A   1      43.585  27.526  32.091  1.00  0.00     0.074 A 
ATOM     51  C   UNL A   1      44.464  26.597  31.412  1.00  0.00     0.031 C 
ATOM     52  C   UNL A   1      43.767  27.961  33.360  1.00  0.00     0.037 A 
BRANCH  39  53
ATOM     53  C   UNL A   1      39.448  31.919  35.300  1.00  0.00     0.064 A 
ATOM     54  C   UNL A   1      38.576  31.428  36.282  1.00  0.00     0.173 A 
ATOM     55  C   UNL A   1      39.854  33.259  35.387  1.00  0.00     0.173 A 
ATOM     56  F   UNL A   1      38.146  30.158  36.230  1.00  0.00    -0.203 F 
ATOM     57  C   UNL A   1      38.111  32.256  37.302  1.00  0.00     0.198 A 
ATOM     58  C   UNL A   1      39.405  34.076  36.421  1.00  0.00     0.198 A 
ATOM     59  F   UNL A   1      40.688  33.774  34.472  1.00  0.00    -0.203 F 
ATOM     60  F   UNL A   1      37.247  31.779  38.209  1.00  0.00    -0.200 F 
ATOM     61  C   UNL A   1      38.530  33.576  37.374  1.00  0.00     0.200 A 
ATOM     62  F   UNL A   1      39.816  35.350  36.493  1.00  0.00    -0.200 F 
ATOM     63  F   UNL A   1      38.085  34.370  38.357  1.00  0.00    -0.200 F 
ENDBRANCH  39  53
BRANCH  40  64
ATOM     64  C   UNL A   1      42.534  26.283  27.682  1.00  0.00     0.064 A 
ATOM     65  C   UNL A   1      43.486  26.737  26.760  1.00  0.00     0.173 A 
ATOM     66  C   UNL A   1      42.013  24.992  27.505  1.00  0.00     0.173 A 
ATOM     67  F   UNL A   1      43.990  27.975  26.872  1.00  0.00    -0.203 F 
ATOM     68  C   UNL A   1      43.891  25.938  25.693  1.00  0.00     0.198 A 
ATOM     69  C   UNL A   1      42.437  24.186  26.453  1.00  0.00     0.198 A 
ATOM     70  F   UNL A   1      41.095  24.516  28.358  1.00  0.00    -0.203 F 
ATOM     71  F   UNL A   1      44.770  26.411  24.800  1.00  0.00    -0.200 F 
ATOM     72  C   UNL A   1      43.371  24.660  25.544  1.00  0.00     0.200 A 
ATOM     73  F   UNL A   1      41.936  22.950  26.315  1.00  0.00    -0.200 F 
ATOM     74  F   UNL A   1      43.760  23.892  24.517  1.00  0.00    -0.200 F 
ENDBRANCH  40  64
BRANCH  52  75
ATOM     75  C   UNL A   1      44.946  27.415  34.109  1.00  0.00     0.064 A 
ATOM     76  C   UNL A   1      44.867  26.207  34.818  1.00  0.00     0.173 A 
ATOM     77  C   UNL A   1      46.174  28.092  34.093  1.00  0.00     0.173 A 
ATOM     78  F   UNL A   1      43.709  25.532  34.873  1.00  0.00    -0.203 F 
ATOM     79  C   UNL A   1      45.972  25.708  35.501  1.00  0.00     0.198 A 
ATOM     80  C   UNL A   1      47.282  27.578  34.759  1.00  0.00     0.198 A 
ATOM     81  F   UNL A   1      46.300  29.248  33.424  1.00  0.00    -0.203 F 
ATOM     82  F   UNL A   1      45.865  24.572  36.205  1.00  0.00    -0.200 F 
ATOM     83  C   UNL A   1      47.178  26.391  35.468  1.00  0.00     0.200 A 
ATOM     84  F   UNL A   1      48.451  28.234  34.720  1.00  0.00    -0.200 F 
ATOM     85  F   UNL A   1      48.242  25.907  36.126  1.00  0.00    -0.200 F 
ENDBRANCH  52  75
ENDBRANCH  26  27
ENDBRANCH  19  21
ENDBRANCH  18  19
ENDBRANCH  17  18
ENDBRANCH   1  17
TORSDOF 16
ENDMDL
