MODEL 1
REMARK VINA RESULT:     -12.0      0.000      0.000
REMARK SMILES C[C@H](C(=O)OCCOC(=O)c1ccc(-c2c3nc(c(-c4c(F)c(F)c(F)c(F)c4F)c4ccc([nH]4)c(-c4c(F)c(F)c(F)c(F)c4F)c4nc(c(-c5c(F)c(F)c(F)c(F)c5F)c5ccc2[nH]5)C=C4)C=C3)cc1)[C@@H](C)Nc1ccccc1Oc1ccccc1
REMARK SMILES IDX 5 1 3 2 4 3 2 4 1 5 74 6 75 7 76 8 77 10 78 11 82 12 79 13
REMARK SMILES IDX 81 14 80 15 83 16 84 17 85 18 89 19 86 20 88 21 87 22 6 23
REMARK SMILES IDX 7 24 8 25 9 26 10 27 11 28 12 29 73 30 13 31 72 32 14 33
REMARK SMILES IDX 15 34 16 35 66 36 17 37 71 38 65 39 67 40 18 41 70 42 64 43
REMARK SMILES IDX 63 44 19 46 51 47 31 48 50 49 32 50 35 51 49 52 68 53 33 54
REMARK SMILES IDX 34 55 48 57 69 58 36 59 20 60 21 61 29 62 22 63 23 64 27 65
REMARK SMILES IDX 30 66 24 67 25 68 28 69 26 70 52 71 53 72 61 73 54 74 55 75
REMARK SMILES IDX 59 76 62 77 56 78 57 79 60 80 58 81 37 82 38 83 46 84 39 85
REMARK SMILES IDX 40 86 44 87 47 88 41 89 42 90 45 91 43 92
REMARK H PARENT 76 9 67 45 35 56
REMARK Flexibility Score: inf
ROOT
ATOM      1  O   UNL A   1      32.642  27.214  26.357  1.00  0.00    -0.462 OA
ENDROOT
BRANCH   1   2
ATOM      2  C   UNL A   1      32.087  26.004  26.075  1.00  0.00     0.310 C 
ATOM      3  O   UNL A   1      31.410  25.365  26.870  1.00  0.00    -0.252 OA
BRANCH   2   4
ATOM      4  C   UNL A   1      32.281  25.625  24.608  1.00  0.00     0.118 C 
ATOM      5  C   UNL A   1      33.459  26.387  23.990  1.00  0.00     0.022 C 
BRANCH   4   6
ATOM      6  C   UNL A   1      32.458  24.089  24.522  1.00  0.00     0.090 C 
ATOM      7  C   UNL A   1      32.939  23.643  23.135  1.00  0.00     0.031 C 
BRANCH   6   8
ATOM      8  N   UNL A   1      33.451  23.617  25.470  1.00  0.00    -0.379 N 
ATOM      9  H   UNL A   1      33.257  23.798  26.418  1.00  0.00     0.160 HD
BRANCH   8  10
ATOM     10  C   UNL A   1      34.637  22.946  25.216  1.00  0.00     0.078 A 
ATOM     11  C   UNL A   1      35.755  23.795  25.033  1.00  0.00     0.029 A 
ATOM     12  C   UNL A   1      34.898  21.558  25.227  1.00  0.00     0.150 A 
ATOM     13  C   UNL A   1      37.057  23.315  24.884  1.00  0.00     0.002 A 
ATOM     14  C   UNL A   1      36.213  21.078  25.067  1.00  0.00     0.049 A 
ATOM     15  C   UNL A   1      37.286  21.949  24.897  1.00  0.00     0.004 A 
BRANCH  12  16
ATOM     16  O   UNL A   1      34.015  20.576  25.627  1.00  0.00    -0.455 OA
BRANCH  16  17
ATOM     17  C   UNL A   1      33.543  19.631  24.744  1.00  0.00     0.127 A 
ATOM     18  C   UNL A   1      32.590  20.131  23.844  1.00  0.00     0.047 A 
ATOM     19  C   UNL A   1      33.977  18.314  24.624  1.00  0.00     0.047 A 
ATOM     20  C   UNL A   1      32.152  19.363  22.767  1.00  0.00     0.004 A 
ATOM     21  C   UNL A   1      33.524  17.536  23.549  1.00  0.00     0.004 A 
ATOM     22  C   UNL A   1      32.632  18.066  22.612  1.00  0.00     0.000 A 
ENDBRANCH  16  17
ENDBRANCH  12  16
ENDBRANCH   8  10
ENDBRANCH   6   8
ENDBRANCH   4   6
ENDBRANCH   2   4
ENDBRANCH   1   2
BRANCH   1  23
ATOM     23  C   UNL A   1      31.722  28.249  26.745  1.00  0.00     0.274 C 
BRANCH  23  24
ATOM     24  C   UNL A   1      31.741  29.344  25.682  1.00  0.00     0.275 C 
BRANCH  24  25
ATOM     25  O   UNL A   1      33.007  30.037  25.713  1.00  0.00    -0.458 OA
BRANCH  25  26
ATOM     26  C   UNL A   1      33.199  30.882  26.751  1.00  0.00     0.338 C 
ATOM     27  O   UNL A   1      32.423  31.738  27.160  1.00  0.00    -0.246 OA
BRANCH  26  28
ATOM     28  C   UNL A   1      34.516  30.651  27.378  1.00  0.00     0.060 A 
ATOM     29  C   UNL A   1      34.951  29.366  27.697  1.00  0.00     0.016 A 
ATOM     30  C   UNL A   1      35.289  31.751  27.753  1.00  0.00     0.016 A 
ATOM     31  C   UNL A   1      36.111  29.184  28.460  1.00  0.00     0.010 A 
ATOM     32  C   UNL A   1      36.500  31.560  28.427  1.00  0.00     0.010 A 
ATOM     33  C   UNL A   1      36.916  30.275  28.819  1.00  0.00    -0.014 A 
BRANCH  33  34
ATOM     34  C   UNL A   1      38.178  30.106  29.602  1.00  0.00     0.031 A 
ATOM     35  C   UNL A   1      39.300  29.257  29.060  1.00  0.00     0.074 A 
ATOM     36  C   UNL A   1      38.320  30.664  30.822  1.00  0.00     0.049 A 
ATOM     37  N   UNL A   1      40.332  28.742  29.683  1.00  0.00    -0.248 NA
ATOM     38  C   UNL A   1      39.246  28.932  27.626  1.00  0.00     0.031 C 
ATOM     39  C   UNL A   1      37.360  31.556  31.470  1.00  0.00     0.029 A 
ATOM     40  N   UNL A   1      39.332  30.543  31.747  1.00  0.00    -0.354 N 
ATOM     41  C   UNL A   1      41.006  27.977  28.738  1.00  0.00     0.074 A 
ATOM     42  C   UNL A   1      40.273  28.104  27.495  1.00  0.00     0.031 C 
ATOM     43  C   UNL A   1      37.831  31.916  32.672  1.00  0.00     0.029 A 
ATOM     44  C   UNL A   1      39.079  31.203  32.925  1.00  0.00     0.049 A 
ATOM     45  H   UNL A   1      40.158  30.033  31.580  1.00  0.00     0.167 HD
ATOM     46  C   UNL A   1      42.127  27.230  28.896  1.00  0.00     0.037 A 
ATOM     47  C   UNL A   1      39.734  31.192  34.102  1.00  0.00     0.037 A 
ATOM     48  C   UNL A   1      42.895  27.157  30.112  1.00  0.00     0.049 A 
ATOM     49  C   UNL A   1      40.954  30.331  34.267  1.00  0.00     0.074 A 
ATOM     50  C   UNL A   1      44.060  26.447  30.358  1.00  0.00     0.029 A 
ATOM     51  N   UNL A   1      42.587  27.832  31.284  1.00  0.00    -0.354 N 
ATOM     52  N   UNL A   1      41.541  29.552  33.393  1.00  0.00    -0.248 NA
ATOM     53  C   UNL A   1      41.587  30.329  35.594  1.00  0.00     0.031 C 
ATOM     54  C   UNL A   1      44.438  26.667  31.687  1.00  0.00     0.029 A 
ATOM     55  C   UNL A   1      43.534  27.547  32.256  1.00  0.00     0.049 A 
ATOM     56  H   UNL A   1      41.812  28.426  31.406  1.00  0.00     0.167 HD
ATOM     57  C   UNL A   1      42.618  28.979  34.056  1.00  0.00     0.074 A 
ATOM     58  C   UNL A   1      42.614  29.512  35.402  1.00  0.00     0.031 C 
ATOM     59  C   UNL A   1      43.524  28.086  33.591  1.00  0.00     0.037 A 
BRANCH  46  60
ATOM     60  C   UNL A   1      42.582  26.397  27.733  1.00  0.00     0.064 A 
ATOM     61  C   UNL A   1      43.567  26.838  26.840  1.00  0.00     0.173 A 
ATOM     62  C   UNL A   1      42.055  25.108  27.546  1.00  0.00     0.173 A 
ATOM     63  F   UNL A   1      44.093  28.066  26.968  1.00  0.00    -0.203 F 
ATOM     64  C   UNL A   1      43.996  26.030  25.790  1.00  0.00     0.198 A 
ATOM     65  C   UNL A   1      42.505  24.292  26.511  1.00  0.00     0.198 A 
ATOM     66  F   UNL A   1      41.116  24.633  28.378  1.00  0.00    -0.203 F 
ATOM     67  F   UNL A   1      44.912  26.487  24.925  1.00  0.00    -0.200 F 
ATOM     68  C   UNL A   1      43.470  24.756  25.631  1.00  0.00     0.200 A 
ATOM     69  F   UNL A   1      42.006  23.056  26.368  1.00  0.00    -0.200 F 
ATOM     70  F   UNL A   1      43.891  23.976  24.625  1.00  0.00    -0.200 F 
ENDBRANCH  46  60
BRANCH  47  71
ATOM     71  C   UNL A   1      39.212  31.989  35.242  1.00  0.00     0.064 A 
ATOM     72  C   UNL A   1      38.449  31.386  36.251  1.00  0.00     0.173 A 
ATOM     73  C   UNL A   1      39.469  33.364  35.350  1.00  0.00     0.173 A 
ATOM     74  F   UNL A   1      38.152  30.080  36.175  1.00  0.00    -0.203 F 
ATOM     75  C   UNL A   1      37.957  32.130  37.322  1.00  0.00     0.198 A 
ATOM     76  C   UNL A   1      39.002  34.100  36.436  1.00  0.00     0.198 A 
ATOM     77  F   UNL A   1      40.191  33.989  34.408  1.00  0.00    -0.203 F 
ATOM     78  F   UNL A   1      37.198  31.537  38.253  1.00  0.00    -0.200 F 
ATOM     79  C   UNL A   1      38.242  33.484  37.418  1.00  0.00     0.200 A 
ATOM     80  F   UNL A   1      39.292  35.405  36.532  1.00  0.00    -0.200 F 
ATOM     81  F   UNL A   1      37.778  34.196  38.454  1.00  0.00    -0.200 F 
ENDBRANCH  47  71
BRANCH  59  82
ATOM     82  C   UNL A   1      44.610  27.658  34.533  1.00  0.00     0.064 A 
ATOM     83  C   UNL A   1      44.471  26.524  35.344  1.00  0.00     0.173 A 
ATOM     84  C   UNL A   1      45.812  28.377  34.604  1.00  0.00     0.173 A 
ATOM     85  F   UNL A   1      43.332  25.815  35.324  1.00  0.00    -0.203 F 
ATOM     86  C   UNL A   1      45.490  26.136  36.212  1.00  0.00     0.198 A 
ATOM     87  C   UNL A   1      46.838  27.973  35.455  1.00  0.00     0.198 A 
ATOM     88  F   UNL A   1      45.994  29.468  33.845  1.00  0.00    -0.203 F 
ATOM     89  F   UNL A   1      45.319  25.073  37.010  1.00  0.00    -0.200 F 
ATOM     90  C   UNL A   1      46.674  26.858  36.261  1.00  0.00     0.200 A 
ATOM     91  F   UNL A   1      47.983  28.667  35.496  1.00  0.00    -0.200 F 
ATOM     92  F   UNL A   1      47.653  26.483  37.096  1.00  0.00    -0.200 F 
ENDBRANCH  59  82
ENDBRANCH  33  34
ENDBRANCH  26  28
ENDBRANCH  25  26
ENDBRANCH  24  25
ENDBRANCH  23  24
ENDBRANCH   1  23
TORSDOF 16
ENDMDL
MODEL 2
REMARK VINA RESULT:     -11.7      0.797      2.313
REMARK SMILES C[C@H](C(=O)OCCOC(=O)c1ccc(-c2c3nc(c(-c4c(F)c(F)c(F)c(F)c4F)c4ccc([nH]4)c(-c4c(F)c(F)c(F)c(F)c4F)c4nc(c(-c5c(F)c(F)c(F)c(F)c5F)c5ccc2[nH]5)C=C4)C=C3)cc1)[C@@H](C)Nc1ccccc1Oc1ccccc1
REMARK SMILES IDX 5 1 3 2 4 3 2 4 1 5 74 6 75 7 76 8 77 10 78 11 82 12 79 13
REMARK SMILES IDX 81 14 80 15 83 16 84 17 85 18 89 19 86 20 88 21 87 22 6 23
REMARK SMILES IDX 7 24 8 25 9 26 10 27 11 28 12 29 73 30 13 31 72 32 14 33
REMARK SMILES IDX 15 34 16 35 66 36 17 37 71 38 65 39 67 40 18 41 70 42 64 43
REMARK SMILES IDX 63 44 19 46 51 47 31 48 50 49 32 50 35 51 49 52 68 53 33 54
REMARK SMILES IDX 34 55 48 57 69 58 36 59 20 60 21 61 29 62 22 63 23 64 27 65
REMARK SMILES IDX 30 66 24 67 25 68 28 69 26 70 52 71 53 72 61 73 54 74 55 75
REMARK SMILES IDX 59 76 62 77 56 78 57 79 60 80 58 81 37 82 38 83 46 84 39 85
REMARK SMILES IDX 40 86 44 87 47 88 41 89 42 90 45 91 43 92
REMARK H PARENT 76 9 67 45 35 56
REMARK Flexibility Score: inf
ROOT
ATOM      1  O   UNL A   1      32.197  28.186  24.564  1.00  0.00    -0.462 OA
ENDROOT
BRANCH   1   2
ATOM      2  C   UNL A   1      31.657  26.946  24.723  1.00  0.00     0.310 C 
ATOM      3  O   UNL A   1      30.454  26.720  24.691  1.00  0.00    -0.252 OA
BRANCH   2   4
ATOM      4  C   UNL A   1      32.736  25.867  24.783  1.00  0.00     0.118 C 
ATOM      5  C   UNL A   1      32.737  25.160  26.143  1.00  0.00     0.022 C 
BRANCH   4   6
ATOM      6  C   UNL A   1      32.509  24.887  23.606  1.00  0.00     0.090 C 
ATOM      7  C   UNL A   1      32.764  25.552  22.247  1.00  0.00     0.031 C 
BRANCH   6   8
ATOM      8  N   UNL A   1      33.413  23.753  23.681  1.00  0.00    -0.379 N 
ATOM      9  H   UNL A   1      34.372  23.966  23.626  1.00  0.00     0.160 HD
BRANCH   8  10
ATOM     10  C   UNL A   1      33.103  22.409  23.821  1.00  0.00     0.078 A 
ATOM     11  C   UNL A   1      32.447  21.847  22.700  1.00  0.00     0.029 A 
ATOM     12  C   UNL A   1      33.446  21.517  24.861  1.00  0.00     0.150 A 
ATOM     13  C   UNL A   1      32.155  20.486  22.594  1.00  0.00     0.002 A 
ATOM     14  C   UNL A   1      33.141  20.145  24.753  1.00  0.00     0.049 A 
ATOM     15  C   UNL A   1      32.501  19.631  23.628  1.00  0.00     0.004 A 
BRANCH  12  16
ATOM     16  O   UNL A   1      34.290  21.795  25.916  1.00  0.00    -0.455 OA
BRANCH  16  17
ATOM     17  C   UNL A   1      35.631  22.037  25.720  1.00  0.00     0.127 A 
ATOM     18  C   UNL A   1      36.027  23.332  26.089  1.00  0.00     0.047 A 
ATOM     19  C   UNL A   1      36.588  21.121  25.293  1.00  0.00     0.047 A 
ATOM     20  C   UNL A   1      37.375  23.680  26.135  1.00  0.00     0.004 A 
ATOM     21  C   UNL A   1      37.944  21.479  25.325  1.00  0.00     0.004 A 
ATOM     22  C   UNL A   1      38.337  22.746  25.766  1.00  0.00     0.000 A 
ENDBRANCH  16  17
ENDBRANCH  12  16
ENDBRANCH   8  10
ENDBRANCH   6   8
ENDBRANCH   4   6
ENDBRANCH   2   4
ENDBRANCH   1   2
BRANCH   1  23
ATOM     23  C   UNL A   1      31.263  29.246  24.300  1.00  0.00     0.274 C 
BRANCH  23  24
ATOM     24  C   UNL A   1      31.405  30.306  25.388  1.00  0.00     0.275 C 
BRANCH  24  25
ATOM     25  O   UNL A   1      32.664  30.137  26.076  1.00  0.00    -0.458 OA
BRANCH  25  26
ATOM     26  C   UNL A   1      33.043  31.153  26.884  1.00  0.00     0.338 C 
ATOM     27  O   UNL A   1      32.419  32.181  27.122  1.00  0.00    -0.246 OA
BRANCH  26  28
ATOM     28  C   UNL A   1      34.364  30.879  27.485  1.00  0.00     0.060 A 
ATOM     29  C   UNL A   1      34.789  29.575  27.737  1.00  0.00     0.016 A 
ATOM     30  C   UNL A   1      35.151  31.952  27.905  1.00  0.00     0.016 A 
ATOM     31  C   UNL A   1      35.954  29.346  28.477  1.00  0.00     0.010 A 
ATOM     32  C   UNL A   1      36.367  31.716  28.557  1.00  0.00     0.010 A 
ATOM     33  C   UNL A   1      36.774  30.409  28.881  1.00  0.00    -0.014 A 
BRANCH  33  34
ATOM     34  C   UNL A   1      38.042  30.191  29.642  1.00  0.00     0.031 A 
ATOM     35  C   UNL A   1      39.126  29.309  29.074  1.00  0.00     0.074 A 
ATOM     36  C   UNL A   1      38.222  30.731  30.864  1.00  0.00     0.049 A 
ATOM     37  N   UNL A   1      40.150  28.753  29.676  1.00  0.00    -0.248 NA
ATOM     38  C   UNL A   1      39.037  29.001  27.638  1.00  0.00     0.031 C 
ATOM     39  C   UNL A   1      37.303  31.649  31.537  1.00  0.00     0.029 A 
ATOM     40  N   UNL A   1      39.244  30.567  31.772  1.00  0.00    -0.354 N 
ATOM     41  C   UNL A   1      40.782  27.976  28.712  1.00  0.00     0.074 A 
ATOM     42  C   UNL A   1      40.034  28.140  27.483  1.00  0.00     0.031 C 
ATOM     43  C   UNL A   1      37.805  31.980  32.735  1.00  0.00     0.029 A 
ATOM     44  C   UNL A   1      39.032  31.223  32.960  1.00  0.00     0.049 A 
ATOM     45  H   UNL A   1      40.049  30.031  31.587  1.00  0.00     0.167 HD
ATOM     46  C   UNL A   1      41.879  27.190  28.845  1.00  0.00     0.037 A 
ATOM     47  C   UNL A   1      39.706  31.178  34.126  1.00  0.00     0.037 A 
ATOM     48  C   UNL A   1      42.664  27.079  30.048  1.00  0.00     0.049 A 
ATOM     49  C   UNL A   1      40.898  30.275  34.263  1.00  0.00     0.074 A 
ATOM     50  C   UNL A   1      43.807  26.327  30.268  1.00  0.00     0.029 A 
ATOM     51  N   UNL A   1      42.398  27.752  31.231  1.00  0.00    -0.354 N 
ATOM     52  N   UNL A   1      41.444  29.486  33.372  1.00  0.00    -0.248 NA
ATOM     53  C   UNL A   1      41.552  30.238  35.580  1.00  0.00     0.031 C 
ATOM     54  C   UNL A   1      44.214  26.522  31.592  1.00  0.00     0.029 A 
ATOM     55  C   UNL A   1      43.349  27.426  32.185  1.00  0.00     0.049 A 
ATOM     56  H   UNL A   1      41.645  28.370  31.371  1.00  0.00     0.167 HD
ATOM     57  C   UNL A   1      42.511  28.870  34.012  1.00  0.00     0.074 A 
ATOM     58  C   UNL A   1      42.547  29.389  35.363  1.00  0.00     0.031 C 
ATOM     59  C   UNL A   1      43.379  27.952  33.525  1.00  0.00     0.037 A 
BRANCH  46  60
ATOM     60  C   UNL A   1      42.287  26.354  27.667  1.00  0.00     0.064 A 
ATOM     61  C   UNL A   1      43.274  26.769  26.763  1.00  0.00     0.173 A 
ATOM     62  C   UNL A   1      41.713  25.086  27.475  1.00  0.00     0.173 A 
ATOM     63  F   UNL A   1      43.844  27.976  26.896  1.00  0.00    -0.203 F 
ATOM     64  C   UNL A   1      43.658  25.957  25.698  1.00  0.00     0.198 A 
ATOM     65  C   UNL A   1      42.118  24.265  26.425  1.00  0.00     0.198 A 
ATOM     66  F   UNL A   1      40.770  24.636  28.317  1.00  0.00    -0.203 F 
ATOM     67  F   UNL A   1      44.576  26.391  24.824  1.00  0.00    -0.200 F 
ATOM     68  C   UNL A   1      43.085  24.705  25.535  1.00  0.00     0.200 A 
ATOM     69  F   UNL A   1      41.574  23.049  26.278  1.00  0.00    -0.200 F 
ATOM     70  F   UNL A   1      43.463  23.921  24.515  1.00  0.00    -0.200 F 
ENDBRANCH  46  60
BRANCH  47  71
ATOM     71  C   UNL A   1      39.229  31.981  35.282  1.00  0.00     0.064 A 
ATOM     72  C   UNL A   1      38.449  31.397  36.290  1.00  0.00     0.173 A 
ATOM     73  C   UNL A   1      39.546  33.342  35.406  1.00  0.00     0.173 A 
ATOM     74  F   UNL A   1      38.096  30.107  36.199  1.00  0.00    -0.203 F 
ATOM     75  C   UNL A   1      38.000  32.147  37.376  1.00  0.00     0.198 A 
ATOM     76  C   UNL A   1      39.122  34.082  36.507  1.00  0.00     0.198 A 
ATOM     77  F   UNL A   1      40.286  33.948  34.466  1.00  0.00    -0.203 F 
ATOM     78  F   UNL A   1      37.225  31.575  38.306  1.00  0.00    -0.200 F 
ATOM     79  C   UNL A   1      38.345  33.486  37.487  1.00  0.00     0.200 A 
ATOM     80  F   UNL A   1      39.469  35.372  36.618  1.00  0.00    -0.200 F 
ATOM     81  F   UNL A   1      37.922  34.203  38.537  1.00  0.00    -0.200 F 
ENDBRANCH  47  71
BRANCH  59  82
ATOM     82  C   UNL A   1      44.465  27.477  34.444  1.00  0.00     0.064 A 
ATOM     83  C   UNL A   1      45.667  28.184  34.585  1.00  0.00     0.173 A 
ATOM     84  C   UNL A   1      44.288  26.316  35.210  1.00  0.00     0.173 A 
ATOM     85  F   UNL A   1      45.889  29.290  33.859  1.00  0.00    -0.203 F 
ATOM     86  C   UNL A   1      46.665  27.732  35.446  1.00  0.00     0.198 A 
ATOM     87  C   UNL A   1      45.278  25.880  36.088  1.00  0.00     0.198 A 
ATOM     88  F   UNL A   1      43.153  25.607  35.113  1.00  0.00    -0.203 F 
ATOM     89  F   UNL A   1      47.824  28.399  35.534  1.00  0.00    -0.200 F 
ATOM     90  C   UNL A   1      46.466  26.585  36.200  1.00  0.00     0.200 A 
ATOM     91  F   UNL A   1      45.082  24.776  36.821  1.00  0.00    -0.200 F 
ATOM     92  F   UNL A   1      47.427  26.152  37.028  1.00  0.00    -0.200 F 
ENDBRANCH  59  82
ENDBRANCH  33  34
ENDBRANCH  26  28
ENDBRANCH  25  26
ENDBRANCH  24  25
ENDBRANCH  23  24
ENDBRANCH   1  23
TORSDOF 16
ENDMDL
MODEL 3
REMARK VINA RESULT:     -11.7      4.022      9.848
REMARK SMILES C[C@H](C(=O)OCCOC(=O)c1ccc(-c2c3nc(c(-c4c(F)c(F)c(F)c(F)c4F)c4ccc([nH]4)c(-c4c(F)c(F)c(F)c(F)c4F)c4nc(c(-c5c(F)c(F)c(F)c(F)c5F)c5ccc2[nH]5)C=C4)C=C3)cc1)[C@@H](C)Nc1ccccc1Oc1ccccc1
REMARK SMILES IDX 5 1 3 2 4 3 2 4 1 5 74 6 75 7 76 8 77 10 78 11 82 12 79 13
REMARK SMILES IDX 81 14 80 15 83 16 84 17 85 18 89 19 86 20 88 21 87 22 6 23
REMARK SMILES IDX 7 24 8 25 9 26 10 27 11 28 12 29 73 30 13 31 72 32 14 33
REMARK SMILES IDX 15 34 16 35 66 36 17 37 71 38 65 39 67 40 18 41 70 42 64 43
REMARK SMILES IDX 63 44 19 46 51 47 31 48 50 49 32 50 35 51 49 52 68 53 33 54
REMARK SMILES IDX 34 55 48 57 69 58 36 59 20 60 21 61 29 62 22 63 23 64 27 65
REMARK SMILES IDX 30 66 24 67 25 68 28 69 26 70 52 71 53 72 61 73 54 74 55 75
REMARK SMILES IDX 59 76 62 77 56 78 57 79 60 80 58 81 37 82 38 83 46 84 39 85
REMARK SMILES IDX 40 86 44 87 47 88 41 89 42 90 45 91 43 92
REMARK H PARENT 76 9 67 45 35 56
REMARK Flexibility Score: inf
ROOT
ATOM      1  O   UNL A   1      34.620  21.101  25.988  1.00  0.00    -0.462 OA
ENDROOT
BRANCH   1   2
ATOM      2  C   UNL A   1      33.529  21.786  25.549  1.00  0.00     0.310 C 
ATOM      3  O   UNL A   1      32.991  21.586  24.468  1.00  0.00    -0.252 OA
BRANCH   2   4
ATOM      4  C   UNL A   1      32.972  22.709  26.631  1.00  0.00     0.118 C 
ATOM      5  C   UNL A   1      33.726  22.531  27.954  1.00  0.00     0.022 C 
BRANCH   4   6
ATOM      6  C   UNL A   1      33.033  24.164  26.106  1.00  0.00     0.090 C 
ATOM      7  C   UNL A   1      34.403  24.502  25.505  1.00  0.00     0.031 C 
BRANCH   6   8
ATOM      8  N   UNL A   1      32.058  24.388  25.053  1.00  0.00    -0.379 N 
ATOM      9  H   UNL A   1      31.459  23.632  24.858  1.00  0.00     0.160 HD
BRANCH   8  10
ATOM     10  C   UNL A   1      31.860  25.526  24.286  1.00  0.00     0.078 A 
ATOM     11  C   UNL A   1      31.732  25.274  22.900  1.00  0.00     0.029 A 
ATOM     12  C   UNL A   1      31.661  26.860  24.704  1.00  0.00     0.150 A 
ATOM     13  C   UNL A   1      31.411  26.268  21.974  1.00  0.00     0.002 A 
ATOM     14  C   UNL A   1      31.347  27.862  23.764  1.00  0.00     0.049 A 
ATOM     15  C   UNL A   1      31.222  27.569  22.407  1.00  0.00     0.004 A 
BRANCH  12  16
ATOM     16  O   UNL A   1      31.499  27.281  26.007  1.00  0.00    -0.455 OA
BRANCH  16  17
ATOM     17  C   UNL A   1      32.267  28.293  26.537  1.00  0.00     0.127 A 
ATOM     18  C   UNL A   1      33.633  27.980  26.611  1.00  0.00     0.047 A 
ATOM     19  C   UNL A   1      31.832  29.563  26.903  1.00  0.00     0.047 A 
ATOM     20  C   UNL A   1      34.572  28.954  26.943  1.00  0.00     0.004 A 
ATOM     21  C   UNL A   1      32.777  30.539  27.251  1.00  0.00     0.004 A 
ATOM     22  C   UNL A   1      34.143  30.242  27.250  1.00  0.00     0.000 A 
ENDBRANCH  16  17
ENDBRANCH  12  16
ENDBRANCH   8  10
ENDBRANCH   6   8
ENDBRANCH   4   6
ENDBRANCH   2   4
ENDBRANCH   1   2
BRANCH   1  23
ATOM     23  C   UNL A   1      35.322  20.336  24.993  1.00  0.00     0.274 C 
BRANCH  23  24
ATOM     24  C   UNL A   1      36.610  21.070  24.632  1.00  0.00     0.275 C 
BRANCH  24  25
ATOM     25  O   UNL A   1      37.209  21.627  25.822  1.00  0.00    -0.458 OA
BRANCH  25  26
ATOM     26  C   UNL A   1      38.543  21.453  25.957  1.00  0.00     0.338 C 
ATOM     27  O   UNL A   1      39.189  20.448  25.682  1.00  0.00    -0.246 OA
BRANCH  26  28
ATOM     28  C   UNL A   1      39.177  22.671  26.499  1.00  0.00     0.060 A 
ATOM     29  C   UNL A   1      38.742  23.942  26.126  1.00  0.00     0.016 A 
ATOM     30  C   UNL A   1      40.302  22.541  27.316  1.00  0.00     0.016 A 
ATOM     31  C   UNL A   1      39.476  25.074  26.500  1.00  0.00     0.010 A 
ATOM     32  C   UNL A   1      40.973  23.682  27.771  1.00  0.00     0.010 A 
ATOM     33  C   UNL A   1      40.589  24.966  27.345  1.00  0.00    -0.014 A 
BRANCH  33  34
ATOM     34  C   UNL A   1      41.369  26.162  27.788  1.00  0.00     0.031 A 
ATOM     35  C   UNL A   1      40.704  27.244  28.602  1.00  0.00     0.074 A 
ATOM     36  C   UNL A   1      42.659  26.323  27.431  1.00  0.00     0.049 A 
ATOM     37  N   UNL A   1      41.094  28.474  28.831  1.00  0.00    -0.248 NA
ATOM     38  C   UNL A   1      39.419  26.898  29.230  1.00  0.00     0.031 C 
ATOM     39  C   UNL A   1      43.470  25.353  26.696  1.00  0.00     0.029 A 
ATOM     40  N   UNL A   1      43.516  27.383  27.628  1.00  0.00    -0.354 N 
ATOM     41  C   UNL A   1      40.073  29.067  29.566  1.00  0.00     0.074 A 
ATOM     42  C   UNL A   1      39.051  28.059  29.754  1.00  0.00     0.031 C 
ATOM     43  C   UNL A   1      44.703  25.849  26.518  1.00  0.00     0.029 A 
ATOM     44  C   UNL A   1      44.745  27.212  27.038  1.00  0.00     0.049 A 
ATOM     45  H   UNL A   1      43.270  28.187  28.142  1.00  0.00     0.167 HD
ATOM     46  C   UNL A   1      39.993  30.339  30.030  1.00  0.00     0.037 A 
ATOM     47  C   UNL A   1      45.771  28.068  26.873  1.00  0.00     0.037 A 
ATOM     48  C   UNL A   1      41.037  31.322  29.903  1.00  0.00     0.049 A 
ATOM     49  C   UNL A   1      45.649  29.482  27.364  1.00  0.00     0.074 A 
ATOM     50  C   UNL A   1      41.056  32.629  30.367  1.00  0.00     0.029 A 
ATOM     51  N   UNL A   1      42.258  31.104  29.282  1.00  0.00    -0.354 N 
ATOM     52  N   UNL A   1      44.653  30.057  27.990  1.00  0.00    -0.248 NA
ATOM     53  C   UNL A   1      46.788  30.374  27.102  1.00  0.00     0.031 C 
ATOM     54  C   UNL A   1      42.275  33.209  29.998  1.00  0.00     0.029 A 
ATOM     55  C   UNL A   1      43.032  32.253  29.343  1.00  0.00     0.049 A 
ATOM     56  H   UNL A   1      42.534  30.258  28.863  1.00  0.00     0.167 HD
ATOM     57  C   UNL A   1      45.047  31.369  28.209  1.00  0.00     0.074 A 
ATOM     58  C   UNL A   1      46.382  31.504  27.664  1.00  0.00     0.031 C 
ATOM     59  C   UNL A   1      44.361  32.375  28.803  1.00  0.00     0.037 A 
BRANCH  46  60
ATOM     60  C   UNL A   1      38.715  30.761  30.697  1.00  0.00     0.064 A 
ATOM     61  C   UNL A   1      38.576  30.793  32.091  1.00  0.00     0.173 A 
ATOM     62  C   UNL A   1      37.629  31.193  29.918  1.00  0.00     0.173 A 
ATOM     63  F   UNL A   1      39.581  30.379  32.878  1.00  0.00    -0.203 F 
ATOM     64  C   UNL A   1      37.391  31.223  32.682  1.00  0.00     0.198 A 
ATOM     65  C   UNL A   1      36.455  31.648  30.513  1.00  0.00     0.198 A 
ATOM     66  F   UNL A   1      37.713  31.191  28.579  1.00  0.00    -0.203 F 
ATOM     67  F   UNL A   1      37.266  31.209  34.017  1.00  0.00    -0.200 F 
ATOM     68  C   UNL A   1      36.335  31.655  31.894  1.00  0.00     0.200 A 
ATOM     69  F   UNL A   1      35.442  32.079  29.750  1.00  0.00    -0.200 F 
ATOM     70  F   UNL A   1      35.198  32.078  32.466  1.00  0.00    -0.200 F 
ENDBRANCH  46  60
BRANCH  47  71
ATOM     71  C   UNL A   1      46.994  27.620  26.155  1.00  0.00     0.064 A 
ATOM     72  C   UNL A   1      47.079  27.703  24.759  1.00  0.00     0.173 A 
ATOM     73  C   UNL A   1      48.100  27.107  26.849  1.00  0.00     0.173 A 
ATOM     74  F   UNL A   1      46.035  28.158  24.052  1.00  0.00    -0.203 F 
ATOM     75  C   UNL A   1      48.223  27.284  24.083  1.00  0.00     0.198 A 
ATOM     76  C   UNL A   1      49.254  26.717  26.174  1.00  0.00     0.198 A 
ATOM     77  F   UNL A   1      48.067  27.003  28.186  1.00  0.00    -0.203 F 
ATOM     78  F   UNL A   1      48.265  27.339  22.745  1.00  0.00    -0.200 F 
ATOM     79  C   UNL A   1      49.313  26.800  24.792  1.00  0.00     0.200 A 
ATOM     80  F   UNL A   1      50.310  26.263  26.864  1.00  0.00    -0.200 F 
ATOM     81  F   UNL A   1      50.417  26.408  24.142  1.00  0.00    -0.200 F 
ENDBRANCH  47  71
BRANCH  59  82
ATOM     82  C   UNL A   1      45.055  33.698  28.929  1.00  0.00     0.064 A 
ATOM     83  C   UNL A   1      44.909  34.699  27.958  1.00  0.00     0.173 A 
ATOM     84  C   UNL A   1      45.854  33.976  30.047  1.00  0.00     0.173 A 
ATOM     85  F   UNL A   1      44.169  34.473  26.862  1.00  0.00    -0.203 F 
ATOM     86  C   UNL A   1      45.557  35.924  28.091  1.00  0.00     0.198 A 
ATOM     87  C   UNL A   1      46.482  35.211  30.189  1.00  0.00     0.198 A 
ATOM     88  F   UNL A   1      46.023  33.052  31.006  1.00  0.00    -0.203 F 
ATOM     89  F   UNL A   1      45.439  36.851  27.130  1.00  0.00    -0.200 F 
ATOM     90  C   UNL A   1      46.338  36.181  29.209  1.00  0.00     0.200 A 
ATOM     91  F   UNL A   1      47.230  35.460  31.273  1.00  0.00    -0.200 F 
ATOM     92  F   UNL A   1      46.960  37.361  29.336  1.00  0.00    -0.200 F 
ENDBRANCH  59  82
ENDBRANCH  33  34
ENDBRANCH  26  28
ENDBRANCH  25  26
ENDBRANCH  24  25
ENDBRANCH  23  24
ENDBRANCH   1  23
TORSDOF 16
ENDMDL
