MODEL 1
REMARK VINA RESULT:     -13.3      0.000      0.000
REMARK SMILES C[C@H](NC(=O)c1cccc(NC(=O)/C=C/C(=O)OCCOC(=O)c2ccc(-c3c4nc(c(-c5c(F)c(F)c(F)c(F)c5F)c5ccc([nH]5)c(-c5c(F)c(F)c(F)c(F)c5F)c5nc(c(-c6c(F)c(F)c(F)c(F)c6F)c6ccc3[nH]6)C=C5)C=C4)cc2)c1)c1ccccc1
REMARK SMILES IDX 18 1 16 2 17 3 15 4 14 5 12 6 11 7 13 9 10 10 6 11 7 12
REMARK SMILES IDX 87 13 8 14 9 15 4 16 3 17 5 19 2 20 1 21 88 22 89 23 93 24
REMARK SMILES IDX 90 25 92 26 91 27 19 28 20 29 21 30 22 31 23 32 24 33 25 34
REMARK SMILES IDX 86 35 26 36 85 37 27 38 28 39 29 40 79 41 30 42 84 43 78 44
REMARK SMILES IDX 80 45 31 46 83 47 77 48 76 49 32 51 64 52 44 53 63 54 45 55
REMARK SMILES IDX 48 56 62 57 81 58 46 59 47 60 61 62 82 63 49 64 33 65 34 66
REMARK SMILES IDX 42 67 35 68 36 69 40 70 43 71 37 72 38 73 41 74 39 75 65 76
REMARK SMILES IDX 66 77 74 78 67 79 68 80 72 81 75 82 69 83 70 84 73 85 71 86
REMARK SMILES IDX 50 87 51 88 59 89 52 90 53 91 57 92 60 93 54 94 55 95 58 96
REMARK SMILES IDX 56 97
REMARK H PARENT 11 8 3 18 80 50 48 61
REMARK Flexibility Score: inf
ROOT
ATOM      1  O   UNL A   1      30.330  28.899  23.911  1.00  0.00    -0.459 OA
ENDROOT
BRANCH   1   2
ATOM      2  C   UNL A   1      30.546  28.610  22.612  1.00  0.00     0.331 C 
ATOM      3  O   UNL A   1      29.940  29.039  21.649  1.00  0.00    -0.247 OA
BRANCH   2   4
ATOM      4  C   UNL A   1      31.688  27.694  22.497  1.00  0.00     0.099 C 
ATOM      5  C   UNL A   1      31.519  26.617  21.719  1.00  0.00     0.079 C 
BRANCH   5   6
ATOM      6  C   UNL A   1      32.680  25.837  21.254  1.00  0.00     0.248 C 
ATOM      7  N   UNL A   1      33.327  24.985  22.112  1.00  0.00    -0.322 N 
ATOM      8  H   UNL A   1      34.019  24.431  21.683  1.00  0.00     0.170 HD
ATOM      9  O   UNL A   1      33.069  25.971  20.096  1.00  0.00    -0.270 OA
BRANCH   7  10
ATOM     10  C   UNL A   1      33.183  24.755  23.495  1.00  0.00     0.042 A 
ATOM     11  C   UNL A   1      32.177  23.477  25.267  1.00  0.00     0.041 A 
ATOM     12  C   UNL A   1      32.650  24.373  26.224  1.00  0.00     0.014 A 
ATOM     13  C   UNL A   1      32.390  23.678  23.903  1.00  0.00     0.040 A 
ATOM     14  C   UNL A   1      33.518  25.374  25.829  1.00  0.00     0.003 A 
ATOM     15  C   UNL A   1      33.820  25.520  24.479  1.00  0.00     0.026 A 
BRANCH  11  16
ATOM     16  C   UNL A   1      31.571  22.248  25.778  1.00  0.00     0.251 C 
ATOM     17  N   UNL A   1      32.337  21.107  25.797  1.00  0.00    -0.346 N 
ATOM     18  H   UNL A   1      31.997  20.392  26.381  1.00  0.00     0.164 HD
ATOM     19  O   UNL A   1      30.443  22.284  26.250  1.00  0.00    -0.269 OA
BRANCH  17  20
ATOM     20  C   UNL A   1      33.590  20.781  25.082  1.00  0.00     0.109 C 
ATOM     21  C   UNL A   1      34.841  20.952  25.964  1.00  0.00     0.036 C 
BRANCH  20  22
ATOM     22  C   UNL A   1      33.616  19.382  24.458  1.00  0.00    -0.026 A 
ATOM     23  C   UNL A   1      34.622  18.432  24.680  1.00  0.00     0.006 A 
ATOM     24  C   UNL A   1      32.564  19.013  23.589  1.00  0.00     0.006 A 
ATOM     25  C   UNL A   1      34.625  17.213  23.995  1.00  0.00     0.000 A 
ATOM     26  C   UNL A   1      32.583  17.813  22.880  1.00  0.00     0.000 A 
ATOM     27  C   UNL A   1      33.623  16.915  23.077  1.00  0.00     0.000 A 
ENDBRANCH  20  22
ENDBRANCH  17  20
ENDBRANCH  11  16
ENDBRANCH   7  10
ENDBRANCH   5   6
ENDBRANCH   2   4
ENDBRANCH   1   2
BRANCH   1  28
ATOM     28  C   UNL A   1      31.489  28.822  24.761  1.00  0.00     0.275 C 
BRANCH  28  29
ATOM     29  C   UNL A   1      31.754  30.195  25.371  1.00  0.00     0.275 C 
BRANCH  29  30
ATOM     30  O   UNL A   1      32.509  30.056  26.592  1.00  0.00    -0.458 OA
BRANCH  30  31
ATOM     31  C   UNL A   1      33.044  31.191  27.096  1.00  0.00     0.338 C 
ATOM     32  O   UNL A   1      32.518  32.291  27.176  1.00  0.00    -0.246 OA
BRANCH  31  33
ATOM     33  C   UNL A   1      34.407  30.925  27.585  1.00  0.00     0.060 A 
ATOM     34  C   UNL A   1      34.774  29.621  27.885  1.00  0.00     0.016 A 
ATOM     35  C   UNL A   1      35.280  31.976  27.875  1.00  0.00     0.016 A 
ATOM     36  C   UNL A   1      35.977  29.387  28.554  1.00  0.00     0.010 A 
ATOM     37  C   UNL A   1      36.521  31.717  28.487  1.00  0.00     0.010 A 
ATOM     38  C   UNL A   1      36.872  30.417  28.889  1.00  0.00    -0.014 A 
BRANCH  38  39
ATOM     39  C   UNL A   1      38.098  30.130  29.720  1.00  0.00     0.031 A 
ATOM     40  C   UNL A   1      39.232  29.294  29.161  1.00  0.00     0.074 A 
ATOM     41  C   UNL A   1      38.274  30.671  30.946  1.00  0.00     0.049 A 
ATOM     42  N   UNL A   1      40.257  28.754  29.781  1.00  0.00    -0.248 NA
ATOM     43  C   UNL A   1      39.207  29.022  27.716  1.00  0.00     0.031 C 
ATOM     44  C   UNL A   1      37.341  31.571  31.624  1.00  0.00     0.029 A 
ATOM     45  N   UNL A   1      39.321  30.562  31.838  1.00  0.00    -0.354 N 
ATOM     46  C   UNL A   1      40.956  28.034  28.816  1.00  0.00     0.074 A 
ATOM     47  C   UNL A   1      40.238  28.202  27.571  1.00  0.00     0.031 C 
ATOM     48  C   UNL A   1      37.886  31.991  32.776  1.00  0.00     0.029 A 
ATOM     49  C   UNL A   1      39.138  31.278  32.998  1.00  0.00     0.049 A 
ATOM     50  H   UNL A   1      40.125  30.022  31.660  1.00  0.00     0.167 HD
ATOM     51  C   UNL A   1      42.089  27.299  28.952  1.00  0.00     0.037 A 
ATOM     52  C   UNL A   1      39.844  31.314  34.148  1.00  0.00     0.037 A 
ATOM     53  C   UNL A   1      42.859  27.190  30.166  1.00  0.00     0.049 A 
ATOM     54  C   UNL A   1      41.057  30.438  34.304  1.00  0.00     0.074 A 
ATOM     55  C   UNL A   1      43.997  26.437  30.407  1.00  0.00     0.029 A 
ATOM     56  N   UNL A   1      42.592  27.886  31.335  1.00  0.00    -0.354 N 
ATOM     57  N   UNL A   1      41.625  29.645  33.431  1.00  0.00    -0.248 NA
ATOM     58  C   UNL A   1      41.709  30.437  35.624  1.00  0.00     0.031 C 
ATOM     59  C   UNL A   1      44.397  26.648  31.731  1.00  0.00     0.029 A 
ATOM     60  C   UNL A   1      43.537  27.570  32.301  1.00  0.00     0.049 A 
ATOM     61  H   UNL A   1      41.842  28.510  31.462  1.00  0.00     0.167 HD
ATOM     62  C   UNL A   1      42.695  29.055  34.089  1.00  0.00     0.074 A 
ATOM     63  C   UNL A   1      42.720  29.605  35.427  1.00  0.00     0.031 C 
ATOM     64  C   UNL A   1      43.568  28.127  33.628  1.00  0.00     0.037 A 
BRANCH  51  65
ATOM     65  C   UNL A   1      42.556  26.503  27.764  1.00  0.00     0.064 A 
ATOM     66  C   UNL A   1      42.022  25.246  27.447  1.00  0.00     0.173 A 
ATOM     67  C   UNL A   1      43.522  27.040  26.896  1.00  0.00     0.173 A 
ATOM     68  F   UNL A   1      41.101  24.683  28.243  1.00  0.00    -0.203 F 
ATOM     69  C   UNL A   1      42.457  24.545  26.323  1.00  0.00     0.198 A 
ATOM     70  C   UNL A   1      43.930  26.352  25.757  1.00  0.00     0.198 A 
ATOM     71  F   UNL A   1      44.055  28.246  27.142  1.00  0.00    -0.203 F 
ATOM     72  F   UNL A   1      41.965  23.325  26.063  1.00  0.00    -0.200 F 
ATOM     73  C   UNL A   1      43.404  25.102  25.476  1.00  0.00     0.200 A 
ATOM     74  F   UNL A   1      44.830  26.902  24.930  1.00  0.00    -0.200 F 
ATOM     75  F   UNL A   1      43.812  24.430  24.390  1.00  0.00    -0.200 F 
ENDBRANCH  51  65
BRANCH  52  76
ATOM     76  C   UNL A   1      39.360  32.138  35.292  1.00  0.00     0.064 A 
ATOM     77  C   UNL A   1      39.713  33.487  35.423  1.00  0.00     0.173 A 
ATOM     78  C   UNL A   1      38.547  31.579  36.292  1.00  0.00     0.173 A 
ATOM     79  F   UNL A   1      40.520  34.061  34.518  1.00  0.00    -0.203 F 
ATOM     80  C   UNL A   1      39.280  34.242  36.514  1.00  0.00     0.198 A 
ATOM     81  C   UNL A   1      38.078  32.345  37.355  1.00  0.00     0.198 A 
ATOM     82  F   UNL A   1      38.188  30.288  36.224  1.00  0.00    -0.203 F 
ATOM     83  F   UNL A   1      39.677  35.515  36.646  1.00  0.00    -0.200 F 
ATOM     84  C   UNL A   1      38.454  33.673  37.472  1.00  0.00     0.200 A 
ATOM     85  F   UNL A   1      37.264  31.794  38.266  1.00  0.00    -0.200 F 
ATOM     86  F   UNL A   1      38.026  34.403  38.511  1.00  0.00    -0.200 F 
ENDBRANCH  52  76
BRANCH  64  87
ATOM     87  C   UNL A   1      44.652  27.673  34.564  1.00  0.00     0.064 A 
ATOM     88  C   UNL A   1      44.492  26.544  35.381  1.00  0.00     0.173 A 
ATOM     89  C   UNL A   1      45.872  28.361  34.627  1.00  0.00     0.173 A 
ATOM     90  F   UNL A   1      43.337  25.862  35.372  1.00  0.00    -0.203 F 
ATOM     91  C   UNL A   1      45.504  26.137  36.247  1.00  0.00     0.198 A 
ATOM     92  C   UNL A   1      46.892  27.935  35.474  1.00  0.00     0.198 A 
ATOM     93  F   UNL A   1      46.077  29.446  33.865  1.00  0.00    -0.203 F 
ATOM     94  F   UNL A   1      45.310  25.086  37.056  1.00  0.00    -0.200 F 
ATOM     95  C   UNL A   1      46.705  26.829  36.288  1.00  0.00     0.200 A 
ATOM     96  F   UNL A   1      48.056  28.599  35.505  1.00  0.00    -0.200 F 
ATOM     97  F   UNL A   1      47.679  26.435  37.121  1.00  0.00    -0.200 F 
ENDBRANCH  64  87
ENDBRANCH  38  39
ENDBRANCH  31  33
ENDBRANCH  30  31
ENDBRANCH  29  30
ENDBRANCH  28  29
ENDBRANCH   1  28
TORSDOF 16
ENDMDL
MODEL 2
REMARK VINA RESULT:     -13.2      0.267      1.580
REMARK SMILES C[C@H](NC(=O)c1cccc(NC(=O)/C=C/C(=O)OCCOC(=O)c2ccc(-c3c4nc(c(-c5c(F)c(F)c(F)c(F)c5F)c5ccc([nH]5)c(-c5c(F)c(F)c(F)c(F)c5F)c5nc(c(-c6c(F)c(F)c(F)c(F)c6F)c6ccc3[nH]6)C=C5)C=C4)cc2)c1)c1ccccc1
REMARK SMILES IDX 18 1 16 2 17 3 15 4 14 5 12 6 11 7 13 9 10 10 6 11 7 12
REMARK SMILES IDX 87 13 8 14 9 15 4 16 3 17 5 19 2 20 1 21 88 22 89 23 93 24
REMARK SMILES IDX 90 25 92 26 91 27 19 28 20 29 21 30 22 31 23 32 24 33 25 34
REMARK SMILES IDX 86 35 26 36 85 37 27 38 28 39 29 40 79 41 30 42 84 43 78 44
REMARK SMILES IDX 80 45 31 46 83 47 77 48 76 49 32 51 64 52 44 53 63 54 45 55
REMARK SMILES IDX 48 56 62 57 81 58 46 59 47 60 61 62 82 63 49 64 33 65 34 66
REMARK SMILES IDX 42 67 35 68 36 69 40 70 43 71 37 72 38 73 41 74 39 75 65 76
REMARK SMILES IDX 66 77 74 78 67 79 68 80 72 81 75 82 69 83 70 84 73 85 71 86
REMARK SMILES IDX 50 87 51 88 59 89 52 90 53 91 57 92 60 93 54 94 55 95 58 96
REMARK SMILES IDX 56 97
REMARK H PARENT 11 8 3 18 80 50 48 61
REMARK Flexibility Score: inf
ROOT
ATOM      1  O   UNL A   1      30.367  29.341  23.953  1.00  0.00    -0.459 OA
ENDROOT
BRANCH   1   2
ATOM      2  C   UNL A   1      30.477  28.782  22.731  1.00  0.00     0.331 C 
ATOM      3  O   UNL A   1      29.757  28.961  21.769  1.00  0.00    -0.247 OA
BRANCH   2   4
ATOM      4  C   UNL A   1      31.660  27.911  22.697  1.00  0.00     0.099 C 
ATOM      5  C   UNL A   1      31.564  26.795  21.961  1.00  0.00     0.079 C 
BRANCH   5   6
ATOM      6  C   UNL A   1      32.772  26.046  21.571  1.00  0.00     0.248 C 
ATOM      7  N   UNL A   1      33.340  25.153  22.442  1.00  0.00    -0.322 N 
ATOM      8  H   UNL A   1      34.076  24.626  22.054  1.00  0.00     0.170 HD
ATOM      9  O   UNL A   1      33.270  26.244  20.465  1.00  0.00    -0.270 OA
BRANCH   7  10
ATOM     10  C   UNL A   1      33.065  24.849  23.791  1.00  0.00     0.042 A 
ATOM     11  C   UNL A   1      31.938  23.447  25.388  1.00  0.00     0.041 A 
ATOM     12  C   UNL A   1      32.271  24.312  26.429  1.00  0.00     0.014 A 
ATOM     13  C   UNL A   1      32.282  23.724  24.064  1.00  0.00     0.040 A 
ATOM     14  C   UNL A   1      33.131  25.363  26.173  1.00  0.00     0.003 A 
ATOM     15  C   UNL A   1      33.564  25.588  24.870  1.00  0.00     0.026 A 
BRANCH  11  16
ATOM     16  C   UNL A   1      31.337  22.172  25.776  1.00  0.00     0.251 C 
ATOM     17  N   UNL A   1      32.118  21.043  25.718  1.00  0.00    -0.346 N 
ATOM     18  H   UNL A   1      31.773  20.276  26.229  1.00  0.00     0.164 HD
ATOM     19  O   UNL A   1      30.196  22.154  26.219  1.00  0.00    -0.269 OA
BRANCH  17  20
ATOM     20  C   UNL A   1      33.393  20.793  25.011  1.00  0.00     0.109 C 
ATOM     21  C   UNL A   1      34.626  21.081  25.889  1.00  0.00     0.036 C 
BRANCH  20  22
ATOM     22  C   UNL A   1      33.525  19.384  24.424  1.00  0.00    -0.026 A 
ATOM     23  C   UNL A   1      34.560  18.491  24.729  1.00  0.00     0.006 A 
ATOM     24  C   UNL A   1      32.549  18.946  23.501  1.00  0.00     0.006 A 
ATOM     25  C   UNL A   1      34.664  17.259  24.075  1.00  0.00     0.000 A 
ATOM     26  C   UNL A   1      32.669  17.734  22.823  1.00  0.00     0.000 A 
ATOM     27  C   UNL A   1      33.737  16.893  23.105  1.00  0.00     0.000 A 
ENDBRANCH  20  22
ENDBRANCH  17  20
ENDBRANCH  11  16
ENDBRANCH   7  10
ENDBRANCH   5   6
ENDBRANCH   2   4
ENDBRANCH   1   2
BRANCH   1  28
ATOM     28  C   UNL A   1      31.613  29.671  24.596  1.00  0.00     0.275 C 
BRANCH  28  29
ATOM     29  C   UNL A   1      31.323  30.385  25.912  1.00  0.00     0.275 C 
BRANCH  29  30
ATOM     30  O   UNL A   1      32.451  30.257  26.802  1.00  0.00    -0.458 OA
BRANCH  30  31
ATOM     31  C   UNL A   1      33.074  31.406  27.147  1.00  0.00     0.338 C 
ATOM     32  O   UNL A   1      32.623  32.541  27.098  1.00  0.00    -0.246 OA
BRANCH  31  33
ATOM     33  C   UNL A   1      34.430  31.111  27.637  1.00  0.00     0.060 A 
ATOM     34  C   UNL A   1      34.794  29.791  27.861  1.00  0.00     0.016 A 
ATOM     35  C   UNL A   1      35.298  32.142  28.005  1.00  0.00     0.016 A 
ATOM     36  C   UNL A   1      35.988  29.517  28.532  1.00  0.00     0.010 A 
ATOM     37  C   UNL A   1      36.530  31.847  28.616  1.00  0.00     0.010 A 
ATOM     38  C   UNL A   1      36.877  30.524  28.942  1.00  0.00    -0.014 A 
BRANCH  38  39
ATOM     39  C   UNL A   1      38.091  30.187  29.770  1.00  0.00     0.031 A 
ATOM     40  C   UNL A   1      39.198  29.320  29.203  1.00  0.00     0.074 A 
ATOM     41  C   UNL A   1      38.284  30.707  31.004  1.00  0.00     0.049 A 
ATOM     42  N   UNL A   1      40.204  28.739  29.817  1.00  0.00    -0.248 NA
ATOM     43  C   UNL A   1      39.166  29.066  27.754  1.00  0.00     0.031 C 
ATOM     44  C   UNL A   1      37.380  31.628  31.691  1.00  0.00     0.029 A 
ATOM     45  N   UNL A   1      39.326  30.552  31.895  1.00  0.00    -0.354 N 
ATOM     46  C   UNL A   1      40.880  28.007  28.845  1.00  0.00     0.074 A 
ATOM     47  C   UNL A   1      40.170  28.214  27.600  1.00  0.00     0.031 C 
ATOM     48  C   UNL A   1      37.937  32.016  32.849  1.00  0.00     0.029 A 
ATOM     49  C   UNL A   1      39.165  31.259  33.064  1.00  0.00     0.049 A 
ATOM     50  H   UNL A   1      40.111  29.988  31.712  1.00  0.00     0.167 HD
ATOM     51  C   UNL A   1      41.988  27.234  28.972  1.00  0.00     0.037 A 
ATOM     52  C   UNL A   1      39.870  31.258  34.214  1.00  0.00     0.037 A 
ATOM     53  C   UNL A   1      42.752  27.085  30.186  1.00  0.00     0.049 A 
ATOM     54  C   UNL A   1      41.053  30.341  34.361  1.00  0.00     0.074 A 
ATOM     55  C   UNL A   1      43.864  26.291  30.419  1.00  0.00     0.029 A 
ATOM     56  N   UNL A   1      42.506  27.775  31.363  1.00  0.00    -0.354 N 
ATOM     57  N   UNL A   1      41.595  29.539  33.479  1.00  0.00    -0.248 NA
ATOM     58  C   UNL A   1      41.702  30.302  35.682  1.00  0.00     0.031 C 
ATOM     59  C   UNL A   1      44.268  26.473  31.745  1.00  0.00     0.029 A 
ATOM     60  C   UNL A   1      43.440  27.416  32.326  1.00  0.00     0.049 A 
ATOM     61  H   UNL A   1      41.778  28.422  31.497  1.00  0.00     0.167 HD
ATOM     62  C   UNL A   1      42.644  28.906  34.131  1.00  0.00     0.074 A 
ATOM     63  C   UNL A   1      42.686  29.439  35.476  1.00  0.00     0.031 C 
ATOM     64  C   UNL A   1      43.487  27.956  33.660  1.00  0.00     0.037 A 
BRANCH  51  65
ATOM     65  C   UNL A   1      42.429  26.437  27.775  1.00  0.00     0.064 A 
ATOM     66  C   UNL A   1      43.430  26.886  26.903  1.00  0.00     0.173 A 
ATOM     67  C   UNL A   1      41.870  25.171  27.532  1.00  0.00     0.173 A 
ATOM     68  F   UNL A   1      43.995  28.089  27.083  1.00  0.00    -0.203 F 
ATOM     69  C   UNL A   1      43.835  26.110  25.817  1.00  0.00     0.198 A 
ATOM     70  C   UNL A   1      42.300  24.386  26.467  1.00  0.00     0.198 A 
ATOM     71  F   UNL A   1      40.919  24.685  28.344  1.00  0.00    -0.203 F 
ATOM     72  F   UNL A   1      44.764  26.578  24.971  1.00  0.00    -0.200 F 
ATOM     73  C   UNL A   1      43.276  24.859  25.605  1.00  0.00     0.200 A 
ATOM     74  F   UNL A   1      41.771  23.169  26.276  1.00  0.00    -0.200 F 
ATOM     75  F   UNL A   1      43.676  24.111  24.567  1.00  0.00    -0.200 F 
ENDBRANCH  51  65
BRANCH  52  76
ATOM     76  C   UNL A   1      39.411  32.083  35.368  1.00  0.00     0.064 A 
ATOM     77  C   UNL A   1      39.828  33.411  35.529  1.00  0.00     0.173 A 
ATOM     78  C   UNL A   1      38.560  31.547  36.347  1.00  0.00     0.173 A 
ATOM     79  F   UNL A   1      40.673  33.961  34.644  1.00  0.00    -0.203 F 
ATOM     80  C   UNL A   1      39.419  34.166  36.628  1.00  0.00     0.198 A 
ATOM     81  C   UNL A   1      38.116  32.315  37.419  1.00  0.00     0.198 A 
ATOM     82  F   UNL A   1      38.140  30.277  36.252  1.00  0.00    -0.203 F 
ATOM     83  F   UNL A   1      39.875  35.416  36.788  1.00  0.00    -0.200 F 
ATOM     84  C   UNL A   1      38.553  33.621  37.565  1.00  0.00     0.200 A 
ATOM     85  F   UNL A   1      37.265  31.788  38.310  1.00  0.00    -0.200 F 
ATOM     86  F   UNL A   1      38.148  34.352  38.613  1.00  0.00    -0.200 F 
ENDBRANCH  52  76
BRANCH  64  87
ATOM     87  C   UNL A   1      44.553  27.455  34.591  1.00  0.00     0.064 A 
ATOM     88  C   UNL A   1      45.799  28.091  34.692  1.00  0.00     0.173 A 
ATOM     89  C   UNL A   1      44.318  26.340  35.409  1.00  0.00     0.173 A 
ATOM     90  F   UNL A   1      46.081  29.150  33.918  1.00  0.00    -0.203 F 
ATOM     91  C   UNL A   1      46.781  27.612  35.557  1.00  0.00     0.198 A 
ATOM     92  C   UNL A   1      45.291  25.880  36.293  1.00  0.00     0.198 A 
ATOM     93  F   UNL A   1      43.143  25.696  35.353  1.00  0.00    -0.203 F 
ATOM     94  F   UNL A   1      47.982  28.206  35.600  1.00  0.00    -0.200 F 
ATOM     95  C   UNL A   1      46.524  26.512  36.361  1.00  0.00     0.200 A 
ATOM     96  F   UNL A   1      45.038  24.823  37.075  1.00  0.00    -0.200 F 
ATOM     97  F   UNL A   1      47.468  26.054  37.194  1.00  0.00    -0.200 F 
ENDBRANCH  64  87
ENDBRANCH  38  39
ENDBRANCH  31  33
ENDBRANCH  30  31
ENDBRANCH  29  30
ENDBRANCH  28  29
ENDBRANCH   1  28
TORSDOF 16
ENDMDL
MODEL 3
REMARK VINA RESULT:     -12.9      1.261      2.473
REMARK SMILES C[C@H](NC(=O)c1cccc(NC(=O)/C=C/C(=O)OCCOC(=O)c2ccc(-c3c4nc(c(-c5c(F)c(F)c(F)c(F)c5F)c5ccc([nH]5)c(-c5c(F)c(F)c(F)c(F)c5F)c5nc(c(-c6c(F)c(F)c(F)c(F)c6F)c6ccc3[nH]6)C=C5)C=C4)cc2)c1)c1ccccc1
REMARK SMILES IDX 18 1 16 2 17 3 15 4 14 5 12 6 11 7 13 9 10 10 6 11 7 12
REMARK SMILES IDX 87 13 8 14 9 15 4 16 3 17 5 19 2 20 1 21 88 22 89 23 93 24
REMARK SMILES IDX 90 25 92 26 91 27 19 28 20 29 21 30 22 31 23 32 24 33 25 34
REMARK SMILES IDX 86 35 26 36 85 37 27 38 28 39 29 40 79 41 30 42 84 43 78 44
REMARK SMILES IDX 80 45 31 46 83 47 77 48 76 49 32 51 64 52 44 53 63 54 45 55
REMARK SMILES IDX 48 56 62 57 81 58 46 59 47 60 61 62 82 63 49 64 33 65 34 66
REMARK SMILES IDX 42 67 35 68 36 69 40 70 43 71 37 72 38 73 41 74 39 75 65 76
REMARK SMILES IDX 66 77 74 78 67 79 68 80 72 81 75 82 69 83 70 84 73 85 71 86
REMARK SMILES IDX 50 87 51 88 59 89 52 90 53 91 57 92 60 93 54 94 55 95 58 96
REMARK SMILES IDX 56 97
REMARK H PARENT 11 8 3 18 80 50 48 61
REMARK Flexibility Score: inf
ROOT
ATOM      1  O   UNL A   1      32.087  28.764  23.870  1.00  0.00    -0.459 OA
ENDROOT
BRANCH   1   2
ATOM      2  C   UNL A   1      31.468  27.678  23.365  1.00  0.00     0.331 C 
ATOM      3  O   UNL A   1      30.312  27.343  23.529  1.00  0.00    -0.247 OA
BRANCH   2   4
ATOM      4  C   UNL A   1      32.407  26.930  22.517  1.00  0.00     0.099 C 
ATOM      5  C   UNL A   1      32.045  25.688  22.169  1.00  0.00     0.079 C 
BRANCH   5   6
ATOM      6  C   UNL A   1      32.719  24.992  21.058  1.00  0.00     0.248 C 
ATOM      7  N   UNL A   1      33.147  23.699  21.213  1.00  0.00    -0.322 N 
ATOM      8  H   UNL A   1      33.487  23.287  20.386  1.00  0.00     0.170 HD
ATOM      9  O   UNL A   1      32.906  25.590  20.001  1.00  0.00    -0.270 OA
BRANCH   7  10
ATOM     10  C   UNL A   1      33.189  22.850  22.338  1.00  0.00     0.042 A 
ATOM     11  C   UNL A   1      34.443  21.954  24.184  1.00  0.00     0.041 A 
ATOM     12  C   UNL A   1      33.448  21.014  24.446  1.00  0.00     0.014 A 
ATOM     13  C   UNL A   1      34.354  22.841  23.110  1.00  0.00     0.040 A 
ATOM     14  C   UNL A   1      32.256  21.094  23.749  1.00  0.00     0.003 A 
ATOM     15  C   UNL A   1      32.117  22.046  22.743  1.00  0.00     0.026 A 
BRANCH  11  16
ATOM     16  C   UNL A   1      35.513  22.053  25.176  1.00  0.00     0.251 C 
ATOM     17  N   UNL A   1      35.395  23.000  26.164  1.00  0.00    -0.346 N 
ATOM     18  H   UNL A   1      35.979  22.858  26.943  1.00  0.00     0.164 HD
ATOM     19  O   UNL A   1      36.431  21.244  25.154  1.00  0.00    -0.269 OA
BRANCH  17  20
ATOM     20  C   UNL A   1      34.533  24.199  26.246  1.00  0.00     0.109 C 
ATOM     21  C   UNL A   1      34.757  25.174  25.076  1.00  0.00     0.036 C 
BRANCH  20  22
ATOM     22  C   UNL A   1      33.035  23.895  26.354  1.00  0.00    -0.026 A 
ATOM     23  C   UNL A   1      32.480  22.932  27.207  1.00  0.00     0.006 A 
ATOM     24  C   UNL A   1      32.140  24.620  25.535  1.00  0.00     0.006 A 
ATOM     25  C   UNL A   1      31.111  22.645  27.175  1.00  0.00     0.000 A 
ATOM     26  C   UNL A   1      30.782  24.312  25.477  1.00  0.00     0.000 A 
ATOM     27  C   UNL A   1      30.269  23.313  26.293  1.00  0.00     0.000 A 
ENDBRANCH  20  22
ENDBRANCH  17  20
ENDBRANCH  11  16
ENDBRANCH   7  10
ENDBRANCH   5   6
ENDBRANCH   2   4
ENDBRANCH   1   2
BRANCH   1  28
ATOM     28  C   UNL A   1      32.113  28.847  25.307  1.00  0.00     0.275 C 
BRANCH  28  29
ATOM     29  C   UNL A   1      31.923  30.301  25.728  1.00  0.00     0.275 C 
BRANCH  29  30
ATOM     30  O   UNL A   1      32.395  30.490  27.077  1.00  0.00    -0.458 OA
BRANCH  30  31
ATOM     31  C   UNL A   1      33.091  31.625  27.313  1.00  0.00     0.338 C 
ATOM     32  O   UNL A   1      32.703  32.777  27.187  1.00  0.00    -0.246 OA
BRANCH  31  33
ATOM     33  C   UNL A   1      34.445  31.291  27.787  1.00  0.00     0.060 A 
ATOM     34  C   UNL A   1      34.749  29.970  28.080  1.00  0.00     0.016 A 
ATOM     35  C   UNL A   1      35.371  32.297  28.071  1.00  0.00     0.016 A 
ATOM     36  C   UNL A   1      35.946  29.675  28.737  1.00  0.00     0.010 A 
ATOM     37  C   UNL A   1      36.604  31.975  28.669  1.00  0.00     0.010 A 
ATOM     38  C   UNL A   1      36.895  30.659  29.064  1.00  0.00    -0.014 A 
BRANCH  38  39
ATOM     39  C   UNL A   1      38.113  30.309  29.882  1.00  0.00     0.031 A 
ATOM     40  C   UNL A   1      39.213  29.443  29.299  1.00  0.00     0.074 A 
ATOM     41  C   UNL A   1      38.315  30.817  31.118  1.00  0.00     0.049 A 
ATOM     42  N   UNL A   1      40.220  28.853  29.902  1.00  0.00    -0.248 NA
ATOM     43  C   UNL A   1      39.170  29.203  27.849  1.00  0.00     0.031 C 
ATOM     44  C   UNL A   1      37.420  31.736  31.820  1.00  0.00     0.029 A 
ATOM     45  N   UNL A   1      39.362  30.650  32.001  1.00  0.00    -0.354 N 
ATOM     46  C   UNL A   1      40.887  28.128  28.918  1.00  0.00     0.074 A 
ATOM     47  C   UNL A   1      40.170  28.348  27.681  1.00  0.00     0.031 C 
ATOM     48  C   UNL A   1      37.985  32.111  32.977  1.00  0.00     0.029 A 
ATOM     49  C   UNL A   1      39.212  31.348  33.178  1.00  0.00     0.049 A 
ATOM     50  H   UNL A   1      40.144  30.085  31.808  1.00  0.00     0.167 HD
ATOM     51  C   UNL A   1      41.993  27.350  29.032  1.00  0.00     0.037 A 
ATOM     52  C   UNL A   1      39.924  31.334  34.323  1.00  0.00     0.037 A 
ATOM     53  C   UNL A   1      42.764  27.187  30.239  1.00  0.00     0.049 A 
ATOM     54  C   UNL A   1      41.105  30.411  34.454  1.00  0.00     0.074 A 
ATOM     55  C   UNL A   1      43.875  26.387  30.457  1.00  0.00     0.029 A 
ATOM     56  N   UNL A   1      42.529  27.867  31.424  1.00  0.00    -0.354 N 
ATOM     57  N   UNL A   1      41.638  29.616  33.562  1.00  0.00    -0.248 NA
ATOM     58  C   UNL A   1      41.762  30.358  35.770  1.00  0.00     0.031 C 
ATOM     59  C   UNL A   1      44.289  26.555  31.783  1.00  0.00     0.029 A 
ATOM     60  C   UNL A   1      43.467  27.496  32.378  1.00  0.00     0.049 A 
ATOM     61  H   UNL A   1      41.804  28.516  31.568  1.00  0.00     0.167 HD
ATOM     62  C   UNL A   1      42.689  28.973  34.201  1.00  0.00     0.074 A 
ATOM     63  C   UNL A   1      42.742  29.494  35.550  1.00  0.00     0.031 C 
ATOM     64  C   UNL A   1      43.525  28.023  33.716  1.00  0.00     0.037 A 
BRANCH  51  65
ATOM     65  C   UNL A   1      42.423  26.562  27.825  1.00  0.00     0.064 A 
ATOM     66  C   UNL A   1      41.886  25.304  27.519  1.00  0.00     0.173 A 
ATOM     67  C   UNL A   1      43.358  27.108  26.928  1.00  0.00     0.173 A 
ATOM     68  F   UNL A   1      40.995  24.732  28.342  1.00  0.00    -0.203 F 
ATOM     69  C   UNL A   1      42.287  24.611  26.378  1.00  0.00     0.198 A 
ATOM     70  C   UNL A   1      43.731  26.428  25.773  1.00  0.00     0.198 A 
ATOM     71  F   UNL A   1      43.893  28.316  27.163  1.00  0.00    -0.203 F 
ATOM     72  F   UNL A   1      41.792  23.390  26.128  1.00  0.00    -0.200 F 
ATOM     73  C   UNL A   1      43.202  25.177  25.503  1.00  0.00     0.200 A 
ATOM     74  F   UNL A   1      44.600  26.987  24.919  1.00  0.00    -0.200 F 
ATOM     75  F   UNL A   1      43.577  24.513  24.400  1.00  0.00    -0.200 F 
ENDBRANCH  51  65
BRANCH  52  76
ATOM     76  C   UNL A   1      39.476  32.151  35.487  1.00  0.00     0.064 A 
ATOM     77  C   UNL A   1      38.573  31.645  36.431  1.00  0.00     0.173 A 
ATOM     78  C   UNL A   1      39.930  33.468  35.663  1.00  0.00     0.173 A 
ATOM     79  F   UNL A   1      38.078  30.407  36.290  1.00  0.00    -0.203 F 
ATOM     80  C   UNL A   1      38.136  32.427  37.500  1.00  0.00     0.198 A 
ATOM     81  C   UNL A   1      39.528  34.232  36.755  1.00  0.00     0.198 A 
ATOM     82  F   UNL A   1      40.785  34.009  34.783  1.00  0.00    -0.203 F 
ATOM     83  F   UNL A   1      37.230  31.940  38.359  1.00  0.00    -0.200 F 
ATOM     84  C   UNL A   1      38.623  33.715  37.667  1.00  0.00     0.200 A 
ATOM     85  F   UNL A   1      40.018  35.469  36.920  1.00  0.00    -0.200 F 
ATOM     86  F   UNL A   1      38.214  34.461  38.703  1.00  0.00    -0.200 F 
ENDBRANCH  52  76
BRANCH  64  87
ATOM     87  C   UNL A   1      44.596  27.510  34.636  1.00  0.00     0.064 A 
ATOM     88  C   UNL A   1      44.397  26.373  35.433  1.00  0.00     0.173 A 
ATOM     89  C   UNL A   1      45.843  28.149  34.703  1.00  0.00     0.173 A 
ATOM     90  F   UNL A   1      43.216  25.737  35.420  1.00  0.00    -0.203 F 
ATOM     91  C   UNL A   1      45.398  25.911  36.285  1.00  0.00     0.198 A 
ATOM     92  C   UNL A   1      46.851  27.668  35.535  1.00  0.00     0.198 A 
ATOM     93  F   UNL A   1      46.085  29.239  33.959  1.00  0.00    -0.203 F 
ATOM     94  F   UNL A   1      45.168  24.853  37.075  1.00  0.00    -0.200 F 
ATOM     95  C   UNL A   1      46.626  26.555  36.330  1.00  0.00     0.200 A 
ATOM     96  F   UNL A   1      48.039  28.285  35.570  1.00  0.00    -0.200 F 
ATOM     97  F   UNL A   1      47.588  26.108  37.148  1.00  0.00    -0.200 F 
ENDBRANCH  64  87
ENDBRANCH  38  39
ENDBRANCH  31  33
ENDBRANCH  30  31
ENDBRANCH  29  30
ENDBRANCH  28  29
ENDBRANCH   1  28
TORSDOF 16
ENDMDL
