MODEL 1
REMARK VINA RESULT:     -12.5      0.000      0.000
REMARK SMILES O=C(Cc1ccc(-c2ccn(C(F)F)c(=O)c2)cc1)OCCOC(=O)c1ccc(-c2c3nc(c(-c4c(F)c(F)c(F)c(F)c4F)c4ccc([nH]4)c(-c4c(F)c(F)c(F)c(F)c4F)c4nc(c(-c5c(F)c(F)c(F)c(F)c5F)c5ccc2[nH]5)C=C4)C=C3)cc1
REMARK SMILES IDX 21 1 20 2 2 3 1 4 3 5 4 6 5 7 19 8 6 9 18 10 7 11 8 12 9 13
REMARK SMILES IDX 17 14 10 15 15 16 11 17 16 18 12 19 13 20 14 21 22 22 23 23
REMARK SMILES IDX 24 24 25 25 26 26 27 27 88 28 28 29 87 30 29 31 30 32 31 33
REMARK SMILES IDX 81 34 32 35 86 36 80 37 82 38 33 39 85 40 79 41 78 42 34 44
REMARK SMILES IDX 66 45 46 46 65 47 47 48 50 49 64 50 83 51 48 52 49 53 63 55
REMARK SMILES IDX 84 56 51 57 35 58 36 59 44 60 37 61 38 62 42 63 45 64 39 65
REMARK SMILES IDX 40 66 43 67 41 68 67 69 68 70 76 71 69 72 70 73 74 74 77 75
REMARK SMILES IDX 71 76 72 77 75 78 73 79 52 80 53 81 61 82 54 83 55 84 59 85
REMARK SMILES IDX 62 86 56 87 57 88 60 89 58 90
REMARK H PARENT 82 43 50 54
REMARK Flexibility Score: inf
ROOT
ATOM      1  C   UNL A   1      42.947  20.158  26.112  1.00  0.00     0.274 C 
ENDROOT
BRANCH   1   2
ATOM      2  O   UNL A   1      41.748  19.831  25.376  1.00  0.00    -0.462 OA
BRANCH   2   3
ATOM      3  C   UNL A   1      40.479  19.957  25.827  1.00  0.00     0.310 C 
ATOM      4  O   UNL A   1      39.673  19.041  25.667  1.00  0.00    -0.252 OA
BRANCH   3   5
ATOM      5  C   UNL A   1      40.066  21.225  26.532  1.00  0.00     0.158 C 
BRANCH   5   6
ATOM      6  C   UNL A   1      38.810  21.885  26.037  1.00  0.00    -0.037 A 
ATOM      7  C   UNL A   1      38.513  23.196  26.452  1.00  0.00     0.005 A 
ATOM      8  C   UNL A   1      37.974  21.248  25.120  1.00  0.00     0.005 A 
ATOM      9  C   UNL A   1      37.387  23.857  25.962  1.00  0.00     0.009 A 
ATOM     10  C   UNL A   1      36.849  21.905  24.635  1.00  0.00     0.009 A 
ATOM     11  C   UNL A   1      36.555  23.214  25.044  1.00  0.00    -0.018 A 
BRANCH  11  12
ATOM     12  C   UNL A   1      35.421  23.889  24.404  1.00  0.00    -0.011 A 
ATOM     13  C   UNL A   1      34.631  24.900  25.075  1.00  0.00     0.027 A 
ATOM     14  C   UNL A   1      35.009  23.399  23.223  1.00  0.00     0.080 A 
ATOM     15  C   UNL A   1      33.431  25.242  24.592  1.00  0.00     0.095 A 
ATOM     16  C   UNL A   1      33.703  23.812  22.646  1.00  0.00     0.255 A 
ATOM     17  N   UNL A   1      32.952  24.682  23.422  1.00  0.00    -0.258 N 
ATOM     18  O   UNL A   1      33.360  23.328  21.574  1.00  0.00    -0.269 OA
BRANCH  17  19
ATOM     19  C   UNL A   1      31.607  24.944  22.984  1.00  0.00     0.451 C 
ATOM     20  F   UNL A   1      31.585  25.476  21.740  1.00  0.00    -0.185 F 
ATOM     21  F   UNL A   1      30.882  23.797  22.965  1.00  0.00    -0.185 F 
ENDBRANCH  17  19
ENDBRANCH  11  12
ENDBRANCH   5   6
ENDBRANCH   3   5
ENDBRANCH   2   3
ENDBRANCH   1   2
BRANCH   1  22
ATOM     22  C   UNL A   1      43.728  21.276  25.423  1.00  0.00     0.275 C 
BRANCH  22  23
ATOM     23  O   UNL A   1      42.937  22.479  25.399  1.00  0.00    -0.458 OA
BRANCH  23  24
ATOM     24  C   UNL A   1      43.612  23.639  25.203  1.00  0.00     0.338 C 
ATOM     25  O   UNL A   1      44.366  23.905  24.286  1.00  0.00    -0.246 OA
BRANCH  24  26
ATOM     26  C   UNL A   1      43.097  24.637  26.168  1.00  0.00     0.060 A 
ATOM     27  C   UNL A   1      43.566  25.956  26.074  1.00  0.00     0.016 A 
ATOM     28  C   UNL A   1      42.102  24.307  27.094  1.00  0.00     0.016 A 
ATOM     29  C   UNL A   1      43.047  26.944  26.911  1.00  0.00     0.010 A 
ATOM     30  C   UNL A   1      41.595  25.293  27.941  1.00  0.00     0.010 A 
ATOM     31  C   UNL A   1      42.079  26.610  27.867  1.00  0.00    -0.014 A 
BRANCH  31  32
ATOM     32  C   UNL A   1      41.696  27.566  28.929  1.00  0.00     0.031 A 
ATOM     33  C   UNL A   1      42.451  27.518  30.224  1.00  0.00     0.074 A 
ATOM     34  C   UNL A   1      40.653  28.401  28.781  1.00  0.00     0.049 A 
ATOM     35  N   UNL A   1      42.218  28.141  31.349  1.00  0.00    -0.248 NA
ATOM     36  C   UNL A   1      43.622  26.628  30.254  1.00  0.00     0.031 C 
ATOM     37  C   UNL A   1      39.853  28.551  27.569  1.00  0.00     0.029 A 
ATOM     38  N   UNL A   1      40.070  29.258  29.682  1.00  0.00    -0.354 N 
ATOM     39  C   UNL A   1      43.205  27.710  32.224  1.00  0.00     0.074 A 
ATOM     40  C   UNL A   1      44.024  26.757  31.509  1.00  0.00     0.031 C 
ATOM     41  C   UNL A   1      38.857  29.422  27.813  1.00  0.00     0.029 A 
ATOM     42  C   UNL A   1      38.936  29.865  29.205  1.00  0.00     0.049 A 
ATOM     43  H   UNL A   1      40.433  29.421  30.583  1.00  0.00     0.167 HD
ATOM     44  C   UNL A   1      43.408  28.074  33.512  1.00  0.00     0.037 A 
ATOM     45  C   UNL A   1      38.048  30.659  29.834  1.00  0.00     0.037 A 
ATOM     46  C   UNL A   1      42.585  29.009  34.227  1.00  0.00     0.049 A 
ATOM     47  C   UNL A   1      38.260  31.013  31.284  1.00  0.00     0.074 A 
ATOM     48  C   UNL A   1      42.726  29.469  35.523  1.00  0.00     0.029 A 
ATOM     49  N   UNL A   1      41.452  29.616  33.705  1.00  0.00    -0.354 N 
ATOM     50  N   UNL A   1      39.221  30.640  32.095  1.00  0.00    -0.248 NA
ATOM     51  C   UNL A   1      37.265  31.898  31.907  1.00  0.00     0.031 C 
ATOM     52  C   UNL A   1      41.649  30.318  35.803  1.00  0.00     0.029 A 
ATOM     53  C   UNL A   1      40.866  30.424  34.664  1.00  0.00     0.049 A 
ATOM     54  H   UNL A   1      41.114  29.490  32.788  1.00  0.00     0.167 HD
ATOM     55  C   UNL A   1      38.964  31.264  33.309  1.00  0.00     0.074 A 
ATOM     56  C   UNL A   1      37.755  32.042  33.131  1.00  0.00     0.031 C 
ATOM     57  C   UNL A   1      39.668  31.200  34.466  1.00  0.00     0.037 A 
BRANCH  44  58
ATOM     58  C   UNL A   1      44.548  27.419  34.229  1.00  0.00     0.064 A 
ATOM     59  C   UNL A   1      45.825  28.000  34.270  1.00  0.00     0.173 A 
ATOM     60  C   UNL A   1      44.366  26.182  34.864  1.00  0.00     0.173 A 
ATOM     61  F   UNL A   1      46.053  29.171  33.659  1.00  0.00    -0.203 F 
ATOM     62  C   UNL A   1      46.886  27.348  34.891  1.00  0.00     0.198 A 
ATOM     63  C   UNL A   1      45.423  25.546  35.507  1.00  0.00     0.198 A 
ATOM     64  F   UNL A   1      43.165  25.584  34.849  1.00  0.00    -0.203 F 
ATOM     65  F   UNL A   1      48.111  27.891  34.865  1.00  0.00    -0.200 F 
ATOM     66  C   UNL A   1      46.684  26.123  35.511  1.00  0.00     0.200 A 
ATOM     67  F   UNL A   1      45.226  24.365  36.110  1.00  0.00    -0.200 F 
ATOM     68  F   UNL A   1      47.709  25.492  36.100  1.00  0.00    -0.200 F 
ENDBRANCH  44  58
BRANCH  45  69
ATOM     69  C   UNL A   1      36.859  31.157  29.097  1.00  0.00     0.064 A 
ATOM     70  C   UNL A   1      36.779  32.489  28.670  1.00  0.00     0.173 A 
ATOM     71  C   UNL A   1      35.779  30.311  28.805  1.00  0.00     0.173 A 
ATOM     72  F   UNL A   1      37.774  33.343  28.952  1.00  0.00    -0.203 F 
ATOM     73  C   UNL A   1      35.660  32.959  27.985  1.00  0.00     0.198 A 
ATOM     74  C   UNL A   1      34.671  30.775  28.100  1.00  0.00     0.198 A 
ATOM     75  F   UNL A   1      35.807  29.029  29.196  1.00  0.00    -0.203 F 
ATOM     76  F   UNL A   1      35.593  34.245  27.618  1.00  0.00    -0.200 F 
ATOM     77  C   UNL A   1      34.610  32.100  27.694  1.00  0.00     0.200 A 
ATOM     78  F   UNL A   1      33.662  29.941  27.817  1.00  0.00    -0.200 F 
ATOM     79  F   UNL A   1      33.535  32.551  27.033  1.00  0.00    -0.200 F 
ENDBRANCH  45  69
BRANCH  57  80
ATOM     80  C   UNL A   1      39.182  32.021  35.626  1.00  0.00     0.064 A 
ATOM     81  C   UNL A   1      38.359  31.473  36.620  1.00  0.00     0.173 A 
ATOM     82  C   UNL A   1      39.616  33.345  35.785  1.00  0.00     0.173 A 
ATOM     83  F   UNL A   1      37.909  30.215  36.507  1.00  0.00    -0.203 F 
ATOM     84  C   UNL A   1      37.982  32.227  37.729  1.00  0.00     0.198 A 
ATOM     85  C   UNL A   1      39.256  34.087  36.906  1.00  0.00     0.198 A 
ATOM     86  F   UNL A   1      40.411  33.912  34.864  1.00  0.00    -0.203 F 
ATOM     87  F   UNL A   1      37.174  31.693  38.656  1.00  0.00    -0.200 F 
ATOM     88  C   UNL A   1      38.438  33.528  37.876  1.00  0.00     0.200 A 
ATOM     89  F   UNL A   1      39.710  35.340  37.053  1.00  0.00    -0.200 F 
ATOM     90  F   UNL A   1      38.088  34.245  38.953  1.00  0.00    -0.200 F 
ENDBRANCH  57  80
ENDBRANCH  31  32
ENDBRANCH  24  26
ENDBRANCH  23  24
ENDBRANCH  22  23
ENDBRANCH   1  22
TORSDOF 14
ENDMDL
MODEL 2
REMARK VINA RESULT:     -12.5      5.133     11.223
REMARK SMILES O=C(Cc1ccc(-c2ccn(C(F)F)c(=O)c2)cc1)OCCOC(=O)c1ccc(-c2c3nc(c(-c4c(F)c(F)c(F)c(F)c4F)c4ccc([nH]4)c(-c4c(F)c(F)c(F)c(F)c4F)c4nc(c(-c5c(F)c(F)c(F)c(F)c5F)c5ccc2[nH]5)C=C4)C=C3)cc1
REMARK SMILES IDX 21 1 20 2 2 3 1 4 3 5 4 6 5 7 19 8 6 9 18 10 7 11 8 12 9 13
REMARK SMILES IDX 17 14 10 15 15 16 11 17 16 18 12 19 13 20 14 21 22 22 23 23
REMARK SMILES IDX 24 24 25 25 26 26 27 27 88 28 28 29 87 30 29 31 30 32 31 33
REMARK SMILES IDX 81 34 32 35 86 36 80 37 82 38 33 39 85 40 79 41 78 42 34 44
REMARK SMILES IDX 66 45 46 46 65 47 47 48 50 49 64 50 83 51 48 52 49 53 63 55
REMARK SMILES IDX 84 56 51 57 35 58 36 59 44 60 37 61 38 62 42 63 45 64 39 65
REMARK SMILES IDX 40 66 43 67 41 68 67 69 68 70 76 71 69 72 70 73 74 74 77 75
REMARK SMILES IDX 71 76 72 77 75 78 73 79 52 80 53 81 61 82 54 83 55 84 59 85
REMARK SMILES IDX 62 86 56 87 57 88 60 89 58 90
REMARK H PARENT 82 43 50 54
REMARK Flexibility Score: inf
ROOT
ATOM      1  C   UNL A   1      33.917  34.367  28.605  1.00  0.00     0.274 C 
ENDROOT
BRANCH   1   2
ATOM      2  O   UNL A   1      33.017  34.666  29.694  1.00  0.00    -0.462 OA
BRANCH   2   3
ATOM      3  C   UNL A   1      33.121  35.710  30.547  1.00  0.00     0.310 C 
ATOM      4  O   UNL A   1      32.954  36.859  30.140  1.00  0.00    -0.252 OA
BRANCH   3   5
ATOM      5  C   UNL A   1      33.436  35.451  32.000  1.00  0.00     0.158 C 
BRANCH   5   6
ATOM      6  C   UNL A   1      34.532  34.461  32.279  1.00  0.00    -0.037 A 
ATOM      7  C   UNL A   1      35.742  34.914  32.833  1.00  0.00     0.005 A 
ATOM      8  C   UNL A   1      34.341  33.096  32.065  1.00  0.00     0.005 A 
ATOM      9  C   UNL A   1      36.754  34.012  33.159  1.00  0.00     0.009 A 
ATOM     10  C   UNL A   1      35.351  32.197  32.386  1.00  0.00     0.009 A 
ATOM     11  C   UNL A   1      36.556  32.646  32.944  1.00  0.00    -0.018 A 
BRANCH  11  12
ATOM     12  C   UNL A   1      37.530  31.634  33.368  1.00  0.00    -0.011 A 
ATOM     13  C   UNL A   1      38.865  31.971  33.814  1.00  0.00     0.027 A 
ATOM     14  C   UNL A   1      37.208  30.350  33.144  1.00  0.00     0.080 A 
ATOM     15  C   UNL A   1      39.811  31.026  33.871  1.00  0.00     0.095 A 
ATOM     16  C   UNL A   1      38.235  29.281  33.258  1.00  0.00     0.255 A 
ATOM     17  N   UNL A   1      39.518  29.712  33.561  1.00  0.00    -0.258 N 
ATOM     18  O   UNL A   1      37.901  28.124  33.030  1.00  0.00    -0.269 OA
BRANCH  17  19
ATOM     19  C   UNL A   1      40.566  28.728  33.484  1.00  0.00     0.451 C 
ATOM     20  F   UNL A   1      40.484  28.004  32.344  1.00  0.00    -0.185 F 
ATOM     21  F   UNL A   1      41.783  29.327  33.518  1.00  0.00    -0.185 F 
ENDBRANCH  17  19
ENDBRANCH  11  12
ENDBRANCH   5   6
ENDBRANCH   3   5
ENDBRANCH   2   3
ENDBRANCH   1   2
BRANCH   1  22
ATOM     22  C   UNL A   1      33.570  33.026  27.956  1.00  0.00     0.275 C 
BRANCH  22  23
ATOM     23  O   UNL A   1      34.219  31.958  28.670  1.00  0.00    -0.458 OA
BRANCH  23  24
ATOM     24  C   UNL A   1      34.391  30.798  27.990  1.00  0.00     0.338 C 
ATOM     25  O   UNL A   1      33.652  30.322  27.149  1.00  0.00    -0.246 OA
BRANCH  24  26
ATOM     26  C   UNL A   1      35.761  30.306  28.263  1.00  0.00     0.060 A 
ATOM     27  C   UNL A   1      36.022  29.726  29.514  1.00  0.00     0.016 A 
ATOM     28  C   UNL A   1      36.752  30.329  27.277  1.00  0.00     0.016 A 
ATOM     29  C   UNL A   1      37.276  29.176  29.783  1.00  0.00     0.010 A 
ATOM     30  C   UNL A   1      38.010  29.793  27.552  1.00  0.00     0.010 A 
ATOM     31  C   UNL A   1      38.284  29.233  28.812  1.00  0.00    -0.014 A 
BRANCH  31  32
ATOM     32  C   UNL A   1      39.684  28.894  29.148  1.00  0.00     0.031 A 
ATOM     33  C   UNL A   1      40.519  29.942  29.823  1.00  0.00     0.074 A 
ATOM     34  C   UNL A   1      40.229  27.718  28.792  1.00  0.00     0.049 A 
ATOM     35  N   UNL A   1      41.798  29.947  30.088  1.00  0.00    -0.248 NA
ATOM     36  C   UNL A   1      39.808  31.161  30.242  1.00  0.00     0.031 C 
ATOM     37  C   UNL A   1      39.519  26.618  28.147  1.00  0.00     0.029 A 
ATOM     38  N   UNL A   1      41.523  27.274  28.897  1.00  0.00    -0.354 N 
ATOM     39  C   UNL A   1      42.049  31.170  30.692  1.00  0.00     0.074 A 
ATOM     40  C   UNL A   1      40.796  31.891  30.735  1.00  0.00     0.031 C 
ATOM     41  C   UNL A   1      40.397  25.634  27.878  1.00  0.00     0.029 A 
ATOM     42  C   UNL A   1      41.732  26.052  28.307  1.00  0.00     0.049 A 
ATOM     43  H   UNL A   1      42.233  27.783  29.351  1.00  0.00     0.167 HD
ATOM     44  C   UNL A   1      43.221  31.652  31.167  1.00  0.00     0.037 A 
ATOM     45  C   UNL A   1      42.876  25.370  28.109  1.00  0.00     0.037 A 
ATOM     46  C   UNL A   1      44.469  30.943  31.110  1.00  0.00     0.049 A 
ATOM     47  C   UNL A   1      44.182  25.945  28.598  1.00  0.00     0.074 A 
ATOM     48  C   UNL A   1      45.705  31.331  31.592  1.00  0.00     0.029 A 
ATOM     49  N   UNL A   1      44.639  29.700  30.519  1.00  0.00    -0.354 N 
ATOM     50  N   UNL A   1      44.408  27.083  29.210  1.00  0.00    -0.248 NA
ATOM     51  C   UNL A   1      45.392  25.142  28.367  1.00  0.00     0.031 C 
ATOM     52  C   UNL A   1      46.635  30.343  31.249  1.00  0.00     0.029 A 
ATOM     53  C   UNL A   1      45.967  29.318  30.597  1.00  0.00     0.049 A 
ATOM     54  H   UNL A   1      43.921  29.167  30.104  1.00  0.00     0.167 HD
ATOM     55  C   UNL A   1      45.773  27.120  29.462  1.00  0.00     0.074 A 
ATOM     56  C   UNL A   1      46.328  25.889  28.937  1.00  0.00     0.031 C 
ATOM     57  C   UNL A   1      46.500  28.084  30.077  1.00  0.00     0.037 A 
BRANCH  44  58
ATOM     58  C   UNL A   1      43.200  33.032  31.750  1.00  0.00     0.064 A 
ATOM     59  C   UNL A   1      43.351  34.173  30.947  1.00  0.00     0.173 A 
ATOM     60  C   UNL A   1      43.049  33.214  33.132  1.00  0.00     0.173 A 
ATOM     61  F   UNL A   1      43.520  34.050  29.623  1.00  0.00    -0.203 F 
ATOM     62  C   UNL A   1      43.388  35.445  31.514  1.00  0.00     0.198 A 
ATOM     63  C   UNL A   1      43.060  34.487  33.691  1.00  0.00     0.198 A 
ATOM     64  F   UNL A   1      42.905  32.153  33.941  1.00  0.00    -0.203 F 
ATOM     65  F   UNL A   1      43.596  36.516  30.736  1.00  0.00    -0.200 F 
ATOM     66  C   UNL A   1      43.239  35.600  32.884  1.00  0.00     0.200 A 
ATOM     67  F   UNL A   1      42.912  34.637  35.015  1.00  0.00    -0.200 F 
ATOM     68  F   UNL A   1      43.286  36.824  33.429  1.00  0.00    -0.200 F 
ENDBRANCH  44  58
BRANCH  45  69
ATOM     69  C   UNL A   1      42.840  24.069  27.393  1.00  0.00     0.064 A 
ATOM     70  C   UNL A   1      43.116  23.992  26.021  1.00  0.00     0.173 A 
ATOM     71  C   UNL A   1      42.529  22.879  28.065  1.00  0.00     0.173 A 
ATOM     72  F   UNL A   1      43.389  25.108  25.330  1.00  0.00    -0.203 F 
ATOM     73  C   UNL A   1      43.075  22.773  25.347  1.00  0.00     0.198 A 
ATOM     74  C   UNL A   1      42.510  21.658  27.396  1.00  0.00     0.198 A 
ATOM     75  F   UNL A   1      42.253  22.902  29.378  1.00  0.00    -0.203 F 
ATOM     76  F   UNL A   1      43.308  22.730  24.029  1.00  0.00    -0.200 F 
ATOM     77  C   UNL A   1      42.778  21.606  26.036  1.00  0.00     0.200 A 
ATOM     78  F   UNL A   1      42.228  20.533  28.067  1.00  0.00    -0.200 F 
ATOM     79  F   UNL A   1      42.741  20.434  25.388  1.00  0.00    -0.200 F 
ENDBRANCH  45  69
BRANCH  57  80
ATOM     80  C   UNL A   1      47.971  27.843  30.258  1.00  0.00     0.064 A 
ATOM     81  C   UNL A   1      48.471  27.152  31.370  1.00  0.00     0.173 A 
ATOM     82  C   UNL A   1      48.878  28.235  29.262  1.00  0.00     0.173 A 
ATOM     83  F   UNL A   1      47.646  26.766  32.354  1.00  0.00    -0.203 F 
ATOM     84  C   UNL A   1      49.831  26.869  31.481  1.00  0.00     0.198 A 
ATOM     85  C   UNL A   1      50.232  27.930  29.366  1.00  0.00     0.198 A 
ATOM     86  F   UNL A   1      48.447  28.893  28.175  1.00  0.00    -0.203 F 
ATOM     87  F   UNL A   1      50.293  26.228  32.564  1.00  0.00    -0.200 F 
ATOM     88  C   UNL A   1      50.707  27.249  30.476  1.00  0.00     0.200 A 
ATOM     89  F   UNL A   1      51.076  28.286  28.386  1.00  0.00    -0.200 F 
ATOM     90  F   UNL A   1      52.012  26.959  30.577  1.00  0.00    -0.200 F 
ENDBRANCH  57  80
ENDBRANCH  31  32
ENDBRANCH  24  26
ENDBRANCH  23  24
ENDBRANCH  22  23
ENDBRANCH   1  22
TORSDOF 14
ENDMDL
MODEL 3
REMARK VINA RESULT:     -12.4      3.096      5.372
REMARK SMILES O=C(Cc1ccc(-c2ccn(C(F)F)c(=O)c2)cc1)OCCOC(=O)c1ccc(-c2c3nc(c(-c4c(F)c(F)c(F)c(F)c4F)c4ccc([nH]4)c(-c4c(F)c(F)c(F)c(F)c4F)c4nc(c(-c5c(F)c(F)c(F)c(F)c5F)c5ccc2[nH]5)C=C4)C=C3)cc1
REMARK SMILES IDX 21 1 20 2 2 3 1 4 3 5 4 6 5 7 19 8 6 9 18 10 7 11 8 12 9 13
REMARK SMILES IDX 17 14 10 15 15 16 11 17 16 18 12 19 13 20 14 21 22 22 23 23
REMARK SMILES IDX 24 24 25 25 26 26 27 27 88 28 28 29 87 30 29 31 30 32 31 33
REMARK SMILES IDX 81 34 32 35 86 36 80 37 82 38 33 39 85 40 79 41 78 42 34 44
REMARK SMILES IDX 66 45 46 46 65 47 47 48 50 49 64 50 83 51 48 52 49 53 63 55
REMARK SMILES IDX 84 56 51 57 35 58 36 59 44 60 37 61 38 62 42 63 45 64 39 65
REMARK SMILES IDX 40 66 43 67 41 68 67 69 68 70 76 71 69 72 70 73 74 74 77 75
REMARK SMILES IDX 71 76 72 77 75 78 73 79 52 80 53 81 61 82 54 83 55 84 59 85
REMARK SMILES IDX 62 86 56 87 57 88 60 89 58 90
REMARK H PARENT 82 43 50 54
REMARK Flexibility Score: inf
ROOT
ATOM      1  C   UNL A   1      42.333  19.739  25.944  1.00  0.00     0.274 C 
ENDROOT
BRANCH   1   2
ATOM      2  O   UNL A   1      43.291  19.771  24.863  1.00  0.00    -0.462 OA
BRANCH   2   3
ATOM      3  C   UNL A   1      44.546  19.266  24.897  1.00  0.00     0.310 C 
ATOM      4  O   UNL A   1      44.752  18.159  25.391  1.00  0.00    -0.252 OA
BRANCH   3   5
ATOM      5  C   UNL A   1      45.683  20.072  24.321  1.00  0.00     0.158 C 
BRANCH   5   6
ATOM      6  C   UNL A   1      45.902  21.436  24.913  1.00  0.00    -0.037 A 
ATOM      7  C   UNL A   1      46.349  22.481  24.084  1.00  0.00     0.005 A 
ATOM      8  C   UNL A   1      45.600  21.699  26.249  1.00  0.00     0.005 A 
ATOM      9  C   UNL A   1      46.503  23.771  24.590  1.00  0.00     0.009 A 
ATOM     10  C   UNL A   1      45.757  22.984  26.755  1.00  0.00     0.009 A 
ATOM     11  C   UNL A   1      46.198  24.028  25.929  1.00  0.00    -0.018 A 
BRANCH  11  12
ATOM     12  C   UNL A   1      46.228  25.381  26.496  1.00  0.00    -0.011 A 
ATOM     13  C   UNL A   1      46.249  25.632  27.921  1.00  0.00     0.027 A 
ATOM     14  C   UNL A   1      46.040  26.401  25.643  1.00  0.00     0.080 A 
ATOM     15  C   UNL A   1      45.944  26.847  28.391  1.00  0.00     0.095 A 
ATOM     16  C   UNL A   1      45.756  27.769  26.151  1.00  0.00     0.255 A 
ATOM     17  N   UNL A   1      45.663  27.890  27.529  1.00  0.00    -0.258 N 
ATOM     18  O   UNL A   1      45.575  28.667  25.337  1.00  0.00    -0.269 OA
BRANCH  17  19
ATOM     19  C   UNL A   1      45.198  29.153  28.037  1.00  0.00     0.451 C 
ATOM     20  F   UNL A   1      43.881  29.335  27.785  1.00  0.00    -0.185 F 
ATOM     21  F   UNL A   1      45.383  29.223  29.380  1.00  0.00    -0.185 F 
ENDBRANCH  17  19
ENDBRANCH  11  12
ENDBRANCH   5   6
ENDBRANCH   3   5
ENDBRANCH   2   3
ENDBRANCH   1   2
BRANCH   1  22
ATOM     22  C   UNL A   1      42.294  21.076  26.684  1.00  0.00     0.275 C 
BRANCH  22  23
ATOM     23  O   UNL A   1      41.594  22.052  25.889  1.00  0.00    -0.458 OA
BRANCH  23  24
ATOM     24  C   UNL A   1      42.319  23.117  25.470  1.00  0.00     0.338 C 
ATOM     25  O   UNL A   1      42.978  23.204  24.451  1.00  0.00    -0.246 OA
BRANCH  24  26
ATOM     26  C   UNL A   1      41.989  24.267  26.343  1.00  0.00     0.060 A 
ATOM     27  C   UNL A   1      42.703  25.462  26.166  1.00  0.00     0.016 A 
ATOM     28  C   UNL A   1      40.935  24.205  27.260  1.00  0.00     0.016 A 
ATOM     29  C   UNL A   1      42.370  26.593  26.912  1.00  0.00     0.010 A 
ATOM     30  C   UNL A   1      40.612  25.332  28.015  1.00  0.00     0.010 A 
ATOM     31  C   UNL A   1      41.340  26.524  27.860  1.00  0.00    -0.014 A 
BRANCH  31  32
ATOM     32  C   UNL A   1      41.131  27.616  28.836  1.00  0.00     0.031 A 
ATOM     33  C   UNL A   1      42.007  27.649  30.053  1.00  0.00     0.074 A 
ATOM     34  C   UNL A   1      40.136  28.508  28.691  1.00  0.00     0.049 A 
ATOM     35  N   UNL A   1      41.931  28.405  31.116  1.00  0.00    -0.248 NA
ATOM     36  C   UNL A   1      43.114  26.679  30.076  1.00  0.00     0.031 C 
ATOM     37  C   UNL A   1      39.230  28.588  27.549  1.00  0.00     0.029 A 
ATOM     38  N   UNL A   1      39.706  29.499  29.538  1.00  0.00    -0.354 N 
ATOM     39  C   UNL A   1      42.970  27.996  31.939  1.00  0.00     0.074 A 
ATOM     40  C   UNL A   1      43.648  26.911  31.265  1.00  0.00     0.031 C 
ATOM     41  C   UNL A   1      38.324  29.555  27.782  1.00  0.00     0.029 A 
ATOM     42  C   UNL A   1      38.572  30.137  29.101  1.00  0.00     0.049 A 
ATOM     43  H   UNL A   1      40.167  29.730  30.377  1.00  0.00     0.167 HD
ATOM     44  C   UNL A   1      43.325  28.480  33.152  1.00  0.00     0.037 A 
ATOM     45  C   UNL A   1      37.806  31.060  29.715  1.00  0.00     0.037 A 
ATOM     46  C   UNL A   1      42.642  29.547  33.829  1.00  0.00     0.049 A 
ATOM     47  C   UNL A   1      38.187  31.551  31.089  1.00  0.00     0.074 A 
ATOM     48  C   UNL A   1      42.943  30.130  35.045  1.00  0.00     0.029 A 
ATOM     49  N   UNL A   1      41.505  30.180  33.348  1.00  0.00    -0.354 N 
ATOM     50  N   UNL A   1      39.197  31.194  31.845  1.00  0.00    -0.248 NA
ATOM     51  C   UNL A   1      37.320  32.572  31.696  1.00  0.00     0.031 C 
ATOM     52  C   UNL A   1      41.959  31.085  35.325  1.00  0.00     0.029 A 
ATOM     53  C   UNL A   1      41.074  31.129  34.259  1.00  0.00     0.049 A 
ATOM     54  H   UNL A   1      41.069  29.983  32.487  1.00  0.00     0.167 HD
ATOM     55  C   UNL A   1      39.105  31.962  32.999  1.00  0.00     0.074 A 
ATOM     56  C   UNL A   1      37.939  32.808  32.845  1.00  0.00     0.031 C 
ATOM     57  C   UNL A   1      39.916  31.970  34.085  1.00  0.00     0.037 A 
BRANCH  44  58
ATOM     58  C   UNL A   1      44.486  27.819  33.832  1.00  0.00     0.064 A 
ATOM     59  C   UNL A   1      45.800  28.277  33.657  1.00  0.00     0.173 A 
ATOM     60  C   UNL A   1      44.281  26.698  34.650  1.00  0.00     0.173 A 
ATOM     61  F   UNL A   1      46.048  29.332  32.866  1.00  0.00    -0.203 F 
ATOM     62  C   UNL A   1      46.872  27.614  34.248  1.00  0.00     0.198 A 
ATOM     63  C   UNL A   1      45.352  26.055  35.261  1.00  0.00     0.198 A 
ATOM     64  F   UNL A   1      43.043  26.220  34.845  1.00  0.00    -0.203 F 
ATOM     65  F   UNL A   1      48.125  28.031  34.019  1.00  0.00    -0.200 F 
ATOM     66  C   UNL A   1      46.647  26.506  35.052  1.00  0.00     0.200 A 
ATOM     67  F   UNL A   1      45.133  24.987  36.041  1.00  0.00    -0.200 F 
ATOM     68  F   UNL A   1      47.680  25.863  35.613  1.00  0.00    -0.200 F 
ENDBRANCH  44  58
BRANCH  45  69
ATOM     69  C   UNL A   1      36.585  31.567  29.039  1.00  0.00     0.064 A 
ATOM     70  C   UNL A   1      35.474  30.737  28.835  1.00  0.00     0.173 A 
ATOM     71  C   UNL A   1      36.504  32.891  28.583  1.00  0.00     0.173 A 
ATOM     72  F   UNL A   1      35.517  29.455  29.227  1.00  0.00    -0.203 F 
ATOM     73  C   UNL A   1      34.331  31.211  28.194  1.00  0.00     0.198 A 
ATOM     74  C   UNL A   1      35.353  33.370  27.963  1.00  0.00     0.198 A 
ATOM     75  F   UNL A   1      37.543  33.723  28.752  1.00  0.00    -0.203 F 
ATOM     76  F   UNL A   1      33.296  30.387  27.980  1.00  0.00    -0.200 F 
ATOM     77  C   UNL A   1      34.268  32.528  27.764  1.00  0.00     0.200 A 
ATOM     78  F   UNL A   1      35.295  34.645  27.555  1.00  0.00    -0.200 F 
ATOM     79  F   UNL A   1      33.168  32.983  27.150  1.00  0.00    -0.200 F 
ENDBRANCH  45  69
BRANCH  57  80
ATOM     80  C   UNL A   1      39.605  32.945  35.183  1.00  0.00     0.064 A 
ATOM     81  C   UNL A   1      38.845  32.574  36.301  1.00  0.00     0.173 A 
ATOM     82  C   UNL A   1      40.146  34.239  35.153  1.00  0.00     0.173 A 
ATOM     83  F   UNL A   1      38.297  31.353  36.371  1.00  0.00    -0.203 F 
ATOM     84  C   UNL A   1      38.632  33.470  37.347  1.00  0.00     0.198 A 
ATOM     85  C   UNL A   1      39.951  35.122  36.211  1.00  0.00     0.198 A 
ATOM     86  F   UNL A   1      40.887  34.638  34.108  1.00  0.00    -0.203 F 
ATOM     87  F   UNL A   1      37.882  33.104  38.397  1.00  0.00    -0.200 F 
ATOM     88  C   UNL A   1      39.193  34.737  37.306  1.00  0.00     0.200 A 
ATOM     89  F   UNL A   1      40.506  36.342  36.175  1.00  0.00    -0.200 F 
ATOM     90  F   UNL A   1      39.001  35.590  38.322  1.00  0.00    -0.200 F 
ENDBRANCH  57  80
ENDBRANCH  31  32
ENDBRANCH  24  26
ENDBRANCH  23  24
ENDBRANCH  22  23
ENDBRANCH   1  22
TORSDOF 14
ENDMDL
