MODEL 1
REMARK VINA RESULT:     -12.2      0.000      0.000
REMARK SMILES Cc1cccc(C[C@H](CC(=O)OCCOC(=O)c2ccc(-c3c4nc(c(-c5c(F)c(F)c(F)c(F)c5F)c5ccc([nH]5)c(-c5c(F)c(F)c(F)c(F)c5F)c5nc(c(-c6c(F)c(F)c(F)c(F)c6F)c6ccc3[nH]6)C=C5)C=C4)cc2)NC(=O)OC(C)(C)C)c1
REMARK SMILES IDX 13 1 12 2 10 3 11 4 9 5 8 6 7 7 6 8 1 9 2 10 3 11 89 12 4 13
REMARK SMILES IDX 5 14 81 15 82 16 83 18 84 19 85 20 86 21 87 22 88 23 14 24
REMARK SMILES IDX 15 25 16 26 17 27 18 28 19 29 80 30 20 31 79 32 21 33 22 34
REMARK SMILES IDX 23 35 73 36 24 37 78 38 72 39 74 40 25 41 77 42 71 43 70 44
REMARK SMILES IDX 26 46 58 47 38 48 57 49 39 50 42 51 56 52 75 53 40 54 41 55
REMARK SMILES IDX 55 57 76 58 43 59 27 60 28 61 36 62 29 63 30 64 34 65 37 66
REMARK SMILES IDX 31 67 32 68 35 69 33 70 59 71 60 72 68 73 61 74 62 75 66 76
REMARK SMILES IDX 69 77 63 78 64 79 67 80 65 81 44 82 45 83 53 84 46 85 47 86
REMARK SMILES IDX 51 87 54 88 48 89 49 90 52 91 50 92
REMARK H PARENT 81 17 74 45 42 56
REMARK Flexibility Score: inf
ROOT
ATOM      1  C   UNL A   1      37.106  22.509  25.040  1.00  0.00     0.274 C 
ENDROOT
BRANCH   1   2
ATOM      2  O   UNL A   1      36.108  21.973  25.915  1.00  0.00    -0.462 OA
BRANCH   2   3
ATOM      3  C   UNL A   1      34.803  22.047  25.562  1.00  0.00     0.308 C 
ATOM      4  O   UNL A   1      34.218  21.246  24.854  1.00  0.00    -0.252 OA
BRANCH   3   5
ATOM      5  C   UNL A   1      34.184  23.283  26.183  1.00  0.00     0.148 C 
BRANCH   5   6
ATOM      6  C   UNL A   1      33.810  24.367  25.174  1.00  0.00     0.101 C 
BRANCH   6   7
ATOM      7  C   UNL A   1      34.353  25.764  25.545  1.00  0.00     0.061 C 
BRANCH   7   8
ATOM      8  C   UNL A   1      33.447  26.758  26.222  1.00  0.00    -0.046 A 
ATOM      9  C   UNL A   1      33.602  30.429  27.261  1.00  0.00     0.044 C 
ATOM     10  C   UNL A   1      33.092  29.043  27.004  1.00  0.00    -0.051 A 
ATOM     11  C   UNL A   1      31.742  28.748  27.212  1.00  0.00     0.003 A 
ATOM     12  C   UNL A   1      33.942  28.039  26.523  1.00  0.00     0.007 A 
ATOM     13  C   UNL A   1      31.242  27.485  26.914  1.00  0.00     0.001 A 
ATOM     14  C   UNL A   1      32.086  26.505  26.403  1.00  0.00     0.004 A 
ENDBRANCH   7   8
ENDBRANCH   6   7
BRANCH   6  15
ATOM     15  N   UNL A   1      34.228  23.885  23.867  1.00  0.00    -0.318 N 
ATOM     16  C   UNL A   1      33.502  23.993  22.712  1.00  0.00     0.407 C 
ATOM     17  H   UNL A   1      35.106  23.445  23.808  1.00  0.00     0.167 HD
ATOM     18  O   UNL A   1      33.861  23.451  21.691  1.00  0.00    -0.225 OA
BRANCH  16  19
ATOM     19  O   UNL A   1      32.423  24.798  22.869  1.00  0.00    -0.444 OA
BRANCH  19  20
ATOM     20  C   UNL A   1      32.333  26.056  22.162  1.00  0.00     0.106 C 
ATOM     21  C   UNL A   1      33.609  26.882  22.357  1.00  0.00     0.056 C 
ATOM     22  C   UNL A   1      31.995  25.830  20.689  1.00  0.00     0.056 C 
ATOM     23  C   UNL A   1      31.168  26.804  22.832  1.00  0.00     0.056 C 
ENDBRANCH  19  20
ENDBRANCH  16  19
ENDBRANCH   6  15
ENDBRANCH   5   6
ENDBRANCH   3   5
ENDBRANCH   2   3
ENDBRANCH   1   2
BRANCH   1  24
ATOM     24  C   UNL A   1      37.880  23.598  25.815  1.00  0.00     0.275 C 
BRANCH  24  25
ATOM     25  O   UNL A   1      38.993  23.171  26.652  1.00  0.00    -0.458 OA
BRANCH  25  26
ATOM     26  C   UNL A   1      40.091  23.971  26.760  1.00  0.00     0.338 C 
ATOM     27  O   UNL A   1      41.215  23.678  26.394  1.00  0.00    -0.246 OA
BRANCH  26  28
ATOM     28  C   UNL A   1      39.699  25.291  27.323  1.00  0.00     0.060 A 
ATOM     29  C   UNL A   1      39.251  25.413  28.652  1.00  0.00     0.016 A 
ATOM     30  C   UNL A   1      40.103  26.412  26.610  1.00  0.00     0.016 A 
ATOM     31  C   UNL A   1      39.352  26.651  29.308  1.00  0.00     0.010 A 
ATOM     32  C   UNL A   1      40.389  27.553  27.309  1.00  0.00     0.010 A 
ATOM     33  C   UNL A   1      39.982  27.702  28.646  1.00  0.00    -0.014 A 
BRANCH  33  34
ATOM     34  C   UNL A   1      40.047  29.100  29.061  1.00  0.00     0.031 A 
ATOM     35  C   UNL A   1      38.983  30.105  28.875  1.00  0.00     0.074 A 
ATOM     36  C   UNL A   1      41.027  29.253  29.979  1.00  0.00     0.049 A 
ATOM     37  N   UNL A   1      39.008  31.260  29.444  1.00  0.00    -0.248 NA
ATOM     38  C   UNL A   1      37.817  29.940  28.022  1.00  0.00     0.031 C 
ATOM     39  C   UNL A   1      41.202  30.216  31.049  1.00  0.00     0.029 A 
ATOM     40  N   UNL A   1      42.205  28.485  30.021  1.00  0.00    -0.354 N 
ATOM     41  C   UNL A   1      37.796  31.883  29.247  1.00  0.00     0.074 A 
ATOM     42  C   UNL A   1      37.115  31.051  28.290  1.00  0.00     0.031 C 
ATOM     43  C   UNL A   1      42.505  30.216  31.396  1.00  0.00     0.029 A 
ATOM     44  C   UNL A   1      43.202  29.388  30.415  1.00  0.00     0.049 A 
ATOM     45  H   UNL A   1      42.307  27.527  29.819  1.00  0.00     0.167 HD
ATOM     46  C   UNL A   1      37.521  32.987  30.004  1.00  0.00     0.037 A 
ATOM     47  C   UNL A   1      44.032  29.844  29.426  1.00  0.00     0.037 A 
ATOM     48  C   UNL A   1      38.761  33.477  30.611  1.00  0.00     0.049 A 
ATOM     49  C   UNL A   1      43.859  31.327  29.165  1.00  0.00     0.074 A 
ATOM     50  C   UNL A   1      39.354  33.370  31.856  1.00  0.00     0.029 A 
ATOM     51  N   UNL A   1      39.747  33.933  29.753  1.00  0.00    -0.354 N 
ATOM     52  N   UNL A   1      42.829  32.029  29.553  1.00  0.00    -0.248 NA
ATOM     53  C   UNL A   1      44.814  32.118  28.397  1.00  0.00     0.031 C 
ATOM     54  C   UNL A   1      40.746  33.666  31.698  1.00  0.00     0.029 A 
ATOM     55  C   UNL A   1      40.980  33.984  30.370  1.00  0.00     0.049 A 
ATOM     56  H   UNL A   1      39.587  34.190  28.817  1.00  0.00     0.167 HD
ATOM     57  C   UNL A   1      42.999  33.329  29.192  1.00  0.00     0.074 A 
ATOM     58  C   UNL A   1      44.228  33.328  28.416  1.00  0.00     0.031 C 
ATOM     59  C   UNL A   1      42.142  34.322  29.565  1.00  0.00     0.037 A 
BRANCH  46  60
ATOM     60  C   UNL A   1      36.163  33.585  30.320  1.00  0.00     0.064 A 
ATOM     61  C   UNL A   1      35.373  34.122  29.272  1.00  0.00     0.173 A 
ATOM     62  C   UNL A   1      35.623  33.783  31.607  1.00  0.00     0.173 A 
ATOM     63  F   UNL A   1      35.734  33.988  27.987  1.00  0.00    -0.203 F 
ATOM     64  C   UNL A   1      34.191  34.837  29.500  1.00  0.00     0.198 A 
ATOM     65  C   UNL A   1      34.426  34.479  31.832  1.00  0.00     0.198 A 
ATOM     66  F   UNL A   1      36.230  33.342  32.710  1.00  0.00    -0.203 F 
ATOM     67  F   UNL A   1      33.522  35.364  28.464  1.00  0.00    -0.200 F 
ATOM     68  C   UNL A   1      33.720  35.022  30.780  1.00  0.00     0.200 A 
ATOM     69  F   UNL A   1      33.977  34.636  33.086  1.00  0.00    -0.200 F 
ATOM     70  F   UNL A   1      32.600  35.721  31.003  1.00  0.00    -0.200 F 
ENDBRANCH  46  60
BRANCH  47  71
ATOM     71  C   UNL A   1      44.293  28.813  28.359  1.00  0.00     0.064 A 
ATOM     72  C   UNL A   1      44.915  27.593  28.720  1.00  0.00     0.173 A 
ATOM     73  C   UNL A   1      43.651  28.845  27.113  1.00  0.00     0.173 A 
ATOM     74  F   UNL A   1      45.540  27.482  29.905  1.00  0.00    -0.203 F 
ATOM     75  C   UNL A   1      44.792  26.444  27.939  1.00  0.00     0.198 A 
ATOM     76  C   UNL A   1      43.560  27.698  26.317  1.00  0.00     0.198 A 
ATOM     77  F   UNL A   1      43.026  29.954  26.694  1.00  0.00    -0.203 F 
ATOM     78  F   UNL A   1      45.281  25.276  28.380  1.00  0.00    -0.200 F 
ATOM     79  C   UNL A   1      44.100  26.494  26.743  1.00  0.00     0.200 A 
ATOM     80  F   UNL A   1      42.873  27.740  25.165  1.00  0.00    -0.200 F 
ATOM     81  F   UNL A   1      43.915  25.378  26.022  1.00  0.00    -0.200 F 
ENDBRANCH  47  71
BRANCH  59  82
ATOM     82  C   UNL A   1      42.374  35.744  29.178  1.00  0.00     0.064 A 
ATOM     83  C   UNL A   1      41.845  36.283  27.997  1.00  0.00     0.173 A 
ATOM     84  C   UNL A   1      43.211  36.581  29.940  1.00  0.00     0.173 A 
ATOM     85  F   UNL A   1      41.088  35.534  27.180  1.00  0.00    -0.203 F 
ATOM     86  C   UNL A   1      42.089  37.605  27.633  1.00  0.00     0.198 A 
ATOM     87  C   UNL A   1      43.503  37.880  29.541  1.00  0.00     0.198 A 
ATOM     88  F   UNL A   1      43.740  36.168  31.103  1.00  0.00    -0.203 F 
ATOM     89  F   UNL A   1      41.505  38.109  26.537  1.00  0.00    -0.200 F 
ATOM     90  C   UNL A   1      42.926  38.399  28.399  1.00  0.00     0.200 A 
ATOM     91  F   UNL A   1      44.334  38.630  30.278  1.00  0.00    -0.200 F 
ATOM     92  F   UNL A   1      43.169  39.666  28.039  1.00  0.00    -0.200 F 
ENDBRANCH  59  82
ENDBRANCH  33  34
ENDBRANCH  26  28
ENDBRANCH  25  26
ENDBRANCH  24  25
ENDBRANCH   1  24
TORSDOF 17
ENDMDL
MODEL 2
REMARK VINA RESULT:     -12.1      4.025      9.979
REMARK SMILES Cc1cccc(C[C@H](CC(=O)OCCOC(=O)c2ccc(-c3c4nc(c(-c5c(F)c(F)c(F)c(F)c5F)c5ccc([nH]5)c(-c5c(F)c(F)c(F)c(F)c5F)c5nc(c(-c6c(F)c(F)c(F)c(F)c6F)c6ccc3[nH]6)C=C5)C=C4)cc2)NC(=O)OC(C)(C)C)c1
REMARK SMILES IDX 13 1 12 2 10 3 11 4 9 5 8 6 7 7 6 8 1 9 2 10 3 11 89 12 4 13
REMARK SMILES IDX 5 14 81 15 82 16 83 18 84 19 85 20 86 21 87 22 88 23 14 24
REMARK SMILES IDX 15 25 16 26 17 27 18 28 19 29 80 30 20 31 79 32 21 33 22 34
REMARK SMILES IDX 23 35 73 36 24 37 78 38 72 39 74 40 25 41 77 42 71 43 70 44
REMARK SMILES IDX 26 46 58 47 38 48 57 49 39 50 42 51 56 52 75 53 40 54 41 55
REMARK SMILES IDX 55 57 76 58 43 59 27 60 28 61 36 62 29 63 30 64 34 65 37 66
REMARK SMILES IDX 31 67 32 68 35 69 33 70 59 71 60 72 68 73 61 74 62 75 66 76
REMARK SMILES IDX 69 77 63 78 64 79 67 80 65 81 44 82 45 83 53 84 46 85 47 86
REMARK SMILES IDX 51 87 54 88 48 89 49 90 52 91 50 92
REMARK H PARENT 81 17 74 45 42 56
REMARK Flexibility Score: inf
ROOT
ATOM      1  C   UNL A   1      33.239  29.140  27.265  1.00  0.00     0.274 C 
ENDROOT
BRANCH   1   2
ATOM      2  O   UNL A   1      32.086  28.889  26.454  1.00  0.00    -0.462 OA
BRANCH   2   3
ATOM      3  C   UNL A   1      32.249  28.518  25.162  1.00  0.00     0.308 C 
ATOM      4  O   UNL A   1      31.518  28.836  24.239  1.00  0.00    -0.252 OA
BRANCH   3   5
ATOM      5  C   UNL A   1      33.480  27.643  25.042  1.00  0.00     0.148 C 
BRANCH   5   6
ATOM      6  C   UNL A   1      33.214  26.157  25.280  1.00  0.00     0.101 C 
BRANCH   6   7
ATOM      7  C   UNL A   1      34.397  25.421  25.946  1.00  0.00     0.061 C 
BRANCH   7   8
ATOM      8  C   UNL A   1      35.228  24.464  25.135  1.00  0.00    -0.046 A 
ATOM      9  C   UNL A   1      38.159  22.094  25.746  1.00  0.00     0.044 C 
ATOM     10  C   UNL A   1      37.029  22.817  25.077  1.00  0.00    -0.051 A 
ATOM     11  C   UNL A   1      36.641  22.457  23.783  1.00  0.00     0.003 A 
ATOM     12  C   UNL A   1      36.328  23.831  25.740  1.00  0.00     0.007 A 
ATOM     13  C   UNL A   1      35.552  23.075  23.177  1.00  0.00     0.001 A 
ATOM     14  C   UNL A   1      34.839  24.056  23.858  1.00  0.00     0.004 A 
ENDBRANCH   7   8
ENDBRANCH   6   7
BRANCH   6  15
ATOM     15  N   UNL A   1      31.959  26.068  26.012  1.00  0.00    -0.318 N 
ATOM     16  C   UNL A   1      31.077  25.024  25.948  1.00  0.00     0.407 C 
ATOM     17  H   UNL A   1      31.726  26.821  26.601  1.00  0.00     0.167 HD
ATOM     18  O   UNL A   1      29.994  25.084  26.485  1.00  0.00    -0.225 OA
BRANCH  16  19
ATOM     19  O   UNL A   1      31.598  23.963  25.284  1.00  0.00    -0.444 OA
BRANCH  19  20
ATOM     20  C   UNL A   1      31.753  22.686  25.942  1.00  0.00     0.106 C 
ATOM     21  C   UNL A   1      32.397  21.663  24.999  1.00  0.00     0.056 C 
ATOM     22  C   UNL A   1      32.517  22.839  27.257  1.00  0.00     0.056 C 
ATOM     23  C   UNL A   1      30.320  22.222  26.249  1.00  0.00     0.056 C 
ENDBRANCH  19  20
ENDBRANCH  16  19
ENDBRANCH   6  15
ENDBRANCH   5   6
ENDBRANCH   3   5
ENDBRANCH   2   3
ENDBRANCH   1   2
BRANCH   1  24
ATOM     24  C   UNL A   1      33.517  30.659  27.236  1.00  0.00     0.275 C 
BRANCH  24  25
ATOM     25  O   UNL A   1      34.906  31.095  27.284  1.00  0.00    -0.458 OA
BRANCH  25  26
ATOM     26  C   UNL A   1      35.593  31.004  28.457  1.00  0.00     0.338 C 
ATOM     27  O   UNL A   1      35.342  31.629  29.471  1.00  0.00    -0.246 OA
BRANCH  26  28
ATOM     28  C   UNL A   1      36.654  29.968  28.339  1.00  0.00     0.060 A 
ATOM     29  C   UNL A   1      37.545  29.956  27.250  1.00  0.00     0.016 A 
ATOM     30  C   UNL A   1      36.934  29.237  29.487  1.00  0.00     0.016 A 
ATOM     31  C   UNL A   1      38.793  29.323  27.380  1.00  0.00     0.010 A 
ATOM     32  C   UNL A   1      38.218  28.805  29.679  1.00  0.00     0.010 A 
ATOM     33  C   UNL A   1      39.145  28.803  28.623  1.00  0.00    -0.014 A 
BRANCH  33  34
ATOM     34  C   UNL A   1      40.299  27.967  28.940  1.00  0.00     0.031 A 
ATOM     35  C   UNL A   1      40.431  26.529  28.638  1.00  0.00     0.074 A 
ATOM     36  C   UNL A   1      41.374  28.752  29.179  1.00  0.00     0.049 A 
ATOM     37  N   UNL A   1      41.545  25.893  28.748  1.00  0.00    -0.248 NA
ATOM     38  C   UNL A   1      39.343  25.659  28.221  1.00  0.00     0.031 C 
ATOM     39  C   UNL A   1      42.796  28.506  29.038  1.00  0.00     0.029 A 
ATOM     40  N   UNL A   1      41.308  30.043  29.734  1.00  0.00    -0.354 N 
ATOM     41  C   UNL A   1      41.399  24.635  28.205  1.00  0.00     0.074 A 
ATOM     42  C   UNL A   1      39.986  24.512  27.959  1.00  0.00     0.031 C 
ATOM     43  C   UNL A   1      43.449  29.418  29.787  1.00  0.00     0.029 A 
ATOM     44  C   UNL A   1      42.435  30.130  30.561  1.00  0.00     0.049 A 
ATOM     45  H   UNL A   1      40.623  30.733  29.576  1.00  0.00     0.167 HD
ATOM     46  C   UNL A   1      42.533  23.912  27.969  1.00  0.00     0.037 A 
ATOM     47  C   UNL A   1      42.212  29.995  31.906  1.00  0.00     0.037 A 
ATOM     48  C   UNL A   1      43.651  24.514  28.700  1.00  0.00     0.049 A 
ATOM     49  C   UNL A   1      42.837  28.735  32.471  1.00  0.00     0.074 A 
ATOM     50  C   UNL A   1      44.700  25.353  28.372  1.00  0.00     0.029 A 
ATOM     51  N   UNL A   1      43.573  24.517  30.083  1.00  0.00    -0.354 N 
ATOM     52  N   UNL A   1      43.231  27.721  31.751  1.00  0.00    -0.248 NA
ATOM     53  C   UNL A   1      43.014  28.505  33.901  1.00  0.00     0.031 C 
ATOM     54  C   UNL A   1      45.176  25.944  29.587  1.00  0.00     0.029 A 
ATOM     55  C   UNL A   1      44.437  25.434  30.642  1.00  0.00     0.049 A 
ATOM     56  H   UNL A   1      42.974  23.934  30.602  1.00  0.00     0.167 HD
ATOM     57  C   UNL A   1      43.777  26.770  32.558  1.00  0.00     0.074 A 
ATOM     58  C   UNL A   1      43.564  27.278  33.903  1.00  0.00     0.031 C 
ATOM     59  C   UNL A   1      44.382  25.647  32.079  1.00  0.00     0.037 A 
BRANCH  46  60
ATOM     60  C   UNL A   1      42.713  22.746  27.013  1.00  0.00     0.064 A 
ATOM     61  C   UNL A   1      42.025  21.530  27.255  1.00  0.00     0.173 A 
ATOM     62  C   UNL A   1      43.616  22.693  25.931  1.00  0.00     0.173 A 
ATOM     63  F   UNL A   1      41.109  21.429  28.228  1.00  0.00    -0.203 F 
ATOM     64  C   UNL A   1      42.264  20.363  26.521  1.00  0.00     0.198 A 
ATOM     65  C   UNL A   1      43.837  21.528  25.182  1.00  0.00     0.198 A 
ATOM     66  F   UNL A   1      44.346  23.746  25.560  1.00  0.00    -0.203 F 
ATOM     67  F   UNL A   1      41.617  19.233  26.838  1.00  0.00    -0.200 F 
ATOM     68  C   UNL A   1      43.175  20.359  25.488  1.00  0.00     0.200 A 
ATOM     69  F   UNL A   1      44.718  21.549  24.171  1.00  0.00    -0.200 F 
ATOM     70  F   UNL A   1      43.420  19.238  24.796  1.00  0.00    -0.200 F 
ENDBRANCH  46  60
BRANCH  47  71
ATOM     71  C   UNL A   1      40.883  30.558  32.338  1.00  0.00     0.064 A 
ATOM     72  C   UNL A   1      39.815  29.669  32.608  1.00  0.00     0.173 A 
ATOM     73  C   UNL A   1      40.746  31.869  32.817  1.00  0.00     0.173 A 
ATOM     74  F   UNL A   1      39.880  28.393  32.191  1.00  0.00    -0.203 F 
ATOM     75  C   UNL A   1      38.738  30.036  33.416  1.00  0.00     0.198 A 
ATOM     76  C   UNL A   1      39.646  32.241  33.598  1.00  0.00     0.198 A 
ATOM     77  F   UNL A   1      41.712  32.774  32.617  1.00  0.00    -0.203 F 
ATOM     78  F   UNL A   1      37.816  29.125  33.760  1.00  0.00    -0.200 F 
ATOM     79  C   UNL A   1      38.662  31.319  33.924  1.00  0.00     0.200 A 
ATOM     80  F   UNL A   1      39.581  33.481  34.107  1.00  0.00    -0.200 F 
ATOM     81  F   UNL A   1      37.669  31.658  34.760  1.00  0.00    -0.200 F 
ENDBRANCH  47  71
BRANCH  59  82
ATOM     82  C   UNL A   1      44.999  24.640  32.992  1.00  0.00     0.064 A 
ATOM     83  C   UNL A   1      44.290  23.514  33.435  1.00  0.00     0.173 A 
ATOM     84  C   UNL A   1      46.292  24.826  33.517  1.00  0.00     0.173 A 
ATOM     85  F   UNL A   1      43.029  23.296  33.032  1.00  0.00    -0.203 F 
ATOM     86  C   UNL A   1      44.868  22.594  34.305  1.00  0.00     0.198 A 
ATOM     87  C   UNL A   1      46.841  23.938  34.435  1.00  0.00     0.198 A 
ATOM     88  F   UNL A   1      47.062  25.855  33.130  1.00  0.00    -0.203 F 
ATOM     89  F   UNL A   1      44.189  21.490  34.649  1.00  0.00    -0.200 F 
ATOM     90  C   UNL A   1      46.137  22.811  34.813  1.00  0.00     0.200 A 
ATOM     91  F   UNL A   1      48.061  24.173  34.937  1.00  0.00    -0.200 F 
ATOM     92  F   UNL A   1      46.685  21.931  35.661  1.00  0.00    -0.200 F 
ENDBRANCH  59  82
ENDBRANCH  33  34
ENDBRANCH  26  28
ENDBRANCH  25  26
ENDBRANCH  24  25
ENDBRANCH   1  24
TORSDOF 17
ENDMDL
MODEL 3
REMARK VINA RESULT:     -12.1      3.916      9.750
REMARK SMILES Cc1cccc(C[C@H](CC(=O)OCCOC(=O)c2ccc(-c3c4nc(c(-c5c(F)c(F)c(F)c(F)c5F)c5ccc([nH]5)c(-c5c(F)c(F)c(F)c(F)c5F)c5nc(c(-c6c(F)c(F)c(F)c(F)c6F)c6ccc3[nH]6)C=C5)C=C4)cc2)NC(=O)OC(C)(C)C)c1
REMARK SMILES IDX 13 1 12 2 10 3 11 4 9 5 8 6 7 7 6 8 1 9 2 10 3 11 89 12 4 13
REMARK SMILES IDX 5 14 81 15 82 16 83 18 84 19 85 20 86 21 87 22 88 23 14 24
REMARK SMILES IDX 15 25 16 26 17 27 18 28 19 29 80 30 20 31 79 32 21 33 22 34
REMARK SMILES IDX 23 35 73 36 24 37 78 38 72 39 74 40 25 41 77 42 71 43 70 44
REMARK SMILES IDX 26 46 58 47 38 48 57 49 39 50 42 51 56 52 75 53 40 54 41 55
REMARK SMILES IDX 55 57 76 58 43 59 27 60 28 61 36 62 29 63 30 64 34 65 37 66
REMARK SMILES IDX 31 67 32 68 35 69 33 70 59 71 60 72 68 73 61 74 62 75 66 76
REMARK SMILES IDX 69 77 63 78 64 79 67 80 65 81 44 82 45 83 53 84 46 85 47 86
REMARK SMILES IDX 51 87 54 88 48 89 49 90 52 91 50 92
REMARK H PARENT 81 17 74 45 42 56
REMARK Flexibility Score: inf
ROOT
ATOM      1  C   UNL A   1      32.167  29.386  27.113  1.00  0.00     0.274 C 
ENDROOT
BRANCH   1   2
ATOM      2  O   UNL A   1      32.448  27.997  27.312  1.00  0.00    -0.462 OA
BRANCH   2   3
ATOM      3  C   UNL A   1      31.908  27.081  26.474  1.00  0.00     0.308 C 
ATOM      4  O   UNL A   1      30.878  26.461  26.677  1.00  0.00    -0.252 OA
BRANCH   3   5
ATOM      5  C   UNL A   1      32.783  26.947  25.245  1.00  0.00     0.148 C 
BRANCH   5   6
ATOM      6  C   UNL A   1      32.019  27.017  23.924  1.00  0.00     0.101 C 
BRANCH   6   7
ATOM      7  C   UNL A   1      31.587  28.449  23.540  1.00  0.00     0.061 C 
BRANCH   7   8
ATOM      8  C   UNL A   1      30.124  28.798  23.498  1.00  0.00    -0.046 A 
ATOM      9  C   UNL A   1      28.010  31.965  23.210  1.00  0.00     0.044 C 
ATOM     10  C   UNL A   1      28.409  30.522  23.288  1.00  0.00    -0.051 A 
ATOM     11  C   UNL A   1      27.443  29.524  23.126  1.00  0.00     0.003 A 
ATOM     12  C   UNL A   1      29.744  30.151  23.489  1.00  0.00     0.007 A 
ATOM     13  C   UNL A   1      27.810  28.182  23.130  1.00  0.00     0.001 A 
ATOM     14  C   UNL A   1      29.144  27.824  23.293  1.00  0.00     0.004 A 
ENDBRANCH   7   8
ENDBRANCH   6   7
BRANCH   6  15
ATOM     15  N   UNL A   1      32.842  26.348  22.928  1.00  0.00    -0.318 N 
ATOM     16  C   UNL A   1      32.879  24.998  22.707  1.00  0.00     0.407 C 
ATOM     17  H   UNL A   1      33.419  26.913  22.366  1.00  0.00     0.167 HD
ATOM     18  O   UNL A   1      33.687  24.507  21.950  1.00  0.00    -0.225 OA
BRANCH  16  19
ATOM     19  O   UNL A   1      31.897  24.350  23.381  1.00  0.00    -0.444 OA
BRANCH  19  20
ATOM     20  C   UNL A   1      32.202  23.201  24.203  1.00  0.00     0.106 C 
ATOM     21  C   UNL A   1      32.231  21.921  23.360  1.00  0.00     0.056 C 
ATOM     22  C   UNL A   1      33.496  23.420  24.987  1.00  0.00     0.056 C 
ATOM     23  C   UNL A   1      31.029  23.100  25.192  1.00  0.00     0.056 C 
ENDBRANCH  19  20
ENDBRANCH  16  19
ENDBRANCH   6  15
ENDBRANCH   5   6
ENDBRANCH   3   5
ENDBRANCH   2   3
ENDBRANCH   1   2
BRANCH   1  24
ATOM     24  C   UNL A   1      33.469  30.070  26.643  1.00  0.00     0.275 C 
BRANCH  24  25
ATOM     25  O   UNL A   1      34.685  29.806  27.400  1.00  0.00    -0.458 OA
BRANCH  25  26
ATOM     26  C   UNL A   1      35.482  30.849  27.765  1.00  0.00     0.338 C 
ATOM     27  O   UNL A   1      35.209  32.028  27.626  1.00  0.00    -0.246 OA
BRANCH  26  28
ATOM     28  C   UNL A   1      36.709  30.335  28.431  1.00  0.00     0.060 A 
ATOM     29  C   UNL A   1      36.633  29.525  29.579  1.00  0.00     0.016 A 
ATOM     30  C   UNL A   1      37.887  30.407  27.696  1.00  0.00     0.016 A 
ATOM     31  C   UNL A   1      37.701  28.672  29.900  1.00  0.00     0.010 A 
ATOM     32  C   UNL A   1      38.829  29.436  27.893  1.00  0.00     0.010 A 
ATOM     33  C   UNL A   1      38.772  28.589  29.013  1.00  0.00    -0.014 A 
BRANCH  33  34
ATOM     34  C   UNL A   1      40.046  27.909  29.223  1.00  0.00     0.031 A 
ATOM     35  C   UNL A   1      40.385  26.551  28.757  1.00  0.00     0.074 A 
ATOM     36  C   UNL A   1      40.996  28.817  29.541  1.00  0.00     0.049 A 
ATOM     37  N   UNL A   1      41.586  26.083  28.784  1.00  0.00    -0.248 NA
ATOM     38  C   UNL A   1      39.431  25.577  28.252  1.00  0.00     0.031 C 
ATOM     39  C   UNL A   1      42.435  28.808  29.362  1.00  0.00     0.029 A 
ATOM     40  N   UNL A   1      40.751  30.012  30.241  1.00  0.00    -0.354 N 
ATOM     41  C   UNL A   1      41.616  24.887  28.102  1.00  0.00     0.074 A 
ATOM     42  C   UNL A   1      40.232  24.578  27.855  1.00  0.00     0.031 C 
ATOM     43  C   UNL A   1      42.962  29.719  30.205  1.00  0.00     0.029 A 
ATOM     44  C   UNL A   1      41.873  30.177  31.064  1.00  0.00     0.049 A 
ATOM     45  H   UNL A   1      39.966  30.603  30.169  1.00  0.00     0.167 HD
ATOM     46  C   UNL A   1      42.841  24.377  27.775  1.00  0.00     0.037 A 
ATOM     47  C   UNL A   1      41.707  29.859  32.385  1.00  0.00     0.037 A 
ATOM     48  C   UNL A   1      43.872  25.056  28.561  1.00  0.00     0.049 A 
ATOM     49  C   UNL A   1      42.529  28.654  32.798  1.00  0.00     0.074 A 
ATOM     50  C   UNL A   1      44.775  26.077  28.323  1.00  0.00     0.029 A 
ATOM     51  N   UNL A   1      43.830  24.892  29.936  1.00  0.00    -0.354 N 
ATOM     52  N   UNL A   1      43.053  27.799  31.963  1.00  0.00    -0.248 NA
ATOM     53  C   UNL A   1      42.775  28.296  34.190  1.00  0.00     0.031 C 
ATOM     54  C   UNL A   1      45.187  26.594  29.594  1.00  0.00     0.029 A 
ATOM     55  C   UNL A   1      44.561  25.862  30.590  1.00  0.00     0.049 A 
ATOM     56  H   UNL A   1      43.339  24.170  30.390  1.00  0.00     0.167 HD
ATOM     57  C   UNL A   1      43.756  26.859  32.652  1.00  0.00     0.074 A 
ATOM     58  C   UNL A   1      43.503  27.175  34.048  1.00  0.00     0.031 C 
ATOM     59  C   UNL A   1      44.511  25.902  32.042  1.00  0.00     0.037 A 
BRANCH  46  60
ATOM     60  C   UNL A   1      43.169  23.367  26.691  1.00  0.00     0.064 A 
ATOM     61  C   UNL A   1      42.872  21.996  26.898  1.00  0.00     0.173 A 
ATOM     62  C   UNL A   1      43.874  23.630  25.498  1.00  0.00     0.173 A 
ATOM     63  F   UNL A   1      42.180  21.586  27.970  1.00  0.00    -0.203 F 
ATOM     64  C   UNL A   1      43.293  20.987  26.024  1.00  0.00     0.198 A 
ATOM     65  C   UNL A   1      44.273  22.620  24.612  1.00  0.00     0.198 A 
ATOM     66  F   UNL A   1      44.233  24.864  25.142  1.00  0.00    -0.203 F 
ATOM     67  F   UNL A   1      43.024  19.704  26.309  1.00  0.00    -0.200 F 
ATOM     68  C   UNL A   1      44.000  21.297  24.883  1.00  0.00     0.200 A 
ATOM     69  F   UNL A   1      44.948  22.944  23.499  1.00  0.00    -0.200 F 
ATOM     70  F   UNL A   1      44.420  20.332  24.054  1.00  0.00    -0.200 F 
ENDBRANCH  46  60
BRANCH  47  71
ATOM     71  C   UNL A   1      40.320  30.162  32.890  1.00  0.00     0.064 A 
ATOM     72  C   UNL A   1      39.896  31.511  32.966  1.00  0.00     0.173 A 
ATOM     73  C   UNL A   1      39.318  29.183  32.959  1.00  0.00     0.173 A 
ATOM     74  F   UNL A   1      40.798  32.504  32.894  1.00  0.00    -0.203 F 
ATOM     75  C   UNL A   1      38.544  31.857  32.981  1.00  0.00     0.198 A 
ATOM     76  C   UNL A   1      37.965  29.537  33.009  1.00  0.00     0.198 A 
ATOM     77  F   UNL A   1      39.627  27.882  32.885  1.00  0.00    -0.203 F 
ATOM     78  F   UNL A   1      38.181  33.147  32.916  1.00  0.00    -0.200 F 
ATOM     79  C   UNL A   1      37.578  30.868  32.987  1.00  0.00     0.200 A 
ATOM     80  F   UNL A   1      37.026  28.578  32.996  1.00  0.00    -0.200 F 
ATOM     81  F   UNL A   1      36.278  31.193  32.928  1.00  0.00    -0.200 F 
ENDBRANCH  47  71
BRANCH  59  82
ATOM     82  C   UNL A   1      45.296  24.905  32.828  1.00  0.00     0.064 A 
ATOM     83  C   UNL A   1      44.731  23.696  33.258  1.00  0.00     0.173 A 
ATOM     84  C   UNL A   1      46.611  25.178  33.247  1.00  0.00     0.173 A 
ATOM     85  F   UNL A   1      43.461  23.386  32.955  1.00  0.00    -0.203 F 
ATOM     86  C   UNL A   1      45.465  22.783  34.012  1.00  0.00     0.198 A 
ATOM     87  C   UNL A   1      47.319  24.293  34.052  1.00  0.00     0.198 A 
ATOM     88  F   UNL A   1      47.250  26.294  32.861  1.00  0.00    -0.203 F 
ATOM     89  F   UNL A   1      44.919  21.605  34.342  1.00  0.00    -0.200 F 
ATOM     90  C   UNL A   1      46.754  23.087  34.418  1.00  0.00     0.200 A 
ATOM     91  F   UNL A   1      48.557  24.609  34.459  1.00  0.00    -0.200 F 
ATOM     92  F   UNL A   1      47.452  22.213  35.154  1.00  0.00    -0.200 F 
ENDBRANCH  59  82
ENDBRANCH  33  34
ENDBRANCH  26  28
ENDBRANCH  25  26
ENDBRANCH  24  25
ENDBRANCH   1  24
TORSDOF 17
ENDMDL
