MODEL 1
REMARK VINA RESULT:     -11.5      0.000      0.000
REMARK SMILES CCC(CC)(CC(=O)NNC(=O)c1cc(C)oc1C)C(=O)OCCOC(=O)c1ccc(-c2c3nc(c(-c4c(F)c(F)c(F)c(F)c4F)c4ccc([nH]4)c(-c4c(F)c(F)c(F)c(F)c4F)c4nc(c(-c5c(F)c(F)c(F)c(F)c5F)c5ccc2[nH]5)C=C4)C=C3)cc1
REMARK SMILES IDX 23 1 22 2 20 3 21 4 3 5 2 6 1 7 4 8 5 9 6 10 7 11 8 12 9 13
REMARK SMILES IDX 10 15 11 16 12 18 13 19 14 20 18 21 15 22 17 23 19 24 16 25
REMARK SMILES IDX 24 26 25 27 26 28 27 29 28 30 29 31 90 32 30 33 89 34 31 35
REMARK SMILES IDX 32 36 33 37 83 38 34 39 88 40 82 41 84 42 35 43 87 44 81 45
REMARK SMILES IDX 80 46 36 48 68 49 48 50 67 51 49 52 52 53 66 54 85 55 50 56
REMARK SMILES IDX 51 57 65 59 86 60 53 61 37 62 38 63 46 64 39 65 40 66 44 67
REMARK SMILES IDX 47 68 41 69 42 70 45 71 43 72 69 73 70 74 78 75 71 76 72 77
REMARK SMILES IDX 76 78 79 79 73 80 74 81 77 82 75 83 54 84 55 85 63 86 56 87
REMARK SMILES IDX 57 88 61 89 64 90 58 91 59 92 62 93 60 94
REMARK H PARENT 9 14 10 17 84 47 52 58
REMARK Flexibility Score: inf
ROOT
ATOM      1  C   UNL A   1      32.178  30.001  25.111  1.00  0.00     0.274 C 
ENDROOT
BRANCH   1   2
ATOM      2  O   UNL A   1      31.327  28.928  24.656  1.00  0.00    -0.462 OA
BRANCH   2   3
ATOM      3  C   UNL A   1      31.798  28.202  23.608  1.00  0.00     0.312 C 
ATOM      4  O   UNL A   1      32.013  28.676  22.500  1.00  0.00    -0.252 OA
BRANCH   3   5
ATOM      5  C   UNL A   1      31.915  26.697  23.930  1.00  0.00     0.076 C 
BRANCH   5   6
ATOM      6  C   UNL A   1      30.984  26.326  25.127  1.00  0.00     0.016 C 
ATOM      7  C   UNL A   1      29.534  25.952  24.830  1.00  0.00     0.005 C 
ENDBRANCH   5   6
BRANCH   5   8
ATOM      8  C   UNL A   1      33.409  26.463  24.290  1.00  0.00     0.016 C 
ATOM      9  C   UNL A   1      33.773  26.698  25.753  1.00  0.00     0.005 C 
ENDBRANCH   5   8
BRANCH   5  10
ATOM     10  C   UNL A   1      31.547  25.816  22.698  1.00  0.00     0.120 C 
BRANCH  10  11
ATOM     11  C   UNL A   1      32.720  25.298  21.881  1.00  0.00     0.239 C 
ATOM     12  O   UNL A   1      33.521  26.071  21.358  1.00  0.00    -0.273 OA
ATOM     13  N   UNL A   1      32.905  23.952  21.721  1.00  0.00    -0.267 N 
ATOM     14  H   UNL A   1      33.610  23.662  21.097  1.00  0.00     0.191 HD
BRANCH  13  15
ATOM     15  N   UNL A   1      32.176  22.957  22.372  1.00  0.00    -0.263 N 
ATOM     16  C   UNL A   1      32.675  22.119  23.354  1.00  0.00     0.273 C 
ATOM     17  H   UNL A   1      31.234  22.841  22.114  1.00  0.00     0.191 HD
ATOM     18  O   UNL A   1      32.157  21.010  23.485  1.00  0.00    -0.267 OA
BRANCH  16  19
ATOM     19  C   UNL A   1      33.752  22.583  24.210  1.00  0.00     0.082 A 
ATOM     20  C   UNL A   1      35.125  22.825  23.912  1.00  0.00     0.059 A 
ATOM     21  C   UNL A   1      33.587  23.009  25.521  1.00  0.00     0.113 A 
ATOM     22  C   UNL A   1      35.711  23.299  25.060  1.00  0.00     0.101 A 
ATOM     23  O   UNL A   1      34.779  23.420  26.039  1.00  0.00    -0.466 OA
ATOM     24  C   UNL A   1      32.409  23.131  26.413  1.00  0.00     0.088 C 
ATOM     25  C   UNL A   1      37.090  23.703  25.389  1.00  0.00     0.087 C 
ENDBRANCH  16  19
ENDBRANCH  13  15
ENDBRANCH  10  11
ENDBRANCH   5  10
ENDBRANCH   3   5
ENDBRANCH   2   3
ENDBRANCH   1   2
BRANCH   1  26
ATOM     26  C   UNL A   1      31.647  30.670  26.382  1.00  0.00     0.275 C 
BRANCH  26  27
ATOM     27  O   UNL A   1      32.619  30.586  27.440  1.00  0.00    -0.458 OA
BRANCH  27  28
ATOM     28  C   UNL A   1      33.395  31.679  27.603  1.00  0.00     0.338 C 
ATOM     29  O   UNL A   1      33.051  32.849  27.593  1.00  0.00    -0.246 OA
BRANCH  28  30
ATOM     30  C   UNL A   1      34.804  31.297  27.816  1.00  0.00     0.060 A 
ATOM     31  C   UNL A   1      35.139  29.961  28.004  1.00  0.00     0.016 A 
ATOM     32  C   UNL A   1      35.758  32.290  28.038  1.00  0.00     0.016 A 
ATOM     33  C   UNL A   1      36.381  29.625  28.547  1.00  0.00     0.010 A 
ATOM     34  C   UNL A   1      37.039  31.942  28.486  1.00  0.00     0.010 A 
ATOM     35  C   UNL A   1      37.345  30.613  28.824  1.00  0.00    -0.014 A 
BRANCH  35  36
ATOM     36  C   UNL A   1      38.607  30.245  29.542  1.00  0.00     0.031 A 
ATOM     37  C   UNL A   1      38.930  30.834  30.901  1.00  0.00     0.074 A 
ATOM     38  C   UNL A   1      39.417  29.285  29.052  1.00  0.00     0.049 A 
ATOM     39  N   UNL A   1      39.884  30.494  31.740  1.00  0.00    -0.248 NA
ATOM     40  C   UNL A   1      38.069  31.917  31.398  1.00  0.00     0.031 C 
ATOM     41  C   UNL A   1      39.248  28.607  27.767  1.00  0.00     0.029 A 
ATOM     42  N   UNL A   1      40.535  28.690  29.593  1.00  0.00    -0.354 N 
ATOM     43  C   UNL A   1      39.658  31.239  32.893  1.00  0.00     0.074 A 
ATOM     44  C   UNL A   1      38.580  32.153  32.599  1.00  0.00     0.031 C 
ATOM     45  C   UNL A   1      40.196  27.666  27.637  1.00  0.00     0.029 A 
ATOM     46  C   UNL A   1      41.077  27.706  28.802  1.00  0.00     0.049 A 
ATOM     47  H   UNL A   1      40.911  28.947  30.466  1.00  0.00     0.167 HD
ATOM     48  C   UNL A   1      40.228  31.119  34.114  1.00  0.00     0.037 A 
ATOM     49  C   UNL A   1      42.167  26.932  28.978  1.00  0.00     0.037 A 
ATOM     50  C   UNL A   1      41.323  30.250  34.439  1.00  0.00     0.049 A 
ATOM     51  C   UNL A   1      42.976  27.055  30.240  1.00  0.00     0.074 A 
ATOM     52  C   UNL A   1      41.964  30.090  35.655  1.00  0.00     0.029 A 
ATOM     53  N   UNL A   1      41.954  29.414  33.537  1.00  0.00    -0.354 N 
ATOM     54  N   UNL A   1      42.703  27.711  31.339  1.00  0.00    -0.248 NA
ATOM     55  C   UNL A   1      44.256  26.330  30.279  1.00  0.00     0.031 C 
ATOM     56  C   UNL A   1      43.023  29.194  35.475  1.00  0.00     0.029 A 
ATOM     57  C   UNL A   1      43.019  28.778  34.154  1.00  0.00     0.049 A 
ATOM     58  H   UNL A   1      41.688  29.291  32.598  1.00  0.00     0.167 HD
ATOM     59  C   UNL A   1      43.751  27.446  32.212  1.00  0.00     0.074 A 
ATOM     60  C   UNL A   1      44.666  26.567  31.517  1.00  0.00     0.031 C 
ATOM     61  C   UNL A   1      43.929  27.893  33.478  1.00  0.00     0.037 A 
BRANCH  48  62
ATOM     62  C   UNL A   1      39.636  31.916  35.233  1.00  0.00     0.064 A 
ATOM     63  C   UNL A   1      38.683  31.337  36.084  1.00  0.00     0.173 A 
ATOM     64  C   UNL A   1      40.061  33.221  35.505  1.00  0.00     0.173 A 
ATOM     65  F   UNL A   1      38.263  30.081  35.874  1.00  0.00    -0.203 F 
ATOM     66  C   UNL A   1      38.152  32.052  37.153  1.00  0.00     0.198 A 
ATOM     67  C   UNL A   1      39.539  33.927  36.585  1.00  0.00     0.198 A 
ATOM     68  F   UNL A   1      40.985  33.805  34.729  1.00  0.00    -0.203 F 
ATOM     69  F   UNL A   1      37.216  31.493  37.934  1.00  0.00    -0.200 F 
ATOM     70  C   UNL A   1      38.582  33.345  37.404  1.00  0.00     0.200 A 
ATOM     71  F   UNL A   1      39.963  35.174  36.836  1.00  0.00    -0.200 F 
ATOM     72  F   UNL A   1      38.071  34.033  38.435  1.00  0.00    -0.200 F 
ENDBRANCH  48  62
BRANCH  49  73
ATOM     73  C   UNL A   1      42.590  25.984  27.912  1.00  0.00     0.064 A 
ATOM     74  C   UNL A   1      43.505  26.363  26.920  1.00  0.00     0.173 A 
ATOM     75  C   UNL A   1      42.042  24.695  27.835  1.00  0.00     0.173 A 
ATOM     76  F   UNL A   1      44.031  27.597  26.928  1.00  0.00    -0.203 F 
ATOM     77  C   UNL A   1      43.841  25.495  25.883  1.00  0.00     0.198 A 
ATOM     78  C   UNL A   1      42.403  23.817  26.816  1.00  0.00     0.198 A 
ATOM     79  F   UNL A   1      41.149  24.288  28.749  1.00  0.00    -0.203 F 
ATOM     80  F   UNL A   1      44.674  25.901  24.914  1.00  0.00    -0.200 F 
ATOM     81  C   UNL A   1      43.295  24.220  25.835  1.00  0.00     0.200 A 
ATOM     82  F   UNL A   1      41.877  22.584  26.780  1.00  0.00    -0.200 F 
ATOM     83  F   UNL A   1      43.615  23.388  24.836  1.00  0.00    -0.200 F 
ENDBRANCH  49  73
BRANCH  61  84
ATOM     84  C   UNL A   1      45.144  27.424  34.222  1.00  0.00     0.064 A 
ATOM     85  C   UNL A   1      45.140  26.222  34.946  1.00  0.00     0.173 A 
ATOM     86  C   UNL A   1      46.339  28.160  34.178  1.00  0.00     0.173 A 
ATOM     87  F   UNL A   1      44.020  25.490  35.031  1.00  0.00    -0.203 F 
ATOM     88  C   UNL A   1      46.280  25.786  35.616  1.00  0.00     0.198 A 
ATOM     89  C   UNL A   1      47.485  27.706  34.824  1.00  0.00     0.198 A 
ATOM     90  F   UNL A   1      46.399  29.311  33.495  1.00  0.00    -0.203 F 
ATOM     91  F   UNL A   1      46.240  24.659  36.340  1.00  0.00    -0.200 F 
ATOM     92  C   UNL A   1      47.453  26.524  35.548  1.00  0.00     0.200 A 
ATOM     93  F   UNL A   1      48.623  28.411  34.745  1.00  0.00    -0.200 F 
ATOM     94  F   UNL A   1      48.552  26.098  36.188  1.00  0.00    -0.200 F 
ENDBRANCH  61  84
ENDBRANCH  35  36
ENDBRANCH  28  30
ENDBRANCH  27  28
ENDBRANCH  26  27
ENDBRANCH   1  26
TORSDOF 17
ENDMDL
MODEL 2
REMARK VINA RESULT:     -11.3      1.145      2.461
REMARK SMILES CCC(CC)(CC(=O)NNC(=O)c1cc(C)oc1C)C(=O)OCCOC(=O)c1ccc(-c2c3nc(c(-c4c(F)c(F)c(F)c(F)c4F)c4ccc([nH]4)c(-c4c(F)c(F)c(F)c(F)c4F)c4nc(c(-c5c(F)c(F)c(F)c(F)c5F)c5ccc2[nH]5)C=C4)C=C3)cc1
REMARK SMILES IDX 23 1 22 2 20 3 21 4 3 5 2 6 1 7 4 8 5 9 6 10 7 11 8 12 9 13
REMARK SMILES IDX 10 15 11 16 12 18 13 19 14 20 18 21 15 22 17 23 19 24 16 25
REMARK SMILES IDX 24 26 25 27 26 28 27 29 28 30 29 31 90 32 30 33 89 34 31 35
REMARK SMILES IDX 32 36 33 37 83 38 34 39 88 40 82 41 84 42 35 43 87 44 81 45
REMARK SMILES IDX 80 46 36 48 68 49 48 50 67 51 49 52 52 53 66 54 85 55 50 56
REMARK SMILES IDX 51 57 65 59 86 60 53 61 37 62 38 63 46 64 39 65 40 66 44 67
REMARK SMILES IDX 47 68 41 69 42 70 45 71 43 72 69 73 70 74 78 75 71 76 72 77
REMARK SMILES IDX 76 78 79 79 73 80 74 81 77 82 75 83 54 84 55 85 63 86 56 87
REMARK SMILES IDX 57 88 61 89 64 90 58 91 59 92 62 93 60 94
REMARK H PARENT 9 14 10 17 84 47 52 58
REMARK Flexibility Score: inf
ROOT
ATOM      1  C   UNL A   1      31.657  29.933  25.416  1.00  0.00     0.274 C 
ENDROOT
BRANCH   1   2
ATOM      2  O   UNL A   1      32.388  28.775  25.874  1.00  0.00    -0.462 OA
BRANCH   2   3
ATOM      3  C   UNL A   1      31.634  27.710  26.251  1.00  0.00     0.312 C 
ATOM      4  O   UNL A   1      31.125  27.601  27.359  1.00  0.00    -0.252 OA
BRANCH   3   5
ATOM      5  C   UNL A   1      31.590  26.600  25.179  1.00  0.00     0.076 C 
BRANCH   5   6
ATOM      6  C   UNL A   1      32.235  27.107  23.851  1.00  0.00     0.016 C 
ATOM      7  C   UNL A   1      33.513  26.432  23.360  1.00  0.00     0.005 C 
ENDBRANCH   5   6
BRANCH   5   8
ATOM      8  C   UNL A   1      30.083  26.272  24.980  1.00  0.00     0.016 C 
ATOM      9  C   UNL A   1      29.487  26.723  23.651  1.00  0.00     0.005 C 
ENDBRANCH   5   8
BRANCH   5  10
ATOM     10  C   UNL A   1      32.331  25.313  25.654  1.00  0.00     0.120 C 
BRANCH  10  11
ATOM     11  C   UNL A   1      31.440  24.163  26.098  1.00  0.00     0.239 C 
ATOM     12  O   UNL A   1      31.012  24.098  27.249  1.00  0.00    -0.273 OA
ATOM     13  N   UNL A   1      31.095  23.180  25.211  1.00  0.00    -0.267 N 
ATOM     14  H   UNL A   1      30.610  22.400  25.566  1.00  0.00     0.191 HD
BRANCH  13  15
ATOM     15  N   UNL A   1      31.374  23.195  23.845  1.00  0.00    -0.263 N 
ATOM     16  C   UNL A   1      32.426  22.529  23.240  1.00  0.00     0.273 C 
ATOM     17  H   UNL A   1      30.776  23.719  23.265  1.00  0.00     0.191 HD
ATOM     18  O   UNL A   1      32.873  22.991  22.190  1.00  0.00    -0.267 OA
BRANCH  16  19
ATOM     19  C   UNL A   1      32.933  21.306  23.834  1.00  0.00     0.082 A 
ATOM     20  C   UNL A   1      32.534  19.951  23.633  1.00  0.00     0.059 A 
ATOM     21  C   UNL A   1      34.042  21.235  24.665  1.00  0.00     0.113 A 
ATOM     22  C   UNL A   1      33.361  19.168  24.400  1.00  0.00     0.101 A 
ATOM     23  O   UNL A   1      34.284  19.943  25.023  1.00  0.00    -0.466 OA
ATOM     24  C   UNL A   1      34.993  22.247  25.185  1.00  0.00     0.088 C 
ATOM     25  C   UNL A   1      33.436  17.714  24.629  1.00  0.00     0.087 C 
ENDBRANCH  16  19
ENDBRANCH  13  15
ENDBRANCH  10  11
ENDBRANCH   5  10
ENDBRANCH   3   5
ENDBRANCH   2   3
ENDBRANCH   1   2
BRANCH   1  26
ATOM     26  C   UNL A   1      31.641  31.061  26.450  1.00  0.00     0.275 C 
BRANCH  26  27
ATOM     27  O   UNL A   1      32.678  30.865  27.428  1.00  0.00    -0.458 OA
BRANCH  27  28
ATOM     28  C   UNL A   1      33.503  31.917  27.617  1.00  0.00     0.338 C 
ATOM     29  O   UNL A   1      33.211  33.100  27.651  1.00  0.00    -0.246 OA
BRANCH  28  30
ATOM     30  C   UNL A   1      34.897  31.467  27.797  1.00  0.00     0.060 A 
ATOM     31  C   UNL A   1      35.173  30.114  27.961  1.00  0.00     0.016 A 
ATOM     32  C   UNL A   1      35.900  32.412  28.013  1.00  0.00     0.016 A 
ATOM     33  C   UNL A   1      36.408  29.713  28.474  1.00  0.00     0.010 A 
ATOM     34  C   UNL A   1      37.171  31.998  28.431  1.00  0.00     0.010 A 
ATOM     35  C   UNL A   1      37.421  30.652  28.745  1.00  0.00    -0.014 A 
BRANCH  35  36
ATOM     36  C   UNL A   1      38.678  30.215  29.434  1.00  0.00     0.031 A 
ATOM     37  C   UNL A   1      39.052  30.766  30.796  1.00  0.00     0.074 A 
ATOM     38  C   UNL A   1      39.436  29.229  28.913  1.00  0.00     0.049 A 
ATOM     39  N   UNL A   1      40.004  30.369  31.611  1.00  0.00    -0.248 NA
ATOM     40  C   UNL A   1      38.250  31.878  31.327  1.00  0.00     0.031 C 
ATOM     41  C   UNL A   1      39.212  28.581  27.620  1.00  0.00     0.029 A 
ATOM     42  N   UNL A   1      40.535  28.575  29.423  1.00  0.00    -0.354 N 
ATOM     43  C   UNL A   1      39.833  31.104  32.780  1.00  0.00     0.074 A 
ATOM     44  C   UNL A   1      38.793  32.070  32.521  1.00  0.00     0.031 C 
ATOM     45  C   UNL A   1      40.115  27.601  27.457  1.00  0.00     0.029 A 
ATOM     46  C   UNL A   1      41.018  27.582  28.606  1.00  0.00     0.049 A 
ATOM     47  H   UNL A   1      40.938  28.800  30.293  1.00  0.00     0.167 HD
ATOM     48  C   UNL A   1      40.419  30.937  33.988  1.00  0.00     0.037 A 
ATOM     49  C   UNL A   1      42.075  26.757  28.748  1.00  0.00     0.037 A 
ATOM     50  C   UNL A   1      41.480  30.015  34.278  1.00  0.00     0.049 A 
ATOM     51  C   UNL A   1      42.911  26.822  29.997  1.00  0.00     0.074 A 
ATOM     52  C   UNL A   1      42.135  29.806  35.479  1.00  0.00     0.029 A 
ATOM     53  N   UNL A   1      42.057  29.168  33.351  1.00  0.00    -0.354 N 
ATOM     54  N   UNL A   1      42.688  27.471  31.112  1.00  0.00    -0.248 NA
ATOM     55  C   UNL A   1      44.158  26.040  30.000  1.00  0.00     0.031 C 
ATOM     56  C   UNL A   1      43.149  28.867  35.265  1.00  0.00     0.029 A 
ATOM     57  C   UNL A   1      43.102  28.474  33.937  1.00  0.00     0.049 A 
ATOM     58  H   UNL A   1      41.768  29.073  32.415  1.00  0.00     0.167 HD
ATOM     59  C   UNL A   1      43.739  27.144  31.960  1.00  0.00     0.074 A 
ATOM     60  C   UNL A   1      44.601  26.237  31.234  1.00  0.00     0.031 C 
ATOM     61  C   UNL A   1      43.960  27.561  33.230  1.00  0.00     0.037 A 
BRANCH  48  62
ATOM     62  C   UNL A   1      39.884  31.741  35.131  1.00  0.00     0.064 A 
ATOM     63  C   UNL A   1      40.411  33.012  35.407  1.00  0.00     0.173 A 
ATOM     64  C   UNL A   1      38.808  31.288  35.902  1.00  0.00     0.173 A 
ATOM     65  F   UNL A   1      41.428  33.495  34.679  1.00  0.00    -0.203 F 
ATOM     66  C   UNL A   1      39.898  33.789  36.441  1.00  0.00     0.198 A 
ATOM     67  C   UNL A   1      38.287  32.075  36.925  1.00  0.00     0.198 A 
ATOM     68  F   UNL A   1      38.261  30.088  35.658  1.00  0.00    -0.203 F 
ATOM     69  F   UNL A   1      40.439  34.985  36.712  1.00  0.00    -0.200 F 
ATOM     70  C   UNL A   1      38.835  33.321  37.197  1.00  0.00     0.200 A 
ATOM     71  F   UNL A   1      37.251  31.630  37.650  1.00  0.00    -0.200 F 
ATOM     72  F   UNL A   1      38.340  34.070  38.192  1.00  0.00    -0.200 F 
ENDBRANCH  48  62
BRANCH  49  73
ATOM     73  C   UNL A   1      42.436  25.810  27.660  1.00  0.00     0.064 A 
ATOM     74  C   UNL A   1      43.361  26.158  26.666  1.00  0.00     0.173 A 
ATOM     75  C   UNL A   1      41.817  24.554  27.562  1.00  0.00     0.173 A 
ATOM     76  F   UNL A   1      43.955  27.361  26.694  1.00  0.00    -0.203 F 
ATOM     77  C   UNL A   1      43.640  25.294  25.608  1.00  0.00     0.198 A 
ATOM     78  C   UNL A   1      42.120  23.679  26.522  1.00  0.00     0.198 A 
ATOM     79  F   UNL A   1      40.911  24.178  28.477  1.00  0.00    -0.203 F 
ATOM     80  F   UNL A   1      44.485  25.674  24.640  1.00  0.00    -0.200 F 
ATOM     81  C   UNL A   1      43.024  24.053  25.540  1.00  0.00     0.200 A 
ATOM     82  F   UNL A   1      41.527  22.478  26.466  1.00  0.00    -0.200 F 
ATOM     83  F   UNL A   1      43.289  23.225  24.521  1.00  0.00    -0.200 F 
ENDBRANCH  49  73
BRANCH  61  84
ATOM     84  C   UNL A   1      45.165  27.025  33.943  1.00  0.00     0.064 A 
ATOM     85  C   UNL A   1      46.380  27.726  33.955  1.00  0.00     0.173 A 
ATOM     86  C   UNL A   1      45.097  25.819  34.658  1.00  0.00     0.173 A 
ATOM     87  F   UNL A   1      46.503  28.876  33.275  1.00  0.00    -0.203 F 
ATOM     88  C   UNL A   1      47.488  27.228  34.637  1.00  0.00     0.198 A 
ATOM     89  C   UNL A   1      46.197  25.340  35.364  1.00  0.00     0.198 A 
ATOM     90  F   UNL A   1      43.957  25.113  34.686  1.00  0.00    -0.203 F 
ATOM     91  F   UNL A   1      48.651  27.891  34.596  1.00  0.00    -0.200 F 
ATOM     92  C   UNL A   1      47.393  26.040  35.347  1.00  0.00     0.200 A 
ATOM     93  F   UNL A   1      46.099  24.200  36.063  1.00  0.00    -0.200 F 
ATOM     94  F   UNL A   1      48.458  25.567  36.010  1.00  0.00    -0.200 F 
ENDBRANCH  61  84
ENDBRANCH  35  36
ENDBRANCH  28  30
ENDBRANCH  27  28
ENDBRANCH  26  27
ENDBRANCH   1  26
TORSDOF 17
ENDMDL
MODEL 3
REMARK VINA RESULT:     -11.1      4.114      6.905
REMARK SMILES CCC(CC)(CC(=O)NNC(=O)c1cc(C)oc1C)C(=O)OCCOC(=O)c1ccc(-c2c3nc(c(-c4c(F)c(F)c(F)c(F)c4F)c4ccc([nH]4)c(-c4c(F)c(F)c(F)c(F)c4F)c4nc(c(-c5c(F)c(F)c(F)c(F)c5F)c5ccc2[nH]5)C=C4)C=C3)cc1
REMARK SMILES IDX 23 1 22 2 20 3 21 4 3 5 2 6 1 7 4 8 5 9 6 10 7 11 8 12 9 13
REMARK SMILES IDX 10 15 11 16 12 18 13 19 14 20 18 21 15 22 17 23 19 24 16 25
REMARK SMILES IDX 24 26 25 27 26 28 27 29 28 30 29 31 90 32 30 33 89 34 31 35
REMARK SMILES IDX 32 36 33 37 83 38 34 39 88 40 82 41 84 42 35 43 87 44 81 45
REMARK SMILES IDX 80 46 36 48 68 49 48 50 67 51 49 52 52 53 66 54 85 55 50 56
REMARK SMILES IDX 51 57 65 59 86 60 53 61 37 62 38 63 46 64 39 65 40 66 44 67
REMARK SMILES IDX 47 68 41 69 42 70 45 71 43 72 69 73 70 74 78 75 71 76 72 77
REMARK SMILES IDX 76 78 79 79 73 80 74 81 77 82 75 83 54 84 55 85 63 86 56 87
REMARK SMILES IDX 57 88 61 89 64 90 58 91 59 92 62 93 60 94
REMARK H PARENT 9 14 10 17 84 47 52 58
REMARK Flexibility Score: inf
ROOT
ATOM      1  C   UNL A   1      36.213  22.157  23.941  1.00  0.00     0.274 C 
ENDROOT
BRANCH   1   2
ATOM      2  O   UNL A   1      34.851  21.759  24.210  1.00  0.00    -0.462 OA
BRANCH   2   3
ATOM      3  C   UNL A   1      33.910  22.727  24.056  1.00  0.00     0.312 C 
ATOM      4  O   UNL A   1      33.783  23.390  23.035  1.00  0.00    -0.252 OA
BRANCH   3   5
ATOM      5  C   UNL A   1      33.102  22.983  25.346  1.00  0.00     0.076 C 
BRANCH   5   6
ATOM      6  C   UNL A   1      33.602  24.285  26.047  1.00  0.00     0.016 C 
ATOM      7  C   UNL A   1      34.979  24.828  25.675  1.00  0.00     0.005 C 
ENDBRANCH   5   6
BRANCH   5   8
ATOM      8  C   UNL A   1      33.345  21.736  26.244  1.00  0.00     0.016 C 
ATOM      9  C   UNL A   1      33.925  22.029  27.624  1.00  0.00     0.005 C 
ENDBRANCH   5   8
BRANCH   5  10
ATOM     10  C   UNL A   1      31.576  23.107  25.054  1.00  0.00     0.120 C 
BRANCH  10  11
ATOM     11  C   UNL A   1      30.764  23.873  26.086  1.00  0.00     0.239 C 
ATOM     12  O   UNL A   1      30.858  23.619  27.285  1.00  0.00    -0.273 OA
ATOM     13  N   UNL A   1      29.916  24.871  25.689  1.00  0.00    -0.267 N 
ATOM     14  H   UNL A   1      29.330  25.267  26.375  1.00  0.00     0.191 HD
BRANCH  13  15
ATOM     15  N   UNL A   1      29.816  25.374  24.392  1.00  0.00    -0.263 N 
ATOM     16  C   UNL A   1      30.298  26.603  23.976  1.00  0.00     0.273 C 
ATOM     17  H   UNL A   1      29.368  24.812  23.720  1.00  0.00     0.191 HD
ATOM     18  O   UNL A   1      29.742  27.148  23.022  1.00  0.00    -0.267 OA
BRANCH  16  19
ATOM     19  C   UNL A   1      31.451  27.181  24.642  1.00  0.00     0.082 A 
ATOM     20  C   UNL A   1      31.605  27.636  25.985  1.00  0.00     0.059 A 
ATOM     21  C   UNL A   1      32.715  27.287  24.079  1.00  0.00     0.113 A 
ATOM     22  C   UNL A   1      32.906  28.053  26.124  1.00  0.00     0.101 A 
ATOM     23  O   UNL A   1      33.586  27.836  24.970  1.00  0.00    -0.466 OA
ATOM     24  C   UNL A   1      33.280  26.901  22.763  1.00  0.00     0.088 C 
ATOM     25  C   UNL A   1      33.657  28.636  27.251  1.00  0.00     0.087 C 
ENDBRANCH  16  19
ENDBRANCH  13  15
ENDBRANCH  10  11
ENDBRANCH   5  10
ENDBRANCH   3   5
ENDBRANCH   2   3
ENDBRANCH   1   2
BRANCH   1  26
ATOM     26  C   UNL A   1      37.233  21.151  24.479  1.00  0.00     0.275 C 
BRANCH  26  27
ATOM     27  O   UNL A   1      37.572  21.456  25.844  1.00  0.00    -0.458 OA
BRANCH  27  28
ATOM     28  C   UNL A   1      38.893  21.464  26.126  1.00  0.00     0.338 C 
ATOM     29  O   UNL A   1      39.698  20.564  25.960  1.00  0.00    -0.246 OA
BRANCH  28  30
ATOM     30  C   UNL A   1      39.302  22.764  26.692  1.00  0.00     0.060 A 
ATOM     31  C   UNL A   1      38.692  23.934  26.254  1.00  0.00     0.016 A 
ATOM     32  C   UNL A   1      40.437  22.833  27.499  1.00  0.00     0.016 A 
ATOM     33  C   UNL A   1      39.292  25.169  26.507  1.00  0.00     0.010 A 
ATOM     34  C   UNL A   1      40.981  24.080  27.836  1.00  0.00     0.010 A 
ATOM     35  C   UNL A   1      40.465  25.262  27.280  1.00  0.00    -0.014 A 
BRANCH  35  36
ATOM     36  C   UNL A   1      41.171  26.577  27.410  1.00  0.00     0.031 A 
ATOM     37  C   UNL A   1      40.500  27.758  28.083  1.00  0.00     0.074 A 
ATOM     38  C   UNL A   1      42.463  26.699  27.043  1.00  0.00     0.049 A 
ATOM     39  N   UNL A   1      41.025  28.910  28.439  1.00  0.00    -0.248 NA
ATOM     40  C   UNL A   1      39.076  27.630  28.427  1.00  0.00     0.031 C 
ATOM     41  C   UNL A   1      43.262  25.659  26.393  1.00  0.00     0.029 A 
ATOM     42  N   UNL A   1      43.345  27.746  27.194  1.00  0.00    -0.354 N 
ATOM     43  C   UNL A   1      40.029  29.579  29.142  1.00  0.00     0.074 A 
ATOM     44  C   UNL A   1      38.830  28.782  29.036  1.00  0.00     0.031 C 
ATOM     45  C   UNL A   1      44.519  26.103  26.237  1.00  0.00     0.029 A 
ATOM     46  C   UNL A   1      44.608  27.477  26.726  1.00  0.00     0.049 A 
ATOM     47  H   UNL A   1      43.093  28.607  27.599  1.00  0.00     0.167 HD
ATOM     48  C   UNL A   1      40.117  30.707  29.885  1.00  0.00     0.037 A 
ATOM     49  C   UNL A   1      45.714  28.247  26.677  1.00  0.00     0.037 A 
ATOM     50  C   UNL A   1      41.276  31.546  29.989  1.00  0.00     0.049 A 
ATOM     51  C   UNL A   1      45.680  29.642  27.241  1.00  0.00     0.074 A 
ATOM     52  C   UNL A   1      41.430  32.716  30.711  1.00  0.00     0.029 A 
ATOM     53  N   UNL A   1      42.470  31.317  29.332  1.00  0.00    -0.354 N 
ATOM     54  N   UNL A   1      44.753  30.223  27.960  1.00  0.00    -0.248 NA
ATOM     55  C   UNL A   1      46.851  30.492  26.975  1.00  0.00     0.031 C 
ATOM     56  C   UNL A   1      42.705  33.227  30.447  1.00  0.00     0.029 A 
ATOM     57  C   UNL A   1      43.350  32.357  29.584  1.00  0.00     0.049 A 
ATOM     58  H   UNL A   1      42.666  30.534  28.769  1.00  0.00     0.167 HD
ATOM     59  C   UNL A   1      45.245  31.485  28.267  1.00  0.00     0.074 A 
ATOM     60  C   UNL A   1      46.553  31.588  27.659  1.00  0.00     0.031 C 
ATOM     61  C   UNL A   1      44.657  32.466  28.995  1.00  0.00     0.037 A 
BRANCH  48  62
ATOM     62  C   UNL A   1      38.926  31.084  30.710  1.00  0.00     0.064 A 
ATOM     63  C   UNL A   1      38.836  30.670  32.047  1.00  0.00     0.173 A 
ATOM     64  C   UNL A   1      37.917  31.908  30.201  1.00  0.00     0.173 A 
ATOM     65  F   UNL A   1      39.792  29.898  32.582  1.00  0.00    -0.203 F 
ATOM     66  C   UNL A   1      37.756  31.045  32.839  1.00  0.00     0.198 A 
ATOM     67  C   UNL A   1      36.846  32.295  31.002  1.00  0.00     0.198 A 
ATOM     68  F   UNL A   1      37.975  32.343  28.934  1.00  0.00    -0.203 F 
ATOM     69  F   UNL A   1      37.670  30.610  34.105  1.00  0.00    -0.200 F 
ATOM     70  C   UNL A   1      36.762  31.859  32.317  1.00  0.00     0.200 A 
ATOM     71  F   UNL A   1      35.891  33.091  30.502  1.00  0.00    -0.200 F 
ATOM     72  F   UNL A   1      35.722  32.221  33.081  1.00  0.00    -0.200 F 
ENDBRANCH  48  62
BRANCH  49  73
ATOM     73  C   UNL A   1      46.954  27.736  26.034  1.00  0.00     0.064 A 
ATOM     74  C   UNL A   1      47.106  27.731  24.641  1.00  0.00     0.173 A 
ATOM     75  C   UNL A   1      47.991  27.187  26.803  1.00  0.00     0.173 A 
ATOM     76  F   UNL A   1      46.127  28.211  23.858  1.00  0.00    -0.203 F 
ATOM     77  C   UNL A   1      48.238  27.182  24.042  1.00  0.00     0.198 A 
ATOM     78  C   UNL A   1      49.137  26.669  26.206  1.00  0.00     0.198 A 
ATOM     79  F   UNL A   1      47.890  27.151  28.140  1.00  0.00    -0.203 F 
ATOM     80  F   UNL A   1      48.333  27.138  22.706  1.00  0.00    -0.200 F 
ATOM     81  C   UNL A   1      49.256  26.657  24.825  1.00  0.00     0.200 A 
ATOM     82  F   UNL A   1      50.120  26.170  26.969  1.00  0.00    -0.200 F 
ATOM     83  F   UNL A   1      50.343  26.126  24.250  1.00  0.00    -0.200 F 
ENDBRANCH  49  73
BRANCH  61  84
ATOM     84  C   UNL A   1      45.427  33.736  29.208  1.00  0.00     0.064 A 
ATOM     85  C   UNL A   1      45.275  34.836  28.351  1.00  0.00     0.173 A 
ATOM     86  C   UNL A   1      46.295  33.872  30.303  1.00  0.00     0.173 A 
ATOM     87  F   UNL A   1      44.469  34.753  27.282  1.00  0.00    -0.203 F 
ATOM     88  C   UNL A   1      45.980  36.017  28.570  1.00  0.00     0.198 A 
ATOM     89  C   UNL A   1      46.974  35.064  30.535  1.00  0.00     0.198 A 
ATOM     90  F   UNL A   1      46.471  32.853  31.156  1.00  0.00    -0.203 F 
ATOM     91  F   UNL A   1      45.854  37.039  27.712  1.00  0.00    -0.200 F 
ATOM     92  C   UNL A   1      46.822  36.133  29.666  1.00  0.00     0.200 A 
ATOM     93  F   UNL A   1      47.776  35.180  31.604  1.00  0.00    -0.200 F 
ATOM     94  F   UNL A   1      47.493  37.274  29.879  1.00  0.00    -0.200 F 
ENDBRANCH  61  84
ENDBRANCH  35  36
ENDBRANCH  28  30
ENDBRANCH  27  28
ENDBRANCH  26  27
ENDBRANCH   1  26
TORSDOF 17
ENDMDL
