MODEL 1
REMARK VINA RESULT:     -12.3      0.000      0.000
REMARK SMILES C[C@@H](C(=O)OCCOC(=O)c1ccc(-c2c3nc(c(-c4c(F)c(F)c(F)c(F)c4F)c4ccc([nH]4)c(-c4c(F)c(F)c(F)c(F)c4F)c4nc(c(-c5c(F)c(F)c(F)c(F)c5F)c5ccc2[nH]5)C=C4)C=C3)cc1)c1ccc(C[C@H]2CCCC2=O)cc1
REMARK SMILES IDX 6 1 5 2 3 3 4 4 2 5 1 6 74 7 75 8 86 9 76 10 85 11 77 12
REMARK SMILES IDX 78 13 79 14 80 15 83 16 81 17 82 18 84 19 7 20 8 21 9 22
REMARK SMILES IDX 10 23 11 24 12 25 73 26 13 27 72 28 14 29 15 30 16 31 66 32
REMARK SMILES IDX 17 33 71 34 65 35 67 36 18 37 70 38 64 39 63 40 19 42 51 43
REMARK SMILES IDX 31 44 50 45 32 46 35 47 49 48 68 49 33 50 34 51 48 53 69 54
REMARK SMILES IDX 36 55 20 56 21 57 29 58 22 59 23 60 27 61 30 62 24 63 25 64
REMARK SMILES IDX 28 65 26 66 52 67 53 68 61 69 54 70 55 71 59 72 62 73 56 74
REMARK SMILES IDX 57 75 60 76 58 77 37 78 38 79 46 80 39 81 40 82 44 83 47 84
REMARK SMILES IDX 41 85 42 86 45 87 43 88
REMARK H PARENT 67 41 35 52
REMARK Flexibility Score: inf
ROOT
ATOM      1  C   UNL A   1      31.483  28.394  27.460  1.00  0.00     0.274 C 
ENDROOT
BRANCH   1   2
ATOM      2  O   UNL A   1      32.447  27.569  26.773  1.00  0.00    -0.462 OA
BRANCH   2   3
ATOM      3  C   UNL A   1      31.981  26.418  26.213  1.00  0.00     0.313 C 
ATOM      4  O   UNL A   1      31.501  25.493  26.859  1.00  0.00    -0.252 OA
BRANCH   3   5
ATOM      5  C   UNL A   1      32.169  26.383  24.686  1.00  0.00     0.126 C 
ATOM      6  C   UNL A   1      33.619  26.649  24.260  1.00  0.00     0.025 C 
BRANCH   5   7
ATOM      7  C   UNL A   1      31.138  27.258  23.967  1.00  0.00    -0.034 A 
ATOM      8  C   UNL A   1      31.582  28.384  23.251  1.00  0.00     0.005 A 
ATOM      9  C   UNL A   1      29.763  26.977  23.950  1.00  0.00     0.005 A 
ATOM     10  C   UNL A   1      30.693  29.174  22.516  1.00  0.00     0.004 A 
ATOM     11  C   UNL A   1      28.867  27.787  23.238  1.00  0.00     0.004 A 
ATOM     12  C   UNL A   1      29.323  28.886  22.502  1.00  0.00    -0.047 A 
BRANCH  12  13
ATOM     13  C   UNL A   1      28.370  29.696  21.650  1.00  0.00     0.047 C 
BRANCH  13  14
ATOM     14  C   UNL A   1      27.669  30.882  22.317  1.00  0.00     0.060 C 
ATOM     15  C   UNL A   1      27.949  31.075  23.809  1.00  0.00     0.012 C 
ATOM     16  C   UNL A   1      28.105  32.209  21.739  1.00  0.00     0.136 C 
ATOM     17  C   UNL A   1      29.067  32.106  23.896  1.00  0.00     0.009 C 
ATOM     18  C   UNL A   1      28.806  33.076  22.751  1.00  0.00     0.076 C 
ATOM     19  O   UNL A   1      27.905  32.549  20.577  1.00  0.00    -0.299 OA
ENDBRANCH  13  14
ENDBRANCH  12  13
ENDBRANCH   5   7
ENDBRANCH   3   5
ENDBRANCH   2   3
ENDBRANCH   1   2
BRANCH   1  20
ATOM     20  C   UNL A   1      31.416  29.768  26.800  1.00  0.00     0.275 C 
BRANCH  20  21
ATOM     21  O   UNL A   1      32.748  30.180  26.445  1.00  0.00    -0.458 OA
BRANCH  21  22
ATOM     22  C   UNL A   1      33.237  31.258  27.098  1.00  0.00     0.338 C 
ATOM     23  O   UNL A   1      32.700  32.340  27.255  1.00  0.00    -0.246 OA
BRANCH  22  24
ATOM     24  C   UNL A   1      34.578  30.940  27.627  1.00  0.00     0.060 A 
ATOM     25  C   UNL A   1      34.941  29.618  27.862  1.00  0.00     0.016 A 
ATOM     26  C   UNL A   1      35.442  31.974  27.992  1.00  0.00     0.016 A 
ATOM     27  C   UNL A   1      36.125  29.337  28.541  1.00  0.00     0.010 A 
ATOM     28  C   UNL A   1      36.669  31.676  28.602  1.00  0.00     0.010 A 
ATOM     29  C   UNL A   1      37.007  30.354  28.935  1.00  0.00    -0.014 A 
BRANCH  29  30
ATOM     30  C   UNL A   1      38.218  30.041  29.759  1.00  0.00     0.031 A 
ATOM     31  C   UNL A   1      39.358  29.250  29.164  1.00  0.00     0.074 A 
ATOM     32  C   UNL A   1      38.355  30.503  31.019  1.00  0.00     0.049 A 
ATOM     33  N   UNL A   1      40.390  28.700  29.759  1.00  0.00    -0.248 NA
ATOM     34  C   UNL A   1      39.336  29.043  27.707  1.00  0.00     0.031 C 
ATOM     35  C   UNL A   1      37.394  31.349  31.726  1.00  0.00     0.029 A 
ATOM     36  N   UNL A   1      39.381  30.348  31.923  1.00  0.00    -0.354 N 
ATOM     37  C   UNL A   1      41.076  28.005  28.771  1.00  0.00     0.074 A 
ATOM     38  C   UNL A   1      40.366  28.227  27.530  1.00  0.00     0.031 C 
ATOM     39  C   UNL A   1      37.906  31.703  32.913  1.00  0.00     0.029 A 
ATOM     40  C   UNL A   1      39.179  31.017  33.107  1.00  0.00     0.049 A 
ATOM     41  H   UNL A   1      40.184  29.810  31.739  1.00  0.00     0.167 HD
ATOM     42  C   UNL A   1      42.190  27.241  28.891  1.00  0.00     0.037 A 
ATOM     43  C   UNL A   1      39.906  31.044  34.242  1.00  0.00     0.037 A 
ATOM     44  C   UNL A   1      42.956  27.092  30.100  1.00  0.00     0.049 A 
ATOM     45  C   UNL A   1      41.141  30.196  34.352  1.00  0.00     0.074 A 
ATOM     46  C   UNL A   1      44.096  26.334  30.315  1.00  0.00     0.029 A 
ATOM     47  N   UNL A   1      42.684  27.746  31.291  1.00  0.00    -0.354 N 
ATOM     48  N   UNL A   1      41.704  29.431  33.451  1.00  0.00    -0.248 NA
ATOM     49  C   UNL A   1      41.820  30.184  35.657  1.00  0.00     0.031 C 
ATOM     50  C   UNL A   1      44.504  26.517  31.641  1.00  0.00     0.029 A 
ATOM     51  C   UNL A   1      43.636  27.413  32.243  1.00  0.00     0.049 A 
ATOM     52  H   UNL A   1      41.926  28.357  31.441  1.00  0.00     0.167 HD
ATOM     53  C   UNL A   1      42.792  28.841  34.079  1.00  0.00     0.074 A 
ATOM     54  C   UNL A   1      42.833  29.361  35.428  1.00  0.00     0.031 C 
ATOM     55  C   UNL A   1      43.665  27.932  33.584  1.00  0.00     0.037 A 
BRANCH  42  56
ATOM     56  C   UNL A   1      42.632  26.463  27.686  1.00  0.00     0.064 A 
ATOM     57  C   UNL A   1      43.594  26.954  26.794  1.00  0.00     0.173 A 
ATOM     58  C   UNL A   1      42.117  25.176  27.459  1.00  0.00     0.173 A 
ATOM     59  F   UNL A   1      44.104  28.182  26.960  1.00  0.00    -0.203 F 
ATOM     60  C   UNL A   1      44.011  26.191  25.705  1.00  0.00     0.198 A 
ATOM     61  C   UNL A   1      42.555  24.407  26.385  1.00  0.00     0.198 A 
ATOM     62  F   UNL A   1      41.200  24.659  28.290  1.00  0.00    -0.203 F 
ATOM     63  F   UNL A   1      44.905  26.693  24.842  1.00  0.00    -0.200 F 
ATOM     64  C   UNL A   1      43.497  24.917  25.505  1.00  0.00     0.200 A 
ATOM     65  F   UNL A   1      42.065  23.174  26.202  1.00  0.00    -0.200 F 
ATOM     66  F   UNL A   1      43.908  24.183  24.463  1.00  0.00    -0.200 F 
ENDBRANCH  42  56
BRANCH  43  67
ATOM     67  C   UNL A   1      39.447  31.865  35.392  1.00  0.00     0.064 A 
ATOM     68  C   UNL A   1      39.870  33.192  35.543  1.00  0.00     0.173 A 
ATOM     69  C   UNL A   1      38.578  31.341  36.362  1.00  0.00     0.173 A 
ATOM     70  F   UNL A   1      40.737  33.722  34.668  1.00  0.00    -0.203 F 
ATOM     71  C   UNL A   1      39.440  33.965  36.620  1.00  0.00     0.198 A 
ATOM     72  C   UNL A   1      38.125  32.124  37.419  1.00  0.00     0.198 A 
ATOM     73  F   UNL A   1      38.157  30.071  36.270  1.00  0.00    -0.203 F 
ATOM     74  F   UNL A   1      39.893  35.217  36.768  1.00  0.00    -0.200 F 
ATOM     75  C   UNL A   1      38.559  33.434  37.552  1.00  0.00     0.200 A 
ATOM     76  F   UNL A   1      37.269  31.608  38.312  1.00  0.00    -0.200 F 
ATOM     77  F   UNL A   1      38.139  34.179  38.583  1.00  0.00    -0.200 F 
ENDBRANCH  43  67
BRANCH  55  78
ATOM     78  C   UNL A   1      44.744  27.446  34.504  1.00  0.00     0.064 A 
ATOM     79  C   UNL A   1      44.568  26.296  35.287  1.00  0.00     0.173 A 
ATOM     80  C   UNL A   1      45.973  28.117  34.583  1.00  0.00     0.173 A 
ATOM     81  F   UNL A   1      43.404  25.630  35.256  1.00  0.00    -0.203 F 
ATOM     82  C   UNL A   1      45.578  25.846  36.134  1.00  0.00     0.198 A 
ATOM     83  C   UNL A   1      46.988  27.653  35.415  1.00  0.00     0.198 A 
ATOM     84  F   UNL A   1      46.189  29.219  33.850  1.00  0.00    -0.203 F 
ATOM     85  F   UNL A   1      45.376  24.767  36.901  1.00  0.00    -0.200 F 
ATOM     86  C   UNL A   1      46.788  26.522  36.193  1.00  0.00     0.200 A 
ATOM     87  F   UNL A   1      48.159  28.302  35.467  1.00  0.00    -0.200 F 
ATOM     88  F   UNL A   1      47.760  26.086  37.006  1.00  0.00    -0.200 F 
ENDBRANCH  55  78
ENDBRANCH  29  30
ENDBRANCH  22  24
ENDBRANCH  21  22
ENDBRANCH  20  21
ENDBRANCH   1  20
TORSDOF 14
ENDMDL
MODEL 2
REMARK VINA RESULT:     -12.0      0.384      1.665
REMARK SMILES C[C@@H](C(=O)OCCOC(=O)c1ccc(-c2c3nc(c(-c4c(F)c(F)c(F)c(F)c4F)c4ccc([nH]4)c(-c4c(F)c(F)c(F)c(F)c4F)c4nc(c(-c5c(F)c(F)c(F)c(F)c5F)c5ccc2[nH]5)C=C4)C=C3)cc1)c1ccc(C[C@H]2CCCC2=O)cc1
REMARK SMILES IDX 6 1 5 2 3 3 4 4 2 5 1 6 74 7 75 8 86 9 76 10 85 11 77 12
REMARK SMILES IDX 78 13 79 14 80 15 83 16 81 17 82 18 84 19 7 20 8 21 9 22
REMARK SMILES IDX 10 23 11 24 12 25 73 26 13 27 72 28 14 29 15 30 16 31 66 32
REMARK SMILES IDX 17 33 71 34 65 35 67 36 18 37 70 38 64 39 63 40 19 42 51 43
REMARK SMILES IDX 31 44 50 45 32 46 35 47 49 48 68 49 33 50 34 51 48 53 69 54
REMARK SMILES IDX 36 55 20 56 21 57 29 58 22 59 23 60 27 61 30 62 24 63 25 64
REMARK SMILES IDX 28 65 26 66 52 67 53 68 61 69 54 70 55 71 59 72 62 73 56 74
REMARK SMILES IDX 57 75 60 76 58 77 37 78 38 79 46 80 39 81 40 82 44 83 47 84
REMARK SMILES IDX 41 85 42 86 45 87 43 88
REMARK H PARENT 67 41 35 52
REMARK Flexibility Score: inf
ROOT
ATOM      1  C   UNL A   1      32.288  28.204  27.180  1.00  0.00     0.274 C 
ENDROOT
BRANCH   1   2
ATOM      2  O   UNL A   1      32.522  27.279  26.097  1.00  0.00    -0.462 OA
BRANCH   2   3
ATOM      3  C   UNL A   1      31.596  26.296  25.918  1.00  0.00     0.313 C 
ATOM      4  O   UNL A   1      31.050  25.700  26.839  1.00  0.00    -0.252 OA
BRANCH   3   5
ATOM      5  C   UNL A   1      31.345  25.983  24.431  1.00  0.00     0.126 C 
ATOM      6  C   UNL A   1      32.636  25.666  23.666  1.00  0.00     0.025 C 
BRANCH   5   7
ATOM      7  C   UNL A   1      30.472  27.050  23.765  1.00  0.00    -0.034 A 
ATOM      8  C   UNL A   1      31.094  28.105  23.075  1.00  0.00     0.005 A 
ATOM      9  C   UNL A   1      29.069  27.016  23.772  1.00  0.00     0.005 A 
ATOM     10  C   UNL A   1      30.346  29.065  22.387  1.00  0.00     0.004 A 
ATOM     11  C   UNL A   1      28.317  27.995  23.107  1.00  0.00     0.004 A 
ATOM     12  C   UNL A   1      28.947  29.023  22.396  1.00  0.00    -0.047 A 
BRANCH  12  13
ATOM     13  C   UNL A   1      28.137  30.016  21.593  1.00  0.00     0.047 C 
BRANCH  13  14
ATOM     14  C   UNL A   1      27.571  31.226  22.340  1.00  0.00     0.060 C 
ATOM     15  C   UNL A   1      27.865  31.285  23.842  1.00  0.00     0.012 C 
ATOM     16  C   UNL A   1      28.155  32.532  21.853  1.00  0.00     0.136 C 
ATOM     17  C   UNL A   1      29.091  32.176  23.994  1.00  0.00     0.009 C 
ATOM     18  C   UNL A   1      28.945  33.244  22.918  1.00  0.00     0.076 C 
ATOM     19  O   UNL A   1      28.000  32.970  20.717  1.00  0.00    -0.299 OA
ENDBRANCH  13  14
ENDBRANCH  12  13
ENDBRANCH   5   7
ENDBRANCH   3   5
ENDBRANCH   2   3
ENDBRANCH   1   2
BRANCH   1  20
ATOM     20  C   UNL A   1      31.906  29.570  26.618  1.00  0.00     0.275 C 
BRANCH  20  21
ATOM     21  O   UNL A   1      33.107  30.278  26.260  1.00  0.00    -0.458 OA
BRANCH  21  22
ATOM     22  C   UNL A   1      33.496  31.264  27.100  1.00  0.00     0.338 C 
ATOM     23  O   UNL A   1      32.884  32.275  27.393  1.00  0.00    -0.246 OA
BRANCH  22  24
ATOM     24  C   UNL A   1      34.828  30.940  27.647  1.00  0.00     0.060 A 
ATOM     25  C   UNL A   1      35.162  29.622  27.939  1.00  0.00     0.016 A 
ATOM     26  C   UNL A   1      35.714  31.970  27.969  1.00  0.00     0.016 A 
ATOM     27  C   UNL A   1      36.338  29.345  28.634  1.00  0.00     0.010 A 
ATOM     28  C   UNL A   1      36.932  31.673  28.595  1.00  0.00     0.010 A 
ATOM     29  C   UNL A   1      37.241  30.359  28.986  1.00  0.00    -0.014 A 
BRANCH  29  30
ATOM     30  C   UNL A   1      38.443  30.057  29.827  1.00  0.00     0.031 A 
ATOM     31  C   UNL A   1      39.586  29.251  29.257  1.00  0.00     0.074 A 
ATOM     32  C   UNL A   1      38.571  30.542  31.080  1.00  0.00     0.049 A 
ATOM     33  N   UNL A   1      40.609  28.707  29.871  1.00  0.00    -0.248 NA
ATOM     34  C   UNL A   1      39.575  29.016  27.804  1.00  0.00     0.031 C 
ATOM     35  C   UNL A   1      37.607  31.404  31.762  1.00  0.00     0.029 A 
ATOM     36  N   UNL A   1      39.588  30.399  31.996  1.00  0.00    -0.354 N 
ATOM     37  C   UNL A   1      41.301  27.991  28.903  1.00  0.00     0.074 A 
ATOM     38  C   UNL A   1      40.603  28.193  27.651  1.00  0.00     0.031 C 
ATOM     39  C   UNL A   1      38.110  31.778  32.947  1.00  0.00     0.029 A 
ATOM     40  C   UNL A   1      39.378  31.090  33.165  1.00  0.00     0.049 A 
ATOM     41  H   UNL A   1      40.390  29.854  31.829  1.00  0.00     0.167 HD
ATOM     42  C   UNL A   1      42.410  27.224  29.047  1.00  0.00     0.037 A 
ATOM     43  C   UNL A   1      40.095  31.135  34.306  1.00  0.00     0.037 A 
ATOM     44  C   UNL A   1      43.165  27.095  30.266  1.00  0.00     0.049 A 
ATOM     45  C   UNL A   1      41.325  30.285  34.443  1.00  0.00     0.074 A 
ATOM     46  C   UNL A   1      44.299  26.336  30.505  1.00  0.00     0.029 A 
ATOM     47  N   UNL A   1      42.885  27.772  31.442  1.00  0.00    -0.354 N 
ATOM     48  N   UNL A   1      41.893  29.501  33.561  1.00  0.00    -0.248 NA
ATOM     49  C   UNL A   1      41.992  30.294  35.754  1.00  0.00     0.031 C 
ATOM     50  C   UNL A   1      44.696  26.542  31.831  1.00  0.00     0.029 A 
ATOM     51  C   UNL A   1      43.826  27.452  32.408  1.00  0.00     0.049 A 
ATOM     52  H   UNL A   1      42.129  28.388  31.573  1.00  0.00     0.167 HD
ATOM     53  C   UNL A   1      42.972  28.917  34.210  1.00  0.00     0.074 A 
ATOM     54  C   UNL A   1      43.004  29.463  35.550  1.00  0.00     0.031 C 
ATOM     55  C   UNL A   1      43.846  27.996  33.740  1.00  0.00     0.037 A 
BRANCH  42  56
ATOM     56  C   UNL A   1      42.860  26.423  27.861  1.00  0.00     0.064 A 
ATOM     57  C   UNL A   1      42.371  25.136  27.601  1.00  0.00     0.173 A 
ATOM     58  C   UNL A   1      43.761  26.984  26.941  1.00  0.00     0.173 A 
ATOM     59  F   UNL A   1      41.520  24.552  28.458  1.00  0.00    -0.203 F 
ATOM     60  C   UNL A   1      42.780  24.432  26.472  1.00  0.00     0.198 A 
ATOM     61  C   UNL A   1      44.149  26.287  25.800  1.00  0.00     0.198 A 
ATOM     62  F   UNL A   1      44.252  28.216  27.142  1.00  0.00    -0.203 F 
ATOM     63  F   UNL A   1      42.328  23.188  26.260  1.00  0.00    -0.200 F 
ATOM     64  C   UNL A   1      43.663  25.010  25.569  1.00  0.00     0.200 A 
ATOM     65  F   UNL A   1      44.991  26.853  24.926  1.00  0.00    -0.200 F 
ATOM     66  F   UNL A   1      44.047  24.334  24.478  1.00  0.00    -0.200 F 
ENDBRANCH  42  56
BRANCH  43  67
ATOM     67  C   UNL A   1      39.629  31.979  35.437  1.00  0.00     0.064 A 
ATOM     68  C   UNL A   1      40.126  33.277  35.618  1.00  0.00     0.173 A 
ATOM     69  C   UNL A   1      38.681  31.507  36.357  1.00  0.00     0.173 A 
ATOM     70  F   UNL A   1      41.068  33.755  34.792  1.00  0.00    -0.203 F 
ATOM     71  C   UNL A   1      39.689  34.072  36.677  1.00  0.00     0.198 A 
ATOM     72  C   UNL A   1      38.223  32.313  37.395  1.00  0.00     0.198 A 
ATOM     73  F   UNL A   1      38.186  30.267  36.235  1.00  0.00    -0.203 F 
ATOM     74  F   UNL A   1      40.211  35.292  36.856  1.00  0.00    -0.200 F 
ATOM     75  C   UNL A   1      38.730  33.593  37.558  1.00  0.00     0.200 A 
ATOM     76  F   UNL A   1      37.292  31.849  38.239  1.00  0.00    -0.200 F 
ATOM     77  F   UNL A   1      38.305  34.360  38.571  1.00  0.00    -0.200 F 
ENDBRANCH  43  67
BRANCH  55  78
ATOM     78  C   UNL A   1      44.915  27.523  34.678  1.00  0.00     0.064 A 
ATOM     79  C   UNL A   1      46.137  28.202  34.788  1.00  0.00     0.173 A 
ATOM     80  C   UNL A   1      44.707  26.401  35.493  1.00  0.00     0.173 A 
ATOM     81  F   UNL A   1      46.388  29.271  34.019  1.00  0.00    -0.203 F 
ATOM     82  C   UNL A   1      47.122  27.761  35.669  1.00  0.00     0.198 A 
ATOM     83  C   UNL A   1      45.686  25.975  36.386  1.00  0.00     0.198 A 
ATOM     84  F   UNL A   1      43.553  25.722  35.425  1.00  0.00    -0.203 F 
ATOM     85  F   UNL A   1      48.297  28.402  35.733  1.00  0.00    -0.200 F 
ATOM     86  C   UNL A   1      46.894  26.652  36.470  1.00  0.00     0.200 A 
ATOM     87  F   UNL A   1      45.462  24.908  37.165  1.00  0.00    -0.200 F 
ATOM     88  F   UNL A   1      47.842  26.231  37.318  1.00  0.00    -0.200 F 
ENDBRANCH  55  78
ENDBRANCH  29  30
ENDBRANCH  22  24
ENDBRANCH  21  22
ENDBRANCH  20  21
ENDBRANCH   1  20
TORSDOF 14
ENDMDL
MODEL 3
REMARK VINA RESULT:     -11.9      1.856      4.628
REMARK SMILES C[C@@H](C(=O)OCCOC(=O)c1ccc(-c2c3nc(c(-c4c(F)c(F)c(F)c(F)c4F)c4ccc([nH]4)c(-c4c(F)c(F)c(F)c(F)c4F)c4nc(c(-c5c(F)c(F)c(F)c(F)c5F)c5ccc2[nH]5)C=C4)C=C3)cc1)c1ccc(C[C@H]2CCCC2=O)cc1
REMARK SMILES IDX 6 1 5 2 3 3 4 4 2 5 1 6 74 7 75 8 86 9 76 10 85 11 77 12
REMARK SMILES IDX 78 13 79 14 80 15 83 16 81 17 82 18 84 19 7 20 8 21 9 22
REMARK SMILES IDX 10 23 11 24 12 25 73 26 13 27 72 28 14 29 15 30 16 31 66 32
REMARK SMILES IDX 17 33 71 34 65 35 67 36 18 37 70 38 64 39 63 40 19 42 51 43
REMARK SMILES IDX 31 44 50 45 32 46 35 47 49 48 68 49 33 50 34 51 48 53 69 54
REMARK SMILES IDX 36 55 20 56 21 57 29 58 22 59 23 60 27 61 30 62 24 63 25 64
REMARK SMILES IDX 28 65 26 66 52 67 53 68 61 69 54 70 55 71 59 72 62 73 56 74
REMARK SMILES IDX 57 75 60 76 58 77 37 78 38 79 46 80 39 81 40 82 44 83 47 84
REMARK SMILES IDX 41 85 42 86 45 87 43 88
REMARK H PARENT 67 41 35 52
REMARK Flexibility Score: inf
ROOT
ATOM      1  C   UNL A   1      31.238  29.340  24.147  1.00  0.00     0.274 C 
ENDROOT
BRANCH   1   2
ATOM      2  O   UNL A   1      30.267  28.277  24.055  1.00  0.00    -0.462 OA
BRANCH   2   3
ATOM      3  C   UNL A   1      30.547  27.261  23.192  1.00  0.00     0.313 C 
ATOM      4  O   UNL A   1      30.693  27.416  21.984  1.00  0.00    -0.252 OA
BRANCH   3   5
ATOM      5  C   UNL A   1      30.613  25.891  23.890  1.00  0.00     0.126 C 
ATOM      6  C   UNL A   1      29.988  25.907  25.291  1.00  0.00     0.025 C 
BRANCH   5   7
ATOM      7  C   UNL A   1      32.025  25.298  23.846  1.00  0.00    -0.034 A 
ATOM      8  C   UNL A   1      33.040  25.900  24.609  1.00  0.00     0.005 A 
ATOM      9  C   UNL A   1      32.359  24.153  23.107  1.00  0.00     0.005 A 
ATOM     10  C   UNL A   1      34.327  25.357  24.663  1.00  0.00     0.004 A 
ATOM     11  C   UNL A   1      33.658  23.625  23.137  1.00  0.00     0.004 A 
ATOM     12  C   UNL A   1      34.653  24.213  23.926  1.00  0.00    -0.047 A 
BRANCH  12  13
ATOM     13  C   UNL A   1      36.023  23.582  24.039  1.00  0.00     0.047 C 
BRANCH  13  14
ATOM     14  C   UNL A   1      36.338  22.815  25.325  1.00  0.00     0.060 C 
ATOM     15  C   UNL A   1      36.224  21.291  25.243  1.00  0.00     0.012 C 
ATOM     16  C   UNL A   1      37.769  23.002  25.773  1.00  0.00     0.136 C 
ATOM     17  C   UNL A   1      37.634  20.779  24.980  1.00  0.00     0.009 C 
ATOM     18  C   UNL A   1      38.551  21.715  25.757  1.00  0.00     0.076 C 
ATOM     19  O   UNL A   1      38.244  24.078  26.119  1.00  0.00    -0.299 OA
ENDBRANCH  13  14
ENDBRANCH  12  13
ENDBRANCH   5   7
ENDBRANCH   3   5
ENDBRANCH   2   3
ENDBRANCH   1   2
BRANCH   1  20
ATOM     20  C   UNL A   1      31.497  29.678  25.612  1.00  0.00     0.275 C 
BRANCH  20  21
ATOM     21  O   UNL A   1      32.840  30.177  25.743  1.00  0.00    -0.458 OA
BRANCH  21  22
ATOM     22  C   UNL A   1      33.076  31.000  26.790  1.00  0.00     0.338 C 
ATOM     23  O   UNL A   1      32.341  31.862  27.238  1.00  0.00    -0.246 OA
BRANCH  22  24
ATOM     24  C   UNL A   1      34.408  30.705  27.352  1.00  0.00     0.060 A 
ATOM     25  C   UNL A   1      34.769  29.393  27.642  1.00  0.00     0.016 A 
ATOM     26  C   UNL A   1      35.266  31.753  27.690  1.00  0.00     0.016 A 
ATOM     27  C   UNL A   1      35.943  29.140  28.350  1.00  0.00     0.010 A 
ATOM     28  C   UNL A   1      36.483  31.481  28.331  1.00  0.00     0.010 A 
ATOM     29  C   UNL A   1      36.817  30.173  28.719  1.00  0.00    -0.014 A 
BRANCH  29  30
ATOM     30  C   UNL A   1      38.015  29.894  29.574  1.00  0.00     0.031 A 
ATOM     31  C   UNL A   1      39.167  29.086  29.026  1.00  0.00     0.074 A 
ATOM     32  C   UNL A   1      38.130  30.402  30.818  1.00  0.00     0.049 A 
ATOM     33  N   UNL A   1      40.190  28.560  29.657  1.00  0.00    -0.248 NA
ATOM     34  C   UNL A   1      39.169  28.826  27.577  1.00  0.00     0.031 C 
ATOM     35  C   UNL A   1      37.155  31.269  31.479  1.00  0.00     0.029 A 
ATOM     36  N   UNL A   1      39.142  30.283  31.744  1.00  0.00    -0.354 N 
ATOM     37  C   UNL A   1      40.894  27.833  28.706  1.00  0.00     0.074 A 
ATOM     38  C   UNL A   1      40.204  28.008  27.447  1.00  0.00     0.031 C 
ATOM     39  C   UNL A   1      37.647  31.667  32.660  1.00  0.00     0.029 A 
ATOM     40  C   UNL A   1      38.919  30.993  32.899  1.00  0.00     0.049 A 
ATOM     41  H   UNL A   1      39.950  29.741  31.592  1.00  0.00     0.167 HD
ATOM     42  C   UNL A   1      42.008  27.077  28.871  1.00  0.00     0.037 A 
ATOM     43  C   UNL A   1      39.627  31.063  34.044  1.00  0.00     0.037 A 
ATOM     44  C   UNL A   1      42.755  26.975  30.098  1.00  0.00     0.049 A 
ATOM     45  C   UNL A   1      40.863  30.224  34.205  1.00  0.00     0.074 A 
ATOM     46  C   UNL A   1      43.893  26.228  30.358  1.00  0.00     0.029 A 
ATOM     47  N   UNL A   1      42.462  27.670  31.260  1.00  0.00    -0.354 N 
ATOM     48  N   UNL A   1      41.442  29.429  33.341  1.00  0.00    -0.248 NA
ATOM     49  C   UNL A   1      41.520  30.262  35.521  1.00  0.00     0.031 C 
ATOM     50  C   UNL A   1      44.279  26.460  31.683  1.00  0.00     0.029 A 
ATOM     51  C   UNL A   1      43.398  27.374  32.238  1.00  0.00     0.049 A 
ATOM     52  H   UNL A   1      41.700  28.283  31.375  1.00  0.00     0.167 HD
ATOM     53  C   UNL A   1      42.521  28.865  34.007  1.00  0.00     0.074 A 
ATOM     54  C   UNL A   1      42.539  29.434  35.338  1.00  0.00     0.031 C 
ATOM     55  C   UNL A   1      43.405  27.942  33.560  1.00  0.00     0.037 A 
BRANCH  42  56
ATOM     56  C   UNL A   1      42.472  26.258  27.704  1.00  0.00     0.064 A 
ATOM     57  C   UNL A   1      41.898  25.020  27.385  1.00  0.00     0.173 A 
ATOM     58  C   UNL A   1      43.477  26.755  26.859  1.00  0.00     0.173 A 
ATOM     59  F   UNL A   1      40.945  24.497  28.169  1.00  0.00    -0.203 F 
ATOM     60  C   UNL A   1      42.326  24.301  26.272  1.00  0.00     0.198 A 
ATOM     61  C   UNL A   1      43.885  26.045  25.733  1.00  0.00     0.198 A 
ATOM     62  F   UNL A   1      44.053  27.939  27.117  1.00  0.00    -0.203 F 
ATOM     63  F   UNL A   1      41.789  23.102  26.005  1.00  0.00    -0.200 F 
ATOM     64  C   UNL A   1      43.314  24.816  25.443  1.00  0.00     0.200 A 
ATOM     65  F   UNL A   1      44.831  26.551  24.929  1.00  0.00    -0.200 F 
ATOM     66  F   UNL A   1      43.716  24.126  24.368  1.00  0.00    -0.200 F 
ENDBRANCH  42  56
BRANCH  43  67
ATOM     67  C   UNL A   1      39.147  31.924  35.157  1.00  0.00     0.064 A 
ATOM     68  C   UNL A   1      38.410  31.382  36.218  1.00  0.00     0.173 A 
ATOM     69  C   UNL A   1      39.414  33.301  35.181  1.00  0.00     0.173 A 
ATOM     70  F   UNL A   1      38.089  30.080  36.215  1.00  0.00    -0.203 F 
ATOM     71  C   UNL A   1      37.960  32.186  37.264  1.00  0.00     0.198 A 
ATOM     72  C   UNL A   1      38.991  34.096  36.242  1.00  0.00     0.198 A 
ATOM     73  F   UNL A   1      40.102  33.869  34.181  1.00  0.00    -0.203 F 
ATOM     74  F   UNL A   1      37.219  31.654  38.245  1.00  0.00    -0.200 F 
ATOM     75  C   UNL A   1      38.259  33.540  37.281  1.00  0.00     0.200 A 
ATOM     76  F   UNL A   1      39.289  35.403  36.256  1.00  0.00    -0.200 F 
ATOM     77  F   UNL A   1      37.834  34.312  38.290  1.00  0.00    -0.200 F 
ENDBRANCH  43  67
BRANCH  55  78
ATOM     78  C   UNL A   1      44.470  27.493  34.514  1.00  0.00     0.064 A 
ATOM     79  C   UNL A   1      45.687  28.182  34.620  1.00  0.00     0.173 A 
ATOM     80  C   UNL A   1      44.264  26.385  35.348  1.00  0.00     0.173 A 
ATOM     81  F   UNL A   1      45.936  29.238  33.833  1.00  0.00    -0.203 F 
ATOM     82  C   UNL A   1      46.669  27.764  35.516  1.00  0.00     0.198 A 
ATOM     83  C   UNL A   1      45.239  25.982  36.256  1.00  0.00     0.198 A 
ATOM     84  F   UNL A   1      43.114  25.697  35.285  1.00  0.00    -0.203 F 
ATOM     85  F   UNL A   1      47.839  28.414  35.575  1.00  0.00    -0.200 F 
ATOM     86  C   UNL A   1      46.442  26.668  36.335  1.00  0.00     0.200 A 
ATOM     87  F   UNL A   1      45.017  24.928  37.052  1.00  0.00    -0.200 F 
ATOM     88  F   UNL A   1      47.387  26.269  37.197  1.00  0.00    -0.200 F 
ENDBRANCH  55  78
ENDBRANCH  29  30
ENDBRANCH  22  24
ENDBRANCH  21  22
ENDBRANCH  20  21
ENDBRANCH   1  20
TORSDOF 14
ENDMDL
