MODEL 1
REMARK VINA RESULT:     -12.5      0.000      0.000
REMARK SMILES O=C(OCCOC(=O)c1ccc([C@H]2CCC[N@@H+](CCN3CCCC3=O)C2)cc1)c1ccc(-c2c3nc(c(-c4c(F)c(F)c(F)c(F)c4F)c4ccc([nH]4)c(-c4c(F)c(F)c(F)c(F)c4F)c4nc(c(-c5c(F)c(F)c(F)c(F)c5F)c5ccc2[nH]5)C=C4)C=C3)cc1
REMARK SMILES IDX 5 1 4 2 3 3 2 4 1 5 29 6 30 7 91 8 31 9 90 10 32 11 33 12
REMARK SMILES IDX 34 13 84 14 35 15 89 16 83 17 85 18 36 19 88 20 82 21 81 22
REMARK SMILES IDX 37 24 69 25 49 26 68 27 50 28 53 29 67 30 86 31 51 32 52 33
REMARK SMILES IDX 66 35 87 36 54 37 38 38 39 39 47 40 40 41 41 42 45 43 48 44
REMARK SMILES IDX 42 45 43 46 46 47 44 48 70 49 71 50 79 51 72 52 73 53 77 54
REMARK SMILES IDX 80 55 74 56 75 57 78 58 76 59 55 60 56 61 64 62 57 63 58 64
REMARK SMILES IDX 62 65 65 66 59 67 60 68 63 69 61 70 6 71 7 72 8 73 9 74
REMARK SMILES IDX 10 75 28 76 11 77 27 78 12 79 13 80 14 81 26 82 15 83 17 84
REMARK SMILES IDX 16 85 18 87 19 88 20 89 21 90 24 91 22 92 23 93 25 94
REMARK H PARENT 85 23 53 34 17 86
REMARK Flexibility Score: inf
ROOT
ATOM      1  C   UNL A   1      42.869  21.169  26.086  1.00  0.00     0.275 C 
ENDROOT
BRANCH   1   2
ATOM      2  C   UNL A   1      43.891  21.769  25.112  1.00  0.00     0.275 C 
BRANCH   2   3
ATOM      3  O   UNL A   1      43.678  23.135  24.714  1.00  0.00    -0.458 OA
BRANCH   3   4
ATOM      4  C   UNL A   1      44.244  24.274  25.172  1.00  0.00     0.338 C 
ATOM      5  O   UNL A   1      45.255  24.705  24.621  1.00  0.00    -0.246 OA
BRANCH   4   6
ATOM      6  C   UNL A   1      43.754  24.997  26.383  1.00  0.00     0.060 A 
ATOM      7  C   UNL A   1      42.590  24.682  27.085  1.00  0.00     0.016 A 
ATOM      8  C   UNL A   1      44.497  26.114  26.801  1.00  0.00     0.016 A 
ATOM      9  C   UNL A   1      42.201  25.422  28.206  1.00  0.00     0.010 A 
ATOM     10  C   UNL A   1      44.126  26.843  27.937  1.00  0.00     0.010 A 
ATOM     11  C   UNL A   1      42.956  26.511  28.638  1.00  0.00    -0.014 A 
BRANCH  11  12
ATOM     12  C   UNL A   1      42.422  27.416  29.688  1.00  0.00     0.031 A 
ATOM     13  C   UNL A   1      42.895  27.210  31.102  1.00  0.00     0.074 A 
ATOM     14  C   UNL A   1      41.597  28.447  29.404  1.00  0.00     0.049 A 
ATOM     15  N   UNL A   1      42.550  27.855  32.184  1.00  0.00    -0.248 NA
ATOM     16  C   UNL A   1      43.970  26.220  31.314  1.00  0.00     0.031 C 
ATOM     17  C   UNL A   1      41.214  28.914  28.069  1.00  0.00     0.029 A 
ATOM     18  N   UNL A   1      40.827  29.222  30.242  1.00  0.00    -0.354 N 
ATOM     19  C   UNL A   1      43.449  27.450  33.159  1.00  0.00     0.074 A 
ATOM     20  C   UNL A   1      44.256  26.395  32.594  1.00  0.00     0.031 C 
ATOM     21  C   UNL A   1      40.131  29.707  28.173  1.00  0.00     0.029 A 
ATOM     22  C   UNL A   1      39.795  29.857  29.579  1.00  0.00     0.049 A 
ATOM     23  H   UNL A   1      40.994  29.313  31.207  1.00  0.00     0.167 HD
ATOM     24  C   UNL A   1      43.644  28.001  34.378  1.00  0.00     0.037 A 
ATOM     25  C   UNL A   1      38.678  30.417  30.083  1.00  0.00     0.037 A 
ATOM     26  C   UNL A   1      42.787  29.011  34.934  1.00  0.00     0.049 A 
ATOM     27  C   UNL A   1      38.642  30.667  31.558  1.00  0.00     0.074 A 
ATOM     28  C   UNL A   1      42.892  29.682  36.137  1.00  0.00     0.029 A 
ATOM     29  N   UNL A   1      41.627  29.466  34.320  1.00  0.00    -0.354 N 
ATOM     30  N   UNL A   1      39.494  30.302  32.481  1.00  0.00    -0.248 NA
ATOM     31  C   UNL A   1      37.547  31.519  32.039  1.00  0.00     0.031 C 
ATOM     32  C   UNL A   1      41.763  30.499  36.279  1.00  0.00     0.029 A 
ATOM     33  C   UNL A   1      40.985  30.379  35.139  1.00  0.00     0.049 A 
ATOM     34  H   UNL A   1      41.309  29.181  33.433  1.00  0.00     0.167 HD
ATOM     35  C   UNL A   1      39.101  30.959  33.632  1.00  0.00     0.074 A 
ATOM     36  C   UNL A   1      37.882  31.675  33.309  1.00  0.00     0.031 C 
ATOM     37  C   UNL A   1      39.749  31.041  34.819  1.00  0.00     0.037 A 
BRANCH  24  38
ATOM     38  C   UNL A   1      44.856  27.562  35.143  1.00  0.00     0.064 A 
ATOM     39  C   UNL A   1      44.785  26.492  36.054  1.00  0.00     0.173 A 
ATOM     40  C   UNL A   1      46.100  28.174  34.947  1.00  0.00     0.173 A 
ATOM     41  F   UNL A   1      43.615  25.878  36.286  1.00  0.00    -0.203 F 
ATOM     42  C   UNL A   1      45.912  26.067  36.752  1.00  0.00     0.198 A 
ATOM     43  C   UNL A   1      47.230  27.730  35.631  1.00  0.00     0.198 A 
ATOM     44  F   UNL A   1      46.222  29.198  34.090  1.00  0.00    -0.203 F 
ATOM     45  F   UNL A   1      45.811  25.069  37.640  1.00  0.00    -0.200 F 
ATOM     46  C   UNL A   1      47.135  26.682  36.534  1.00  0.00     0.200 A 
ATOM     47  F   UNL A   1      48.414  28.319  35.415  1.00  0.00    -0.200 F 
ATOM     48  F   UNL A   1      48.222  26.266  37.199  1.00  0.00    -0.200 F 
ENDBRANCH  24  38
BRANCH  25  49
ATOM     49  C   UNL A   1      37.494  30.771  29.258  1.00  0.00     0.064 A 
ATOM     50  C   UNL A   1      37.235  32.061  28.789  1.00  0.00     0.173 A 
ATOM     51  C   UNL A   1      36.528  29.784  28.995  1.00  0.00     0.173 A 
ATOM     52  F   UNL A   1      38.086  33.058  29.065  1.00  0.00    -0.203 F 
ATOM     53  C   UNL A   1      36.080  32.340  28.054  1.00  0.00     0.198 A 
ATOM     54  C   UNL A   1      35.385  30.057  28.245  1.00  0.00     0.198 A 
ATOM     55  F   UNL A   1      36.689  28.546  29.484  1.00  0.00    -0.203 F 
ATOM     56  F   UNL A   1      35.847  33.589  27.625  1.00  0.00    -0.200 F 
ATOM     57  C   UNL A   1      35.165  31.337  27.770  1.00  0.00     0.200 A 
ATOM     58  F   UNL A   1      34.513  29.076  27.974  1.00  0.00    -0.200 F 
ATOM     59  F   UNL A   1      34.070  31.603  27.044  1.00  0.00    -0.200 F 
ENDBRANCH  25  49
BRANCH  37  60
ATOM     60  C   UNL A   1      39.186  32.019  35.797  1.00  0.00     0.064 A 
ATOM     61  C   UNL A   1      39.614  33.352  35.849  1.00  0.00     0.173 A 
ATOM     62  C   UNL A   1      38.256  31.581  36.754  1.00  0.00     0.173 A 
ATOM     63  F   UNL A   1      40.536  33.800  34.983  1.00  0.00    -0.203 F 
ATOM     64  C   UNL A   1      39.168  34.199  36.857  1.00  0.00     0.198 A 
ATOM     65  C   UNL A   1      37.783  32.443  37.733  1.00  0.00     0.198 A 
ATOM     66  F   UNL A   1      37.830  30.310  36.751  1.00  0.00    -0.203 F 
ATOM     67  F   UNL A   1      39.661  35.442  36.950  1.00  0.00    -0.200 F 
ATOM     68  C   UNL A   1      38.250  33.746  37.795  1.00  0.00     0.200 A 
ATOM     69  F   UNL A   1      36.896  32.002  38.636  1.00  0.00    -0.200 F 
ATOM     70  F   UNL A   1      37.836  34.559  38.776  1.00  0.00    -0.200 F 
ENDBRANCH  37  60
ENDBRANCH  11  12
ENDBRANCH   4   6
ENDBRANCH   3   4
ENDBRANCH   2   3
ENDBRANCH   1   2
BRANCH   1  71
ATOM     71  O   UNL A   1      41.494  21.330  25.703  1.00  0.00    -0.458 OA
BRANCH  71  72
ATOM     72  C   UNL A   1      40.634  21.498  26.743  1.00  0.00     0.338 C 
ATOM     73  O   UNL A   1      40.870  21.304  27.922  1.00  0.00    -0.246 OA
BRANCH  72  74
ATOM     74  C   UNL A   1      39.343  22.011  26.243  1.00  0.00     0.060 A 
ATOM     75  C   UNL A   1      38.557  21.214  25.413  1.00  0.00     0.016 A 
ATOM     76  C   UNL A   1      38.934  23.308  26.532  1.00  0.00     0.016 A 
ATOM     77  C   UNL A   1      37.299  21.667  24.983  1.00  0.00     0.005 A 
ATOM     78  C   UNL A   1      37.711  23.780  26.022  1.00  0.00     0.005 A 
ATOM     79  C   UNL A   1      36.817  22.942  25.330  1.00  0.00    -0.039 A 
BRANCH  79  80
ATOM     80  C   UNL A   1      35.371  23.375  24.972  1.00  0.00     0.074 C 
ATOM     81  C   UNL A   1      35.275  23.863  23.511  1.00  0.00     0.020 C 
ATOM     82  C   UNL A   1      34.294  22.268  25.211  1.00  0.00     0.270 C 
ATOM     83  C   UNL A   1      33.837  24.199  23.137  1.00  0.00     0.062 C 
ATOM     84  N   UNL A   1      32.965  22.390  24.592  1.00  0.00    -0.333 N 
ATOM     85  C   UNL A   1      32.949  22.970  23.249  1.00  0.00     0.262 C 
ATOM     86  H   UNL A   1      32.496  23.077  25.183  1.00  0.00     0.348 HD
BRANCH  84  87
ATOM     87  C   UNL A   1      32.183  21.125  24.641  1.00  0.00     0.284 C 
BRANCH  87  88
ATOM     88  C   UNL A   1      32.163  20.146  23.421  1.00  0.00     0.180 C 
BRANCH  88  89
ATOM     89  N   UNL A   1      32.805  18.867  23.678  1.00  0.00    -0.337 N 
ATOM     90  C   UNL A   1      33.642  18.638  24.822  1.00  0.00     0.120 C 
ATOM     91  C   UNL A   1      32.834  17.832  22.755  1.00  0.00     0.222 C 
ATOM     92  C   UNL A   1      34.511  17.455  24.460  1.00  0.00     0.031 C 
ATOM     93  C   UNL A   1      33.997  16.956  23.121  1.00  0.00     0.102 C 
ATOM     94  O   UNL A   1      32.157  17.701  21.759  1.00  0.00    -0.275 OA
ENDBRANCH  88  89
ENDBRANCH  87  88
ENDBRANCH  84  87
ENDBRANCH  79  80
ENDBRANCH  72  74
ENDBRANCH  71  72
ENDBRANCH   1  71
TORSDOF 15
ENDMDL
MODEL 2
REMARK VINA RESULT:     -12.5      1.019      2.001
REMARK SMILES O=C(OCCOC(=O)c1ccc([C@H]2CCC[N@@H+](CCN3CCCC3=O)C2)cc1)c1ccc(-c2c3nc(c(-c4c(F)c(F)c(F)c(F)c4F)c4ccc([nH]4)c(-c4c(F)c(F)c(F)c(F)c4F)c4nc(c(-c5c(F)c(F)c(F)c(F)c5F)c5ccc2[nH]5)C=C4)C=C3)cc1
REMARK SMILES IDX 5 1 4 2 3 3 2 4 1 5 29 6 30 7 91 8 31 9 90 10 32 11 33 12
REMARK SMILES IDX 34 13 84 14 35 15 89 16 83 17 85 18 36 19 88 20 82 21 81 22
REMARK SMILES IDX 37 24 69 25 49 26 68 27 50 28 53 29 67 30 86 31 51 32 52 33
REMARK SMILES IDX 66 35 87 36 54 37 38 38 39 39 47 40 40 41 41 42 45 43 48 44
REMARK SMILES IDX 42 45 43 46 46 47 44 48 70 49 71 50 79 51 72 52 73 53 77 54
REMARK SMILES IDX 80 55 74 56 75 57 78 58 76 59 55 60 56 61 64 62 57 63 58 64
REMARK SMILES IDX 62 65 65 66 59 67 60 68 63 69 61 70 6 71 7 72 8 73 9 74
REMARK SMILES IDX 10 75 28 76 11 77 27 78 12 79 13 80 14 81 26 82 15 83 17 84
REMARK SMILES IDX 16 85 18 87 19 88 20 89 21 90 24 91 22 92 23 93 25 94
REMARK H PARENT 85 23 53 34 17 86
REMARK Flexibility Score: inf
ROOT
ATOM      1  C   UNL A   1      43.689  19.682  25.578  1.00  0.00     0.275 C 
ENDROOT
BRANCH   1   2
ATOM      2  C   UNL A   1      44.207  20.877  24.770  1.00  0.00     0.275 C 
BRANCH   2   3
ATOM      3  O   UNL A   1      43.500  22.120  24.929  1.00  0.00    -0.458 OA
BRANCH   3   4
ATOM      4  C   UNL A   1      43.952  23.393  24.879  1.00  0.00     0.338 C 
ATOM      5  O   UNL A   1      44.841  23.683  24.081  1.00  0.00    -0.246 OA
BRANCH   4   6
ATOM      6  C   UNL A   1      43.487  24.458  25.816  1.00  0.00     0.060 A 
ATOM      7  C   UNL A   1      44.065  25.722  25.940  1.00  0.00     0.016 A 
ATOM      8  C   UNL A   1      42.424  24.131  26.676  1.00  0.00     0.016 A 
ATOM      9  C   UNL A   1      43.569  26.657  26.853  1.00  0.00     0.010 A 
ATOM     10  C   UNL A   1      41.907  25.070  27.575  1.00  0.00     0.010 A 
ATOM     11  C   UNL A   1      42.495  26.340  27.684  1.00  0.00    -0.014 A 
BRANCH  11  12
ATOM     12  C   UNL A   1      42.119  27.254  28.794  1.00  0.00     0.031 A 
ATOM     13  C   UNL A   1      42.731  27.009  30.146  1.00  0.00     0.074 A 
ATOM     14  C   UNL A   1      41.315  28.323  28.609  1.00  0.00     0.049 A 
ATOM     15  N   UNL A   1      42.534  27.654  31.265  1.00  0.00    -0.248 NA
ATOM     16  C   UNL A   1      43.777  25.970  30.233  1.00  0.00     0.031 C 
ATOM     17  C   UNL A   1      40.812  28.824  27.327  1.00  0.00     0.029 A 
ATOM     18  N   UNL A   1      40.675  29.120  29.532  1.00  0.00    -0.354 N 
ATOM     19  C   UNL A   1      43.514  27.197  32.134  1.00  0.00     0.074 A 
ATOM     20  C   UNL A   1      44.207  26.115  31.476  1.00  0.00     0.031 C 
ATOM     21  C   UNL A   1      39.783  29.662  27.554  1.00  0.00     0.029 A 
ATOM     22  C   UNL A   1      39.607  29.808  28.990  1.00  0.00     0.049 A 
ATOM     23  H   UNL A   1      40.949  29.191  30.474  1.00  0.00     0.167 HD
ATOM     24  C   UNL A   1      43.863  27.723  33.329  1.00  0.00     0.037 A 
ATOM     25  C   UNL A   1      38.577  30.409  29.616  1.00  0.00     0.037 A 
ATOM     26  C   UNL A   1      43.117  28.761  33.983  1.00  0.00     0.049 A 
ATOM     27  C   UNL A   1      38.711  30.642  31.089  1.00  0.00     0.074 A 
ATOM     28  C   UNL A   1      43.381  29.411  35.173  1.00  0.00     0.029 A 
ATOM     29  N   UNL A   1      41.919  29.275  33.501  1.00  0.00    -0.354 N 
ATOM     30  N   UNL A   1      39.640  30.228  31.911  1.00  0.00    -0.248 NA
ATOM     31  C   UNL A   1      37.713  31.534  31.692  1.00  0.00     0.031 C 
ATOM     32  C   UNL A   1      42.312  30.275  35.443  1.00  0.00     0.029 A 
ATOM     33  C   UNL A   1      41.411  30.204  34.393  1.00  0.00     0.049 A 
ATOM     34  H   UNL A   1      41.495  29.016  32.652  1.00  0.00     0.167 HD
ATOM     35  C   UNL A   1      39.403  30.886  33.103  1.00  0.00     0.074 A 
ATOM     36  C   UNL A   1      38.190  31.659  32.920  1.00  0.00     0.031 C 
ATOM     37  C   UNL A   1      40.178  30.924  34.213  1.00  0.00     0.037 A 
BRANCH  24  38
ATOM     38  C   UNL A   1      45.129  27.221  33.955  1.00  0.00     0.064 A 
ATOM     39  C   UNL A   1      46.364  27.834  33.674  1.00  0.00     0.173 A 
ATOM     40  C   UNL A   1      45.118  26.159  34.868  1.00  0.00     0.173 A 
ATOM     41  F   UNL A   1      46.432  28.849  32.800  1.00  0.00    -0.203 F 
ATOM     42  C   UNL A   1      47.540  27.386  34.269  1.00  0.00     0.198 A 
ATOM     43  C   UNL A   1      46.294  25.729  35.478  1.00  0.00     0.198 A 
ATOM     44  F   UNL A   1      43.967  25.541  35.171  1.00  0.00    -0.203 F 
ATOM     45  F   UNL A   1      48.709  27.962  33.957  1.00  0.00    -0.200 F 
ATOM     46  C   UNL A   1      47.503  26.338  35.175  1.00  0.00     0.200 A 
ATOM     47  F   UNL A   1      46.258  24.722  36.361  1.00  0.00    -0.200 F 
ATOM     48  F   UNL A   1      48.634  25.913  35.755  1.00  0.00    -0.200 F 
ENDBRANCH  24  38
BRANCH  25  49
ATOM     49  C   UNL A   1      37.328  30.826  28.926  1.00  0.00     0.064 A 
ATOM     50  C   UNL A   1      37.024  32.151  28.610  1.00  0.00     0.173 A 
ATOM     51  C   UNL A   1      36.350  29.856  28.646  1.00  0.00     0.173 A 
ATOM     52  F   UNL A   1      37.889  33.129  28.914  1.00  0.00    -0.203 F 
ATOM     53  C   UNL A   1      35.812  32.485  28.000  1.00  0.00     0.198 A 
ATOM     54  C   UNL A   1      35.149  30.185  28.020  1.00  0.00     0.198 A 
ATOM     55  F   UNL A   1      36.559  28.578  28.996  1.00  0.00    -0.203 F 
ATOM     56  F   UNL A   1      35.538  33.766  27.716  1.00  0.00    -0.200 F 
ATOM     57  C   UNL A   1      34.883  31.501  27.692  1.00  0.00     0.200 A 
ATOM     58  F   UNL A   1      34.264  29.222  27.723  1.00  0.00    -0.200 F 
ATOM     59  F   UNL A   1      33.732  31.822  27.085  1.00  0.00    -0.200 F 
ENDBRANCH  25  49
BRANCH  37  60
ATOM     60  C   UNL A   1      39.768  31.913  35.255  1.00  0.00     0.064 A 
ATOM     61  C   UNL A   1      38.831  31.603  36.250  1.00  0.00     0.173 A 
ATOM     62  C   UNL A   1      40.268  33.223  35.198  1.00  0.00     0.173 A 
ATOM     63  F   UNL A   1      38.293  30.375  36.311  1.00  0.00    -0.203 F 
ATOM     64  C   UNL A   1      38.372  32.585  37.120  1.00  0.00     0.198 A 
ATOM     65  C   UNL A   1      39.837  34.190  36.095  1.00  0.00     0.198 A 
ATOM     66  F   UNL A   1      41.156  33.569  34.253  1.00  0.00    -0.203 F 
ATOM     67  F   UNL A   1      37.405  32.295  38.001  1.00  0.00    -0.200 F 
ATOM     68  C   UNL A   1      38.878  33.876  37.045  1.00  0.00     0.200 A 
ATOM     69  F   UNL A   1      40.329  35.435  36.022  1.00  0.00    -0.200 F 
ATOM     70  F   UNL A   1      38.421  34.824  37.872  1.00  0.00    -0.200 F 
ENDBRANCH  37  60
ENDBRANCH  11  12
ENDBRANCH   4   6
ENDBRANCH   3   4
ENDBRANCH   2   3
ENDBRANCH   1   2
BRANCH   1  71
ATOM     71  O   UNL A   1      42.299  19.375  25.388  1.00  0.00    -0.458 OA
BRANCH  71  72
ATOM     72  C   UNL A   1      41.526  19.546  26.494  1.00  0.00     0.338 C 
ATOM     73  O   UNL A   1      41.800  19.214  27.633  1.00  0.00    -0.246 OA
BRANCH  72  74
ATOM     74  C   UNL A   1      40.285  20.259  26.128  1.00  0.00     0.060 A 
ATOM     75  C   UNL A   1      39.309  19.606  25.378  1.00  0.00     0.016 A 
ATOM     76  C   UNL A   1      40.109  21.597  26.461  1.00  0.00     0.016 A 
ATOM     77  C   UNL A   1      38.098  20.253  25.079  1.00  0.00     0.005 A 
ATOM     78  C   UNL A   1      38.929  22.259  26.079  1.00  0.00     0.005 A 
ATOM     79  C   UNL A   1      37.854  21.580  25.477  1.00  0.00    -0.039 A 
BRANCH  79  80
ATOM     80  C   UNL A   1      36.463  22.233  25.268  1.00  0.00     0.074 C 
ATOM     81  C   UNL A   1      36.266  22.681  23.804  1.00  0.00     0.020 C 
ATOM     82  C   UNL A   1      35.261  21.328  25.690  1.00  0.00     0.270 C 
ATOM     83  C   UNL A   1      34.865  23.238  23.583  1.00  0.00     0.062 C 
ATOM     84  N   UNL A   1      33.901  21.648  25.224  1.00  0.00    -0.333 N 
ATOM     85  C   UNL A   1      33.813  22.177  23.864  1.00  0.00     0.262 C 
ATOM     86  H   UNL A   1      33.625  22.422  25.829  1.00  0.00     0.348 HD
BRANCH  84  87
ATOM     87  C   UNL A   1      32.939  20.532  25.432  1.00  0.00     0.284 C 
BRANCH  87  88
ATOM     88  C   UNL A   1      32.364  19.732  24.217  1.00  0.00     0.180 C 
BRANCH  88  89
ATOM     89  N   UNL A   1      32.863  18.370  24.116  1.00  0.00    -0.337 N 
ATOM     90  C   UNL A   1      33.442  17.673  25.230  1.00  0.00     0.120 C 
ATOM     91  C   UNL A   1      33.008  17.701  22.909  1.00  0.00     0.222 C 
ATOM     92  C   UNL A   1      34.290  16.576  24.627  1.00  0.00     0.031 C 
ATOM     93  C   UNL A   1      34.020  16.615  23.134  1.00  0.00     0.102 C 
ATOM     94  O   UNL A   1      32.533  17.991  21.834  1.00  0.00    -0.275 OA
ENDBRANCH  88  89
ENDBRANCH  87  88
ENDBRANCH  84  87
ENDBRANCH  79  80
ENDBRANCH  72  74
ENDBRANCH  71  72
ENDBRANCH   1  71
TORSDOF 15
ENDMDL
MODEL 3
REMARK VINA RESULT:     -12.3      1.936      3.134
REMARK SMILES O=C(OCCOC(=O)c1ccc([C@H]2CCC[N@@H+](CCN3CCCC3=O)C2)cc1)c1ccc(-c2c3nc(c(-c4c(F)c(F)c(F)c(F)c4F)c4ccc([nH]4)c(-c4c(F)c(F)c(F)c(F)c4F)c4nc(c(-c5c(F)c(F)c(F)c(F)c5F)c5ccc2[nH]5)C=C4)C=C3)cc1
REMARK SMILES IDX 5 1 4 2 3 3 2 4 1 5 29 6 30 7 91 8 31 9 90 10 32 11 33 12
REMARK SMILES IDX 34 13 84 14 35 15 89 16 83 17 85 18 36 19 88 20 82 21 81 22
REMARK SMILES IDX 37 24 69 25 49 26 68 27 50 28 53 29 67 30 86 31 51 32 52 33
REMARK SMILES IDX 66 35 87 36 54 37 38 38 39 39 47 40 40 41 41 42 45 43 48 44
REMARK SMILES IDX 42 45 43 46 46 47 44 48 70 49 71 50 79 51 72 52 73 53 77 54
REMARK SMILES IDX 80 55 74 56 75 57 78 58 76 59 55 60 56 61 64 62 57 63 58 64
REMARK SMILES IDX 62 65 65 66 59 67 60 68 63 69 61 70 6 71 7 72 8 73 9 74
REMARK SMILES IDX 10 75 28 76 11 77 27 78 12 79 13 80 14 81 26 82 15 83 17 84
REMARK SMILES IDX 16 85 18 87 19 88 20 89 21 90 24 91 22 92 23 93 25 94
REMARK H PARENT 85 23 53 34 17 86
REMARK Flexibility Score: inf
ROOT
ATOM      1  C   UNL A   1      42.415  20.659  26.117  1.00  0.00     0.275 C 
ENDROOT
BRANCH   1   2
ATOM      2  C   UNL A   1      43.662  21.264  25.463  1.00  0.00     0.275 C 
BRANCH   2   3
ATOM      3  O   UNL A   1      43.472  22.474  24.708  1.00  0.00    -0.458 OA
BRANCH   3   4
ATOM      4  C   UNL A   1      44.054  23.687  24.843  1.00  0.00     0.338 C 
ATOM      5  O   UNL A   1      45.092  23.926  24.228  1.00  0.00    -0.246 OA
BRANCH   4   6
ATOM      6  C   UNL A   1      43.549  24.732  25.782  1.00  0.00     0.060 A 
ATOM      7  C   UNL A   1      44.160  25.966  26.010  1.00  0.00     0.016 A 
ATOM      8  C   UNL A   1      42.404  24.413  26.533  1.00  0.00     0.016 A 
ATOM      9  C   UNL A   1      43.620  26.882  26.917  1.00  0.00     0.010 A 
ATOM     10  C   UNL A   1      41.845  25.336  27.424  1.00  0.00     0.010 A 
ATOM     11  C   UNL A   1      42.467  26.576  27.638  1.00  0.00    -0.014 A 
BRANCH  11  12
ATOM     12  C   UNL A   1      42.029  27.459  28.750  1.00  0.00     0.031 A 
ATOM     13  C   UNL A   1      42.637  27.235  30.108  1.00  0.00     0.074 A 
ATOM     14  C   UNL A   1      41.172  28.486  28.563  1.00  0.00     0.049 A 
ATOM     15  N   UNL A   1      42.392  27.860  31.229  1.00  0.00    -0.248 NA
ATOM     16  C   UNL A   1      43.735  26.253  30.200  1.00  0.00     0.031 C 
ATOM     17  C   UNL A   1      40.659  28.970  27.279  1.00  0.00     0.029 A 
ATOM     18  N   UNL A   1      40.479  29.240  29.483  1.00  0.00    -0.354 N 
ATOM     19  C   UNL A   1      43.383  27.449  32.107  1.00  0.00     0.074 A 
ATOM     20  C   UNL A   1      44.142  26.410  31.450  1.00  0.00     0.031 C 
ATOM     21  C   UNL A   1      39.584  29.750  27.499  1.00  0.00     0.029 A 
ATOM     22  C   UNL A   1      39.383  29.875  28.933  1.00  0.00     0.049 A 
ATOM     23  H   UNL A   1      40.737  29.318  30.430  1.00  0.00     0.167 HD
ATOM     24  C   UNL A   1      43.690  27.982  33.311  1.00  0.00     0.037 A 
ATOM     25  C   UNL A   1      38.315  30.415  29.551  1.00  0.00     0.037 A 
ATOM     26  C   UNL A   1      42.881  28.974  33.962  1.00  0.00     0.049 A 
ATOM     27  C   UNL A   1      38.418  30.642  31.027  1.00  0.00     0.074 A 
ATOM     28  C   UNL A   1      43.096  29.627  35.161  1.00  0.00     0.029 A 
ATOM     29  N   UNL A   1      41.664  29.428  33.470  1.00  0.00    -0.354 N 
ATOM     30  N   UNL A   1      39.358  30.271  31.858  1.00  0.00    -0.248 NA
ATOM     31  C   UNL A   1      37.367  31.475  31.624  1.00  0.00     0.031 C 
ATOM     32  C   UNL A   1      41.979  30.431  35.424  1.00  0.00     0.029 A 
ATOM     33  C   UNL A   1      41.096  30.321  34.362  1.00  0.00     0.049 A 
ATOM     34  H   UNL A   1      41.265  29.154  32.613  1.00  0.00     0.167 HD
ATOM     35  C   UNL A   1      39.071  30.906  33.052  1.00  0.00     0.074 A 
ATOM     36  C   UNL A   1      37.820  31.615  32.859  1.00  0.00     0.031 C 
ATOM     37  C   UNL A   1      39.829  30.975  34.172  1.00  0.00     0.037 A 
BRANCH  24  38
ATOM     38  C   UNL A   1      44.973  27.543  33.949  1.00  0.00     0.064 A 
ATOM     39  C   UNL A   1      45.002  26.447  34.830  1.00  0.00     0.173 A 
ATOM     40  C   UNL A   1      46.185  28.182  33.658  1.00  0.00     0.173 A 
ATOM     41  F   UNL A   1      43.867  25.806  35.151  1.00  0.00    -0.203 F 
ATOM     42  C   UNL A   1      46.194  26.023  35.410  1.00  0.00     0.198 A 
ATOM     43  C   UNL A   1      47.379  27.739  34.223  1.00  0.00     0.198 A 
ATOM     44  F   UNL A   1      46.213  29.231  32.824  1.00  0.00    -0.203 F 
ATOM     45  F   UNL A   1      46.190  24.999  36.275  1.00  0.00    -0.200 F 
ATOM     46  C   UNL A   1      47.382  26.665  35.100  1.00  0.00     0.200 A 
ATOM     47  F   UNL A   1      48.530  28.354  33.917  1.00  0.00    -0.200 F 
ATOM     48  F   UNL A   1      48.532  26.250  35.651  1.00  0.00    -0.200 F 
ENDBRANCH  24  38
BRANCH  25  49
ATOM     49  C   UNL A   1      37.054  30.771  28.848  1.00  0.00     0.064 A 
ATOM     50  C   UNL A   1      36.701  32.077  28.506  1.00  0.00     0.173 A 
ATOM     51  C   UNL A   1      36.116  29.758  28.582  1.00  0.00     0.173 A 
ATOM     52  F   UNL A   1      37.526  33.093  28.795  1.00  0.00    -0.203 F 
ATOM     53  C   UNL A   1      35.480  32.353  27.884  1.00  0.00     0.198 A 
ATOM     54  C   UNL A   1      34.906  30.029  27.945  1.00  0.00     0.198 A 
ATOM     55  F   UNL A   1      36.371  28.497  28.957  1.00  0.00    -0.203 F 
ATOM     56  F   UNL A   1      35.158  33.617  27.576  1.00  0.00    -0.200 F 
ATOM     57  C   UNL A   1      34.591  31.329  27.591  1.00  0.00     0.200 A 
ATOM     58  F   UNL A   1      34.059  29.029  27.663  1.00  0.00    -0.200 F 
ATOM     59  F   UNL A   1      33.431  31.593  26.974  1.00  0.00    -0.200 F 
ENDBRANCH  25  49
BRANCH  37  60
ATOM     60  C   UNL A   1      39.354  31.933  35.216  1.00  0.00     0.064 A 
ATOM     61  C   UNL A   1      39.732  33.281  35.218  1.00  0.00     0.173 A 
ATOM     62  C   UNL A   1      38.569  31.460  36.279  1.00  0.00     0.173 A 
ATOM     63  F   UNL A   1      40.521  33.763  34.246  1.00  0.00    -0.203 F 
ATOM     64  C   UNL A   1      39.382  34.112  36.277  1.00  0.00     0.198 A 
ATOM     65  C   UNL A   1      38.187  32.304  37.313  1.00  0.00     0.198 A 
ATOM     66  F   UNL A   1      38.195  30.172  36.326  1.00  0.00    -0.203 F 
ATOM     67  F   UNL A   1      39.834  35.373  36.312  1.00  0.00    -0.200 F 
ATOM     68  C   UNL A   1      38.607  33.624  37.320  1.00  0.00     0.200 A 
ATOM     69  F   UNL A   1      37.437  31.830  38.318  1.00  0.00    -0.200 F 
ATOM     70  F   UNL A   1      38.287  34.422  38.347  1.00  0.00    -0.200 F 
ENDBRANCH  37  60
ENDBRANCH  11  12
ENDBRANCH   4   6
ENDBRANCH   3   4
ENDBRANCH   2   3
ENDBRANCH   1   2
BRANCH   1  71
ATOM     71  O   UNL A   1      41.167  21.238  25.703  1.00  0.00    -0.458 OA
BRANCH  71  72
ATOM     72  C   UNL A   1      40.300  21.496  26.719  1.00  0.00     0.338 C 
ATOM     73  O   UNL A   1      40.524  21.398  27.912  1.00  0.00    -0.246 OA
BRANCH  72  74
ATOM     74  C   UNL A   1      39.017  21.977  26.167  1.00  0.00     0.060 A 
ATOM     75  C   UNL A   1      38.245  21.130  25.375  1.00  0.00     0.016 A 
ATOM     76  C   UNL A   1      38.604  23.289  26.369  1.00  0.00     0.016 A 
ATOM     77  C   UNL A   1      36.994  21.554  24.898  1.00  0.00     0.005 A 
ATOM     78  C   UNL A   1      37.390  23.728  25.812  1.00  0.00     0.005 A 
ATOM     79  C   UNL A   1      36.507  22.849  25.158  1.00  0.00    -0.039 A 
BRANCH  79  80
ATOM     80  C   UNL A   1      35.067  23.257  24.751  1.00  0.00     0.074 C 
ATOM     81  C   UNL A   1      34.012  22.385  25.464  1.00  0.00     0.020 C 
ATOM     82  C   UNL A   1      34.735  24.763  24.999  1.00  0.00     0.270 C 
ATOM     83  C   UNL A   1      32.599  22.850  25.133  1.00  0.00     0.062 C 
ATOM     84  N   UNL A   1      33.334  25.215  25.010  1.00  0.00    -0.333 N 
ATOM     85  C   UNL A   1      32.378  24.279  25.601  1.00  0.00     0.262 C 
ATOM     86  H   UNL A   1      33.094  25.250  24.019  1.00  0.00     0.348 HD
BRANCH  84  87
ATOM     87  C   UNL A   1      33.169  26.581  25.575  1.00  0.00     0.284 C 
BRANCH  87  88
ATOM     88  C   UNL A   1      31.745  27.198  25.779  1.00  0.00     0.180 C 
BRANCH  88  89
ATOM     89  N   UNL A   1      31.235  27.907  24.615  1.00  0.00    -0.337 N 
ATOM     90  C   UNL A   1      31.123  29.337  24.568  1.00  0.00     0.120 C 
ATOM     91  C   UNL A   1      30.632  27.268  23.541  1.00  0.00     0.222 C 
ATOM     92  C   UNL A   1      30.100  29.629  23.494  1.00  0.00     0.031 C 
ATOM     93  C   UNL A   1      29.775  28.292  22.854  1.00  0.00     0.102 C 
ATOM     94  O   UNL A   1      30.660  26.090  23.263  1.00  0.00    -0.275 OA
ENDBRANCH  88  89
ENDBRANCH  87  88
ENDBRANCH  84  87
ENDBRANCH  79  80
ENDBRANCH  72  74
ENDBRANCH  71  72
ENDBRANCH   1  71
TORSDOF 15
ENDMDL
