MODEL 1
REMARK VINA RESULT:     -11.0      0.000      0.000
REMARK SMILES C[C@]([NH2+]C[C@H](O)C(F)(F)F)(C(=O)OCCOC(=O)c1ccc(-c2c3nc(c(-c4c(F)c(F)c(F)c(F)c4F)c4ccc([nH]4)c(-c4c(F)c(F)c(F)c(F)c4F)c4nc(c(-c5c(F)c(F)c(F)c(F)c5F)c5ccc2[nH]5)C=C4)C=C3)cc1)C(F)(F)F
REMARK SMILES IDX 14 1 13 2 11 3 12 4 2 5 1 6 82 7 83 8 84 9 85 10 3 11 4 14
REMARK SMILES IDX 5 15 7 16 8 17 9 18 10 19 6 20 15 22 16 23 17 24 18 25 19 26
REMARK SMILES IDX 20 27 81 28 21 29 80 30 22 31 23 32 24 33 74 34 25 35 79 36
REMARK SMILES IDX 73 37 75 38 26 39 78 40 72 41 71 42 27 44 59 45 39 46 58 47
REMARK SMILES IDX 40 48 43 49 57 50 76 51 41 52 42 53 56 55 77 56 44 57 28 58
REMARK SMILES IDX 29 59 37 60 30 61 31 62 35 63 38 64 32 65 33 66 36 67 34 68
REMARK SMILES IDX 60 69 61 70 69 71 62 72 63 73 67 74 70 75 64 76 65 77 68 78
REMARK SMILES IDX 66 79 45 80 46 81 54 82 47 83 48 84 52 85 55 86 49 87 50 88
REMARK SMILES IDX 53 89 51 90
REMARK H PARENT 3 12 3 13 6 21 75 43 43 54
REMARK Flexibility Score: inf
ROOT
ATOM      1  C   UNL A   1      36.055  22.346  24.040  1.00  0.00     0.274 C 
ENDROOT
BRANCH   1   2
ATOM      2  O   UNL A   1      35.001  22.585  25.000  1.00  0.00    -0.457 OA
BRANCH   2   3
ATOM      3  C   UNL A   1      33.763  22.112  24.660  1.00  0.00     0.377 C 
ATOM      4  O   UNL A   1      33.291  22.226  23.534  1.00  0.00    -0.244 OA
BRANCH   3   5
ATOM      5  C   UNL A   1      32.978  21.560  25.867  1.00  0.00     0.287 C 
ATOM      6  C   UNL A   1      33.997  21.468  27.015  1.00  0.00     0.103 C 
BRANCH   5   7
ATOM      7  C   UNL A   1      31.919  22.642  26.216  1.00  0.00     0.455 C 
ATOM      8  F   UNL A   1      30.679  22.283  25.811  1.00  0.00    -0.164 F 
ATOM      9  F   UNL A   1      31.835  22.811  27.566  1.00  0.00    -0.164 F 
ATOM     10  F   UNL A   1      32.181  23.866  25.716  1.00  0.00    -0.164 F 
ENDBRANCH   5   7
BRANCH   5  11
ATOM     11  N   UNL A   1      32.461  20.167  25.569  1.00  0.00    -0.322 N 
ATOM     12  H   UNL A   1      31.765  20.241  24.827  1.00  0.00     0.347 HD
ATOM     13  H   UNL A   1      32.084  19.809  26.445  1.00  0.00     0.347 HD
BRANCH  11  14
ATOM     14  C   UNL A   1      33.482  19.206  25.138  1.00  0.00     0.303 C 
BRANCH  14  15
ATOM     15  C   UNL A   1      33.000  18.162  24.114  1.00  0.00     0.275 C 
BRANCH  15  16
ATOM     16  C   UNL A   1      34.065  17.120  23.756  1.00  0.00     0.419 C 
ATOM     17  F   UNL A   1      35.266  17.476  24.277  1.00  0.00    -0.168 F 
ATOM     18  F   UNL A   1      33.754  15.912  24.282  1.00  0.00    -0.168 F 
ATOM     19  F   UNL A   1      34.229  16.967  22.427  1.00  0.00    -0.168 F 
ENDBRANCH  15  16
BRANCH  15  20
ATOM     20  O   UNL A   1      31.776  17.577  24.612  1.00  0.00    -0.379 OA
ATOM     21  H   UNL A   1      31.257  18.255  25.075  1.00  0.00     0.211 HD
ENDBRANCH  15  20
ENDBRANCH  14  15
ENDBRANCH  11  14
ENDBRANCH   5  11
ENDBRANCH   3   5
ENDBRANCH   2   3
ENDBRANCH   1   2
BRANCH   1  22
ATOM     22  C   UNL A   1      37.053  21.312  24.559  1.00  0.00     0.275 C 
BRANCH  22  23
ATOM     23  O   UNL A   1      37.496  21.698  25.869  1.00  0.00    -0.458 OA
BRANCH  23  24
ATOM     24  C   UNL A   1      38.810  21.510  26.123  1.00  0.00     0.338 C 
ATOM     25  O   UNL A   1      39.449  20.477  25.964  1.00  0.00    -0.246 OA
BRANCH  24  26
ATOM     26  C   UNL A   1      39.409  22.758  26.637  1.00  0.00     0.060 A 
ATOM     27  C   UNL A   1      38.984  24.002  26.173  1.00  0.00     0.016 A 
ATOM     28  C   UNL A   1      40.480  22.686  27.529  1.00  0.00     0.016 A 
ATOM     29  C   UNL A   1      39.682  25.161  26.515  1.00  0.00     0.010 A 
ATOM     30  C   UNL A   1      41.119  23.857  27.948  1.00  0.00     0.010 A 
ATOM     31  C   UNL A   1      40.755  25.107  27.414  1.00  0.00    -0.014 A 
BRANCH  31  32
ATOM     32  C   UNL A   1      41.539  26.330  27.751  1.00  0.00     0.031 A 
ATOM     33  C   UNL A   1      40.917  27.407  28.602  1.00  0.00     0.074 A 
ATOM     34  C   UNL A   1      42.801  26.491  27.309  1.00  0.00     0.049 A 
ATOM     35  N   UNL A   1      41.322  28.634  28.821  1.00  0.00    -0.248 NA
ATOM     36  C   UNL A   1      39.660  27.062  29.287  1.00  0.00     0.031 C 
ATOM     37  C   UNL A   1      43.560  25.517  26.527  1.00  0.00     0.029 A 
ATOM     38  N   UNL A   1      43.674  27.544  27.462  1.00  0.00    -0.354 N 
ATOM     39  C   UNL A   1      40.337  29.225  29.601  1.00  0.00     0.074 A 
ATOM     40  C   UNL A   1      39.319  28.222  29.831  1.00  0.00     0.031 C 
ATOM     41  C   UNL A   1      44.793  25.996  26.301  1.00  0.00     0.029 A 
ATOM     42  C   UNL A   1      44.884  27.347  26.842  1.00  0.00     0.049 A 
ATOM     43  H   UNL A   1      43.452  28.359  27.968  1.00  0.00     0.167 HD
ATOM     44  C   UNL A   1      40.285  30.493  30.077  1.00  0.00     0.037 A 
ATOM     45  C   UNL A   1      45.934  28.176  26.687  1.00  0.00     0.037 A 
ATOM     46  C   UNL A   1      41.332  31.466  29.913  1.00  0.00     0.049 A 
ATOM     47  C   UNL A   1      45.856  29.578  27.222  1.00  0.00     0.074 A 
ATOM     48  C   UNL A   1      41.376  32.773  30.367  1.00  0.00     0.029 A 
ATOM     49  N   UNL A   1      42.534  31.228  29.265  1.00  0.00    -0.354 N 
ATOM     50  N   UNL A   1      44.882  30.158  27.882  1.00  0.00    -0.248 NA
ATOM     51  C   UNL A   1      47.011  30.451  26.968  1.00  0.00     0.031 C 
ATOM     52  C   UNL A   1      42.597  33.334  29.975  1.00  0.00     0.029 A 
ATOM     53  C   UNL A   1      43.326  32.365  29.306  1.00  0.00     0.049 A 
ATOM     54  H   UNL A   1      42.787  30.378  28.839  1.00  0.00     0.167 HD
ATOM     55  C   UNL A   1      45.306  31.457  28.122  1.00  0.00     0.074 A 
ATOM     56  C   UNL A   1      46.635  31.575  27.559  1.00  0.00     0.031 C 
ATOM     57  C   UNL A   1      44.647  32.464  28.743  1.00  0.00     0.037 A 
BRANCH  44  58
ATOM     58  C   UNL A   1      39.037  30.916  30.793  1.00  0.00     0.064 A 
ATOM     59  C   UNL A   1      37.930  31.438  30.112  1.00  0.00     0.173 A 
ATOM     60  C   UNL A   1      38.938  30.753  32.184  1.00  0.00     0.173 A 
ATOM     61  F   UNL A   1      37.982  31.626  28.784  1.00  0.00    -0.203 F 
ATOM     62  C   UNL A   1      36.774  31.802  30.798  1.00  0.00     0.198 A 
ATOM     63  C   UNL A   1      37.772  31.095  32.864  1.00  0.00     0.198 A 
ATOM     64  F   UNL A   1      39.967  30.251  32.882  1.00  0.00    -0.203 F 
ATOM     65  F   UNL A   1      35.740  32.334  30.132  1.00  0.00    -0.200 F 
ATOM     66  C   UNL A   1      36.693  31.624  32.172  1.00  0.00     0.200 A 
ATOM     67  F   UNL A   1      37.691  30.910  34.189  1.00  0.00    -0.200 F 
ATOM     68  F   UNL A   1      35.577  31.965  32.830  1.00  0.00    -0.200 F 
ENDBRANCH  44  58
BRANCH  45  69
ATOM     69  C   UNL A   1      47.138  27.709  25.954  1.00  0.00     0.064 A 
ATOM     70  C   UNL A   1      48.242  27.187  26.640  1.00  0.00     0.173 A 
ATOM     71  C   UNL A   1      47.204  27.760  24.553  1.00  0.00     0.173 A 
ATOM     72  F   UNL A   1      48.237  27.145  27.981  1.00  0.00    -0.203 F 
ATOM     73  C   UNL A   1      49.368  26.737  25.955  1.00  0.00     0.198 A 
ATOM     74  C   UNL A   1      48.318  27.285  23.867  1.00  0.00     0.198 A 
ATOM     75  F   UNL A   1      46.175  28.256  23.850  1.00  0.00    -0.203 F 
ATOM     76  F   UNL A   1      50.425  26.274  26.636  1.00  0.00    -0.200 F 
ATOM     77  C   UNL A   1      49.401  26.778  24.568  1.00  0.00     0.200 A 
ATOM     78  F   UNL A   1      48.341  27.315  22.527  1.00  0.00    -0.200 F 
ATOM     79  F   UNL A   1      50.480  26.334  23.909  1.00  0.00    -0.200 F 
ENDBRANCH  45  69
BRANCH  57  80
ATOM     80  C   UNL A   1      45.362  33.775  28.865  1.00  0.00     0.064 A 
ATOM     81  C   UNL A   1      45.216  34.778  27.896  1.00  0.00     0.173 A 
ATOM     82  C   UNL A   1      46.176  34.041  29.976  1.00  0.00     0.173 A 
ATOM     83  F   UNL A   1      44.461  34.561  26.809  1.00  0.00    -0.203 F 
ATOM     84  C   UNL A   1      45.876  35.996  28.027  1.00  0.00     0.198 A 
ATOM     85  C   UNL A   1      46.818  35.268  30.113  1.00  0.00     0.198 A 
ATOM     86  F   UNL A   1      46.343  33.112  30.930  1.00  0.00    -0.203 F 
ATOM     87  F   UNL A   1      45.753  36.928  27.072  1.00  0.00    -0.200 F 
ATOM     88  C   UNL A   1      46.672  36.243  29.136  1.00  0.00     0.200 A 
ATOM     89  F   UNL A   1      47.581  35.508  31.188  1.00  0.00    -0.200 F 
ATOM     90  F   UNL A   1      47.305  37.417  29.261  1.00  0.00    -0.200 F 
ENDBRANCH  57  80
ENDBRANCH  31  32
ENDBRANCH  24  26
ENDBRANCH  23  24
ENDBRANCH  22  23
ENDBRANCH   1  22
TORSDOF 17
ENDMDL
MODEL 2
REMARK VINA RESULT:     -10.9      5.345     10.424
REMARK SMILES C[C@]([NH2+]C[C@H](O)C(F)(F)F)(C(=O)OCCOC(=O)c1ccc(-c2c3nc(c(-c4c(F)c(F)c(F)c(F)c4F)c4ccc([nH]4)c(-c4c(F)c(F)c(F)c(F)c4F)c4nc(c(-c5c(F)c(F)c(F)c(F)c5F)c5ccc2[nH]5)C=C4)C=C3)cc1)C(F)(F)F
REMARK SMILES IDX 14 1 13 2 11 3 12 4 2 5 1 6 82 7 83 8 84 9 85 10 3 11 4 14
REMARK SMILES IDX 5 15 7 16 8 17 9 18 10 19 6 20 15 22 16 23 17 24 18 25 19 26
REMARK SMILES IDX 20 27 81 28 21 29 80 30 22 31 23 32 24 33 74 34 25 35 79 36
REMARK SMILES IDX 73 37 75 38 26 39 78 40 72 41 71 42 27 44 59 45 39 46 58 47
REMARK SMILES IDX 40 48 43 49 57 50 76 51 41 52 42 53 56 55 77 56 44 57 28 58
REMARK SMILES IDX 29 59 37 60 30 61 31 62 35 63 38 64 32 65 33 66 36 67 34 68
REMARK SMILES IDX 60 69 61 70 69 71 62 72 63 73 67 74 70 75 64 76 65 77 68 78
REMARK SMILES IDX 66 79 45 80 46 81 54 82 47 83 48 84 52 85 55 86 49 87 50 88
REMARK SMILES IDX 53 89 51 90
REMARK H PARENT 3 12 3 13 6 21 75 43 43 54
REMARK Flexibility Score: inf
ROOT
ATOM      1  C   UNL A   1      32.003  28.211  26.704  1.00  0.00     0.274 C 
ENDROOT
BRANCH   1   2
ATOM      2  O   UNL A   1      32.609  27.723  25.485  1.00  0.00    -0.457 OA
BRANCH   2   3
ATOM      3  C   UNL A   1      31.790  27.013  24.651  1.00  0.00     0.377 C 
ATOM      4  O   UNL A   1      31.034  26.134  25.048  1.00  0.00    -0.244 OA
BRANCH   3   5
ATOM      5  C   UNL A   1      32.027  27.331  23.160  1.00  0.00     0.287 C 
ATOM      6  C   UNL A   1      32.926  28.579  23.143  1.00  0.00     0.103 C 
BRANCH   5   7
ATOM      7  C   UNL A   1      32.824  26.125  22.590  1.00  0.00     0.455 C 
ATOM      8  F   UNL A   1      32.024  25.061  22.350  1.00  0.00    -0.164 F 
ATOM      9  F   UNL A   1      33.384  26.447  21.390  1.00  0.00    -0.164 F 
ATOM     10  F   UNL A   1      33.846  25.710  23.364  1.00  0.00    -0.164 F 
ENDBRANCH   5   7
BRANCH   5  11
ATOM     11  N   UNL A   1      30.718  27.671  22.479  1.00  0.00    -0.322 N 
ATOM     12  H   UNL A   1      30.136  26.833  22.475  1.00  0.00     0.347 HD
ATOM     13  H   UNL A   1      30.960  28.001  21.546  1.00  0.00     0.347 HD
BRANCH  11  14
ATOM     14  C   UNL A   1      29.952  28.752  23.110  1.00  0.00     0.303 C 
BRANCH  14  15
ATOM     15  C   UNL A   1      29.332  29.765  22.131  1.00  0.00     0.275 C 
BRANCH  15  16
ATOM     16  C   UNL A   1      28.576  30.903  22.827  1.00  0.00     0.419 C 
ATOM     17  F   UNL A   1      28.265  31.876  21.934  1.00  0.00    -0.168 F 
ATOM     18  F   UNL A   1      27.406  30.458  23.343  1.00  0.00    -0.168 F 
ATOM     19  F   UNL A   1      29.281  31.475  23.822  1.00  0.00    -0.168 F 
ENDBRANCH  15  16
BRANCH  15  20
ATOM     20  O   UNL A   1      30.377  30.233  21.247  1.00  0.00    -0.379 OA
ATOM     21  H   UNL A   1      30.167  29.978  20.335  1.00  0.00     0.211 HD
ENDBRANCH  15  20
ENDBRANCH  14  15
ENDBRANCH  11  14
ENDBRANCH   5  11
ENDBRANCH   3   5
ENDBRANCH   2   3
ENDBRANCH   1   2
BRANCH   1  22
ATOM     22  C   UNL A   1      31.738  29.713  26.628  1.00  0.00     0.275 C 
BRANCH  22  23
ATOM     23  O   UNL A   1      32.946  30.388  26.244  1.00  0.00    -0.458 OA
BRANCH  23  24
ATOM     24  C   UNL A   1      33.350  31.380  27.067  1.00  0.00     0.338 C 
ATOM     25  O   UNL A   1      32.740  32.408  27.335  1.00  0.00    -0.246 OA
BRANCH  24  26
ATOM     26  C   UNL A   1      34.677  31.060  27.632  1.00  0.00     0.060 A 
ATOM     27  C   UNL A   1      35.026  29.746  27.940  1.00  0.00     0.016 A 
ATOM     28  C   UNL A   1      35.554  32.098  27.949  1.00  0.00     0.016 A 
ATOM     29  C   UNL A   1      36.197  29.474  28.649  1.00  0.00     0.010 A 
ATOM     30  C   UNL A   1      36.773  31.814  28.574  1.00  0.00     0.010 A 
ATOM     31  C   UNL A   1      37.092  30.502  28.970  1.00  0.00    -0.014 A 
BRANCH  31  32
ATOM     32  C   UNL A   1      38.323  30.232  29.767  1.00  0.00     0.031 A 
ATOM     33  C   UNL A   1      39.426  29.391  29.179  1.00  0.00     0.074 A 
ATOM     34  C   UNL A   1      38.470  30.730  31.010  1.00  0.00     0.049 A 
ATOM     35  N   UNL A   1      40.461  28.845  29.768  1.00  0.00    -0.248 NA
ATOM     36  C   UNL A   1      39.345  29.112  27.736  1.00  0.00     0.031 C 
ATOM     37  C   UNL A   1      37.519  31.606  31.694  1.00  0.00     0.029 A 
ATOM     38  N   UNL A   1      39.486  30.569  31.922  1.00  0.00    -0.354 N 
ATOM     39  C   UNL A   1      41.107  28.102  28.788  1.00  0.00     0.074 A 
ATOM     40  C   UNL A   1      40.358  28.275  27.563  1.00  0.00     0.031 C 
ATOM     41  C   UNL A   1      38.012  31.937  32.897  1.00  0.00     0.029 A 
ATOM     42  C   UNL A   1      39.268  31.226  33.109  1.00  0.00     0.049 A 
ATOM     43  H   UNL A   1      40.294  30.036  31.742  1.00  0.00     0.167 HD
ATOM     44  C   UNL A   1      42.222  27.340  28.905  1.00  0.00     0.037 A 
ATOM     45  C   UNL A   1      39.973  31.223  34.256  1.00  0.00     0.037 A 
ATOM     46  C   UNL A   1      43.010  27.229  30.104  1.00  0.00     0.049 A 
ATOM     47  C   UNL A   1      41.206  30.370  34.364  1.00  0.00     0.074 A 
ATOM     48  C   UNL A   1      44.160  26.489  30.317  1.00  0.00     0.029 A 
ATOM     49  N   UNL A   1      42.741  27.900  31.287  1.00  0.00    -0.354 N 
ATOM     50  N   UNL A   1      41.760  29.600  33.459  1.00  0.00    -0.248 NA
ATOM     51  C   UNL A   1      41.897  30.365  35.661  1.00  0.00     0.031 C 
ATOM     52  C   UNL A   1      44.578  26.697  31.637  1.00  0.00     0.029 A 
ATOM     53  C   UNL A   1      43.705  27.591  32.234  1.00  0.00     0.049 A 
ATOM     54  H   UNL A   1      41.980  28.506  31.432  1.00  0.00     0.167 HD
ATOM     55  C   UNL A   1      42.861  29.022  34.074  1.00  0.00     0.074 A 
ATOM     56  C   UNL A   1      42.912  29.547  35.422  1.00  0.00     0.031 C 
ATOM     57  C   UNL A   1      43.743  28.126  33.570  1.00  0.00     0.037 A 
BRANCH  44  58
ATOM     58  C   UNL A   1      42.640  26.533  27.711  1.00  0.00     0.064 A 
ATOM     59  C   UNL A   1      43.606  26.991  26.806  1.00  0.00     0.173 A 
ATOM     60  C   UNL A   1      42.088  25.260  27.498  1.00  0.00     0.173 A 
ATOM     61  F   UNL A   1      44.152  28.207  26.959  1.00  0.00    -0.203 F 
ATOM     62  C   UNL A   1      43.992  26.211  25.719  1.00  0.00     0.198 A 
ATOM     63  C   UNL A   1      42.495  24.474  26.424  1.00  0.00     0.198 A 
ATOM     64  F   UNL A   1      41.163  24.773  28.340  1.00  0.00    -0.203 F 
ATOM     65  F   UNL A   1      44.892  26.683  24.844  1.00  0.00    -0.200 F 
ATOM     66  C   UNL A   1      43.442  24.951  25.532  1.00  0.00     0.200 A 
ATOM     67  F   UNL A   1      41.970  23.251  26.253  1.00  0.00    -0.200 F 
ATOM     68  F   UNL A   1      43.822  24.199  24.490  1.00  0.00    -0.200 F 
ENDBRANCH  44  58
BRANCH  45  69
ATOM     69  C   UNL A   1      39.503  32.028  35.412  1.00  0.00     0.064 A 
ATOM     70  C   UNL A   1      39.945  33.343  35.601  1.00  0.00     0.173 A 
ATOM     71  C   UNL A   1      38.590  31.505  36.342  1.00  0.00     0.173 A 
ATOM     72  F   UNL A   1      40.840  33.876  34.755  1.00  0.00    -0.203 F 
ATOM     73  C   UNL A   1      39.497  34.105  36.678  1.00  0.00     0.198 A 
ATOM     74  C   UNL A   1      38.121  32.275  37.401  1.00  0.00     0.198 A 
ATOM     75  F   UNL A   1      38.141  30.248  36.207  1.00  0.00    -0.203 F 
ATOM     76  F   UNL A   1      39.961  35.349  36.856  1.00  0.00    -0.200 F 
ATOM     77  C   UNL A   1      38.578  33.574  37.572  1.00  0.00     0.200 A 
ATOM     78  F   UNL A   1      37.225  31.763  38.255  1.00  0.00    -0.200 F 
ATOM     79  F   UNL A   1      38.137  34.311  38.600  1.00  0.00    -0.200 F 
ENDBRANCH  45  69
BRANCH  57  80
ATOM     80  C   UNL A   1      44.850  27.675  34.472  1.00  0.00     0.064 A 
ATOM     81  C   UNL A   1      46.066  28.371  34.538  1.00  0.00     0.173 A 
ATOM     82  C   UNL A   1      44.683  26.555  35.299  1.00  0.00     0.173 A 
ATOM     83  F   UNL A   1      46.277  29.438  33.752  1.00  0.00    -0.203 F 
ATOM     84  C   UNL A   1      47.083  27.949  35.390  1.00  0.00     0.198 A 
ATOM     85  C   UNL A   1      45.695  26.149  36.164  1.00  0.00     0.198 A 
ATOM     86  F   UNL A   1      43.535  25.860  35.272  1.00  0.00    -0.203 F 
ATOM     87  F   UNL A   1      48.251  28.605  35.411  1.00  0.00    -0.200 F 
ATOM     88  C   UNL A   1      46.896  26.842  36.205  1.00  0.00     0.200 A 
ATOM     89  F   UNL A   1      45.510  25.084  36.957  1.00  0.00    -0.200 F 
ATOM     90  F   UNL A   1      47.876  26.438  37.025  1.00  0.00    -0.200 F 
ENDBRANCH  57  80
ENDBRANCH  31  32
ENDBRANCH  24  26
ENDBRANCH  23  24
ENDBRANCH  22  23
ENDBRANCH   1  22
TORSDOF 17
ENDMDL
MODEL 3
REMARK VINA RESULT:     -10.6      5.504     10.556
REMARK SMILES C[C@]([NH2+]C[C@H](O)C(F)(F)F)(C(=O)OCCOC(=O)c1ccc(-c2c3nc(c(-c4c(F)c(F)c(F)c(F)c4F)c4ccc([nH]4)c(-c4c(F)c(F)c(F)c(F)c4F)c4nc(c(-c5c(F)c(F)c(F)c(F)c5F)c5ccc2[nH]5)C=C4)C=C3)cc1)C(F)(F)F
REMARK SMILES IDX 14 1 13 2 11 3 12 4 2 5 1 6 82 7 83 8 84 9 85 10 3 11 4 14
REMARK SMILES IDX 5 15 7 16 8 17 9 18 10 19 6 20 15 22 16 23 17 24 18 25 19 26
REMARK SMILES IDX 20 27 81 28 21 29 80 30 22 31 23 32 24 33 74 34 25 35 79 36
REMARK SMILES IDX 73 37 75 38 26 39 78 40 72 41 71 42 27 44 59 45 39 46 58 47
REMARK SMILES IDX 40 48 43 49 57 50 76 51 41 52 42 53 56 55 77 56 44 57 28 58
REMARK SMILES IDX 29 59 37 60 30 61 31 62 35 63 38 64 32 65 33 66 36 67 34 68
REMARK SMILES IDX 60 69 61 70 69 71 62 72 63 73 67 74 70 75 64 76 65 77 68 78
REMARK SMILES IDX 66 79 45 80 46 81 54 82 47 83 48 84 52 85 55 86 49 87 50 88
REMARK SMILES IDX 53 89 51 90
REMARK H PARENT 3 12 3 13 6 21 75 43 43 54
REMARK Flexibility Score: inf
ROOT
ATOM      1  C   UNL A   1      31.858  28.623  27.040  1.00  0.00     0.274 C 
ENDROOT
BRANCH   1   2
ATOM      2  O   UNL A   1      31.484  27.959  25.812  1.00  0.00    -0.457 OA
BRANCH   2   3
ATOM      3  C   UNL A   1      32.516  27.564  25.006  1.00  0.00     0.377 C 
ATOM      4  O   UNL A   1      33.558  27.085  25.442  1.00  0.00    -0.244 OA
BRANCH   3   5
ATOM      5  C   UNL A   1      32.291  27.917  23.522  1.00  0.00     0.287 C 
ATOM      6  C   UNL A   1      33.685  27.879  22.873  1.00  0.00     0.103 C 
BRANCH   5   7
ATOM      7  C   UNL A   1      31.428  26.766  22.936  1.00  0.00     0.455 C 
ATOM      8  F   UNL A   1      31.046  27.021  21.663  1.00  0.00    -0.164 F 
ATOM      9  F   UNL A   1      32.145  25.609  22.885  1.00  0.00    -0.164 F 
ATOM     10  F   UNL A   1      30.323  26.473  23.650  1.00  0.00    -0.164 F 
ENDBRANCH   5   7
BRANCH   5  11
ATOM     11  N   UNL A   1      31.738  29.322  23.393  1.00  0.00    -0.322 N 
ATOM     12  H   UNL A   1      31.990  29.677  22.470  1.00  0.00     0.347 HD
ATOM     13  H   UNL A   1      32.144  29.859  24.158  1.00  0.00     0.347 HD
BRANCH  11  14
ATOM     14  C   UNL A   1      30.283  29.433  23.540  1.00  0.00     0.303 C 
BRANCH  14  15
ATOM     15  C   UNL A   1      29.540  29.925  22.285  1.00  0.00     0.275 C 
BRANCH  15  16
ATOM     16  C   UNL A   1      28.670  31.162  22.536  1.00  0.00     0.419 C 
ATOM     17  F   UNL A   1      27.458  31.013  21.945  1.00  0.00    -0.168 F 
ATOM     18  F   UNL A   1      28.440  31.329  23.860  1.00  0.00    -0.168 F 
ATOM     19  F   UNL A   1      29.217  32.299  22.061  1.00  0.00    -0.168 F 
ENDBRANCH  15  16
BRANCH  15  20
ATOM     20  O   UNL A   1      30.512  30.118  21.233  1.00  0.00    -0.379 OA
ATOM     21  H   UNL A   1      30.641  31.068  21.081  1.00  0.00     0.211 HD
ENDBRANCH  15  20
ENDBRANCH  14  15
ENDBRANCH  11  14
ENDBRANCH   5  11
ENDBRANCH   3   5
ENDBRANCH   2   3
ENDBRANCH   1   2
BRANCH   1  22
ATOM     22  C   UNL A   1      31.780  30.142  26.895  1.00  0.00     0.275 C 
BRANCH  22  23
ATOM     23  O   UNL A   1      33.066  30.649  26.509  1.00  0.00    -0.458 OA
BRANCH  23  24
ATOM     24  C   UNL A   1      33.555  31.650  27.273  1.00  0.00     0.338 C 
ATOM     25  O   UNL A   1      33.029  32.734  27.488  1.00  0.00    -0.246 OA
BRANCH  24  26
ATOM     26  C   UNL A   1      34.861  31.260  27.843  1.00  0.00     0.060 A 
ATOM     27  C   UNL A   1      35.097  29.952  28.264  1.00  0.00     0.016 A 
ATOM     28  C   UNL A   1      35.836  32.236  28.051  1.00  0.00     0.016 A 
ATOM     29  C   UNL A   1      36.255  29.637  28.976  1.00  0.00     0.010 A 
ATOM     30  C   UNL A   1      37.039  31.898  28.679  1.00  0.00     0.010 A 
ATOM     31  C   UNL A   1      37.247  30.602  29.188  1.00  0.00    -0.014 A 
BRANCH  31  32
ATOM     32  C   UNL A   1      38.467  30.291  29.987  1.00  0.00     0.031 A 
ATOM     33  C   UNL A   1      39.541  29.412  29.402  1.00  0.00     0.074 A 
ATOM     34  C   UNL A   1      38.629  30.786  31.229  1.00  0.00     0.049 A 
ATOM     35  N   UNL A   1      40.557  28.832  29.993  1.00  0.00    -0.248 NA
ATOM     36  C   UNL A   1      39.453  29.134  27.959  1.00  0.00     0.031 C 
ATOM     37  C   UNL A   1      37.709  31.696  31.911  1.00  0.00     0.029 A 
ATOM     38  N   UNL A   1      39.639  30.592  32.143  1.00  0.00    -0.354 N 
ATOM     39  C   UNL A   1      41.178  28.066  29.015  1.00  0.00     0.074 A 
ATOM     40  C   UNL A   1      40.437  28.262  27.788  1.00  0.00     0.031 C 
ATOM     41  C   UNL A   1      38.211  32.012  33.114  1.00  0.00     0.029 A 
ATOM     42  C   UNL A   1      39.441  31.259  33.329  1.00  0.00     0.049 A 
ATOM     43  H   UNL A   1      40.428  30.031  31.965  1.00  0.00     0.167 HD
ATOM     44  C   UNL A   1      42.266  27.267  29.134  1.00  0.00     0.037 A 
ATOM     45  C   UNL A   1      40.145  31.233  34.476  1.00  0.00     0.037 A 
ATOM     46  C   UNL A   1      43.048  27.131  30.334  1.00  0.00     0.049 A 
ATOM     47  C   UNL A   1      41.348  30.339  34.587  1.00  0.00     0.074 A 
ATOM     48  C   UNL A   1      44.173  26.353  30.550  1.00  0.00     0.029 A 
ATOM     49  N   UNL A   1      42.802  27.813  31.516  1.00  0.00    -0.354 N 
ATOM     50  N   UNL A   1      41.876  29.548  33.684  1.00  0.00    -0.248 NA
ATOM     51  C   UNL A   1      42.037  30.312  35.885  1.00  0.00     0.031 C 
ATOM     52  C   UNL A   1      44.596  26.548  31.870  1.00  0.00     0.029 A 
ATOM     53  C   UNL A   1      43.753  27.472  32.465  1.00  0.00     0.049 A 
ATOM     54  H   UNL A   1      42.062  28.445  31.660  1.00  0.00     0.167 HD
ATOM     55  C   UNL A   1      42.956  28.934  34.302  1.00  0.00     0.074 A 
ATOM     56  C   UNL A   1      43.024  29.460  35.649  1.00  0.00     0.031 C 
ATOM     57  C   UNL A   1      43.808  28.008  33.800  1.00  0.00     0.037 A 
BRANCH  44  58
ATOM     58  C   UNL A   1      42.657  26.444  27.942  1.00  0.00     0.064 A 
ATOM     59  C   UNL A   1      42.116  25.174  27.706  1.00  0.00     0.173 A 
ATOM     60  C   UNL A   1      43.561  26.960  27.001  1.00  0.00     0.173 A 
ATOM     61  F   UNL A   1      41.258  24.631  28.584  1.00  0.00    -0.203 F 
ATOM     62  C   UNL A   1      42.479  24.441  26.579  1.00  0.00     0.198 A 
ATOM     63  C   UNL A   1      43.903  26.235  25.863  1.00  0.00     0.198 A 
ATOM     64  F   UNL A   1      44.103  28.175  27.178  1.00  0.00    -0.203 F 
ATOM     65  F   UNL A   1      41.977  23.212  26.390  1.00  0.00    -0.200 F 
ATOM     66  C   UNL A   1      43.367  24.974  25.655  1.00  0.00     0.200 A 
ATOM     67  F   UNL A   1      44.751  26.758  24.966  1.00  0.00    -0.200 F 
ATOM     68  F   UNL A   1      43.708  24.271  24.567  1.00  0.00    -0.200 F 
ENDBRANCH  44  58
BRANCH  45  69
ATOM     69  C   UNL A   1      39.701  32.055  35.631  1.00  0.00     0.064 A 
ATOM     70  C   UNL A   1      38.728  31.582  36.521  1.00  0.00     0.173 A 
ATOM     71  C   UNL A   1      40.251  33.323  35.876  1.00  0.00     0.173 A 
ATOM     72  F   UNL A   1      38.153  30.388  36.310  1.00  0.00    -0.203 F 
ATOM     73  C   UNL A   1      38.319  32.346  37.611  1.00  0.00     0.198 A 
ATOM     74  C   UNL A   1      39.861  34.075  36.982  1.00  0.00     0.198 A 
ATOM     75  F   UNL A   1      41.182  33.823  35.051  1.00  0.00    -0.203 F 
ATOM     76  F   UNL A   1      37.362  31.886  38.428  1.00  0.00    -0.200 F 
ATOM     77  C   UNL A   1      38.892  33.588  37.846  1.00  0.00     0.200 A 
ATOM     78  F   UNL A   1      40.426  35.267  37.212  1.00  0.00    -0.200 F 
ATOM     79  F   UNL A   1      38.506  34.317  38.902  1.00  0.00    -0.200 F 
ENDBRANCH  45  69
BRANCH  57  80
ATOM     80  C   UNL A   1      44.898  27.521  34.704  1.00  0.00     0.064 A 
ATOM     81  C   UNL A   1      44.726  26.383  35.505  1.00  0.00     0.173 A 
ATOM     82  C   UNL A   1      46.135  28.180  34.748  1.00  0.00     0.173 A 
ATOM     83  F   UNL A   1      43.554  25.730  35.509  1.00  0.00    -0.203 F 
ATOM     84  C   UNL A   1      45.752  25.933  36.332  1.00  0.00     0.198 A 
ATOM     85  C   UNL A   1      47.164  27.715  35.561  1.00  0.00     0.198 A 
ATOM     86  F   UNL A   1      46.345  29.272  33.996  1.00  0.00    -0.203 F 
ATOM     87  F   UNL A   1      45.556  24.865  37.118  1.00  0.00    -0.200 F 
ATOM     88  C   UNL A   1      46.970  26.595  36.356  1.00  0.00     0.200 A 
ATOM     89  F   UNL A   1      48.343  28.352  35.578  1.00  0.00    -0.200 F 
ATOM     90  F   UNL A   1      47.956  26.160  37.153  1.00  0.00    -0.200 F 
ENDBRANCH  57  80
ENDBRANCH  31  32
ENDBRANCH  24  26
ENDBRANCH  23  24
ENDBRANCH  22  23
ENDBRANCH   1  22
TORSDOF 17
ENDMDL
