MODEL 1
REMARK VINA RESULT:     -13.1      0.000      0.000
REMARK SMILES COc1cc2c(CC(=O)OCCOC(=O)c3ccc(-c4c5nc(c(-c6c(F)c(F)c(F)c(F)c6F)c6ccc([nH]6)c(-c6c(F)c(F)c(F)c(F)c6F)c6nc(c(-c7c(F)c(F)c(F)c(F)c7F)c7ccc4[nH]7)C=C6)C=C5)cc3)c(C)n(C(=O)c3ccc(Cl)cc3)c2cc1Cl
REMARK SMILES IDX 11 1 10 2 8 3 9 4 7 5 6 6 3 7 4 8 93 9 5 10 92 11 94 12
REMARK SMILES IDX 91 13 79 14 81 15 80 16 2 17 1 18 82 19 83 20 84 21 85 22
REMARK SMILES IDX 90 23 86 24 89 25 87 26 88 27 12 28 13 29 14 30 15 31 16 32
REMARK SMILES IDX 17 33 78 34 18 35 77 36 19 37 20 38 21 39 71 40 22 41 76 42
REMARK SMILES IDX 70 43 72 44 23 45 75 46 69 47 68 48 24 50 56 51 36 52 55 53
REMARK SMILES IDX 37 54 40 55 54 56 73 57 38 58 39 59 53 61 74 62 41 63 25 64
REMARK SMILES IDX 26 65 34 66 27 67 28 68 32 69 35 70 29 71 30 72 33 73 31 74
REMARK SMILES IDX 57 75 58 76 66 77 59 78 60 79 64 80 67 81 61 82 62 83 65 84
REMARK SMILES IDX 63 85 42 86 43 87 51 88 44 89 45 90 49 91 52 92 46 93 47 94
REMARK SMILES IDX 50 95 48 96
REMARK H PARENT 72 49 40 60
REMARK Flexibility Score: inf
ROOT
ATOM      1  C   UNL A   1      40.499  20.803  26.930  1.00  0.00     0.274 C 
ENDROOT
BRANCH   1   2
ATOM      2  O   UNL A   1      39.448  21.632  26.380  1.00  0.00    -0.462 OA
BRANCH   2   3
ATOM      3  C   UNL A   1      38.660  20.999  25.483  1.00  0.00     0.310 C 
ATOM      4  O   UNL A   1      38.861  19.848  25.106  1.00  0.00    -0.252 OA
BRANCH   3   5
ATOM      5  C   UNL A   1      37.566  21.823  24.866  1.00  0.00     0.160 C 
BRANCH   5   6
ATOM      6  C   UNL A   1      36.113  21.567  25.152  1.00  0.00    -0.008 A 
ATOM      7  C   UNL A   1      34.509  18.093  24.464  1.00  0.00     0.138 A 
ATOM      8  C   UNL A   1      35.548  19.026  24.661  1.00  0.00     0.058 A 
ATOM      9  C   UNL A   1      33.206  18.490  24.707  1.00  0.00     0.085 A 
ATOM     10  C   UNL A   1      35.312  20.384  25.002  1.00  0.00     0.008 A 
ATOM     11  C   UNL A   1      32.936  19.820  25.042  1.00  0.00     0.051 A 
ATOM     12  Cl  UNL A   1      31.865  17.401  24.776  1.00  0.00    -0.080 Cl
ATOM     13  C   UNL A   1      33.982  20.754  25.229  1.00  0.00     0.058 A 
ATOM     14  C   UNL A   1      35.236  22.610  25.434  1.00  0.00     0.028 A 
ATOM     15  N   UNL A   1      33.978  22.080  25.698  1.00  0.00    -0.280 N 
ATOM     16  C   UNL A   1      35.575  24.071  25.496  1.00  0.00     0.065 C 
BRANCH   7  17
ATOM     17  O   UNL A   1      34.904  16.822  24.133  1.00  0.00    -0.495 OA
ATOM     18  C   UNL A   1      35.199  15.964  25.239  1.00  0.00     0.278 C 
ENDBRANCH   7  17
BRANCH  15  19
ATOM     19  C   UNL A   1      32.900  22.745  26.342  1.00  0.00     0.262 C 
ATOM     20  O   UNL A   1      32.600  22.450  27.496  1.00  0.00    -0.268 OA
BRANCH  19  21
ATOM     21  C   UNL A   1      32.074  23.770  25.695  1.00  0.00     0.040 A 
ATOM     22  C   UNL A   1      31.648  24.882  26.430  1.00  0.00     0.015 A 
ATOM     23  C   UNL A   1      31.617  23.531  24.396  1.00  0.00     0.015 A 
ATOM     24  C   UNL A   1      30.687  25.727  25.876  1.00  0.00     0.021 A 
ATOM     25  C   UNL A   1      30.661  24.385  23.850  1.00  0.00     0.021 A 
ATOM     26  C   UNL A   1      30.187  25.466  24.598  1.00  0.00     0.041 A 
ATOM     27  Cl  UNL A   1      28.944  26.462  23.952  1.00  0.00    -0.084 Cl
ENDBRANCH  19  21
ENDBRANCH  15  19
ENDBRANCH   5   6
ENDBRANCH   3   5
ENDBRANCH   2   3
ENDBRANCH   1   2
BRANCH   1  28
ATOM     28  C   UNL A   1      41.827  21.037  26.204  1.00  0.00     0.275 C 
BRANCH  28  29
ATOM     29  O   UNL A   1      41.967  22.439  25.892  1.00  0.00    -0.458 OA
BRANCH  29  30
ATOM     30  C   UNL A   1      42.879  23.136  26.618  1.00  0.00     0.338 C 
ATOM     31  O   UNL A   1      44.065  23.178  26.474  1.00  0.00    -0.246 OA
BRANCH  30  32
ATOM     32  C   UNL A   1      42.080  24.152  27.367  1.00  0.00     0.060 A 
ATOM     33  C   UNL A   1      41.016  24.823  26.769  1.00  0.00     0.016 A 
ATOM     34  C   UNL A   1      42.652  24.626  28.541  1.00  0.00     0.016 A 
ATOM     35  C   UNL A   1      40.677  26.088  27.236  1.00  0.00     0.010 A 
ATOM     36  C   UNL A   1      42.363  25.907  28.962  1.00  0.00     0.010 A 
ATOM     37  C   UNL A   1      41.439  26.669  28.257  1.00  0.00    -0.014 A 
BRANCH  37  38
ATOM     38  C   UNL A   1      41.173  28.020  28.716  1.00  0.00     0.031 A 
ATOM     39  C   UNL A   1      42.171  29.003  28.243  1.00  0.00     0.074 A 
ATOM     40  C   UNL A   1      40.068  28.467  29.344  1.00  0.00     0.049 A 
ATOM     41  N   UNL A   1      43.134  29.517  28.930  1.00  0.00    -0.248 NA
ATOM     42  C   UNL A   1      42.181  29.358  26.818  1.00  0.00     0.031 C 
ATOM     43  C   UNL A   1      38.792  27.812  29.605  1.00  0.00     0.029 A 
ATOM     44  N   UNL A   1      39.875  29.717  29.857  1.00  0.00    -0.354 N 
ATOM     45  C   UNL A   1      43.800  30.367  28.062  1.00  0.00     0.074 A 
ATOM     46  C   UNL A   1      43.285  30.101  26.744  1.00  0.00     0.031 C 
ATOM     47  C   UNL A   1      37.898  28.716  30.075  1.00  0.00     0.029 A 
ATOM     48  C   UNL A   1      38.589  29.973  30.303  1.00  0.00     0.049 A 
ATOM     49  H   UNL A   1      40.595  30.385  29.906  1.00  0.00     0.167 HD
ATOM     50  C   UNL A   1      44.589  31.377  28.514  1.00  0.00     0.037 A 
ATOM     51  C   UNL A   1      38.143  31.145  30.818  1.00  0.00     0.037 A 
ATOM     52  C   UNL A   1      44.891  31.237  29.914  1.00  0.00     0.049 A 
ATOM     53  C   UNL A   1      39.336  31.898  31.285  1.00  0.00     0.074 A 
ATOM     54  C   UNL A   1      45.526  30.265  30.665  1.00  0.00     0.029 A 
ATOM     55  N   UNL A   1      44.158  31.972  30.815  1.00  0.00    -0.354 N 
ATOM     56  N   UNL A   1      40.071  31.547  32.302  1.00  0.00    -0.248 NA
ATOM     57  C   UNL A   1      39.962  32.823  30.352  1.00  0.00     0.031 C 
ATOM     58  C   UNL A   1      44.756  30.160  31.863  1.00  0.00     0.029 A 
ATOM     59  C   UNL A   1      43.730  31.103  31.789  1.00  0.00     0.049 A 
ATOM     60  H   UNL A   1      43.974  32.939  30.770  1.00  0.00     0.167 HD
ATOM     61  C   UNL A   1      41.369  31.864  31.929  1.00  0.00     0.074 A 
ATOM     62  C   UNL A   1      41.228  32.730  30.763  1.00  0.00     0.031 C 
ATOM     63  C   UNL A   1      42.438  31.179  32.431  1.00  0.00     0.037 A 
BRANCH  50  64
ATOM     64  C   UNL A   1      44.845  32.626  27.732  1.00  0.00     0.064 A 
ATOM     65  C   UNL A   1      46.037  32.767  27.003  1.00  0.00     0.173 A 
ATOM     66  C   UNL A   1      44.047  33.786  27.845  1.00  0.00     0.173 A 
ATOM     67  F   UNL A   1      46.889  31.738  26.885  1.00  0.00    -0.203 F 
ATOM     68  C   UNL A   1      46.406  33.990  26.435  1.00  0.00     0.198 A 
ATOM     69  C   UNL A   1      44.385  34.984  27.225  1.00  0.00     0.198 A 
ATOM     70  F   UNL A   1      42.969  33.823  28.641  1.00  0.00    -0.203 F 
ATOM     71  F   UNL A   1      47.593  34.109  25.828  1.00  0.00    -0.200 F 
ATOM     72  C   UNL A   1      45.575  35.093  26.537  1.00  0.00     0.200 A 
ATOM     73  F   UNL A   1      43.578  36.046  27.355  1.00  0.00    -0.200 F 
ATOM     74  F   UNL A   1      45.940  36.271  26.017  1.00  0.00    -0.200 F 
ENDBRANCH  50  64
BRANCH  51  75
ATOM     75  C   UNL A   1      36.814  31.785  30.693  1.00  0.00     0.064 A 
ATOM     76  C   UNL A   1      35.969  31.908  31.810  1.00  0.00     0.173 A 
ATOM     77  C   UNL A   1      36.485  32.564  29.568  1.00  0.00     0.173 A 
ATOM     78  F   UNL A   1      36.229  31.221  32.931  1.00  0.00    -0.203 F 
ATOM     79  C   UNL A   1      34.893  32.801  31.820  1.00  0.00     0.198 A 
ATOM     80  C   UNL A   1      35.407  33.451  29.578  1.00  0.00     0.198 A 
ATOM     81  F   UNL A   1      37.264  32.557  28.476  1.00  0.00    -0.203 F 
ATOM     82  F   UNL A   1      34.159  32.950  32.932  1.00  0.00    -0.200 F 
ATOM     83  C   UNL A   1      34.624  33.584  30.711  1.00  0.00     0.200 A 
ATOM     84  F   UNL A   1      35.176  34.228  28.510  1.00  0.00    -0.200 F 
ATOM     85  F   UNL A   1      33.644  34.497  30.748  1.00  0.00    -0.200 F 
ENDBRANCH  51  75
BRANCH  63  86
ATOM     86  C   UNL A   1      42.189  30.242  33.584  1.00  0.00     0.064 A 
ATOM     87  C   UNL A   1      41.811  28.895  33.432  1.00  0.00     0.173 A 
ATOM     88  C   UNL A   1      42.485  30.682  34.880  1.00  0.00     0.173 A 
ATOM     89  F   UNL A   1      41.604  28.370  32.219  1.00  0.00    -0.203 F 
ATOM     90  C   UNL A   1      41.697  28.046  34.532  1.00  0.00     0.198 A 
ATOM     91  C   UNL A   1      42.404  29.823  35.973  1.00  0.00     0.198 A 
ATOM     92  F   UNL A   1      42.901  31.942  35.084  1.00  0.00    -0.203 F 
ATOM     93  F   UNL A   1      41.324  26.769  34.361  1.00  0.00    -0.200 F 
ATOM     94  C   UNL A   1      42.001  28.508  35.801  1.00  0.00     0.200 A 
ATOM     95  F   UNL A   1      42.745  30.262  37.193  1.00  0.00    -0.200 F 
ATOM     96  F   UNL A   1      41.935  27.681  36.854  1.00  0.00    -0.200 F 
ENDBRANCH  63  86
ENDBRANCH  37  38
ENDBRANCH  30  32
ENDBRANCH  29  30
ENDBRANCH  28  29
ENDBRANCH   1  28
TORSDOF 15
ENDMDL
MODEL 2
REMARK VINA RESULT:     -13.0      2.452      3.454
REMARK SMILES COc1cc2c(CC(=O)OCCOC(=O)c3ccc(-c4c5nc(c(-c6c(F)c(F)c(F)c(F)c6F)c6ccc([nH]6)c(-c6c(F)c(F)c(F)c(F)c6F)c6nc(c(-c7c(F)c(F)c(F)c(F)c7F)c7ccc4[nH]7)C=C6)C=C5)cc3)c(C)n(C(=O)c3ccc(Cl)cc3)c2cc1Cl
REMARK SMILES IDX 11 1 10 2 8 3 9 4 7 5 6 6 3 7 4 8 93 9 5 10 92 11 94 12
REMARK SMILES IDX 91 13 79 14 81 15 80 16 2 17 1 18 82 19 83 20 84 21 85 22
REMARK SMILES IDX 90 23 86 24 89 25 87 26 88 27 12 28 13 29 14 30 15 31 16 32
REMARK SMILES IDX 17 33 78 34 18 35 77 36 19 37 20 38 21 39 71 40 22 41 76 42
REMARK SMILES IDX 70 43 72 44 23 45 75 46 69 47 68 48 24 50 56 51 36 52 55 53
REMARK SMILES IDX 37 54 40 55 54 56 73 57 38 58 39 59 53 61 74 62 41 63 25 64
REMARK SMILES IDX 26 65 34 66 27 67 28 68 32 69 35 70 29 71 30 72 33 73 31 74
REMARK SMILES IDX 57 75 58 76 66 77 59 78 60 79 64 80 67 81 61 82 62 83 65 84
REMARK SMILES IDX 63 85 42 86 43 87 51 88 44 89 45 90 49 91 52 92 46 93 47 94
REMARK SMILES IDX 50 95 48 96
REMARK H PARENT 72 49 40 60
REMARK Flexibility Score: inf
ROOT
ATOM      1  C   UNL A   1      41.594  19.251  26.156  1.00  0.00     0.274 C 
ENDROOT
BRANCH   1   2
ATOM      2  O   UNL A   1      40.600  20.302  26.157  1.00  0.00    -0.462 OA
BRANCH   2   3
ATOM      3  C   UNL A   1      39.420  19.945  25.603  1.00  0.00     0.310 C 
ATOM      4  O   UNL A   1      39.086  18.776  25.427  1.00  0.00    -0.252 OA
BRANCH   3   5
ATOM      5  C   UNL A   1      38.562  21.068  25.093  1.00  0.00     0.160 C 
BRANCH   5   6
ATOM      6  C   UNL A   1      37.086  21.134  25.365  1.00  0.00    -0.008 A 
ATOM      7  C   UNL A   1      34.741  18.164  24.475  1.00  0.00     0.138 A 
ATOM      8  C   UNL A   1      35.962  18.822  24.725  1.00  0.00     0.058 A 
ATOM      9  C   UNL A   1      33.560  18.833  24.743  1.00  0.00     0.085 A 
ATOM     10  C   UNL A   1      36.038  20.175  25.146  1.00  0.00     0.008 A 
ATOM     11  C   UNL A   1      33.596  20.168  25.156  1.00  0.00     0.051 A 
ATOM     12  Cl  UNL A   1      32.005  18.076  24.749  1.00  0.00    -0.080 Cl
ATOM     13  C   UNL A   1      34.825  20.826  25.397  1.00  0.00     0.058 A 
ATOM     14  C   UNL A   1      36.466  22.332  25.711  1.00  0.00     0.028 A 
ATOM     15  N   UNL A   1      35.118  22.088  25.944  1.00  0.00    -0.280 N 
ATOM     16  C   UNL A   1      37.128  23.670  25.858  1.00  0.00     0.065 C 
BRANCH   7  17
ATOM     17  O   UNL A   1      34.840  16.857  24.068  1.00  0.00    -0.495 OA
ATOM     18  C   UNL A   1      35.179  15.920  25.094  1.00  0.00     0.278 C 
ENDBRANCH   7  17
BRANCH  15  19
ATOM     19  C   UNL A   1      34.211  22.943  26.627  1.00  0.00     0.262 C 
ATOM     20  O   UNL A   1      34.073  22.841  27.843  1.00  0.00    -0.268 OA
BRANCH  19  21
ATOM     21  C   UNL A   1      33.382  23.951  25.959  1.00  0.00     0.040 A 
ATOM     22  C   UNL A   1      33.862  25.256  25.809  1.00  0.00     0.015 A 
ATOM     23  C   UNL A   1      32.070  23.608  25.616  1.00  0.00     0.015 A 
ATOM     24  C   UNL A   1      32.986  26.252  25.379  1.00  0.00     0.021 A 
ATOM     25  C   UNL A   1      31.204  24.609  25.182  1.00  0.00     0.021 A 
ATOM     26  C   UNL A   1      31.659  25.928  25.083  1.00  0.00     0.041 A 
ATOM     27  Cl  UNL A   1      30.561  27.171  24.633  1.00  0.00    -0.084 Cl
ENDBRANCH  19  21
ENDBRANCH  15  19
ENDBRANCH   5   6
ENDBRANCH   3   5
ENDBRANCH   2   3
ENDBRANCH   1   2
BRANCH   1  28
ATOM     28  C   UNL A   1      43.012  19.829  26.189  1.00  0.00     0.275 C 
BRANCH  28  29
ATOM     29  O   UNL A   1      43.422  20.182  24.851  1.00  0.00    -0.458 OA
BRANCH  29  30
ATOM     30  C   UNL A   1      44.735  20.482  24.675  1.00  0.00     0.338 C 
ATOM     31  O   UNL A   1      45.564  19.857  24.084  1.00  0.00    -0.246 OA
BRANCH  30  32
ATOM     32  C   UNL A   1      44.847  21.933  25.011  1.00  0.00     0.060 A 
ATOM     33  C   UNL A   1      45.662  22.376  26.048  1.00  0.00     0.016 A 
ATOM     34  C   UNL A   1      43.862  22.756  24.477  1.00  0.00     0.016 A 
ATOM     35  C   UNL A   1      45.338  23.566  26.692  1.00  0.00     0.010 A 
ATOM     36  C   UNL A   1      43.499  23.899  25.156  1.00  0.00     0.010 A 
ATOM     37  C   UNL A   1      44.182  24.258  26.312  1.00  0.00    -0.014 A 
BRANCH  37  38
ATOM     38  C   UNL A   1      43.760  25.457  27.013  1.00  0.00     0.031 A 
ATOM     39  C   UNL A   1      44.664  26.607  26.796  1.00  0.00     0.074 A 
ATOM     40  C   UNL A   1      42.596  25.659  27.659  1.00  0.00     0.049 A 
ATOM     41  N   UNL A   1      45.545  27.063  27.620  1.00  0.00    -0.248 NA
ATOM     42  C   UNL A   1      44.682  27.241  25.472  1.00  0.00     0.031 C 
ATOM     43  C   UNL A   1      41.387  24.844  27.719  1.00  0.00     0.029 A 
ATOM     44  N   UNL A   1      42.255  26.755  28.397  1.00  0.00    -0.354 N 
ATOM     45  C   UNL A   1      46.145  28.131  26.972  1.00  0.00     0.074 A 
ATOM     46  C   UNL A   1      45.702  28.087  25.603  1.00  0.00     0.031 C 
ATOM     47  C   UNL A   1      40.389  25.544  28.311  1.00  0.00     0.029 A 
ATOM     48  C   UNL A   1      40.936  26.790  28.817  1.00  0.00     0.049 A 
ATOM     49  H   UNL A   1      42.899  27.466  28.615  1.00  0.00     0.167 HD
ATOM     50  C   UNL A   1      46.808  29.100  27.656  1.00  0.00     0.037 A 
ATOM     51  C   UNL A   1      40.353  27.786  29.529  1.00  0.00     0.037 A 
ATOM     52  C   UNL A   1      47.078  28.712  29.014  1.00  0.00     0.049 A 
ATOM     53  C   UNL A   1      41.444  28.541  30.197  1.00  0.00     0.074 A 
ATOM     54  C   UNL A   1      47.788  27.675  29.591  1.00  0.00     0.029 A 
ATOM     55  N   UNL A   1      46.244  29.176  30.003  1.00  0.00    -0.354 N 
ATOM     56  N   UNL A   1      42.180  28.066  31.162  1.00  0.00    -0.248 NA
ATOM     57  C   UNL A   1      41.998  29.692  29.498  1.00  0.00     0.031 C 
ATOM     58  C   UNL A   1      46.996  27.257  30.703  1.00  0.00     0.029 A 
ATOM     59  C   UNL A   1      45.879  28.091  30.763  1.00  0.00     0.049 A 
ATOM     60  H   UNL A   1      45.960  30.109  30.140  1.00  0.00     0.167 HD
ATOM     61  C   UNL A   1      43.448  28.576  30.927  1.00  0.00     0.074 A 
ATOM     62  C   UNL A   1      43.254  29.641  29.949  1.00  0.00     0.031 C 
ATOM     63  C   UNL A   1      44.567  27.911  31.339  1.00  0.00     0.037 A 
BRANCH  50  64
ATOM     64  C   UNL A   1      46.956  30.501  27.149  1.00  0.00     0.064 A 
ATOM     65  C   UNL A   1      48.228  31.088  27.067  1.00  0.00     0.173 A 
ATOM     66  C   UNL A   1      45.859  31.366  26.939  1.00  0.00     0.173 A 
ATOM     67  F   UNL A   1      49.330  30.362  27.305  1.00  0.00    -0.203 F 
ATOM     68  C   UNL A   1      48.388  32.451  26.801  1.00  0.00     0.198 A 
ATOM     69  C   UNL A   1      46.023  32.707  26.610  1.00  0.00     0.198 A 
ATOM     70  F   UNL A   1      44.597  30.964  27.142  1.00  0.00    -0.203 F 
ATOM     71  F   UNL A   1      49.613  32.993  26.823  1.00  0.00    -0.200 F 
ATOM     72  C   UNL A   1      47.287  33.256  26.562  1.00  0.00     0.200 A 
ATOM     73  F   UNL A   1      44.943  33.474  26.406  1.00  0.00    -0.200 F 
ATOM     74  F   UNL A   1      47.438  34.566  26.334  1.00  0.00    -0.200 F 
ENDBRANCH  50  64
BRANCH  51  75
ATOM     75  C   UNL A   1      38.968  28.306  29.464  1.00  0.00     0.064 A 
ATOM     76  C   UNL A   1      38.207  28.467  30.634  1.00  0.00     0.173 A 
ATOM     77  C   UNL A   1      38.487  28.947  28.308  1.00  0.00     0.173 A 
ATOM     78  F   UNL A   1      38.612  27.912  31.785  1.00  0.00    -0.203 F 
ATOM     79  C   UNL A   1      37.062  29.271  30.659  1.00  0.00     0.198 A 
ATOM     80  C   UNL A   1      37.341  29.744  28.333  1.00  0.00     0.198 A 
ATOM     81  F   UNL A   1      39.175  28.897  27.157  1.00  0.00    -0.203 F 
ATOM     82  F   UNL A   1      36.408  29.466  31.812  1.00  0.00    -0.200 F 
ATOM     83  C   UNL A   1      36.641  29.922  29.513  1.00  0.00     0.200 A 
ATOM     84  F   UNL A   1      36.961  30.396  27.224  1.00  0.00    -0.200 F 
ATOM     85  F   UNL A   1      35.592  30.755  29.553  1.00  0.00    -0.200 F 
ENDBRANCH  51  75
BRANCH  63  86
ATOM     86  C   UNL A   1      44.382  26.742  32.270  1.00  0.00     0.064 A 
ATOM     87  C   UNL A   1      44.309  25.403  31.843  1.00  0.00     0.173 A 
ATOM     88  C   UNL A   1      44.426  26.972  33.651  1.00  0.00     0.173 A 
ATOM     89  F   UNL A   1      44.359  25.091  30.543  1.00  0.00    -0.203 F 
ATOM     90  C   UNL A   1      44.243  24.352  32.757  1.00  0.00     0.198 A 
ATOM     91  C   UNL A   1      44.395  25.918  34.562  1.00  0.00     0.198 A 
ATOM     92  F   UNL A   1      44.548  28.223  34.120  1.00  0.00    -0.203 F 
ATOM     93  F   UNL A   1      44.163  23.085  32.323  1.00  0.00    -0.200 F 
ATOM     94  C   UNL A   1      44.294  24.610  34.116  1.00  0.00     0.200 A 
ATOM     95  F   UNL A   1      44.493  26.170  35.875  1.00  0.00    -0.200 F 
ATOM     96  F   UNL A   1      44.276  23.599  34.996  1.00  0.00    -0.200 F 
ENDBRANCH  63  86
ENDBRANCH  37  38
ENDBRANCH  30  32
ENDBRANCH  29  30
ENDBRANCH  28  29
ENDBRANCH   1  28
TORSDOF 15
ENDMDL
MODEL 3
REMARK VINA RESULT:     -13.0      3.804      8.742
REMARK SMILES COc1cc2c(CC(=O)OCCOC(=O)c3ccc(-c4c5nc(c(-c6c(F)c(F)c(F)c(F)c6F)c6ccc([nH]6)c(-c6c(F)c(F)c(F)c(F)c6F)c6nc(c(-c7c(F)c(F)c(F)c(F)c7F)c7ccc4[nH]7)C=C6)C=C5)cc3)c(C)n(C(=O)c3ccc(Cl)cc3)c2cc1Cl
REMARK SMILES IDX 11 1 10 2 8 3 9 4 7 5 6 6 3 7 4 8 93 9 5 10 92 11 94 12
REMARK SMILES IDX 91 13 79 14 81 15 80 16 2 17 1 18 82 19 83 20 84 21 85 22
REMARK SMILES IDX 90 23 86 24 89 25 87 26 88 27 12 28 13 29 14 30 15 31 16 32
REMARK SMILES IDX 17 33 78 34 18 35 77 36 19 37 20 38 21 39 71 40 22 41 76 42
REMARK SMILES IDX 70 43 72 44 23 45 75 46 69 47 68 48 24 50 56 51 36 52 55 53
REMARK SMILES IDX 37 54 40 55 54 56 73 57 38 58 39 59 53 61 74 62 41 63 25 64
REMARK SMILES IDX 26 65 34 66 27 67 28 68 32 69 35 70 29 71 30 72 33 73 31 74
REMARK SMILES IDX 57 75 58 76 66 77 59 78 60 79 64 80 67 81 61 82 62 83 65 84
REMARK SMILES IDX 63 85 42 86 43 87 51 88 44 89 45 90 49 91 52 92 46 93 47 94
REMARK SMILES IDX 50 95 48 96
REMARK H PARENT 72 49 40 60
REMARK Flexibility Score: inf
ROOT
ATOM      1  C   UNL A   1      34.174  21.683  25.369  1.00  0.00     0.274 C 
ENDROOT
BRANCH   1   2
ATOM      2  O   UNL A   1      34.032  22.621  24.276  1.00  0.00    -0.462 OA
BRANCH   2   3
ATOM      3  C   UNL A   1      34.353  23.894  24.598  1.00  0.00     0.310 C 
ATOM      4  O   UNL A   1      34.871  24.207  25.667  1.00  0.00    -0.252 OA
BRANCH   3   5
ATOM      5  C   UNL A   1      33.932  24.951  23.617  1.00  0.00     0.160 C 
BRANCH   5   6
ATOM      6  C   UNL A   1      32.880  25.972  23.943  1.00  0.00    -0.008 A 
ATOM      7  C   UNL A   1      33.701  29.082  26.127  1.00  0.00     0.138 A 
ATOM      8  C   UNL A   1      33.967  27.958  25.317  1.00  0.00     0.058 A 
ATOM      9  C   UNL A   1      32.394  29.516  26.249  1.00  0.00     0.085 A 
ATOM     10  C   UNL A   1      32.944  27.191  24.701  1.00  0.00     0.008 A 
ATOM     11  C   UNL A   1      31.360  28.784  25.659  1.00  0.00     0.051 A 
ATOM     12  Cl  UNL A   1      31.943  31.021  26.973  1.00  0.00    -0.080 Cl
ATOM     13  C   UNL A   1      31.632  27.652  24.855  1.00  0.00     0.058 A 
ATOM     14  C   UNL A   1      31.531  25.727  23.694  1.00  0.00     0.028 A 
ATOM     15  N   UNL A   1      30.798  26.853  24.052  1.00  0.00    -0.280 N 
ATOM     16  C   UNL A   1      30.945  24.483  23.096  1.00  0.00     0.065 C 
BRANCH   7  17
ATOM     17  O   UNL A   1      34.801  29.710  26.654  1.00  0.00    -0.495 OA
ATOM     18  C   UNL A   1      35.000  29.520  28.058  1.00  0.00     0.278 C 
ENDBRANCH   7  17
BRANCH  15  19
ATOM     19  C   UNL A   1      29.465  27.151  23.662  1.00  0.00     0.262 C 
ATOM     20  O   UNL A   1      28.558  26.367  23.933  1.00  0.00    -0.268 OA
BRANCH  19  21
ATOM     21  C   UNL A   1      29.085  28.351  22.909  1.00  0.00     0.040 A 
ATOM     22  C   UNL A   1      30.046  29.020  22.142  1.00  0.00     0.015 A 
ATOM     23  C   UNL A   1      27.802  28.873  23.097  1.00  0.00     0.015 A 
ATOM     24  C   UNL A   1      29.734  30.274  21.617  1.00  0.00     0.021 A 
ATOM     25  C   UNL A   1      27.500  30.124  22.563  1.00  0.00     0.021 A 
ATOM     26  C   UNL A   1      28.471  30.826  21.843  1.00  0.00     0.041 A 
ATOM     27  Cl  UNL A   1      28.118  32.405  21.265  1.00  0.00    -0.084 Cl
ENDBRANCH  19  21
ENDBRANCH  15  19
ENDBRANCH   5   6
ENDBRANCH   3   5
ENDBRANCH   2   3
ENDBRANCH   1   2
BRANCH   1  28
ATOM     28  C   UNL A   1      35.353  20.733  25.135  1.00  0.00     0.275 C 
BRANCH  28  29
ATOM     29  O   UNL A   1      36.570  21.349  25.608  1.00  0.00    -0.458 OA
BRANCH  29  30
ATOM     30  C   UNL A   1      37.715  20.638  25.445  1.00  0.00     0.338 C 
ATOM     31  O   UNL A   1      37.858  19.575  24.918  1.00  0.00    -0.246 OA
BRANCH  30  32
ATOM     32  C   UNL A   1      38.816  21.618  25.687  1.00  0.00     0.060 A 
ATOM     33  C   UNL A   1      40.089  21.200  26.063  1.00  0.00     0.016 A 
ATOM     34  C   UNL A   1      38.422  22.941  25.851  1.00  0.00     0.016 A 
ATOM     35  C   UNL A   1      40.886  22.067  26.803  1.00  0.00     0.010 A 
ATOM     36  C   UNL A   1      39.182  23.776  26.641  1.00  0.00     0.010 A 
ATOM     37  C   UNL A   1      40.371  23.311  27.188  1.00  0.00    -0.014 A 
BRANCH  37  38
ATOM     38  C   UNL A   1      41.136  24.211  28.033  1.00  0.00     0.031 A 
ATOM     39  C   UNL A   1      40.490  25.528  28.216  1.00  0.00     0.074 A 
ATOM     40  C   UNL A   1      42.225  23.913  28.767  1.00  0.00     0.049 A 
ATOM     41  N   UNL A   1      40.814  26.634  27.637  1.00  0.00    -0.248 NA
ATOM     42  C   UNL A   1      39.272  25.601  29.033  1.00  0.00     0.031 C 
ATOM     43  C   UNL A   1      42.853  22.630  29.061  1.00  0.00     0.029 A 
ATOM     44  N   UNL A   1      42.991  24.791  29.477  1.00  0.00    -0.354 N 
ATOM     45  C   UNL A   1      39.922  27.581  28.115  1.00  0.00     0.074 A 
ATOM     46  C   UNL A   1      38.898  26.863  28.829  1.00  0.00     0.031 C 
ATOM     47  C   UNL A   1      43.799  22.789  30.019  1.00  0.00     0.029 A 
ATOM     48  C   UNL A   1      43.955  24.208  30.283  1.00  0.00     0.049 A 
ATOM     49  H   UNL A   1      42.868  25.766  29.419  1.00  0.00     0.167 HD
ATOM     50  C   UNL A   1      40.196  28.910  28.063  1.00  0.00     0.037 A 
ATOM     51  C   UNL A   1      44.810  24.865  31.105  1.00  0.00     0.037 A 
ATOM     52  C   UNL A   1      41.305  29.198  27.194  1.00  0.00     0.049 A 
ATOM     53  C   UNL A   1      44.887  26.268  30.622  1.00  0.00     0.074 A 
ATOM     54  C   UNL A   1      41.546  28.991  25.848  1.00  0.00     0.029 A 
ATOM     55  N   UNL A   1      42.542  29.396  27.759  1.00  0.00    -0.354 N 
ATOM     56  N   UNL A   1      45.441  26.627  29.498  1.00  0.00    -0.248 NA
ATOM     57  C   UNL A   1      43.968  27.236  31.201  1.00  0.00     0.031 C 
ATOM     58  C   UNL A   1      42.912  28.578  25.775  1.00  0.00     0.029 A 
ATOM     59  C   UNL A   1      43.430  28.604  27.070  1.00  0.00     0.049 A 
ATOM     60  H   UNL A   1      42.752  29.991  28.515  1.00  0.00     0.167 HD
ATOM     61  C   UNL A   1      44.643  27.655  29.021  1.00  0.00     0.074 A 
ATOM     62  C   UNL A   1      43.811  28.048  30.153  1.00  0.00     0.031 C 
ATOM     63  C   UNL A   1      44.539  27.910  27.683  1.00  0.00     0.037 A 
BRANCH  50  64
ATOM     64  C   UNL A   1      39.619  29.901  29.025  1.00  0.00     0.064 A 
ATOM     65  C   UNL A   1      40.083  29.948  30.349  1.00  0.00     0.173 A 
ATOM     66  C   UNL A   1      38.465  30.668  28.745  1.00  0.00     0.173 A 
ATOM     67  F   UNL A   1      41.138  29.212  30.727  1.00  0.00    -0.203 F 
ATOM     68  C   UNL A   1      39.432  30.707  31.325  1.00  0.00     0.198 A 
ATOM     69  C   UNL A   1      37.857  31.472  29.703  1.00  0.00     0.198 A 
ATOM     70  F   UNL A   1      37.835  30.585  27.565  1.00  0.00    -0.203 F 
ATOM     71  F   UNL A   1      39.850  30.654  32.597  1.00  0.00    -0.200 F 
ATOM     72  C   UNL A   1      38.327  31.476  30.999  1.00  0.00     0.200 A 
ATOM     73  F   UNL A   1      36.775  32.190  29.372  1.00  0.00    -0.200 F 
ATOM     74  F   UNL A   1      37.686  32.181  31.940  1.00  0.00    -0.200 F 
ENDBRANCH  50  64
BRANCH  51  75
ATOM     75  C   UNL A   1      45.349  24.461  32.423  1.00  0.00     0.064 A 
ATOM     76  C   UNL A   1      46.571  24.977  32.887  1.00  0.00     0.173 A 
ATOM     77  C   UNL A   1      44.534  23.822  33.376  1.00  0.00     0.173 A 
ATOM     78  F   UNL A   1      47.392  25.625  32.049  1.00  0.00    -0.203 F 
ATOM     79  C   UNL A   1      46.931  24.908  34.237  1.00  0.00     0.198 A 
ATOM     80  C   UNL A   1      44.897  23.749  34.722  1.00  0.00     0.198 A 
ATOM     81  F   UNL A   1      43.325  23.348  33.039  1.00  0.00    -0.203 F 
ATOM     82  F   UNL A   1      48.066  25.483  34.656  1.00  0.00    -0.200 F 
ATOM     83  C   UNL A   1      46.085  24.310  35.155  1.00  0.00     0.200 A 
ATOM     84  F   UNL A   1      44.055  23.197  35.608  1.00  0.00    -0.200 F 
ATOM     85  F   UNL A   1      46.390  24.315  36.460  1.00  0.00    -0.200 F 
ENDBRANCH  51  75
BRANCH  63  86
ATOM     86  C   UNL A   1      45.502  27.210  26.761  1.00  0.00     0.064 A 
ATOM     87  C   UNL A   1      45.246  25.964  26.159  1.00  0.00     0.173 A 
ATOM     88  C   UNL A   1      46.659  27.889  26.360  1.00  0.00     0.173 A 
ATOM     89  F   UNL A   1      44.116  25.294  26.415  1.00  0.00    -0.203 F 
ATOM     90  C   UNL A   1      46.129  25.411  25.232  1.00  0.00     0.198 A 
ATOM     91  C   UNL A   1      47.522  27.351  25.407  1.00  0.00     0.198 A 
ATOM     92  F   UNL A   1      46.932  29.105  26.859  1.00  0.00    -0.203 F 
ATOM     93  F   UNL A   1      45.867  24.217  24.680  1.00  0.00    -0.200 F 
ATOM     94  C   UNL A   1      47.262  26.109  24.851  1.00  0.00     0.200 A 
ATOM     95  F   UNL A   1      48.592  28.052  25.006  1.00  0.00    -0.200 F 
ATOM     96  F   UNL A   1      48.089  25.600  23.926  1.00  0.00    -0.200 F 
ENDBRANCH  63  86
ENDBRANCH  37  38
ENDBRANCH  30  32
ENDBRANCH  29  30
ENDBRANCH  28  29
ENDBRANCH   1  28
TORSDOF 15
ENDMDL
