MODEL 1
REMARK VINA RESULT:      -9.6      0.000      0.000
REMARK SMILES CC[C@@](C)(NC(=O)N(C)CCO)C(=O)OCCOC(=O)c1ccc(-c2c3nc(c(-c4c(F)c(F)c(F)c(F)c4F)c4ccc([nH]4)c(-c4c(F)c(F)c(F)c(F)c4F)c4nc(c(-c5c(F)c(F)c(F)c(F)c5F)c5ccc2[nH]5)C=C4)C=C3)cc1
REMARK SMILES IDX 15 1 13 2 14 3 3 4 4 5 2 6 1 7 5 8 6 9 7 11 8 12 9 13 10 14
REMARK SMILES IDX 11 15 12 16 16 18 17 19 18 20 19 21 20 22 21 23 22 24 83 25
REMARK SMILES IDX 23 26 82 27 24 28 25 29 26 30 76 31 27 32 81 33 75 34 77 35
REMARK SMILES IDX 28 36 80 37 74 38 73 39 29 41 61 42 41 43 60 44 42 45 45 46
REMARK SMILES IDX 59 47 78 48 43 49 44 50 58 52 79 53 46 54 30 55 31 56 39 57
REMARK SMILES IDX 32 58 33 59 37 60 40 61 34 62 35 63 38 64 36 65 62 66 63 67
REMARK SMILES IDX 71 68 64 69 65 70 69 71 72 72 66 73 67 74 70 75 68 76 47 77
REMARK SMILES IDX 48 78 56 79 49 80 50 81 54 82 57 83 51 84 52 85 55 86 53 87
REMARK H PARENT 5 10 12 17 77 40 45 51
REMARK Flexibility Score: inf
ROOT
ATOM      1  O   UNL A   1      35.766  34.248  29.439  1.00  0.00    -0.460 OA
ENDROOT
BRANCH   1   2
ATOM      2  C   UNL A   1      36.369  33.490  30.388  1.00  0.00     0.331 C 
ATOM      3  O   UNL A   1      37.261  32.695  30.122  1.00  0.00    -0.249 OA
BRANCH   2   4
ATOM      4  C   UNL A   1      35.747  33.686  31.809  1.00  0.00     0.136 C 
ATOM      5  C   UNL A   1      34.649  32.646  32.058  1.00  0.00     0.047 C 
BRANCH   4   6
ATOM      6  C   UNL A   1      36.883  33.431  32.890  1.00  0.00     0.037 C 
ATOM      7  C   UNL A   1      37.995  34.458  33.083  1.00  0.00     0.007 C 
ENDBRANCH   4   6
BRANCH   4   8
ATOM      8  N   UNL A   1      35.268  35.080  32.158  1.00  0.00    -0.322 N 
ATOM      9  C   UNL A   1      34.264  35.951  32.241  1.00  0.00     0.318 C 
ATOM     10  H   UNL A   1      36.068  35.566  32.464  1.00  0.00     0.166 HD
ATOM     11  O   UNL A   1      34.602  37.016  32.776  1.00  0.00    -0.249 OA
BRANCH   9  12
ATOM     12  N   UNL A   1      33.013  35.801  31.750  1.00  0.00    -0.326 N 
ATOM     13  C   UNL A   1      31.774  35.809  32.488  1.00  0.00     0.148 C 
BRANCH  12  14
ATOM     14  C   UNL A   1      32.881  35.543  30.297  1.00  0.00     0.149 C 
BRANCH  14  15
ATOM     15  C   UNL A   1      33.452  36.645  29.395  1.00  0.00     0.177 C 
BRANCH  15  16
ATOM     16  O   UNL A   1      33.391  37.927  30.010  1.00  0.00    -0.395 OA
ATOM     17  H   UNL A   1      34.173  38.445  29.758  1.00  0.00     0.210 HD
ENDBRANCH  15  16
ENDBRANCH  14  15
ENDBRANCH  12  14
ENDBRANCH   9  12
ENDBRANCH   4   8
ENDBRANCH   2   4
ENDBRANCH   1   2
BRANCH   1  18
ATOM     18  C   UNL A   1      35.546  33.633  28.150  1.00  0.00     0.274 C 
BRANCH  18  19
ATOM     19  C   UNL A   1      34.365  32.662  28.211  1.00  0.00     0.275 C 
BRANCH  19  20
ATOM     20  O   UNL A   1      34.592  31.599  27.274  1.00  0.00    -0.458 OA
BRANCH  20  21
ATOM     21  C   UNL A   1      34.504  30.336  27.742  1.00  0.00     0.338 C 
ATOM     22  O   UNL A   1      33.517  29.621  27.797  1.00  0.00    -0.246 OA
BRANCH  21  23
ATOM     23  C   UNL A   1      35.849  29.948  28.195  1.00  0.00     0.060 A 
ATOM     24  C   UNL A   1      36.930  30.117  27.328  1.00  0.00     0.016 A 
ATOM     25  C   UNL A   1      36.046  29.418  29.467  1.00  0.00     0.016 A 
ATOM     26  C   UNL A   1      38.221  29.791  27.730  1.00  0.00     0.010 A 
ATOM     27  C   UNL A   1      37.345  29.102  29.881  1.00  0.00     0.010 A 
ATOM     28  C   UNL A   1      38.440  29.284  29.014  1.00  0.00    -0.014 A 
BRANCH  28  29
ATOM     29  C   UNL A   1      39.802  28.855  29.413  1.00  0.00     0.031 A 
ATOM     30  C   UNL A   1      40.582  29.705  30.372  1.00  0.00     0.074 A 
ATOM     31  C   UNL A   1      40.326  27.704  28.952  1.00  0.00     0.049 A 
ATOM     32  N   UNL A   1      41.830  29.604  30.750  1.00  0.00    -0.248 NA
ATOM     33  C   UNL A   1      39.855  30.827  30.987  1.00  0.00     0.031 C 
ATOM     34  C   UNL A   1      39.640  26.751  28.080  1.00  0.00     0.029 A 
ATOM     35  N   UNL A   1      41.560  27.138  29.160  1.00  0.00    -0.354 N 
ATOM     36  C   UNL A   1      42.050  30.671  31.609  1.00  0.00     0.074 A 
ATOM     37  C   UNL A   1      40.807  31.408  31.699  1.00  0.00     0.031 C 
ATOM     38  C   UNL A   1      40.461  25.716  27.833  1.00  0.00     0.029 A 
ATOM     39  C   UNL A   1      41.746  25.959  28.483  1.00  0.00     0.049 A 
ATOM     40  H   UNL A   1      42.246  27.542  29.739  1.00  0.00     0.167 HD
ATOM     41  C   UNL A   1      43.190  31.008  32.257  1.00  0.00     0.037 A 
ATOM     42  C   UNL A   1      42.842  25.183  28.375  1.00  0.00     0.037 A 
ATOM     43  C   UNL A   1      44.413  30.251  32.192  1.00  0.00     0.049 A 
ATOM     44  C   UNL A   1      44.107  25.597  29.079  1.00  0.00     0.074 A 
ATOM     45  C   UNL A   1      45.628  30.515  32.799  1.00  0.00     0.029 A 
ATOM     46  N   UNL A   1      44.568  29.070  31.481  1.00  0.00    -0.354 N 
ATOM     47  N   UNL A   1      44.326  26.638  29.845  1.00  0.00    -0.248 NA
ATOM     48  C   UNL A   1      45.281  24.732  28.894  1.00  0.00     0.031 C 
ATOM     49  C   UNL A   1      46.528  29.508  32.431  1.00  0.00     0.029 A 
ATOM     50  C   UNL A   1      45.861  28.594  31.631  1.00  0.00     0.049 A 
ATOM     51  H   UNL A   1      43.864  28.633  30.949  1.00  0.00     0.167 HD
ATOM     52  C   UNL A   1      45.649  26.539  30.255  1.00  0.00     0.074 A 
ATOM     53  C   UNL A   1      46.181  25.329  29.663  1.00  0.00     0.031 C 
ATOM     54  C   UNL A   1      46.362  27.377  31.048  1.00  0.00     0.037 A 
BRANCH  41  55
ATOM     55  C   UNL A   1      43.177  32.279  33.054  1.00  0.00     0.064 A 
ATOM     56  C   UNL A   1      43.452  33.524  32.471  1.00  0.00     0.173 A 
ATOM     57  C   UNL A   1      42.880  32.245  34.425  1.00  0.00     0.173 A 
ATOM     58  F   UNL A   1      43.760  33.608  31.169  1.00  0.00    -0.203 F 
ATOM     59  C   UNL A   1      43.457  34.687  33.239  1.00  0.00     0.198 A 
ATOM     60  C   UNL A   1      42.859  33.412  35.183  1.00  0.00     0.198 A 
ATOM     61  F   UNL A   1      42.610  31.078  35.030  1.00  0.00    -0.203 F 
ATOM     62  F   UNL A   1      43.771  35.860  32.673  1.00  0.00    -0.200 F 
ATOM     63  C   UNL A   1      43.155  34.631  34.592  1.00  0.00     0.200 A 
ATOM     64  F   UNL A   1      42.559  33.356  36.488  1.00  0.00    -0.200 F 
ATOM     65  F   UNL A   1      43.160  35.750  35.328  1.00  0.00    -0.200 F 
ENDBRANCH  41  55
BRANCH  42  66
ATOM     66  C   UNL A   1      42.802  23.943  27.555  1.00  0.00     0.064 A 
ATOM     67  C   UNL A   1      42.419  22.717  28.117  1.00  0.00     0.173 A 
ATOM     68  C   UNL A   1      43.168  23.952  26.200  1.00  0.00     0.173 A 
ATOM     69  F   UNL A   1      42.089  22.649  29.415  1.00  0.00    -0.203 F 
ATOM     70  C   UNL A   1      42.417  21.547  27.360  1.00  0.00     0.198 A 
ATOM     71  C   UNL A   1      43.137  22.788  25.437  1.00  0.00     0.198 A 
ATOM     72  F   UNL A   1      43.549  25.097  25.615  1.00  0.00    -0.203 F 
ATOM     73  F   UNL A   1      42.092  20.381  27.935  1.00  0.00    -0.200 F 
ATOM     74  C   UNL A   1      42.770  21.584  26.019  1.00  0.00     0.200 A 
ATOM     75  F   UNL A   1      43.470  22.829  24.140  1.00  0.00    -0.200 F 
ATOM     76  F   UNL A   1      42.765  20.458  25.292  1.00  0.00    -0.200 F 
ENDBRANCH  42  66
BRANCH  54  77
ATOM     77  C   UNL A   1      47.776  26.983  31.364  1.00  0.00     0.064 A 
ATOM     78  C   UNL A   1      48.082  26.110  32.418  1.00  0.00     0.173 A 
ATOM     79  C   UNL A   1      48.835  27.467  30.581  1.00  0.00     0.173 A 
ATOM     80  F   UNL A   1      47.105  25.634  33.205  1.00  0.00    -0.203 F 
ATOM     81  C   UNL A   1      49.400  25.759  32.695  1.00  0.00     0.198 A 
ATOM     82  C   UNL A   1      50.150  27.092  30.843  1.00  0.00     0.198 A 
ATOM     83  F   UNL A   1      48.593  28.298  29.556  1.00  0.00    -0.203 F 
ATOM     84  F   UNL A   1      49.675  24.963  33.738  1.00  0.00    -0.200 F 
ATOM     85  C   UNL A   1      50.432  26.245  31.905  1.00  0.00     0.200 A 
ATOM     86  F   UNL A   1      51.143  27.553  30.072  1.00  0.00    -0.200 F 
ATOM     87  F   UNL A   1      51.700  25.905  32.172  1.00  0.00    -0.200 F 
ENDBRANCH  54  77
ENDBRANCH  28  29
ENDBRANCH  21  23
ENDBRANCH  20  21
ENDBRANCH  19  20
ENDBRANCH  18  19
ENDBRANCH   1  18
TORSDOF 17
ENDMDL
MODEL 2
REMARK VINA RESULT:      -9.5      0.176      2.027
REMARK SMILES CC[C@@](C)(NC(=O)N(C)CCO)C(=O)OCCOC(=O)c1ccc(-c2c3nc(c(-c4c(F)c(F)c(F)c(F)c4F)c4ccc([nH]4)c(-c4c(F)c(F)c(F)c(F)c4F)c4nc(c(-c5c(F)c(F)c(F)c(F)c5F)c5ccc2[nH]5)C=C4)C=C3)cc1
REMARK SMILES IDX 15 1 13 2 14 3 3 4 4 5 2 6 1 7 5 8 6 9 7 11 8 12 9 13 10 14
REMARK SMILES IDX 11 15 12 16 16 18 17 19 18 20 19 21 20 22 21 23 22 24 83 25
REMARK SMILES IDX 23 26 82 27 24 28 25 29 26 30 76 31 27 32 81 33 75 34 77 35
REMARK SMILES IDX 28 36 80 37 74 38 73 39 29 41 61 42 41 43 60 44 42 45 45 46
REMARK SMILES IDX 59 47 78 48 43 49 44 50 58 52 79 53 46 54 30 55 31 56 39 57
REMARK SMILES IDX 32 58 33 59 37 60 40 61 34 62 35 63 38 64 36 65 62 66 63 67
REMARK SMILES IDX 71 68 64 69 65 70 69 71 72 72 66 73 67 74 70 75 68 76 47 77
REMARK SMILES IDX 48 78 56 79 49 80 50 81 54 82 57 83 51 84 52 85 55 86 53 87
REMARK H PARENT 5 10 12 17 77 40 45 51
REMARK Flexibility Score: inf
ROOT
ATOM      1  O   UNL A   1      35.726  34.238  29.509  1.00  0.00    -0.460 OA
ENDROOT
BRANCH   1   2
ATOM      2  C   UNL A   1      36.351  33.519  30.476  1.00  0.00     0.331 C 
ATOM      3  O   UNL A   1      37.261  32.739  30.226  1.00  0.00    -0.249 OA
BRANCH   2   4
ATOM      4  C   UNL A   1      35.730  33.737  31.894  1.00  0.00     0.136 C 
ATOM      5  C   UNL A   1      34.632  32.699  32.159  1.00  0.00     0.047 C 
BRANCH   4   6
ATOM      6  C   UNL A   1      36.867  33.499  32.977  1.00  0.00     0.037 C 
ATOM      7  C   UNL A   1      38.055  34.452  33.056  1.00  0.00     0.007 C 
ENDBRANCH   4   6
BRANCH   4   8
ATOM      8  N   UNL A   1      35.250  35.135  32.221  1.00  0.00    -0.322 N 
ATOM      9  C   UNL A   1      34.247  36.009  32.286  1.00  0.00     0.318 C 
ATOM     10  H   UNL A   1      36.049  35.624  32.526  1.00  0.00     0.166 HD
ATOM     11  O   UNL A   1      34.583  37.080  32.810  1.00  0.00    -0.249 OA
BRANCH   9  12
ATOM     12  N   UNL A   1      32.999  35.853  31.789  1.00  0.00    -0.326 N 
ATOM     13  C   UNL A   1      31.755  35.866  32.519  1.00  0.00     0.148 C 
BRANCH  12  14
ATOM     14  C   UNL A   1      32.876  35.585  30.337  1.00  0.00     0.149 C 
BRANCH  14  15
ATOM     15  C   UNL A   1      33.434  36.689  29.430  1.00  0.00     0.177 C 
BRANCH  15  16
ATOM     16  O   UNL A   1      33.387  37.969  30.052  1.00  0.00    -0.395 OA
ATOM     17  H   UNL A   1      33.493  37.867  31.011  1.00  0.00     0.210 HD
ENDBRANCH  15  16
ENDBRANCH  14  15
ENDBRANCH  12  14
ENDBRANCH   9  12
ENDBRANCH   4   8
ENDBRANCH   2   4
ENDBRANCH   1   2
BRANCH   1  18
ATOM     18  C   UNL A   1      35.521  33.586  28.236  1.00  0.00     0.274 C 
BRANCH  18  19
ATOM     19  C   UNL A   1      34.380  32.571  28.327  1.00  0.00     0.275 C 
BRANCH  19  20
ATOM     20  O   UNL A   1      34.585  31.555  27.334  1.00  0.00    -0.458 OA
BRANCH  20  21
ATOM     21  C   UNL A   1      34.538  30.271  27.747  1.00  0.00     0.338 C 
ATOM     22  O   UNL A   1      33.574  29.522  27.766  1.00  0.00    -0.246 OA
BRANCH  21  23
ATOM     23  C   UNL A   1      35.892  29.907  28.189  1.00  0.00     0.060 A 
ATOM     24  C   UNL A   1      36.961  30.079  27.308  1.00  0.00     0.016 A 
ATOM     25  C   UNL A   1      36.111  29.398  29.466  1.00  0.00     0.016 A 
ATOM     26  C   UNL A   1      38.261  29.776  27.700  1.00  0.00     0.010 A 
ATOM     27  C   UNL A   1      37.419  29.106  29.870  1.00  0.00     0.010 A 
ATOM     28  C   UNL A   1      38.502  29.291  28.988  1.00  0.00    -0.014 A 
BRANCH  28  29
ATOM     29  C   UNL A   1      39.873  28.885  29.377  1.00  0.00     0.031 A 
ATOM     30  C   UNL A   1      40.654  29.761  30.312  1.00  0.00     0.074 A 
ATOM     31  C   UNL A   1      40.407  27.733  28.929  1.00  0.00     0.049 A 
ATOM     32  N   UNL A   1      41.908  29.682  30.676  1.00  0.00    -0.248 NA
ATOM     33  C   UNL A   1      39.920  30.884  30.917  1.00  0.00     0.031 C 
ATOM     34  C   UNL A   1      39.723  26.758  28.080  1.00  0.00     0.029 A 
ATOM     35  N   UNL A   1      41.651  27.188  29.130  1.00  0.00    -0.354 N 
ATOM     36  C   UNL A   1      42.125  30.767  31.514  1.00  0.00     0.074 A 
ATOM     37  C   UNL A   1      40.873  31.489  31.607  1.00  0.00     0.031 C 
ATOM     38  C   UNL A   1      40.554  25.729  27.840  1.00  0.00     0.029 A 
ATOM     39  C   UNL A   1      41.844  26.000  28.470  1.00  0.00     0.049 A 
ATOM     40  H   UNL A   1      42.339  27.610  29.694  1.00  0.00     0.167 HD
ATOM     41  C   UNL A   1      43.268  31.129  32.143  1.00  0.00     0.037 A 
ATOM     42  C   UNL A   1      42.948  25.236  28.362  1.00  0.00     0.037 A 
ATOM     43  C   UNL A   1      44.499  30.387  32.075  1.00  0.00     0.049 A 
ATOM     44  C   UNL A   1      44.217  25.678  29.043  1.00  0.00     0.074 A 
ATOM     45  C   UNL A   1      45.718  30.676  32.662  1.00  0.00     0.029 A 
ATOM     46  N   UNL A   1      44.661  29.196  31.382  1.00  0.00    -0.354 N 
ATOM     47  N   UNL A   1      44.432  26.734  29.789  1.00  0.00    -0.248 NA
ATOM     48  C   UNL A   1      45.400  24.825  28.858  1.00  0.00     0.031 C 
ATOM     49  C   UNL A   1      46.627  29.675  32.299  1.00  0.00     0.029 A 
ATOM     50  C   UNL A   1      45.962  28.739  31.523  1.00  0.00     0.049 A 
ATOM     51  H   UNL A   1      43.957  28.741  30.866  1.00  0.00     0.167 HD
ATOM     52  C   UNL A   1      45.760  26.660  30.184  1.00  0.00     0.074 A 
ATOM     53  C   UNL A   1      46.300  25.446  29.606  1.00  0.00     0.031 C 
ATOM     54  C   UNL A   1      46.472  27.519  30.955  1.00  0.00     0.037 A 
BRANCH  41  55
ATOM     55  C   UNL A   1      43.248  32.412  32.918  1.00  0.00     0.064 A 
ATOM     56  C   UNL A   1      42.945  32.449  34.287  1.00  0.00     0.173 A 
ATOM     57  C   UNL A   1      43.540  33.626  32.276  1.00  0.00     0.173 A 
ATOM     58  F   UNL A   1      42.639  31.320  34.942  1.00  0.00    -0.203 F 
ATOM     59  C   UNL A   1      42.909  33.659  34.979  1.00  0.00     0.198 A 
ATOM     60  C   UNL A   1      43.530  34.828  32.976  1.00  0.00     0.198 A 
ATOM     61  F   UNL A   1      43.836  33.644  30.968  1.00  0.00    -0.203 F 
ATOM     62  F   UNL A   1      42.568  33.677  36.274  1.00  0.00    -0.200 F 
ATOM     63  C   UNL A   1      43.207  34.845  34.325  1.00  0.00     0.200 A 
ATOM     64  F   UNL A   1      43.826  35.972  32.344  1.00  0.00    -0.200 F 
ATOM     65  F   UNL A   1      43.172  36.006  34.991  1.00  0.00    -0.200 F 
ENDBRANCH  41  55
BRANCH  42  66
ATOM     66  C   UNL A   1      42.915  23.982  27.563  1.00  0.00     0.064 A 
ATOM     67  C   UNL A   1      43.250  23.985  26.201  1.00  0.00     0.173 A 
ATOM     68  C   UNL A   1      42.527  22.761  28.135  1.00  0.00     0.173 A 
ATOM     69  F   UNL A   1      43.599  25.131  25.600  1.00  0.00    -0.203 F 
ATOM     70  C   UNL A   1      43.184  22.819  25.441  1.00  0.00     0.198 A 
ATOM     71  C   UNL A   1      42.489  21.591  27.381  1.00  0.00     0.198 A 
ATOM     72  F   UNL A   1      42.190  22.705  29.432  1.00  0.00    -0.203 F 
ATOM     73  F   UNL A   1      43.464  22.860  24.131  1.00  0.00    -0.200 F 
ATOM     74  C   UNL A   1      42.809  21.621  26.032  1.00  0.00     0.200 A 
ATOM     75  F   UNL A   1      42.136  20.434  27.959  1.00  0.00    -0.200 F 
ATOM     76  F   UNL A   1      42.749  20.501  25.300  1.00  0.00    -0.200 F 
ENDBRANCH  42  66
BRANCH  54  77
ATOM     77  C   UNL A   1      47.895  27.148  31.259  1.00  0.00     0.064 A 
ATOM     78  C   UNL A   1      48.961  27.600  30.469  1.00  0.00     0.173 A 
ATOM     79  C   UNL A   1      48.193  26.351  32.374  1.00  0.00     0.173 A 
ATOM     80  F   UNL A   1      48.725  28.352  29.383  1.00  0.00    -0.203 F 
ATOM     81  C   UNL A   1      50.273  27.244  30.768  1.00  0.00     0.198 A 
ATOM     82  C   UNL A   1      49.508  26.019  32.687  1.00  0.00     0.198 A 
ATOM     83  F   UNL A   1      47.208  25.899  33.166  1.00  0.00    -0.203 F 
ATOM     84  F   UNL A   1      51.273  27.646  29.972  1.00  0.00    -0.200 F 
ATOM     85  C   UNL A   1      50.546  26.459  31.879  1.00  0.00     0.200 A 
ATOM     86  F   UNL A   1      49.770  25.270  33.766  1.00  0.00    -0.200 F 
ATOM     87  F   UNL A   1      51.810  26.117  32.166  1.00  0.00    -0.200 F 
ENDBRANCH  54  77
ENDBRANCH  28  29
ENDBRANCH  21  23
ENDBRANCH  20  21
ENDBRANCH  19  20
ENDBRANCH  18  19
ENDBRANCH   1  18
TORSDOF 17
ENDMDL
MODEL 3
REMARK VINA RESULT:      -9.4      3.893      9.412
REMARK SMILES CC[C@@](C)(NC(=O)N(C)CCO)C(=O)OCCOC(=O)c1ccc(-c2c3nc(c(-c4c(F)c(F)c(F)c(F)c4F)c4ccc([nH]4)c(-c4c(F)c(F)c(F)c(F)c4F)c4nc(c(-c5c(F)c(F)c(F)c(F)c5F)c5ccc2[nH]5)C=C4)C=C3)cc1
REMARK SMILES IDX 15 1 13 2 14 3 3 4 4 5 2 6 1 7 5 8 6 9 7 11 8 12 9 13 10 14
REMARK SMILES IDX 11 15 12 16 16 18 17 19 18 20 19 21 20 22 21 23 22 24 83 25
REMARK SMILES IDX 23 26 82 27 24 28 25 29 26 30 76 31 27 32 81 33 75 34 77 35
REMARK SMILES IDX 28 36 80 37 74 38 73 39 29 41 61 42 41 43 60 44 42 45 45 46
REMARK SMILES IDX 59 47 78 48 43 49 44 50 58 52 79 53 46 54 30 55 31 56 39 57
REMARK SMILES IDX 32 58 33 59 37 60 40 61 34 62 35 63 38 64 36 65 62 66 63 67
REMARK SMILES IDX 71 68 64 69 65 70 69 71 72 72 66 73 67 74 70 75 68 76 47 77
REMARK SMILES IDX 48 78 56 79 49 80 50 81 54 82 57 83 51 84 52 85 55 86 53 87
REMARK H PARENT 5 10 12 17 77 40 45 51
REMARK Flexibility Score: inf
ROOT
ATOM      1  O   UNL A   1      31.503  27.669  25.716  1.00  0.00    -0.460 OA
ENDROOT
BRANCH   1   2
ATOM      2  C   UNL A   1      32.003  26.453  26.048  1.00  0.00     0.331 C 
ATOM      3  O   UNL A   1      31.378  25.652  26.732  1.00  0.00    -0.249 OA
BRANCH   2   4
ATOM      4  C   UNL A   1      33.465  26.236  25.538  1.00  0.00     0.136 C 
ATOM      5  C   UNL A   1      34.397  27.303  26.125  1.00  0.00     0.047 C 
BRANCH   4   6
ATOM      6  C   UNL A   1      33.974  24.829  26.071  1.00  0.00     0.037 C 
ATOM      7  C   UNL A   1      35.136  24.126  25.376  1.00  0.00     0.007 C 
ENDBRANCH   4   6
BRANCH   4   8
ATOM      8  N   UNL A   1      33.654  26.110  24.041  1.00  0.00    -0.322 N 
ATOM      9  C   UNL A   1      33.268  26.448  22.812  1.00  0.00     0.318 C 
ATOM     10  H   UNL A   1      34.411  25.491  23.921  1.00  0.00     0.166 HD
ATOM     11  O   UNL A   1      34.026  26.007  21.938  1.00  0.00    -0.249 OA
BRANCH   9  12
ATOM     12  N   UNL A   1      32.149  27.124  22.468  1.00  0.00    -0.326 N 
ATOM     13  C   UNL A   1      30.893  26.574  22.022  1.00  0.00     0.148 C 
BRANCH  12  14
ATOM     14  C   UNL A   1      32.216  28.605  22.494  1.00  0.00     0.149 C 
BRANCH  14  15
ATOM     15  C   UNL A   1      30.852  29.309  22.485  1.00  0.00     0.177 C 
BRANCH  15  16
ATOM     16  O   UNL A   1      30.653  30.077  21.303  1.00  0.00    -0.395 OA
ATOM     17  H   UNL A   1      31.335  30.766  21.245  1.00  0.00     0.210 HD
ENDBRANCH  15  16
ENDBRANCH  14  15
ENDBRANCH  12  14
ENDBRANCH   9  12
ENDBRANCH   4   8
ENDBRANCH   2   4
ENDBRANCH   1   2
BRANCH   1  18
ATOM     18  C   UNL A   1      31.630  28.721  26.699  1.00  0.00     0.274 C 
BRANCH  18  19
ATOM     19  C   UNL A   1      31.778  30.082  26.017  1.00  0.00     0.275 C 
BRANCH  19  20
ATOM     20  O   UNL A   1      33.124  30.545  26.197  1.00  0.00    -0.458 OA
BRANCH  20  21
ATOM     21  C   UNL A   1      33.317  31.551  27.076  1.00  0.00     0.338 C 
ATOM     22  O   UNL A   1      32.631  32.546  27.243  1.00  0.00    -0.246 OA
BRANCH  21  23
ATOM     23  C   UNL A   1      34.540  31.238  27.830  1.00  0.00     0.060 A 
ATOM     24  C   UNL A   1      34.696  29.959  28.367  1.00  0.00     0.016 A 
ATOM     25  C   UNL A   1      35.530  32.200  28.011  1.00  0.00     0.016 A 
ATOM     26  C   UNL A   1      35.852  29.615  29.060  1.00  0.00     0.010 A 
ATOM     27  C   UNL A   1      36.702  31.854  28.695  1.00  0.00     0.010 A 
ATOM     28  C   UNL A   1      36.868  30.561  29.226  1.00  0.00    -0.014 A 
BRANCH  28  29
ATOM     29  C   UNL A   1      38.062  30.223  30.038  1.00  0.00     0.031 A 
ATOM     30  C   UNL A   1      39.112  29.326  29.452  1.00  0.00     0.074 A 
ATOM     31  C   UNL A   1      38.225  30.737  31.272  1.00  0.00     0.049 A 
ATOM     32  N   UNL A   1      40.159  28.787  30.021  1.00  0.00    -0.248 NA
ATOM     33  C   UNL A   1      38.956  28.985  28.029  1.00  0.00     0.031 C 
ATOM     34  C   UNL A   1      37.318  31.681  31.922  1.00  0.00     0.029 A 
ATOM     35  N   UNL A   1      39.219  30.536  32.198  1.00  0.00    -0.354 N 
ATOM     36  C   UNL A   1      40.761  28.011  29.041  1.00  0.00     0.074 A 
ATOM     37  C   UNL A   1      39.964  28.148  27.840  1.00  0.00     0.031 C 
ATOM     38  C   UNL A   1      37.802  31.984  33.140  1.00  0.00     0.029 A 
ATOM     39  C   UNL A   1      39.019  31.212  33.375  1.00  0.00     0.049 A 
ATOM     40  H   UNL A   1      40.000  29.959  32.032  1.00  0.00     0.167 HD
ATOM     41  C   UNL A   1      41.875  27.247  29.139  1.00  0.00     0.037 A 
ATOM     42  C   UNL A   1      39.724  31.186  34.523  1.00  0.00     0.037 A 
ATOM     43  C   UNL A   1      42.683  27.143  30.325  1.00  0.00     0.049 A 
ATOM     44  C   UNL A   1      40.940  30.303  34.618  1.00  0.00     0.074 A 
ATOM     45  C   UNL A   1      43.822  26.385  30.533  1.00  0.00     0.029 A 
ATOM     46  N   UNL A   1      42.440  27.832  31.505  1.00  0.00    -0.354 N 
ATOM     47  N   UNL A   1      41.474  29.527  33.705  1.00  0.00    -0.248 NA
ATOM     48  C   UNL A   1      41.647  30.284  35.906  1.00  0.00     0.031 C 
ATOM     49  C   UNL A   1      44.251  26.593  31.850  1.00  0.00     0.029 A 
ATOM     50  C   UNL A   1      43.405  27.513  32.447  1.00  0.00     0.049 A 
ATOM     51  H   UNL A   1      41.692  28.455  31.652  1.00  0.00     0.167 HD
ATOM     52  C   UNL A   1      42.590  28.951  34.297  1.00  0.00     0.074 A 
ATOM     53  C   UNL A   1      42.665  29.477  35.645  1.00  0.00     0.031 C 
ATOM     54  C   UNL A   1      43.472  28.064  33.775  1.00  0.00     0.037 A 
BRANCH  41  55
ATOM     55  C   UNL A   1      42.252  26.427  27.942  1.00  0.00     0.064 A 
ATOM     56  C   UNL A   1      43.205  26.865  27.011  1.00  0.00     0.173 A 
ATOM     57  C   UNL A   1      41.648  25.179  27.727  1.00  0.00     0.173 A 
ATOM     58  F   UNL A   1      43.797  28.059  27.160  1.00  0.00    -0.203 F 
ATOM     59  C   UNL A   1      43.519  26.094  25.893  1.00  0.00     0.198 A 
ATOM     60  C   UNL A   1      41.985  24.399  26.624  1.00  0.00     0.198 A 
ATOM     61  F   UNL A   1      40.730  24.715  28.588  1.00  0.00    -0.203 F 
ATOM     62  F   UNL A   1      44.395  26.554  24.990  1.00  0.00    -0.200 F 
ATOM     63  C   UNL A   1      42.913  24.861  25.704  1.00  0.00     0.200 A 
ATOM     64  F   UNL A   1      41.404  23.204  26.448  1.00  0.00    -0.200 F 
ATOM     65  F   UNL A   1      43.217  24.121  24.629  1.00  0.00    -0.200 F 
ENDBRANCH  41  55
BRANCH  42  66
ATOM     66  C   UNL A   1      39.291  32.006  35.685  1.00  0.00     0.064 A 
ATOM     67  C   UNL A   1      39.814  33.289  35.899  1.00  0.00     0.173 A 
ATOM     68  C   UNL A   1      38.364  31.518  36.619  1.00  0.00     0.173 A 
ATOM     69  F   UNL A   1      40.726  33.790  35.053  1.00  0.00    -0.203 F 
ATOM     70  C   UNL A   1      39.439  34.045  37.008  1.00  0.00     0.198 A 
ATOM     71  C   UNL A   1      37.967  32.285  37.711  1.00  0.00     0.198 A 
ATOM     72  F   UNL A   1      37.838  30.294  36.465  1.00  0.00    -0.203 F 
ATOM     73  F   UNL A   1      39.991  35.249  37.213  1.00  0.00    -0.200 F 
ATOM     74  C   UNL A   1      38.511  33.545  37.910  1.00  0.00     0.200 A 
ATOM     75  F   UNL A   1      37.063  31.803  38.574  1.00  0.00    -0.200 F 
ATOM     76  F   UNL A   1      38.148  34.274  38.974  1.00  0.00    -0.200 F 
ENDBRANCH  42  66
BRANCH  54  77
ATOM     77  C   UNL A   1      44.623  27.650  34.645  1.00  0.00     0.064 A 
ATOM     78  C   UNL A   1      44.557  26.519  35.470  1.00  0.00     0.173 A 
ATOM     79  C   UNL A   1      45.819  28.385  34.630  1.00  0.00     0.173 A 
ATOM     80  F   UNL A   1      43.429  25.793  35.531  1.00  0.00    -0.203 F 
ATOM     81  C   UNL A   1      45.635  26.153  36.270  1.00  0.00     0.198 A 
ATOM     82  C   UNL A   1      46.905  28.001  35.411  1.00  0.00     0.198 A 
ATOM     83  F   UNL A   1      45.935  29.472  33.852  1.00  0.00    -0.203 F 
ATOM     84  F   UNL A   1      45.533  25.097  37.088  1.00  0.00    -0.200 F 
ATOM     85  C   UNL A   1      46.810  26.890  36.236  1.00  0.00     0.200 A 
ATOM     86  F   UNL A   1      48.043  28.708  35.368  1.00  0.00    -0.200 F 
ATOM     87  F   UNL A   1      47.848  26.537  37.007  1.00  0.00    -0.200 F 
ENDBRANCH  54  77
ENDBRANCH  28  29
ENDBRANCH  21  23
ENDBRANCH  20  21
ENDBRANCH  19  20
ENDBRANCH  18  19
ENDBRANCH   1  18
TORSDOF 17
ENDMDL
