MODEL 1
REMARK VINA RESULT:     -13.3      0.000      0.000
REMARK SMILES NS(=O)(=O)c1ccc(-n2nc(C(F)(F)F)cc2-c2ccc(C(=O)OCCOC(=O)c3ccc(-c4c5nc(c(-c6c(F)c(F)c(F)c(F)c6F)c6ccc([nH]6)c(-c6c(F)c(F)c(F)c(F)c6F)c6nc(c(-c7c(F)c(F)c(F)c(F)c7F)c7ccc4[nH]7)C=C6)C=C5)cc3)cc2)cc1
REMARK SMILES IDX 25 1 24 2 22 3 23 4 21 5 18 6 19 7 94 8 20 9 93 10 17 11
REMARK SMILES IDX 9 12 10 13 11 14 16 15 8 16 5 17 6 18 96 19 7 20 95 21 2 22
REMARK SMILES IDX 3 23 4 24 1 25 12 28 13 29 14 30 15 31 26 32 27 33 28 34
REMARK SMILES IDX 29 35 30 36 31 37 92 38 32 39 91 40 33 41 34 42 35 43 85 44
REMARK SMILES IDX 36 45 90 46 84 47 86 48 37 49 89 50 83 51 82 52 38 54 70 55
REMARK SMILES IDX 50 56 69 57 51 58 54 59 68 60 87 61 52 62 53 63 67 65 88 66
REMARK SMILES IDX 55 67 39 68 40 69 48 70 41 71 42 72 46 73 49 74 43 75 44 76
REMARK SMILES IDX 47 77 45 78 71 79 72 80 80 81 73 82 74 83 78 84 81 85 75 86
REMARK SMILES IDX 76 87 79 88 77 89 56 90 57 91 65 92 58 93 59 94 63 95 66 96
REMARK SMILES IDX 60 97 61 98 64 99 62 100
REMARK H PARENT 1 26 1 27 86 53 54 64
REMARK Flexibility Score: inf
ROOT
ATOM      1  C   UNL A   1      33.649  33.361  28.340  1.00  0.00     0.275 C 
ENDROOT
BRANCH   1   2
ATOM      2  O   UNL A   1      33.266  31.999  28.089  1.00  0.00    -0.458 OA
BRANCH   2   3
ATOM      3  C   UNL A   1      34.193  31.244  27.446  1.00  0.00     0.338 C 
ATOM      4  O   UNL A   1      35.357  31.550  27.236  1.00  0.00    -0.246 OA
BRANCH   3   5
ATOM      5  C   UNL A   1      33.637  29.910  27.108  1.00  0.00     0.060 A 
ATOM      6  C   UNL A   1      32.659  27.412  26.297  1.00  0.00     0.000 A 
ATOM      7  C   UNL A   1      34.024  27.710  26.179  1.00  0.00     0.011 A 
ATOM      8  C   UNL A   1      31.797  28.356  26.868  1.00  0.00     0.011 A 
ATOM      9  C   UNL A   1      34.512  28.951  26.583  1.00  0.00     0.016 A 
ATOM     10  C   UNL A   1      32.285  29.598  27.282  1.00  0.00     0.016 A 
BRANCH   6  11
ATOM     11  C   UNL A   1      32.130  26.174  25.731  1.00  0.00     0.075 A 
ATOM     12  N   UNL A   1      31.041  26.065  24.876  1.00  0.00    -0.233 N 
ATOM     13  N   UNL A   1      30.566  24.793  24.824  1.00  0.00    -0.163 NA
ATOM     14  C   UNL A   1      31.479  24.052  25.481  1.00  0.00     0.167 A 
ATOM     15  C   UNL A   1      32.461  24.879  26.076  1.00  0.00     0.064 A 
BRANCH  12  16
ATOM     16  C   UNL A   1      30.418  27.098  24.131  1.00  0.00     0.065 A 
ATOM     17  C   UNL A   1      29.169  29.213  22.822  1.00  0.00     0.082 A 
ATOM     18  C   UNL A   1      30.562  29.198  22.930  1.00  0.00     0.024 A 
ATOM     19  C   UNL A   1      28.400  28.163  23.338  1.00  0.00     0.024 A 
ATOM     20  C   UNL A   1      31.186  28.146  23.600  1.00  0.00     0.030 A 
ATOM     21  C   UNL A   1      29.028  27.083  23.964  1.00  0.00     0.030 A 
BRANCH  17  22
ATOM     22  S   UNL A   1      28.334  30.597  22.103  1.00  0.00     0.238 S 
ATOM     23  O   UNL A   1      27.355  31.079  23.044  1.00  0.00    -0.207 OA
ATOM     24  O   UNL A   1      28.019  30.280  20.727  1.00  0.00    -0.207 OA
BRANCH  22  25
ATOM     25  N   UNL A   1      29.507  31.802  22.042  1.00  0.00    -0.225 NA
ATOM     26  H   UNL A   1      29.565  32.171  21.093  1.00  0.00     0.137 HD
ATOM     27  H   UNL A   1      30.409  31.412  22.313  1.00  0.00     0.137 HD
ENDBRANCH  22  25
ENDBRANCH  17  22
ENDBRANCH  12  16
BRANCH  14  28
ATOM     28  C   UNL A   1      31.413  22.551  25.586  1.00  0.00     0.435 C 
ATOM     29  F   UNL A   1      30.322  22.110  26.264  1.00  0.00    -0.164 F 
ATOM     30  F   UNL A   1      31.397  21.955  24.365  1.00  0.00    -0.164 F 
ATOM     31  F   UNL A   1      32.500  22.050  26.239  1.00  0.00    -0.164 F 
ENDBRANCH  14  28
ENDBRANCH   6  11
ENDBRANCH   3   5
ENDBRANCH   2   3
ENDBRANCH   1   2
BRANCH   1  32
ATOM     32  C   UNL A   1      34.257  33.514  29.726  1.00  0.00     0.275 C 
BRANCH  32  33
ATOM     33  O   UNL A   1      34.271  32.274  30.430  1.00  0.00    -0.458 OA
BRANCH  33  34
ATOM     34  C   UNL A   1      35.274  32.127  31.322  1.00  0.00     0.338 C 
ATOM     35  O   UNL A   1      35.360  32.605  32.442  1.00  0.00    -0.246 OA
BRANCH  34  36
ATOM     36  C   UNL A   1      36.408  31.495  30.646  1.00  0.00     0.060 A 
ATOM     37  C   UNL A   1      36.415  30.101  30.546  1.00  0.00     0.016 A 
ATOM     38  C   UNL A   1      37.556  32.265  30.414  1.00  0.00     0.016 A 
ATOM     39  C   UNL A   1      37.629  29.471  30.380  1.00  0.00     0.010 A 
ATOM     40  C   UNL A   1      38.765  31.633  30.275  1.00  0.00     0.010 A 
ATOM     41  C   UNL A   1      38.796  30.246  30.348  1.00  0.00    -0.014 A 
BRANCH  41  42
ATOM     42  C   UNL A   1      40.072  29.570  30.248  1.00  0.00     0.031 A 
ATOM     43  C   UNL A   1      40.740  29.429  31.563  1.00  0.00     0.074 A 
ATOM     44  C   UNL A   1      40.500  29.015  29.097  1.00  0.00     0.049 A 
ATOM     45  N   UNL A   1      41.885  29.904  31.917  1.00  0.00    -0.248 NA
ATOM     46  C   UNL A   1      39.959  28.848  32.670  1.00  0.00     0.031 C 
ATOM     47  C   UNL A   1      39.791  28.897  27.820  1.00  0.00     0.029 A 
ATOM     48  N   UNL A   1      41.648  28.324  28.867  1.00  0.00    -0.354 N 
ATOM     49  C   UNL A   1      42.058  29.510  33.239  1.00  0.00     0.074 A 
ATOM     50  C   UNL A   1      40.782  29.032  33.701  1.00  0.00     0.031 C 
ATOM     51  C   UNL A   1      40.411  27.974  27.047  1.00  0.00     0.029 A 
ATOM     52  C   UNL A   1      41.620  27.537  27.721  1.00  0.00     0.049 A 
ATOM     53  H   UNL A   1      42.432  28.375  29.461  1.00  0.00     0.167 HD
ATOM     54  C   UNL A   1      43.301  29.359  33.763  1.00  0.00     0.037 A 
ATOM     55  C   UNL A   1      42.486  26.526  27.444  1.00  0.00     0.037 A 
ATOM     56  C   UNL A   1      44.279  30.103  33.014  1.00  0.00     0.049 A 
ATOM     57  C   UNL A   1      43.699  26.752  28.281  1.00  0.00     0.074 A 
ATOM     58  C   UNL A   1      44.419  31.442  32.700  1.00  0.00     0.029 A 
ATOM     59  N   UNL A   1      45.065  29.427  32.113  1.00  0.00    -0.354 N 
ATOM     60  N   UNL A   1      44.507  27.765  28.107  1.00  0.00    -0.248 NA
ATOM     61  C   UNL A   1      43.706  26.167  29.616  1.00  0.00     0.031 C 
ATOM     62  C   UNL A   1      44.847  31.457  31.340  1.00  0.00     0.029 A 
ATOM     63  C   UNL A   1      45.027  30.134  30.937  1.00  0.00     0.049 A 
ATOM     64  H   UNL A   1      45.562  28.593  32.280  1.00  0.00     0.167 HD
ATOM     65  C   UNL A   1      44.794  28.211  29.390  1.00  0.00     0.074 A 
ATOM     66  C   UNL A   1      44.304  27.160  30.281  1.00  0.00     0.031 C 
ATOM     67  C   UNL A   1      45.116  29.514  29.637  1.00  0.00     0.037 A 
BRANCH  54  68
ATOM     68  C   UNL A   1      43.658  28.239  34.704  1.00  0.00     0.064 A 
ATOM     69  C   UNL A   1      43.374  26.912  34.338  1.00  0.00     0.173 A 
ATOM     70  C   UNL A   1      44.000  28.441  36.061  1.00  0.00     0.173 A 
ATOM     71  F   UNL A   1      43.000  26.615  33.085  1.00  0.00    -0.203 F 
ATOM     72  C   UNL A   1      43.378  25.875  35.277  1.00  0.00     0.198 A 
ATOM     73  C   UNL A   1      44.059  27.398  36.979  1.00  0.00     0.198 A 
ATOM     74  F   UNL A   1      44.174  29.661  36.581  1.00  0.00    -0.203 F 
ATOM     75  F   UNL A   1      42.983  24.648  34.911  1.00  0.00    -0.200 F 
ATOM     76  C   UNL A   1      43.720  26.120  36.595  1.00  0.00     0.200 A 
ATOM     77  F   UNL A   1      44.366  27.662  38.258  1.00  0.00    -0.200 F 
ATOM     78  F   UNL A   1      43.668  25.139  37.506  1.00  0.00    -0.200 F 
ENDBRANCH  54  68
BRANCH  55  79
ATOM     79  C   UNL A   1      42.164  25.208  26.832  1.00  0.00     0.064 A 
ATOM     80  C   UNL A   1      42.872  24.725  25.718  1.00  0.00     0.173 A 
ATOM     81  C   UNL A   1      41.332  24.277  27.487  1.00  0.00     0.173 A 
ATOM     82  F   UNL A   1      43.730  25.524  25.067  1.00  0.00    -0.203 F 
ATOM     83  C   UNL A   1      42.760  23.394  25.294  1.00  0.00     0.198 A 
ATOM     84  C   UNL A   1      41.215  22.953  27.059  1.00  0.00     0.198 A 
ATOM     85  F   UNL A   1      40.682  24.604  28.613  1.00  0.00    -0.203 F 
ATOM     86  F   UNL A   1      43.491  22.957  24.259  1.00  0.00    -0.200 F 
ATOM     87  C   UNL A   1      41.937  22.508  25.970  1.00  0.00     0.200 A 
ATOM     88  F   UNL A   1      40.444  22.100  27.748  1.00  0.00    -0.200 F 
ATOM     89  F   UNL A   1      41.869  21.222  25.598  1.00  0.00    -0.200 F 
ENDBRANCH  55  79
BRANCH  67  90
ATOM     90  C   UNL A   1      45.358  30.428  28.468  1.00  0.00     0.064 A 
ATOM     91  C   UNL A   1      44.345  31.137  27.799  1.00  0.00     0.173 A 
ATOM     92  C   UNL A   1      46.684  30.729  28.127  1.00  0.00     0.173 A 
ATOM     93  F   UNL A   1      43.059  30.995  28.142  1.00  0.00    -0.203 F 
ATOM     94  C   UNL A   1      44.648  32.071  26.808  1.00  0.00     0.198 A 
ATOM     95  C   UNL A   1      46.985  31.689  27.165  1.00  0.00     0.198 A 
ATOM     96  F   UNL A   1      47.695  30.129  28.774  1.00  0.00    -0.203 F 
ATOM     97  F   UNL A   1      43.661  32.734  26.184  1.00  0.00    -0.200 F 
ATOM     98  C   UNL A   1      45.968  32.352  26.498  1.00  0.00     0.200 A 
ATOM     99  F   UNL A   1      48.264  31.995  26.909  1.00  0.00    -0.200 F 
ATOM    100  F   UNL A   1      46.261  33.282  25.579  1.00  0.00    -0.200 F 
ENDBRANCH  67  90
ENDBRANCH  41  42
ENDBRANCH  34  36
ENDBRANCH  33  34
ENDBRANCH  32  33
ENDBRANCH   1  32
TORSDOF 16
ENDMDL
MODEL 2
REMARK VINA RESULT:     -13.3      0.304      1.183
REMARK SMILES NS(=O)(=O)c1ccc(-n2nc(C(F)(F)F)cc2-c2ccc(C(=O)OCCOC(=O)c3ccc(-c4c5nc(c(-c6c(F)c(F)c(F)c(F)c6F)c6ccc([nH]6)c(-c6c(F)c(F)c(F)c(F)c6F)c6nc(c(-c7c(F)c(F)c(F)c(F)c7F)c7ccc4[nH]7)C=C6)C=C5)cc3)cc2)cc1
REMARK SMILES IDX 25 1 24 2 22 3 23 4 21 5 18 6 19 7 94 8 20 9 93 10 17 11
REMARK SMILES IDX 9 12 10 13 11 14 16 15 8 16 5 17 6 18 96 19 7 20 95 21 2 22
REMARK SMILES IDX 3 23 4 24 1 25 12 28 13 29 14 30 15 31 26 32 27 33 28 34
REMARK SMILES IDX 29 35 30 36 31 37 92 38 32 39 91 40 33 41 34 42 35 43 85 44
REMARK SMILES IDX 36 45 90 46 84 47 86 48 37 49 89 50 83 51 82 52 38 54 70 55
REMARK SMILES IDX 50 56 69 57 51 58 54 59 68 60 87 61 52 62 53 63 67 65 88 66
REMARK SMILES IDX 55 67 39 68 40 69 48 70 41 71 42 72 46 73 49 74 43 75 44 76
REMARK SMILES IDX 47 77 45 78 71 79 72 80 80 81 73 82 74 83 78 84 81 85 75 86
REMARK SMILES IDX 76 87 79 88 77 89 56 90 57 91 65 92 58 93 59 94 63 95 66 96
REMARK SMILES IDX 60 97 61 98 64 99 62 100
REMARK H PARENT 1 26 1 27 86 53 54 64
REMARK Flexibility Score: inf
ROOT
ATOM      1  C   UNL A   1      33.545  33.388  28.195  1.00  0.00     0.275 C 
ENDROOT
BRANCH   1   2
ATOM      2  O   UNL A   1      33.172  32.014  27.992  1.00  0.00    -0.458 OA
BRANCH   2   3
ATOM      3  C   UNL A   1      34.130  31.228  27.439  1.00  0.00     0.338 C 
ATOM      4  O   UNL A   1      35.307  31.517  27.289  1.00  0.00    -0.246 OA
BRANCH   3   5
ATOM      5  C   UNL A   1      33.583  29.886  27.119  1.00  0.00     0.060 A 
ATOM      6  C   UNL A   1      32.614  27.374  26.340  1.00  0.00     0.000 A 
ATOM      7  C   UNL A   1      33.967  27.697  26.162  1.00  0.00     0.011 A 
ATOM      8  C   UNL A   1      31.763  28.300  26.954  1.00  0.00     0.011 A 
ATOM      9  C   UNL A   1      34.450  28.945  26.549  1.00  0.00     0.016 A 
ATOM     10  C   UNL A   1      32.246  29.548  27.352  1.00  0.00     0.016 A 
BRANCH   6  11
ATOM     11  C   UNL A   1      32.082  26.129  25.791  1.00  0.00     0.075 A 
ATOM     12  N   UNL A   1      30.997  26.011  24.934  1.00  0.00    -0.233 N 
ATOM     13  N   UNL A   1      30.516  24.740  24.900  1.00  0.00    -0.163 NA
ATOM     14  C   UNL A   1      31.424  24.006  25.573  1.00  0.00     0.167 A 
ATOM     15  C   UNL A   1      32.407  24.839  26.159  1.00  0.00     0.064 A 
BRANCH  12  16
ATOM     16  C   UNL A   1      30.380  27.034  24.170  1.00  0.00     0.065 A 
ATOM     17  C   UNL A   1      29.147  29.133  22.822  1.00  0.00     0.082 A 
ATOM     18  C   UNL A   1      30.539  29.109  22.929  1.00  0.00     0.024 A 
ATOM     19  C   UNL A   1      28.370  28.098  23.358  1.00  0.00     0.024 A 
ATOM     20  C   UNL A   1      31.156  28.066  23.619  1.00  0.00     0.030 A 
ATOM     21  C   UNL A   1      28.991  27.026  24.004  1.00  0.00     0.030 A 
BRANCH  17  22
ATOM     22  S   UNL A   1      28.321  30.509  22.077  1.00  0.00     0.238 S 
ATOM     23  O   UNL A   1      27.330  31.000  22.999  1.00  0.00    -0.207 OA
ATOM     24  O   UNL A   1      28.025  30.178  20.701  1.00  0.00    -0.207 OA
BRANCH  22  25
ATOM     25  N   UNL A   1      29.494  31.714  22.020  1.00  0.00    -0.225 NA
ATOM     26  H   UNL A   1      29.096  32.591  22.355  1.00  0.00     0.137 HD
ATOM     27  H   UNL A   1      29.815  31.830  21.059  1.00  0.00     0.137 HD
ENDBRANCH  22  25
ENDBRANCH  17  22
ENDBRANCH  12  16
BRANCH  14  28
ATOM     28  C   UNL A   1      31.351  22.507  25.702  1.00  0.00     0.435 C 
ATOM     29  F   UNL A   1      32.312  21.993  26.511  1.00  0.00    -0.164 F 
ATOM     30  F   UNL A   1      30.150  22.095  26.189  1.00  0.00    -0.164 F 
ATOM     31  F   UNL A   1      31.500  21.896  24.492  1.00  0.00    -0.164 F 
ENDBRANCH  14  28
ENDBRANCH   6  11
ENDBRANCH   3   5
ENDBRANCH   2   3
ENDBRANCH   1   2
BRANCH   1  32
ATOM     32  C   UNL A   1      34.331  33.559  29.486  1.00  0.00     0.275 C 
BRANCH  32  33
ATOM     33  O   UNL A   1      34.268  32.386  30.295  1.00  0.00    -0.458 OA
BRANCH  33  34
ATOM     34  C   UNL A   1      35.261  32.254  31.200  1.00  0.00     0.338 C 
ATOM     35  O   UNL A   1      35.342  32.761  32.307  1.00  0.00    -0.246 OA
BRANCH  34  36
ATOM     36  C   UNL A   1      36.396  31.595  30.552  1.00  0.00     0.060 A 
ATOM     37  C   UNL A   1      36.390  30.199  30.486  1.00  0.00     0.016 A 
ATOM     38  C   UNL A   1      37.554  32.348  30.313  1.00  0.00     0.016 A 
ATOM     39  C   UNL A   1      37.600  29.553  30.349  1.00  0.00     0.010 A 
ATOM     40  C   UNL A   1      38.759  31.701  30.202  1.00  0.00     0.010 A 
ATOM     41  C   UNL A   1      38.774  30.315  30.310  1.00  0.00    -0.014 A 
BRANCH  41  42
ATOM     42  C   UNL A   1      40.045  29.626  30.240  1.00  0.00     0.031 A 
ATOM     43  C   UNL A   1      40.674  29.467  31.572  1.00  0.00     0.074 A 
ATOM     44  C   UNL A   1      40.498  29.073  29.098  1.00  0.00     0.049 A 
ATOM     45  N   UNL A   1      41.815  29.927  31.961  1.00  0.00    -0.248 NA
ATOM     46  C   UNL A   1      39.856  28.888  32.653  1.00  0.00     0.031 C 
ATOM     47  C   UNL A   1      39.823  28.972  27.801  1.00  0.00     0.029 A 
ATOM     48  N   UNL A   1      41.644  28.369  28.894  1.00  0.00    -0.354 N 
ATOM     49  C   UNL A   1      41.947  29.521  33.284  1.00  0.00     0.074 A 
ATOM     50  C   UNL A   1      40.653  29.055  33.708  1.00  0.00     0.031 C 
ATOM     51  C   UNL A   1      40.453  28.048  27.039  1.00  0.00     0.029 A 
ATOM     52  C   UNL A   1      41.637  27.591  27.742  1.00  0.00     0.049 A 
ATOM     53  H   UNL A   1      42.411  28.407  29.510  1.00  0.00     0.167 HD
ATOM     54  C   UNL A   1      43.173  29.351  33.842  1.00  0.00     0.037 A 
ATOM     55  C   UNL A   1      42.498  26.571  27.482  1.00  0.00     0.037 A 
ATOM     56  C   UNL A   1      44.180  30.089  33.125  1.00  0.00     0.049 A 
ATOM     57  C   UNL A   1      43.691  26.778  28.354  1.00  0.00     0.074 A 
ATOM     58  C   UNL A   1      44.344  31.428  32.824  1.00  0.00     0.029 A 
ATOM     59  N   UNL A   1      44.982  29.409  32.241  1.00  0.00    -0.354 N 
ATOM     60  N   UNL A   1      44.516  27.781  28.209  1.00  0.00    -0.248 NA
ATOM     61  C   UNL A   1      43.654  26.183  29.684  1.00  0.00     0.031 C 
ATOM     62  C   UNL A   1      44.810  31.447  31.476  1.00  0.00     0.029 A 
ATOM     63  C   UNL A   1      44.986  30.125  31.069  1.00  0.00     0.049 A 
ATOM     64  H   UNL A   1      45.464  28.568  32.415  1.00  0.00     0.167 HD
ATOM     65  C   UNL A   1      44.772  28.215  29.502  1.00  0.00     0.074 A 
ATOM     66  C   UNL A   1      44.246  27.165  30.373  1.00  0.00     0.031 C 
ATOM     67  C   UNL A   1      45.103  29.513  29.768  1.00  0.00     0.037 A 
BRANCH  54  68
ATOM     68  C   UNL A   1      43.491  28.221  34.783  1.00  0.00     0.064 A 
ATOM     69  C   UNL A   1      44.050  28.506  36.042  1.00  0.00     0.173 A 
ATOM     70  C   UNL A   1      43.536  26.865  34.386  1.00  0.00     0.173 A 
ATOM     71  F   UNL A   1      44.096  29.766  36.497  1.00  0.00    -0.203 F 
ATOM     72  C   UNL A   1      44.659  27.513  36.815  1.00  0.00     0.198 A 
ATOM     73  C   UNL A   1      44.091  25.871  35.185  1.00  0.00     0.198 A 
ATOM     74  F   UNL A   1      43.156  26.464  33.167  1.00  0.00    -0.203 F 
ATOM     75  F   UNL A   1      45.287  27.850  37.950  1.00  0.00    -0.200 F 
ATOM     76  C   UNL A   1      44.679  26.198  36.386  1.00  0.00     0.200 A 
ATOM     77  F   UNL A   1      44.123  24.607  34.737  1.00  0.00    -0.200 F 
ATOM     78  F   UNL A   1      45.312  25.258  37.100  1.00  0.00    -0.200 F 
ENDBRANCH  54  68
BRANCH  55  79
ATOM     79  C   UNL A   1      42.178  25.262  26.852  1.00  0.00     0.064 A 
ATOM     80  C   UNL A   1      42.952  24.747  25.798  1.00  0.00     0.173 A 
ATOM     81  C   UNL A   1      41.265  24.365  27.444  1.00  0.00     0.173 A 
ATOM     82  F   UNL A   1      43.886  25.511  25.213  1.00  0.00    -0.203 F 
ATOM     83  C   UNL A   1      42.826  23.418  25.372  1.00  0.00     0.198 A 
ATOM     84  C   UNL A   1      41.135  23.044  27.014  1.00  0.00     0.198 A 
ATOM     85  F   UNL A   1      40.543  24.722  28.515  1.00  0.00    -0.203 F 
ATOM     86  F   UNL A   1      43.619  22.948  24.399  1.00  0.00    -0.200 F 
ATOM     87  C   UNL A   1      41.922  22.566  25.985  1.00  0.00     0.200 A 
ATOM     88  F   UNL A   1      40.283  22.222  27.644  1.00  0.00    -0.200 F 
ATOM     89  F   UNL A   1      41.838  21.281  25.614  1.00  0.00    -0.200 F 
ENDBRANCH  55  79
BRANCH  67  90
ATOM     90  C   UNL A   1      45.388  30.431  28.612  1.00  0.00     0.064 A 
ATOM     91  C   UNL A   1      44.398  31.131  27.899  1.00  0.00     0.173 A 
ATOM     92  C   UNL A   1      46.725  30.748  28.333  1.00  0.00     0.173 A 
ATOM     93  F   UNL A   1      43.100  30.974  28.183  1.00  0.00    -0.203 F 
ATOM     94  C   UNL A   1      44.735  32.071  26.924  1.00  0.00     0.198 A 
ATOM     95  C   UNL A   1      47.058  31.713  27.387  1.00  0.00     0.198 A 
ATOM     96  F   UNL A   1      47.712  30.158  29.024  1.00  0.00    -0.203 F 
ATOM     97  F   UNL A   1      43.771  32.724  26.257  1.00  0.00    -0.200 F 
ATOM     98  C   UNL A   1      46.065  32.366  26.675  1.00  0.00     0.200 A 
ATOM     99  F   UNL A   1      48.344  32.034  27.190  1.00  0.00    -0.200 F 
ATOM    100  F   UNL A   1      46.389  33.301  25.771  1.00  0.00    -0.200 F 
ENDBRANCH  67  90
ENDBRANCH  41  42
ENDBRANCH  34  36
ENDBRANCH  33  34
ENDBRANCH  32  33
ENDBRANCH   1  32
TORSDOF 16
ENDMDL
MODEL 3
REMARK VINA RESULT:     -12.9      4.580      9.187
REMARK SMILES NS(=O)(=O)c1ccc(-n2nc(C(F)(F)F)cc2-c2ccc(C(=O)OCCOC(=O)c3ccc(-c4c5nc(c(-c6c(F)c(F)c(F)c(F)c6F)c6ccc([nH]6)c(-c6c(F)c(F)c(F)c(F)c6F)c6nc(c(-c7c(F)c(F)c(F)c(F)c7F)c7ccc4[nH]7)C=C6)C=C5)cc3)cc2)cc1
REMARK SMILES IDX 25 1 24 2 22 3 23 4 21 5 18 6 19 7 94 8 20 9 93 10 17 11
REMARK SMILES IDX 9 12 10 13 11 14 16 15 8 16 5 17 6 18 96 19 7 20 95 21 2 22
REMARK SMILES IDX 3 23 4 24 1 25 12 28 13 29 14 30 15 31 26 32 27 33 28 34
REMARK SMILES IDX 29 35 30 36 31 37 92 38 32 39 91 40 33 41 34 42 35 43 85 44
REMARK SMILES IDX 36 45 90 46 84 47 86 48 37 49 89 50 83 51 82 52 38 54 70 55
REMARK SMILES IDX 50 56 69 57 51 58 54 59 68 60 87 61 52 62 53 63 67 65 88 66
REMARK SMILES IDX 55 67 39 68 40 69 48 70 41 71 42 72 46 73 49 74 43 75 44 76
REMARK SMILES IDX 47 77 45 78 71 79 72 80 80 81 73 82 74 83 78 84 81 85 75 86
REMARK SMILES IDX 76 87 79 88 77 89 56 90 57 91 65 92 58 93 59 94 63 95 66 96
REMARK SMILES IDX 60 97 61 98 64 99 62 100
REMARK H PARENT 1 26 1 27 86 53 54 64
REMARK Flexibility Score: inf
ROOT
ATOM      1  C   UNL A   1      40.755  20.480  26.451  1.00  0.00     0.275 C 
ENDROOT
BRANCH   1   2
ATOM      2  O   UNL A   1      39.737  21.203  25.740  1.00  0.00    -0.458 OA
BRANCH   2   3
ATOM      3  C   UNL A   1      39.162  22.225  26.424  1.00  0.00     0.338 C 
ATOM      4  O   UNL A   1      39.575  22.725  27.459  1.00  0.00    -0.246 OA
BRANCH   3   5
ATOM      5  C   UNL A   1      37.988  22.753  25.687  1.00  0.00     0.060 A 
ATOM      6  C   UNL A   1      35.668  23.721  24.447  1.00  0.00     0.000 A 
ATOM      7  C   UNL A   1      36.108  24.275  25.658  1.00  0.00     0.011 A 
ATOM      8  C   UNL A   1      36.425  22.712  23.839  1.00  0.00     0.011 A 
ATOM      9  C   UNL A   1      37.261  23.795  26.275  1.00  0.00     0.016 A 
ATOM     10  C   UNL A   1      37.587  22.236  24.451  1.00  0.00     0.016 A 
BRANCH   6  11
ATOM     11  C   UNL A   1      34.379  24.119  23.887  1.00  0.00     0.075 A 
ATOM     12  N   UNL A   1      33.358  23.263  23.497  1.00  0.00    -0.233 N 
ATOM     13  N   UNL A   1      32.462  23.883  22.684  1.00  0.00    -0.163 NA
ATOM     14  C   UNL A   1      32.799  25.188  22.726  1.00  0.00     0.167 A 
ATOM     15  C   UNL A   1      33.999  25.372  23.451  1.00  0.00     0.064 A 
BRANCH  12  16
ATOM     16  C   UNL A   1      33.199  21.894  23.832  1.00  0.00     0.065 A 
ATOM     17  C   UNL A   1      33.029  19.173  24.387  1.00  0.00     0.082 A 
ATOM     18  C   UNL A   1      33.721  20.011  25.264  1.00  0.00     0.024 A 
ATOM     19  C   UNL A   1      32.396  19.691  23.251  1.00  0.00     0.024 A 
ATOM     20  C   UNL A   1      33.820  21.373  24.977  1.00  0.00     0.030 A 
ATOM     21  C   UNL A   1      32.451  21.063  22.990  1.00  0.00     0.030 A 
BRANCH  17  22
ATOM     22  S   UNL A   1      33.001  17.423  24.644  1.00  0.00     0.238 S 
ATOM     23  O   UNL A   1      31.786  17.083  25.339  1.00  0.00    -0.207 OA
ATOM     24  O   UNL A   1      34.310  17.001  25.091  1.00  0.00    -0.207 OA
BRANCH  22  25
ATOM     25  N   UNL A   1      32.811  16.780  23.101  1.00  0.00    -0.225 NA
ATOM     26  H   UNL A   1      31.932  16.264  23.054  1.00  0.00     0.137 HD
ATOM     27  H   UNL A   1      33.587  16.151  22.897  1.00  0.00     0.137 HD
ENDBRANCH  22  25
ENDBRANCH  17  22
ENDBRANCH  12  16
BRANCH  14  28
ATOM     28  C   UNL A   1      32.006  26.273  22.045  1.00  0.00     0.435 C 
ATOM     29  F   UNL A   1      30.885  26.623  22.726  1.00  0.00    -0.164 F 
ATOM     30  F   UNL A   1      32.740  27.403  21.867  1.00  0.00    -0.164 F 
ATOM     31  F   UNL A   1      31.597  25.885  20.804  1.00  0.00    -0.164 F 
ENDBRANCH  14  28
ENDBRANCH   6  11
ENDBRANCH   3   5
ENDBRANCH   2   3
ENDBRANCH   1   2
BRANCH   1  32
ATOM     32  C   UNL A   1      42.145  20.940  26.038  1.00  0.00     0.275 C 
BRANCH  32  33
ATOM     33  O   UNL A   1      42.086  22.084  25.189  1.00  0.00    -0.458 OA
BRANCH  33  34
ATOM     34  C   UNL A   1      42.989  23.051  25.458  1.00  0.00     0.338 C 
ATOM     35  O   UNL A   1      44.177  23.069  25.177  1.00  0.00    -0.246 OA
BRANCH  34  36
ATOM     36  C   UNL A   1      42.385  24.005  26.388  1.00  0.00     0.060 A 
ATOM     37  C   UNL A   1      41.582  25.018  25.857  1.00  0.00     0.016 A 
ATOM     38  C   UNL A   1      42.876  24.055  27.701  1.00  0.00     0.016 A 
ATOM     39  C   UNL A   1      41.417  26.168  26.598  1.00  0.00     0.010 A 
ATOM     40  C   UNL A   1      42.730  25.210  28.424  1.00  0.00     0.010 A 
ATOM     41  C   UNL A   1      42.078  26.283  27.827  1.00  0.00    -0.014 A 
BRANCH  41  42
ATOM     42  C   UNL A   1      41.959  27.523  28.564  1.00  0.00     0.031 A 
ATOM     43  C   UNL A   1      43.051  28.473  28.249  1.00  0.00     0.074 A 
ATOM     44  C   UNL A   1      40.882  27.803  29.325  1.00  0.00     0.049 A 
ATOM     45  N   UNL A   1      43.922  28.965  29.062  1.00  0.00    -0.248 NA
ATOM     46  C   UNL A   1      43.318  28.766  26.829  1.00  0.00     0.031 C 
ATOM     47  C   UNL A   1      39.652  27.024  29.489  1.00  0.00     0.029 A 
ATOM     48  N   UNL A   1      40.619  28.932  30.035  1.00  0.00    -0.354 N 
ATOM     49  C   UNL A   1      44.730  29.789  28.287  1.00  0.00     0.074 A 
ATOM     50  C   UNL A   1      44.435  29.488  26.912  1.00  0.00     0.031 C 
ATOM     51  C   UNL A   1      38.695  27.809  30.037  1.00  0.00     0.029 A 
ATOM     52  C   UNL A   1      39.280  29.095  30.373  1.00  0.00     0.049 A 
ATOM     53  H   UNL A   1      41.316  29.579  30.289  1.00  0.00     0.167 HD
ATOM     54  C   UNL A   1      45.383  30.844  28.840  1.00  0.00     0.037 A 
ATOM     55  C   UNL A   1      38.712  30.259  30.784  1.00  0.00     0.037 A 
ATOM     56  C   UNL A   1      45.538  30.676  30.261  1.00  0.00     0.049 A 
ATOM     57  C   UNL A   1      39.818  31.130  31.279  1.00  0.00     0.074 A 
ATOM     58  C   UNL A   1      46.140  29.709  31.045  1.00  0.00     0.029 A 
ATOM     59  N   UNL A   1      44.678  31.347  31.096  1.00  0.00    -0.354 N 
ATOM     60  N   UNL A   1      40.517  30.857  32.349  1.00  0.00    -0.248 NA
ATOM     61  C   UNL A   1      40.475  31.991  30.303  1.00  0.00     0.031 C 
ATOM     62  C   UNL A   1      45.245  29.515  32.139  1.00  0.00     0.029 A 
ATOM     63  C   UNL A   1      44.204  30.433  32.005  1.00  0.00     0.049 A 
ATOM     64  H   UNL A   1      44.446  32.303  31.051  1.00  0.00     0.167 HD
ATOM     65  C   UNL A   1      41.828  31.142  31.994  1.00  0.00     0.074 A 
ATOM     66  C   UNL A   1      41.735  31.878  30.734  1.00  0.00     0.031 C 
ATOM     67  C   UNL A   1      42.882  30.499  32.578  1.00  0.00     0.037 A 
BRANCH  54  68
ATOM     68  C   UNL A   1      45.524  32.171  28.145  1.00  0.00     0.064 A 
ATOM     69  C   UNL A   1      44.373  32.929  27.863  1.00  0.00     0.173 A 
ATOM     70  C   UNL A   1      46.707  32.588  27.494  1.00  0.00     0.173 A 
ATOM     71  F   UNL A   1      43.189  32.595  28.396  1.00  0.00    -0.203 F 
ATOM     72  C   UNL A   1      44.399  33.988  26.950  1.00  0.00     0.198 A 
ATOM     73  C   UNL A   1      46.740  33.679  26.632  1.00  0.00     0.198 A 
ATOM     74  F   UNL A   1      47.848  31.893  27.568  1.00  0.00    -0.203 F 
ATOM     75  F   UNL A   1      43.257  34.605  26.619  1.00  0.00    -0.200 F 
ATOM     76  C   UNL A   1      45.581  34.362  26.337  1.00  0.00     0.200 A 
ATOM     77  F   UNL A   1      47.892  34.006  26.027  1.00  0.00    -0.200 F 
ATOM     78  F   UNL A   1      45.595  35.339  25.421  1.00  0.00    -0.200 F 
ENDBRANCH  54  68
BRANCH  55  79
ATOM     79  C   UNL A   1      37.376  30.792  30.404  1.00  0.00     0.064 A 
ATOM     80  C   UNL A   1      36.459  31.231  31.374  1.00  0.00     0.173 A 
ATOM     81  C   UNL A   1      37.072  31.127  29.068  1.00  0.00     0.173 A 
ATOM     82  F   UNL A   1      36.696  31.008  32.675  1.00  0.00    -0.203 F 
ATOM     83  C   UNL A   1      35.317  31.967  31.029  1.00  0.00     0.198 A 
ATOM     84  C   UNL A   1      35.929  31.853  28.725  1.00  0.00     0.198 A 
ATOM     85  F   UNL A   1      37.921  30.838  28.073  1.00  0.00    -0.203 F 
ATOM     86  F   UNL A   1      34.493  32.414  31.987  1.00  0.00    -0.200 F 
ATOM     87  C   UNL A   1      35.057  32.282  29.705  1.00  0.00     0.200 A 
ATOM     88  F   UNL A   1      35.714  32.183  27.443  1.00  0.00    -0.200 F 
ATOM     89  F   UNL A   1      33.993  33.030  29.379  1.00  0.00    -0.200 F 
ENDBRANCH  55  79
BRANCH  67  90
ATOM     90  C   UNL A   1      42.615  29.615  33.764  1.00  0.00     0.064 A 
ATOM     91  C   UNL A   1      42.179  28.281  33.671  1.00  0.00     0.173 A 
ATOM     92  C   UNL A   1      42.983  30.082  35.033  1.00  0.00     0.173 A 
ATOM     93  F   UNL A   1      41.916  27.721  32.484  1.00  0.00    -0.203 F 
ATOM     94  C   UNL A   1      42.077  27.471  34.802  1.00  0.00     0.198 A 
ATOM     95  C   UNL A   1      42.917  29.260  36.155  1.00  0.00     0.198 A 
ATOM     96  F   UNL A   1      43.465  31.326  35.176  1.00  0.00    -0.203 F 
ATOM     97  F   UNL A   1      41.656  26.202  34.685  1.00  0.00    -0.200 F 
ATOM     98  C   UNL A   1      42.454  27.959  36.042  1.00  0.00     0.200 A 
ATOM     99  F   UNL A   1      43.335  29.720  37.342  1.00  0.00    -0.200 F 
ATOM    100  F   UNL A   1      42.400  27.168  37.122  1.00  0.00    -0.200 F 
ENDBRANCH  67  90
ENDBRANCH  41  42
ENDBRANCH  34  36
ENDBRANCH  33  34
ENDBRANCH  32  33
ENDBRANCH   1  32
TORSDOF 16
ENDMDL
