MODEL 1
REMARK VINA RESULT:     -12.7      0.000      0.000
REMARK SMILES O=C(C[C@@H]1C[N@@H+]([C@H]2CCO[C@]3(CCOC3)C2)CCO1)OCCOC(=O)c1ccc(-c2c3nc(c(-c4c(F)c(F)c(F)c(F)c4F)c4ccc([nH]4)c(-c4c(F)c(F)c(F)c(F)c4F)c4nc(c(-c5c(F)c(F)c(F)c(F)c5F)c5ccc2[nH]5)C=C4)C=C3)cc1
REMARK SMILES IDX 21 1 20 2 2 3 1 4 3 5 4 6 5 7 19 8 6 9 18 10 17 11 7 13 8 14
REMARK SMILES IDX 16 15 9 16 11 17 10 18 12 19 15 20 13 21 14 22 22 23 23 24
REMARK SMILES IDX 24 25 25 26 26 27 27 28 88 29 28 30 87 31 29 32 30 33 31 34
REMARK SMILES IDX 81 35 32 36 86 37 80 38 82 39 33 40 85 41 79 42 78 43 34 45
REMARK SMILES IDX 66 46 46 47 65 48 47 49 50 50 64 51 83 52 48 53 49 54 63 56
REMARK SMILES IDX 84 57 51 58 35 59 36 60 44 61 37 62 38 63 42 64 45 65 39 66
REMARK SMILES IDX 40 67 43 68 41 69 67 70 68 71 76 72 69 73 70 74 74 75 77 76
REMARK SMILES IDX 71 77 72 78 75 79 73 80 52 81 53 82 61 83 54 84 55 85 59 86
REMARK SMILES IDX 62 87 56 88 57 89 60 90 58 91
REMARK H PARENT 6 12 82 44 50 55
REMARK Flexibility Score: inf
ROOT
ATOM      1  C   UNL A   1      31.690  31.418  26.781  1.00  0.00     0.274 C 
ENDROOT
BRANCH   1   2
ATOM      2  O   UNL A   1      32.884  30.671  27.101  1.00  0.00    -0.462 OA
BRANCH   2   3
ATOM      3  C   UNL A   1      33.000  29.329  26.989  1.00  0.00     0.308 C 
ATOM      4  O   UNL A   1      34.060  28.768  27.261  1.00  0.00    -0.252 OA
BRANCH   3   5
ATOM      5  C   UNL A   1      31.801  28.521  26.567  1.00  0.00     0.160 C 
BRANCH   5   6
ATOM      6  C   UNL A   1      31.624  28.622  25.075  1.00  0.00     0.184 C 
ATOM      7  C   UNL A   1      30.837  27.418  24.535  1.00  0.00     0.295 C 
ATOM      8  O   UNL A   1      32.903  28.674  24.421  1.00  0.00    -0.366 OA
ATOM      9  N   UNL A   1      30.532  27.560  23.103  1.00  0.00    -0.328 N 
ATOM     10  C   UNL A   1      32.693  28.953  23.026  1.00  0.00     0.222 C 
ATOM     11  C   UNL A   1      31.755  27.922  22.363  1.00  0.00     0.291 C 
ATOM     12  H   UNL A   1      30.277  26.667  22.681  1.00  0.00     0.348 HD
BRANCH   9  13
ATOM     13  C   UNL A   1      29.273  28.291  22.858  1.00  0.00     0.189 C 
ATOM     14  C   UNL A   1      27.993  27.736  23.502  1.00  0.00     0.093 C 
ATOM     15  C   UNL A   1      29.387  29.800  23.126  1.00  0.00     0.103 C 
ATOM     16  C   UNL A   1      26.770  28.576  23.186  1.00  0.00     0.167 C 
ATOM     17  C   UNL A   1      28.075  30.528  22.773  1.00  0.00     0.099 C 
ATOM     18  O   UNL A   1      26.992  29.943  23.502  1.00  0.00    -0.372 OA
ATOM     19  C   UNL A   1      27.791  30.614  21.279  1.00  0.00     0.066 C 
ATOM     20  C   UNL A   1      28.168  32.008  23.128  1.00  0.00     0.195 C 
ATOM     21  C   UNL A   1      28.471  31.893  20.837  1.00  0.00     0.163 C 
ATOM     22  O   UNL A   1      28.780  32.657  22.008  1.00  0.00    -0.378 OA
ENDBRANCH   9  13
ENDBRANCH   5   6
ENDBRANCH   3   5
ENDBRANCH   2   3
ENDBRANCH   1   2
BRANCH   1  23
ATOM     23  C   UNL A   1      31.777  32.869  27.263  1.00  0.00     0.275 C 
BRANCH  23  24
ATOM     24  O   UNL A   1      33.141  33.331  27.239  1.00  0.00    -0.458 OA
BRANCH  24  25
ATOM     25  C   UNL A   1      33.653  33.718  28.435  1.00  0.00     0.338 C 
ATOM     26  O   UNL A   1      33.090  34.406  29.271  1.00  0.00    -0.246 OA
BRANCH  25  27
ATOM     27  C   UNL A   1      34.932  33.002  28.693  1.00  0.00     0.060 A 
ATOM     28  C   UNL A   1      34.855  31.648  29.048  1.00  0.00     0.016 A 
ATOM     29  C   UNL A   1      36.187  33.601  28.515  1.00  0.00     0.016 A 
ATOM     30  C   UNL A   1      36.019  30.917  29.301  1.00  0.00     0.010 A 
ATOM     31  C   UNL A   1      37.354  32.866  28.760  1.00  0.00     0.010 A 
ATOM     32  C   UNL A   1      37.273  31.537  29.211  1.00  0.00    -0.014 A 
BRANCH  32  33
ATOM     33  C   UNL A   1      38.437  30.891  29.872  1.00  0.00     0.031 A 
ATOM     34  C   UNL A   1      38.680  31.223  31.321  1.00  0.00     0.074 A 
ATOM     35  C   UNL A   1      39.227  29.999  29.250  1.00  0.00     0.049 A 
ATOM     36  N   UNL A   1      39.548  30.718  32.162  1.00  0.00    -0.248 NA
ATOM     37  C   UNL A   1      37.823  32.271  31.901  1.00  0.00     0.031 C 
ATOM     38  C   UNL A   1      39.112  29.581  27.856  1.00  0.00     0.029 A 
ATOM     39  N   UNL A   1      40.292  29.275  29.732  1.00  0.00    -0.354 N 
ATOM     40  C   UNL A   1      39.324  31.372  33.366  1.00  0.00     0.074 A 
ATOM     41  C   UNL A   1      38.285  32.349  33.138  1.00  0.00     0.031 C 
ATOM     42  C   UNL A   1      40.068  28.669  27.594  1.00  0.00     0.029 A 
ATOM     43  C   UNL A   1      40.862  28.440  28.803  1.00  0.00     0.049 A 
ATOM     44  H   UNL A   1      40.617  29.349  30.659  1.00  0.00     0.167 HD
ATOM     45  C   UNL A   1      39.912  31.164  34.567  1.00  0.00     0.037 A 
ATOM     46  C   UNL A   1      41.895  27.582  28.923  1.00  0.00     0.037 A 
ATOM     47  C   UNL A   1      40.954  30.207  34.809  1.00  0.00     0.049 A 
ATOM     48  C   UNL A   1      42.574  27.409  30.262  1.00  0.00     0.074 A 
ATOM     49  C   UNL A   1      41.600  29.915  35.996  1.00  0.00     0.029 A 
ATOM     50  N   UNL A   1      41.512  29.395  33.834  1.00  0.00    -0.354 N 
ATOM     51  N   UNL A   1      42.300  27.969  31.415  1.00  0.00    -0.248 NA
ATOM     52  C   UNL A   1      43.699  26.460  30.315  1.00  0.00     0.031 C 
ATOM     53  C   UNL A   1      42.582  28.953  35.732  1.00  0.00     0.029 A 
ATOM     54  C   UNL A   1      42.511  28.614  34.390  1.00  0.00     0.049 A 
ATOM     55  H   UNL A   1      41.239  29.375  32.889  1.00  0.00     0.167 HD
ATOM     56  C   UNL A   1      43.181  27.409  32.333  1.00  0.00     0.074 A 
ATOM     57  C   UNL A   1      43.999  26.462  31.606  1.00  0.00     0.031 C 
ATOM     58  C   UNL A   1      43.297  27.652  33.663  1.00  0.00     0.037 A 
BRANCH  45  59
ATOM     59  C   UNL A   1      39.435  32.009  35.710  1.00  0.00     0.064 A 
ATOM     60  C   UNL A   1      39.987  33.274  35.964  1.00  0.00     0.173 A 
ATOM     61  C   UNL A   1      38.422  31.547  36.561  1.00  0.00     0.173 A 
ATOM     62  F   UNL A   1      40.976  33.747  35.190  1.00  0.00    -0.203 F 
ATOM     63  C   UNL A   1      39.559  34.035  37.048  1.00  0.00     0.198 A 
ATOM     64  C   UNL A   1      37.978  32.322  37.627  1.00  0.00     0.198 A 
ATOM     65  F   UNL A   1      37.867  30.342  36.361  1.00  0.00    -0.203 F 
ATOM     66  F   UNL A   1      40.136  35.217  37.304  1.00  0.00    -0.200 F 
ATOM     67  C   UNL A   1      38.551  33.561  37.875  1.00  0.00     0.200 A 
ATOM     68  F   UNL A   1      37.001  31.867  38.424  1.00  0.00    -0.200 F 
ATOM     69  F   UNL A   1      38.142  34.294  38.919  1.00  0.00    -0.200 F 
ENDBRANCH  45  59
BRANCH  46  70
ATOM     70  C   UNL A   1      42.349  26.782  27.755  1.00  0.00     0.064 A 
ATOM     71  C   UNL A   1      41.842  25.495  27.521  1.00  0.00     0.173 A 
ATOM     72  C   UNL A   1      43.341  27.260  26.888  1.00  0.00     0.173 A 
ATOM     73  F   UNL A   1      40.914  24.983  28.344  1.00  0.00    -0.203 F 
ATOM     74  C   UNL A   1      42.330  24.706  26.482  1.00  0.00     0.198 A 
ATOM     75  C   UNL A   1      43.811  26.479  25.833  1.00  0.00     0.198 A 
ATOM     76  F   UNL A   1      43.865  28.480  27.074  1.00  0.00    -0.203 F 
ATOM     77  F   UNL A   1      41.870  23.459  26.317  1.00  0.00    -0.200 F 
ATOM     78  C   UNL A   1      43.312  25.199  25.636  1.00  0.00     0.200 A 
ATOM     79  F   UNL A   1      44.759  26.959  25.017  1.00  0.00    -0.200 F 
ATOM     80  F   UNL A   1      43.789  24.436  24.643  1.00  0.00    -0.200 F 
ENDBRANCH  46  70
BRANCH  58  81
ATOM     81  C   UNL A   1      44.296  26.842  34.438  1.00  0.00     0.064 A 
ATOM     82  C   UNL A   1      45.603  27.295  34.664  1.00  0.00     0.173 A 
ATOM     83  C   UNL A   1      43.919  25.616  35.007  1.00  0.00     0.173 A 
ATOM     84  F   UNL A   1      46.016  28.456  34.133  1.00  0.00    -0.203 F 
ATOM     85  C   UNL A   1      46.504  26.538  35.409  1.00  0.00     0.198 A 
ATOM     86  C   UNL A   1      44.813  24.875  35.775  1.00  0.00     0.198 A 
ATOM     87  F   UNL A   1      42.676  25.141  34.831  1.00  0.00    -0.203 F 
ATOM     88  F   UNL A   1      47.763  26.970  35.574  1.00  0.00    -0.200 F 
ATOM     89  C   UNL A   1      46.107  25.333  35.970  1.00  0.00     0.200 A 
ATOM     90  F   UNL A   1      44.422  23.719  36.330  1.00  0.00    -0.200 F 
ATOM     91  F   UNL A   1      46.973  24.611  36.693  1.00  0.00    -0.200 F 
ENDBRANCH  58  81
ENDBRANCH  32  33
ENDBRANCH  25  27
ENDBRANCH  24  25
ENDBRANCH  23  24
ENDBRANCH   1  23
TORSDOF 13
ENDMDL
MODEL 2
REMARK VINA RESULT:     -12.7      2.409      4.202
REMARK SMILES O=C(C[C@@H]1C[N@@H+]([C@H]2CCO[C@]3(CCOC3)C2)CCO1)OCCOC(=O)c1ccc(-c2c3nc(c(-c4c(F)c(F)c(F)c(F)c4F)c4ccc([nH]4)c(-c4c(F)c(F)c(F)c(F)c4F)c4nc(c(-c5c(F)c(F)c(F)c(F)c5F)c5ccc2[nH]5)C=C4)C=C3)cc1
REMARK SMILES IDX 21 1 20 2 2 3 1 4 3 5 4 6 5 7 19 8 6 9 18 10 17 11 7 13 8 14
REMARK SMILES IDX 16 15 9 16 11 17 10 18 12 19 15 20 13 21 14 22 22 23 23 24
REMARK SMILES IDX 24 25 25 26 26 27 27 28 88 29 28 30 87 31 29 32 30 33 31 34
REMARK SMILES IDX 81 35 32 36 86 37 80 38 82 39 33 40 85 41 79 42 78 43 34 45
REMARK SMILES IDX 66 46 46 47 65 48 47 49 50 50 64 51 83 52 48 53 49 54 63 56
REMARK SMILES IDX 84 57 51 58 35 59 36 60 44 61 37 62 38 63 42 64 45 65 39 66
REMARK SMILES IDX 40 67 43 68 41 69 67 70 68 71 76 72 69 73 70 74 74 75 77 76
REMARK SMILES IDX 71 77 72 78 75 79 73 80 52 81 53 82 61 83 54 84 55 85 59 86
REMARK SMILES IDX 62 87 56 88 57 89 60 90 58 91
REMARK H PARENT 6 12 82 44 50 55
REMARK Flexibility Score: inf
ROOT
ATOM      1  C   UNL A   1      31.788  30.068  25.713  1.00  0.00     0.274 C 
ENDROOT
BRANCH   1   2
ATOM      2  O   UNL A   1      33.090  29.700  25.206  1.00  0.00    -0.462 OA
BRANCH   2   3
ATOM      3  C   UNL A   1      33.568  28.437  25.169  1.00  0.00     0.308 C 
ATOM      4  O   UNL A   1      33.929  27.875  26.202  1.00  0.00    -0.252 OA
BRANCH   3   5
ATOM      5  C   UNL A   1      33.615  27.707  23.853  1.00  0.00     0.160 C 
BRANCH   5   6
ATOM      6  C   UNL A   1      32.750  26.475  23.929  1.00  0.00     0.184 C 
ATOM      7  C   UNL A   1      33.131  25.471  22.830  1.00  0.00     0.295 C 
ATOM      8  O   UNL A   1      31.364  26.826  23.782  1.00  0.00    -0.366 OA
ATOM      9  N   UNL A   1      32.397  24.205  22.966  1.00  0.00    -0.328 N 
ATOM     10  C   UNL A   1      30.567  25.658  24.041  1.00  0.00     0.222 C 
ATOM     11  C   UNL A   1      30.956  24.475  23.129  1.00  0.00     0.291 C 
ATOM     12  H   UNL A   1      32.421  23.659  22.104  1.00  0.00     0.348 HD
BRANCH   9  13
ATOM     13  C   UNL A   1      33.077  23.244  23.857  1.00  0.00     0.189 C 
ATOM     14  C   UNL A   1      32.486  21.829  23.958  1.00  0.00     0.093 C 
ATOM     15  C   UNL A   1      34.593  23.167  23.622  1.00  0.00     0.103 C 
ATOM     16  C   UNL A   1      33.275  20.934  24.895  1.00  0.00     0.167 C 
ATOM     17  C   UNL A   1      35.265  22.218  24.632  1.00  0.00     0.099 C 
ATOM     18  O   UNL A   1      34.654  20.927  24.557  1.00  0.00    -0.372 OA
ATOM     19  C   UNL A   1      35.315  22.755  26.057  1.00  0.00     0.066 C 
ATOM     20  C   UNL A   1      36.755  22.079  24.332  1.00  0.00     0.195 C 
ATOM     21  C   UNL A   1      36.610  23.538  26.122  1.00  0.00     0.163 C 
ATOM     22  O   UNL A   1      37.406  23.172  24.989  1.00  0.00    -0.378 OA
ENDBRANCH   9  13
ENDBRANCH   5   6
ENDBRANCH   3   5
ENDBRANCH   2   3
ENDBRANCH   1   2
BRANCH   1  23
ATOM     23  C   UNL A   1      31.831  31.378  26.505  1.00  0.00     0.275 C 
BRANCH  23  24
ATOM     24  O   UNL A   1      32.758  31.277  27.603  1.00  0.00    -0.458 OA
BRANCH  24  25
ATOM     25  C   UNL A   1      33.606  32.326  27.755  1.00  0.00     0.338 C 
ATOM     26  O   UNL A   1      33.294  33.505  27.798  1.00  0.00    -0.246 OA
BRANCH  25  27
ATOM     27  C   UNL A   1      34.969  31.830  28.088  1.00  0.00     0.060 A 
ATOM     28  C   UNL A   1      35.158  30.442  28.142  1.00  0.00     0.016 A 
ATOM     29  C   UNL A   1      36.067  32.685  28.262  1.00  0.00     0.016 A 
ATOM     30  C   UNL A   1      36.414  29.911  28.447  1.00  0.00     0.010 A 
ATOM     31  C   UNL A   1      37.328  32.153  28.559  1.00  0.00     0.010 A 
ATOM     32  C   UNL A   1      37.493  30.765  28.710  1.00  0.00    -0.014 A 
BRANCH  32  33
ATOM     33  C   UNL A   1      38.678  30.219  29.423  1.00  0.00     0.031 A 
ATOM     34  C   UNL A   1      38.892  30.666  30.846  1.00  0.00     0.074 A 
ATOM     35  C   UNL A   1      39.511  29.318  28.873  1.00  0.00     0.049 A 
ATOM     36  N   UNL A   1      39.772  30.260  31.727  1.00  0.00    -0.248 NA
ATOM     37  C   UNL A   1      37.987  31.716  31.343  1.00  0.00     0.031 C 
ATOM     38  C   UNL A   1      39.427  28.796  27.513  1.00  0.00     0.029 A 
ATOM     39  N   UNL A   1      40.601  28.678  29.414  1.00  0.00    -0.354 N 
ATOM     40  C   UNL A   1      39.510  30.990  32.879  1.00  0.00     0.074 A 
ATOM     41  C   UNL A   1      38.432  31.903  32.573  1.00  0.00     0.031 C 
ATOM     42  C   UNL A   1      40.423  27.910  27.325  1.00  0.00     0.029 A 
ATOM     43  C   UNL A   1      41.214  27.802  28.552  1.00  0.00     0.049 A 
ATOM     44  H   UNL A   1      40.913  28.833  30.335  1.00  0.00     0.167 HD
ATOM     45  C   UNL A   1      40.094  30.895  34.096  1.00  0.00     0.037 A 
ATOM     46  C   UNL A   1      42.282  27.001  28.742  1.00  0.00     0.037 A 
ATOM     47  C   UNL A   1      41.173  30.003  34.414  1.00  0.00     0.049 A 
ATOM     48  C   UNL A   1      42.954  26.954  30.095  1.00  0.00     0.074 A 
ATOM     49  C   UNL A   1      41.819  29.826  35.623  1.00  0.00     0.029 A 
ATOM     50  N   UNL A   1      41.774  29.148  33.505  1.00  0.00    -0.354 N 
ATOM     51  N   UNL A   1      42.646  27.585  31.201  1.00  0.00    -0.248 NA
ATOM     52  C   UNL A   1      44.117  26.061  30.224  1.00  0.00     0.031 C 
ATOM     53  C   UNL A   1      42.843  28.891  35.437  1.00  0.00     0.029 A 
ATOM     54  C   UNL A   1      42.800  28.452  34.123  1.00  0.00     0.049 A 
ATOM     55  H   UNL A   1      41.511  29.047  32.562  1.00  0.00     0.167 HD
ATOM     56  C   UNL A   1      43.540  27.131  32.164  1.00  0.00     0.074 A 
ATOM     57  C   UNL A   1      44.404  26.170  31.513  1.00  0.00     0.031 C 
ATOM     58  C   UNL A   1      43.632  27.475  33.473  1.00  0.00     0.037 A 
BRANCH  45  59
ATOM     59  C   UNL A   1      39.571  31.799  35.171  1.00  0.00     0.064 A 
ATOM     60  C   UNL A   1      40.022  33.123  35.297  1.00  0.00     0.173 A 
ATOM     61  C   UNL A   1      38.615  31.338  36.086  1.00  0.00     0.173 A 
ATOM     62  F   UNL A   1      40.954  33.601  34.459  1.00  0.00    -0.203 F 
ATOM     63  C   UNL A   1      39.553  33.943  36.319  1.00  0.00     0.198 A 
ATOM     64  C   UNL A   1      38.129  32.169  37.090  1.00  0.00     0.198 A 
ATOM     65  F   UNL A   1      38.157  30.079  36.008  1.00  0.00    -0.203 F 
ATOM     66  F   UNL A   1      40.035  35.185  36.454  1.00  0.00    -0.200 F 
ATOM     67  C   UNL A   1      38.603  33.467  37.211  1.00  0.00     0.200 A 
ATOM     68  F   UNL A   1      37.207  31.711  37.949  1.00  0.00    -0.200 F 
ATOM     69  F   UNL A   1      38.154  34.256  38.196  1.00  0.00    -0.200 F 
ENDBRANCH  45  59
BRANCH  46  70
ATOM     70  C   UNL A   1      42.779  26.138  27.638  1.00  0.00     0.064 A 
ATOM     71  C   UNL A   1      43.787  26.586  26.771  1.00  0.00     0.173 A 
ATOM     72  C   UNL A   1      42.216  24.880  27.389  1.00  0.00     0.173 A 
ATOM     73  F   UNL A   1      44.334  27.798  26.950  1.00  0.00    -0.203 F 
ATOM     74  C   UNL A   1      44.193  25.819  25.680  1.00  0.00     0.198 A 
ATOM     75  C   UNL A   1      42.639  24.103  26.311  1.00  0.00     0.198 A 
ATOM     76  F   UNL A   1      41.243  24.410  28.183  1.00  0.00    -0.203 F 
ATOM     77  F   UNL A   1      45.115  26.296  24.834  1.00  0.00    -0.200 F 
ATOM     78  C   UNL A   1      43.620  24.577  25.452  1.00  0.00     0.200 A 
ATOM     79  F   UNL A   1      42.086  22.901  26.096  1.00  0.00    -0.200 F 
ATOM     80  F   UNL A   1      44.003  23.844  24.398  1.00  0.00    -0.200 F 
ENDBRANCH  46  70
BRANCH  58  81
ATOM     81  C   UNL A   1      44.658  26.767  34.312  1.00  0.00     0.064 A 
ATOM     82  C   UNL A   1      44.376  25.559  34.966  1.00  0.00     0.173 A 
ATOM     83  C   UNL A   1      45.958  27.283  34.418  1.00  0.00     0.173 A 
ATOM     84  F   UNL A   1      43.145  25.029  34.904  1.00  0.00    -0.203 F 
ATOM     85  C   UNL A   1      45.351  24.908  35.716  1.00  0.00     0.198 A 
ATOM     86  C   UNL A   1      46.939  26.615  35.146  1.00  0.00     0.198 A 
ATOM     87  F   UNL A   1      46.284  28.430  33.803  1.00  0.00    -0.203 F 
ATOM     88  F   UNL A   1      45.047  23.777  36.370  1.00  0.00    -0.200 F 
ATOM     89  C   UNL A   1      46.633  25.432  35.800  1.00  0.00     0.200 A 
ATOM     90  F   UNL A   1      48.182  27.114  35.212  1.00  0.00    -0.200 F 
ATOM     91  F   UNL A   1      47.572  24.798  36.516  1.00  0.00    -0.200 F 
ENDBRANCH  58  81
ENDBRANCH  32  33
ENDBRANCH  25  27
ENDBRANCH  24  25
ENDBRANCH  23  24
ENDBRANCH   1  23
TORSDOF 13
ENDMDL
MODEL 3
REMARK VINA RESULT:     -12.7      1.879      3.222
REMARK SMILES O=C(C[C@@H]1C[N@@H+]([C@H]2CCO[C@]3(CCOC3)C2)CCO1)OCCOC(=O)c1ccc(-c2c3nc(c(-c4c(F)c(F)c(F)c(F)c4F)c4ccc([nH]4)c(-c4c(F)c(F)c(F)c(F)c4F)c4nc(c(-c5c(F)c(F)c(F)c(F)c5F)c5ccc2[nH]5)C=C4)C=C3)cc1
REMARK SMILES IDX 21 1 20 2 2 3 1 4 3 5 4 6 5 7 19 8 6 9 18 10 17 11 7 13 8 14
REMARK SMILES IDX 16 15 9 16 11 17 10 18 12 19 15 20 13 21 14 22 22 23 23 24
REMARK SMILES IDX 24 25 25 26 26 27 27 28 88 29 28 30 87 31 29 32 30 33 31 34
REMARK SMILES IDX 81 35 32 36 86 37 80 38 82 39 33 40 85 41 79 42 78 43 34 45
REMARK SMILES IDX 66 46 46 47 65 48 47 49 50 50 64 51 83 52 48 53 49 54 63 56
REMARK SMILES IDX 84 57 51 58 35 59 36 60 44 61 37 62 38 63 42 64 45 65 39 66
REMARK SMILES IDX 40 67 43 68 41 69 67 70 68 71 76 72 69 73 70 74 74 75 77 76
REMARK SMILES IDX 71 77 72 78 75 79 73 80 52 81 53 82 61 83 54 84 55 85 59 86
REMARK SMILES IDX 62 87 56 88 57 89 60 90 58 91
REMARK H PARENT 6 12 82 44 50 55
REMARK Flexibility Score: inf
ROOT
ATOM      1  C   UNL A   1      32.044  31.068  26.470  1.00  0.00     0.274 C 
ENDROOT
BRANCH   1   2
ATOM      2  O   UNL A   1      31.568  29.992  27.309  1.00  0.00    -0.462 OA
BRANCH   2   3
ATOM      3  C   UNL A   1      31.979  28.709  27.213  1.00  0.00     0.308 C 
ATOM      4  O   UNL A   1      31.402  27.820  27.838  1.00  0.00    -0.252 OA
BRANCH   3   5
ATOM      5  C   UNL A   1      33.126  28.370  26.298  1.00  0.00     0.160 C 
BRANCH   5   6
ATOM      6  C   UNL A   1      32.620  27.554  25.138  1.00  0.00     0.184 C 
ATOM      7  C   UNL A   1      33.789  26.953  24.341  1.00  0.00     0.295 C 
ATOM      8  O   UNL A   1      31.827  28.369  24.259  1.00  0.00    -0.366 OA
ATOM      9  N   UNL A   1      33.323  26.041  23.286  1.00  0.00    -0.328 N 
ATOM     10  C   UNL A   1      31.218  27.520  23.272  1.00  0.00     0.222 C 
ATOM     11  C   UNL A   1      32.263  26.691  22.494  1.00  0.00     0.291 C 
ATOM     12  H   UNL A   1      34.046  25.871  22.587  1.00  0.00     0.348 HD
BRANCH   9  13
ATOM     13  C   UNL A   1      33.146  24.656  23.767  1.00  0.00     0.189 C 
ATOM     14  C   UNL A   1      34.147  23.600  23.272  1.00  0.00     0.093 C 
ATOM     15  C   UNL A   1      32.987  24.559  25.291  1.00  0.00     0.103 C 
ATOM     16  C   UNL A   1      33.868  22.221  23.840  1.00  0.00     0.167 C 
ATOM     17  C   UNL A   1      32.720  23.106  25.731  1.00  0.00     0.099 C 
ATOM     18  O   UNL A   1      33.770  22.261  25.256  1.00  0.00    -0.372 OA
ATOM     19  C   UNL A   1      31.338  22.584  25.356  1.00  0.00     0.066 C 
ATOM     20  C   UNL A   1      32.655  23.007  27.252  1.00  0.00     0.195 C 
ATOM     21  C   UNL A   1      30.458  22.967  26.527  1.00  0.00     0.163 C 
ATOM     22  O   UNL A   1      31.308  23.323  27.623  1.00  0.00    -0.378 OA
ENDBRANCH   9  13
ENDBRANCH   5   6
ENDBRANCH   3   5
ENDBRANCH   2   3
ENDBRANCH   1   2
BRANCH   1  23
ATOM     23  C   UNL A   1      31.779  32.441  27.094  1.00  0.00     0.275 C 
BRANCH  23  24
ATOM     24  O   UNL A   1      32.977  33.242  27.086  1.00  0.00    -0.458 OA
BRANCH  24  25
ATOM     25  C   UNL A   1      33.452  33.602  28.305  1.00  0.00     0.338 C 
ATOM     26  O   UNL A   1      32.849  34.232  29.158  1.00  0.00    -0.246 OA
BRANCH  25  27
ATOM     27  C   UNL A   1      34.756  32.929  28.558  1.00  0.00     0.060 A 
ATOM     28  C   UNL A   1      34.733  31.554  28.831  1.00  0.00     0.016 A 
ATOM     29  C   UNL A   1      35.987  33.593  28.451  1.00  0.00     0.016 A 
ATOM     30  C   UNL A   1      35.922  30.862  29.074  1.00  0.00     0.010 A 
ATOM     31  C   UNL A   1      37.180  32.897  28.686  1.00  0.00     0.010 A 
ATOM     32  C   UNL A   1      37.147  31.542  29.057  1.00  0.00    -0.014 A 
BRANCH  32  33
ATOM     33  C   UNL A   1      38.323  30.910  29.711  1.00  0.00     0.031 A 
ATOM     34  C   UNL A   1      38.588  31.271  31.150  1.00  0.00     0.074 A 
ATOM     35  C   UNL A   1      39.105  30.006  29.095  1.00  0.00     0.049 A 
ATOM     36  N   UNL A   1      39.469  30.783  31.987  1.00  0.00    -0.248 NA
ATOM     37  C   UNL A   1      37.739  32.329  31.723  1.00  0.00     0.031 C 
ATOM     38  C   UNL A   1      38.968  29.561  27.712  1.00  0.00     0.029 A 
ATOM     39  N   UNL A   1      40.178  29.293  29.574  1.00  0.00    -0.354 N 
ATOM     40  C   UNL A   1      39.264  31.460  33.182  1.00  0.00     0.074 A 
ATOM     41  C   UNL A   1      38.219  32.432  32.950  1.00  0.00     0.031 C 
ATOM     42  C   UNL A   1      39.922  28.645  27.453  1.00  0.00     0.029 A 
ATOM     43  C   UNL A   1      40.734  28.440  28.653  1.00  0.00     0.049 A 
ATOM     44  H   UNL A   1      40.517  29.385  30.495  1.00  0.00     0.167 HD
ATOM     45  C   UNL A   1      39.870  31.276  34.377  1.00  0.00     0.037 A 
ATOM     46  C   UNL A   1      41.770  27.586  28.774  1.00  0.00     0.037 A 
ATOM     47  C   UNL A   1      40.917  30.325  34.621  1.00  0.00     0.049 A 
ATOM     48  C   UNL A   1      42.470  27.440  30.106  1.00  0.00     0.074 A 
ATOM     49  C   UNL A   1      41.582  30.057  35.803  1.00  0.00     0.029 A 
ATOM     50  N   UNL A   1      41.461  29.495  33.654  1.00  0.00    -0.354 N 
ATOM     51  N   UNL A   1      42.214  28.022  31.251  1.00  0.00    -0.248 NA
ATOM     52  C   UNL A   1      43.597  26.493  30.160  1.00  0.00     0.031 C 
ATOM     53  C   UNL A   1      42.561  29.091  35.543  1.00  0.00     0.029 A 
ATOM     54  C   UNL A   1      42.469  28.725  34.210  1.00  0.00     0.049 A 
ATOM     55  H   UNL A   1      41.173  29.456  32.714  1.00  0.00     0.167 HD
ATOM     56  C   UNL A   1      43.109  27.481  32.167  1.00  0.00     0.074 A 
ATOM     57  C   UNL A   1      43.917  26.521  31.446  1.00  0.00     0.031 C 
ATOM     58  C   UNL A   1      43.245  27.750  33.489  1.00  0.00     0.037 A 
BRANCH  45  59
ATOM     59  C   UNL A   1      39.410  32.142  35.510  1.00  0.00     0.064 A 
ATOM     60  C   UNL A   1      39.915  33.440  35.690  1.00  0.00     0.173 A 
ATOM     61  C   UNL A   1      38.461  31.670  36.427  1.00  0.00     0.173 A 
ATOM     62  F   UNL A   1      40.842  33.926  34.851  1.00  0.00    -0.203 F 
ATOM     63  C   UNL A   1      39.504  34.223  36.765  1.00  0.00     0.198 A 
ATOM     64  C   UNL A   1      38.034  32.465  37.485  1.00  0.00     0.198 A 
ATOM     65  F   UNL A   1      37.955  30.434  36.299  1.00  0.00    -0.203 F 
ATOM     66  F   UNL A   1      40.037  35.439  36.948  1.00  0.00    -0.200 F 
ATOM     67  C   UNL A   1      38.560  33.737  37.658  1.00  0.00     0.200 A 
ATOM     68  F   UNL A   1      37.118  31.998  38.346  1.00  0.00    -0.200 F 
ATOM     69  F   UNL A   1      38.168  34.491  38.694  1.00  0.00    -0.200 F 
ENDBRANCH  45  59
BRANCH  46  70
ATOM     70  C   UNL A   1      42.206  26.764  27.615  1.00  0.00     0.064 A 
ATOM     71  C   UNL A   1      41.663  25.491  27.388  1.00  0.00     0.173 A 
ATOM     72  C   UNL A   1      43.218  27.205  26.750  1.00  0.00     0.173 A 
ATOM     73  F   UNL A   1      40.716  25.012  28.209  1.00  0.00    -0.203 F 
ATOM     74  C   UNL A   1      42.133  24.679  26.358  1.00  0.00     0.198 A 
ATOM     75  C   UNL A   1      43.670  26.402  25.705  1.00  0.00     0.198 A 
ATOM     76  F   UNL A   1      43.777  28.410  26.930  1.00  0.00    -0.203 F 
ATOM     77  F   UNL A   1      41.637  23.445  26.200  1.00  0.00    -0.200 F 
ATOM     78  C   UNL A   1      43.135  25.136  25.515  1.00  0.00     0.200 A 
ATOM     79  F   UNL A   1      44.637  26.848  24.890  1.00  0.00    -0.200 F 
ATOM     80  F   UNL A   1      43.594  24.352  24.530  1.00  0.00    -0.200 F 
ENDBRANCH  46  70
BRANCH  58  81
ATOM     81  C   UNL A   1      44.258  26.957  34.265  1.00  0.00     0.064 A 
ATOM     82  C   UNL A   1      45.571  27.410  34.451  1.00  0.00     0.173 A 
ATOM     83  C   UNL A   1      43.888  25.748  34.874  1.00  0.00     0.173 A 
ATOM     84  F   UNL A   1      45.977  28.554  33.881  1.00  0.00    -0.203 F 
ATOM     85  C   UNL A   1      46.484  26.669  35.196  1.00  0.00     0.198 A 
ATOM     86  C   UNL A   1      44.795  25.023  35.642  1.00  0.00     0.198 A 
ATOM     87  F   UNL A   1      42.640  25.274  34.736  1.00  0.00    -0.203 F 
ATOM     88  F   UNL A   1      47.748  27.099  35.324  1.00  0.00    -0.200 F 
ATOM     89  C   UNL A   1      46.094  25.481  35.797  1.00  0.00     0.200 A 
ATOM     90  F   UNL A   1      44.411  23.884  36.236  1.00  0.00    -0.200 F 
ATOM     91  F   UNL A   1      46.973  24.774  36.521  1.00  0.00    -0.200 F 
ENDBRANCH  58  81
ENDBRANCH  32  33
ENDBRANCH  25  27
ENDBRANCH  24  25
ENDBRANCH  23  24
ENDBRANCH   1  23
TORSDOF 13
ENDMDL
