MODEL 1
REMARK VINA RESULT:     -11.8      0.000      0.000
REMARK SMILES C[C@@H]1CN(C(=O)NC(=O)CCCCC(=O)OCCOC(=O)c2ccc(-c3c4nc(c(-c5c(F)c(F)c(F)c(F)c5F)c5ccc([nH]5)c(-c5c(F)c(F)c(F)c(F)c5F)c5nc(c(-c6c(F)c(F)c(F)c(F)c6F)c6ccc3[nH]6)C=C5)C=C4)cc2)CCO1
REMARK SMILES IDX 16 1 14 2 15 3 13 4 12 5 11 6 10 7 8 8 5 9 6 10 7 11 9 13
REMARK SMILES IDX 4 14 1 15 2 16 3 17 87 18 86 19 85 20 17 21 18 22 19 23
REMARK SMILES IDX 20 24 21 25 22 26 23 27 84 28 24 29 83 30 25 31 26 32 27 33
REMARK SMILES IDX 77 34 28 35 82 36 76 37 78 38 29 39 81 40 75 41 74 42 30 44
REMARK SMILES IDX 62 45 42 46 61 47 43 48 46 49 60 50 79 51 44 52 45 53 59 55
REMARK SMILES IDX 80 56 47 57 31 58 32 59 40 60 33 61 34 62 38 63 41 64 35 65
REMARK SMILES IDX 36 66 39 67 37 68 63 69 64 70 72 71 65 72 66 73 70 74 73 75
REMARK SMILES IDX 67 76 68 77 71 78 69 79 48 80 49 81 57 82 50 83 51 84 55 85
REMARK SMILES IDX 58 86 52 87 53 88 56 89 54 90
REMARK H PARENT 7 12 78 43 46 54
REMARK Flexibility Score: inf
ROOT
ATOM      1  O   UNL A   1      31.429  28.590  23.703  1.00  0.00    -0.462 OA
ENDROOT
BRANCH   1   2
ATOM      2  C   UNL A   1      30.436  27.693  23.503  1.00  0.00     0.305 C 
ATOM      3  O   UNL A   1      29.365  27.962  22.970  1.00  0.00    -0.252 OA
BRANCH   2   4
ATOM      4  C   UNL A   1      30.795  26.275  23.867  1.00  0.00     0.123 C 
BRANCH   4   5
ATOM      5  C   UNL A   1      30.260  25.689  25.163  1.00  0.00     0.012 C 
BRANCH   5   6
ATOM      6  C   UNL A   1      31.172  25.664  26.387  1.00  0.00     0.010 C 
BRANCH   6   7
ATOM      7  C   UNL A   1      31.797  24.349  26.847  1.00  0.00     0.100 C 
BRANCH   7   8
ATOM      8  C   UNL A   1      30.948  23.105  26.770  1.00  0.00     0.227 C 
ATOM      9  C   UNL A   1      31.975  21.428  25.010  1.00  0.00     0.324 C 
ATOM     10  O   UNL A   1      31.928  20.196  25.082  1.00  0.00    -0.248 OA
ATOM     11  N   UNL A   1      31.077  22.104  25.815  1.00  0.00    -0.278 N 
ATOM     12  H   UNL A   1      30.182  21.733  25.645  1.00  0.00     0.174 HD
ATOM     13  O   UNL A   1      30.061  22.943  27.619  1.00  0.00    -0.275 OA
BRANCH   9  14
ATOM     14  N   UNL A   1      32.864  22.055  24.181  1.00  0.00    -0.320 N 
ATOM     15  C   UNL A   1      36.544  22.763  23.471  1.00  0.00     0.040 C 
ATOM     16  C   UNL A   1      35.070  23.154  23.543  1.00  0.00     0.134 C 
ATOM     17  C   UNL A   1      34.305  22.086  24.336  1.00  0.00     0.153 C 
ATOM     18  O   UNL A   1      34.588  23.259  22.201  1.00  0.00    -0.375 OA
ATOM     19  C   UNL A   1      33.198  23.586  22.201  1.00  0.00     0.182 C 
ATOM     20  C   UNL A   1      32.356  22.503  22.875  1.00  0.00     0.150 C 
ENDBRANCH   9  14
ENDBRANCH   7   8
ENDBRANCH   6   7
ENDBRANCH   5   6
ENDBRANCH   4   5
ENDBRANCH   2   4
ENDBRANCH   1   2
BRANCH   1  21
ATOM     21  C   UNL A   1      31.211  29.474  24.822  1.00  0.00     0.274 C 
BRANCH  21  22
ATOM     22  C   UNL A   1      32.530  29.998  25.393  1.00  0.00     0.275 C 
BRANCH  22  23
ATOM     23  O   UNL A   1      32.441  30.263  26.808  1.00  0.00    -0.458 OA
BRANCH  23  24
ATOM     24  C   UNL A   1      33.066  31.386  27.221  1.00  0.00     0.338 C 
ATOM     25  O   UNL A   1      32.617  32.525  27.241  1.00  0.00    -0.246 OA
BRANCH  24  26
ATOM     26  C   UNL A   1      34.429  31.082  27.675  1.00  0.00     0.060 A 
ATOM     27  C   UNL A   1      34.783  29.772  28.011  1.00  0.00     0.016 A 
ATOM     28  C   UNL A   1      35.306  32.138  27.923  1.00  0.00     0.016 A 
ATOM     29  C   UNL A   1      35.998  29.520  28.647  1.00  0.00     0.010 A 
ATOM     30  C   UNL A   1      36.542  31.878  28.517  1.00  0.00     0.010 A 
ATOM     31  C   UNL A   1      36.885  30.572  28.913  1.00  0.00    -0.014 A 
BRANCH  31  32
ATOM     32  C   UNL A   1      38.144  30.345  29.663  1.00  0.00     0.031 A 
ATOM     33  C   UNL A   1      39.193  29.434  29.087  1.00  0.00     0.074 A 
ATOM     34  C   UNL A   1      38.334  30.909  30.869  1.00  0.00     0.049 A 
ATOM     35  N   UNL A   1      40.236  28.896  29.666  1.00  0.00    -0.248 NA
ATOM     36  C   UNL A   1      39.037  29.072  27.668  1.00  0.00     0.031 C 
ATOM     37  C   UNL A   1      37.422  31.851  31.517  1.00  0.00     0.029 A 
ATOM     38  N   UNL A   1      39.352  30.750  31.778  1.00  0.00    -0.354 N 
ATOM     39  C   UNL A   1      40.827  28.090  28.702  1.00  0.00     0.074 A 
ATOM     40  C   UNL A   1      40.038  28.219  27.496  1.00  0.00     0.031 C 
ATOM     41  C   UNL A   1      37.914  32.177  32.723  1.00  0.00     0.029 A 
ATOM     42  C   UNL A   1      39.138  31.415  32.960  1.00  0.00     0.049 A 
ATOM     43  H   UNL A   1      40.157  30.211  31.599  1.00  0.00     0.167 HD
ATOM     44  C   UNL A   1      41.923  27.304  28.823  1.00  0.00     0.037 A 
ATOM     45  C   UNL A   1      39.820  31.371  34.119  1.00  0.00     0.037 A 
ATOM     46  C   UNL A   1      42.734  27.221  30.009  1.00  0.00     0.049 A 
ATOM     47  C   UNL A   1      41.025  30.477  34.233  1.00  0.00     0.074 A 
ATOM     48  C   UNL A   1      43.878  26.473  30.222  1.00  0.00     0.029 A 
ATOM     49  N   UNL A   1      42.490  27.924  31.179  1.00  0.00    -0.354 N 
ATOM     50  N   UNL A   1      41.556  29.684  33.334  1.00  0.00    -0.248 NA
ATOM     51  C   UNL A   1      41.716  30.456  35.530  1.00  0.00     0.031 C 
ATOM     52  C   UNL A   1      44.312  26.701  31.533  1.00  0.00     0.029 A 
ATOM     53  C   UNL A   1      43.457  27.619  32.122  1.00  0.00     0.049 A 
ATOM     54  H   UNL A   1      41.741  28.547  31.318  1.00  0.00     0.167 HD
ATOM     55  C   UNL A   1      42.647  29.086  33.948  1.00  0.00     0.074 A 
ATOM     56  C   UNL A   1      42.715  29.618  35.293  1.00  0.00     0.031 C 
ATOM     57  C   UNL A   1      43.513  28.172  33.448  1.00  0.00     0.037 A 
BRANCH  44  58
ATOM     58  C   UNL A   1      42.297  26.440  27.658  1.00  0.00     0.064 A 
ATOM     59  C   UNL A   1      43.296  26.813  26.748  1.00  0.00     0.173 A 
ATOM     60  C   UNL A   1      41.686  25.187  27.491  1.00  0.00     0.173 A 
ATOM     61  F   UNL A   1      43.899  28.006  26.859  1.00  0.00    -0.203 F 
ATOM     62  C   UNL A   1      43.662  25.965  25.705  1.00  0.00     0.198 A 
ATOM     63  C   UNL A   1      42.070  24.334  26.460  1.00  0.00     0.198 A 
ATOM     64  F   UNL A   1      40.728  24.785  28.338  1.00  0.00    -0.203 F 
ATOM     65  F   UNL A   1      44.602  26.350  24.831  1.00  0.00    -0.200 F 
ATOM     66  C   UNL A   1      43.056  24.725  25.568  1.00  0.00     0.200 A 
ATOM     67  F   UNL A   1      41.490  23.133  26.335  1.00  0.00    -0.200 F 
ATOM     68  F   UNL A   1      43.420  23.905  24.571  1.00  0.00    -0.200 F 
ENDBRANCH  44  58
BRANCH  45  69
ATOM     69  C   UNL A   1      39.349  32.157  35.290  1.00  0.00     0.064 A 
ATOM     70  C   UNL A   1      39.737  33.491  35.467  1.00  0.00     0.173 A 
ATOM     71  C   UNL A   1      38.525  31.580  36.266  1.00  0.00     0.173 A 
ATOM     72  F   UNL A   1      40.549  34.077  34.573  1.00  0.00    -0.203 F 
ATOM     73  C   UNL A   1      39.333  34.215  36.587  1.00  0.00     0.198 A 
ATOM     74  C   UNL A   1      38.098  32.313  37.372  1.00  0.00     0.198 A 
ATOM     75  F   UNL A   1      38.129  30.305  36.146  1.00  0.00    -0.203 F 
ATOM     76  F   UNL A   1      39.759  35.473  36.759  1.00  0.00    -0.200 F 
ATOM     77  C   UNL A   1      38.511  33.626  37.536  1.00  0.00     0.200 A 
ATOM     78  F   UNL A   1      37.295  31.744  38.281  1.00  0.00    -0.200 F 
ATOM     79  F   UNL A   1      38.124  34.321  38.614  1.00  0.00    -0.200 F 
ENDBRANCH  45  69
BRANCH  57  80
ATOM     80  C   UNL A   1      44.624  27.719  34.346  1.00  0.00     0.064 A 
ATOM     81  C   UNL A   1      45.838  28.415  34.414  1.00  0.00     0.173 A 
ATOM     82  C   UNL A   1      44.454  26.601  35.174  1.00  0.00     0.173 A 
ATOM     83  F   UNL A   1      46.052  29.480  33.627  1.00  0.00    -0.203 F 
ATOM     84  C   UNL A   1      46.854  27.994  35.268  1.00  0.00     0.198 A 
ATOM     85  C   UNL A   1      45.462  26.197  36.044  1.00  0.00     0.198 A 
ATOM     86  F   UNL A   1      43.306  25.907  35.148  1.00  0.00    -0.203 F 
ATOM     87  F   UNL A   1      48.023  28.650  35.291  1.00  0.00    -0.200 F 
ATOM     88  C   UNL A   1      46.663  26.889  36.086  1.00  0.00     0.200 A 
ATOM     89  F   UNL A   1      45.274  25.135  36.840  1.00  0.00    -0.200 F 
ATOM     90  F   UNL A   1      47.640  26.489  36.912  1.00  0.00    -0.200 F 
ENDBRANCH  57  80
ENDBRANCH  31  32
ENDBRANCH  24  26
ENDBRANCH  23  24
ENDBRANCH  22  23
ENDBRANCH  21  22
ENDBRANCH   1  21
TORSDOF 16
ENDMDL
MODEL 2
REMARK VINA RESULT:     -11.7      1.005      2.389
REMARK SMILES C[C@@H]1CN(C(=O)NC(=O)CCCCC(=O)OCCOC(=O)c2ccc(-c3c4nc(c(-c5c(F)c(F)c(F)c(F)c5F)c5ccc([nH]5)c(-c5c(F)c(F)c(F)c(F)c5F)c5nc(c(-c6c(F)c(F)c(F)c(F)c6F)c6ccc3[nH]6)C=C5)C=C4)cc2)CCO1
REMARK SMILES IDX 16 1 14 2 15 3 13 4 12 5 11 6 10 7 8 8 5 9 6 10 7 11 9 13
REMARK SMILES IDX 4 14 1 15 2 16 3 17 87 18 86 19 85 20 17 21 18 22 19 23
REMARK SMILES IDX 20 24 21 25 22 26 23 27 84 28 24 29 83 30 25 31 26 32 27 33
REMARK SMILES IDX 77 34 28 35 82 36 76 37 78 38 29 39 81 40 75 41 74 42 30 44
REMARK SMILES IDX 62 45 42 46 61 47 43 48 46 49 60 50 79 51 44 52 45 53 59 55
REMARK SMILES IDX 80 56 47 57 31 58 32 59 40 60 33 61 34 62 38 63 41 64 35 65
REMARK SMILES IDX 36 66 39 67 37 68 63 69 64 70 72 71 65 72 66 73 70 74 73 75
REMARK SMILES IDX 67 76 68 77 71 78 69 79 48 80 49 81 57 82 50 83 51 84 55 85
REMARK SMILES IDX 58 86 52 87 53 88 56 89 54 90
REMARK H PARENT 7 12 78 43 46 54
REMARK Flexibility Score: inf
ROOT
ATOM      1  O   UNL A   1      30.282  29.707  23.799  1.00  0.00    -0.462 OA
ENDROOT
BRANCH   1   2
ATOM      2  C   UNL A   1      29.510  28.684  23.363  1.00  0.00     0.305 C 
ATOM      3  O   UNL A   1      28.333  28.801  23.041  1.00  0.00    -0.252 OA
BRANCH   2   4
ATOM      4  C   UNL A   1      30.250  27.385  23.168  1.00  0.00     0.123 C 
BRANCH   4   5
ATOM      5  C   UNL A   1      29.694  26.119  23.796  1.00  0.00     0.012 C 
BRANCH   5   6
ATOM      6  C   UNL A   1      29.639  26.020  25.319  1.00  0.00     0.010 C 
BRANCH   6   7
ATOM      7  C   UNL A   1      30.929  25.870  26.122  1.00  0.00     0.100 C 
BRANCH   7   8
ATOM      8  C   UNL A   1      31.448  24.474  26.359  1.00  0.00     0.227 C 
ATOM      9  C   UNL A   1      33.395  23.942  24.659  1.00  0.00     0.324 C 
ATOM     10  O   UNL A   1      34.372  23.221  24.890  1.00  0.00    -0.248 OA
ATOM     11  N   UNL A   1      32.330  23.795  25.528  1.00  0.00    -0.278 N 
ATOM     12  H   UNL A   1      32.112  22.836  25.577  1.00  0.00     0.174 HD
ATOM     13  O   UNL A   1      31.073  23.870  27.373  1.00  0.00    -0.275 OA
BRANCH   9  14
ATOM     14  N   UNL A   1      33.394  24.816  23.606  1.00  0.00    -0.320 N 
ATOM     15  C   UNL A   1      34.203  28.362  22.460  1.00  0.00     0.040 C 
ATOM     16  C   UNL A   1      33.346  27.098  22.481  1.00  0.00     0.134 C 
ATOM     17  C   UNL A   1      33.792  26.208  23.649  1.00  0.00     0.153 C 
ATOM     18  O   UNL A   1      33.518  26.442  21.223  1.00  0.00    -0.375 OA
ATOM     19  C   UNL A   1      32.769  25.226  21.195  1.00  0.00     0.182 C 
ATOM     20  C   UNL A   1      33.242  24.239  22.262  1.00  0.00     0.150 C 
ENDBRANCH   9  14
ENDBRANCH   7   8
ENDBRANCH   6   7
ENDBRANCH   5   6
ENDBRANCH   4   5
ENDBRANCH   2   4
ENDBRANCH   1   2
BRANCH   1  21
ATOM     21  C   UNL A   1      31.282  29.322  24.765  1.00  0.00     0.274 C 
BRANCH  21  22
ATOM     22  C   UNL A   1      31.573  30.451  25.757  1.00  0.00     0.275 C 
BRANCH  22  23
ATOM     23  O   UNL A   1      32.762  30.199  26.532  1.00  0.00    -0.458 OA
BRANCH  23  24
ATOM     24  C   UNL A   1      33.288  31.281  27.144  1.00  0.00     0.338 C 
ATOM     25  O   UNL A   1      32.760  32.373  27.310  1.00  0.00    -0.246 OA
BRANCH  24  26
ATOM     26  C   UNL A   1      34.646  30.995  27.623  1.00  0.00     0.060 A 
ATOM     27  C   UNL A   1      35.023  29.685  27.930  1.00  0.00     0.016 A 
ATOM     28  C   UNL A   1      35.491  32.064  27.924  1.00  0.00     0.016 A 
ATOM     29  C   UNL A   1      36.229  29.443  28.589  1.00  0.00     0.010 A 
ATOM     30  C   UNL A   1      36.718  31.816  28.541  1.00  0.00     0.010 A 
ATOM     31  C   UNL A   1      37.083  30.507  28.907  1.00  0.00    -0.014 A 
BRANCH  31  32
ATOM     32  C   UNL A   1      38.329  30.287  29.682  1.00  0.00     0.031 A 
ATOM     33  C   UNL A   1      39.395  29.384  29.126  1.00  0.00     0.074 A 
ATOM     34  C   UNL A   1      38.491  30.852  30.892  1.00  0.00     0.049 A 
ATOM     35  N   UNL A   1      40.429  28.853  29.725  1.00  0.00    -0.248 NA
ATOM     36  C   UNL A   1      39.269  29.022  27.704  1.00  0.00     0.031 C 
ATOM     37  C   UNL A   1      37.560  31.788  31.522  1.00  0.00     0.029 A 
ATOM     38  N   UNL A   1      39.492  30.699  31.820  1.00  0.00    -0.354 N 
ATOM     39  C   UNL A   1      41.044  28.051  28.772  1.00  0.00     0.074 A 
ATOM     40  C   UNL A   1      40.278  28.176  27.551  1.00  0.00     0.031 C 
ATOM     41  C   UNL A   1      38.027  32.116  32.738  1.00  0.00     0.029 A 
ATOM     42  C   UNL A   1      39.250  31.361  32.998  1.00  0.00     0.049 A 
ATOM     43  H   UNL A   1      40.304  30.165  31.657  1.00  0.00     0.167 HD
ATOM     44  C   UNL A   1      42.143  27.272  28.914  1.00  0.00     0.037 A 
ATOM     45  C   UNL A   1      39.909  31.322  34.170  1.00  0.00     0.037 A 
ATOM     46  C   UNL A   1      42.931  27.193  30.116  1.00  0.00     0.049 A 
ATOM     47  C   UNL A   1      41.118  30.435  34.308  1.00  0.00     0.074 A 
ATOM     48  C   UNL A   1      44.076  26.453  30.352  1.00  0.00     0.029 A 
ATOM     49  N   UNL A   1      42.659  27.893  31.281  1.00  0.00    -0.354 N 
ATOM     50  N   UNL A   1      41.671  29.646  33.419  1.00  0.00    -0.248 NA
ATOM     51  C   UNL A   1      41.783  30.418  35.618  1.00  0.00     0.031 C 
ATOM     52  C   UNL A   1      44.482  26.683  31.671  1.00  0.00     0.029 A 
ATOM     53  C   UNL A   1      43.609  27.594  32.243  1.00  0.00     0.049 A 
ATOM     54  H   UNL A   1      41.904  28.512  31.406  1.00  0.00     0.167 HD
ATOM     55  C   UNL A   1      42.754  29.055  34.054  1.00  0.00     0.074 A 
ATOM     56  C   UNL A   1      42.792  29.586  35.401  1.00  0.00     0.031 C 
ATOM     57  C   UNL A   1      43.635  28.147  33.571  1.00  0.00     0.037 A 
BRANCH  44  58
ATOM     58  C   UNL A   1      42.545  26.411  27.757  1.00  0.00     0.064 A 
ATOM     59  C   UNL A   1      41.938  25.172  27.507  1.00  0.00     0.173 A 
ATOM     60  C   UNL A   1      43.512  26.868  26.847  1.00  0.00     0.173 A 
ATOM     61  F   UNL A   1      41.019  24.688  28.355  1.00  0.00    -0.203 F 
ATOM     62  C   UNL A   1      42.293  24.417  26.392  1.00  0.00     0.198 A 
ATOM     63  C   UNL A   1      43.847  26.119  25.722  1.00  0.00     0.198 A 
ATOM     64  F   UNL A   1      44.117  28.048  27.041  1.00  0.00    -0.203 F 
ATOM     65  F   UNL A   1      41.719  23.224  26.184  1.00  0.00    -0.200 F 
ATOM     66  C   UNL A   1      43.239  24.894  25.497  1.00  0.00     0.200 A 
ATOM     67  F   UNL A   1      44.755  26.587  24.855  1.00  0.00    -0.200 F 
ATOM     68  F   UNL A   1      43.569  24.171  24.417  1.00  0.00    -0.200 F 
ENDBRANCH  44  58
BRANCH  45  69
ATOM     69  C   UNL A   1      39.411  32.103  35.332  1.00  0.00     0.064 A 
ATOM     70  C   UNL A   1      38.583  31.515  36.297  1.00  0.00     0.173 A 
ATOM     71  C   UNL A   1      39.731  33.460  35.485  1.00  0.00     0.173 A 
ATOM     72  F   UNL A   1      38.226  30.228  36.177  1.00  0.00    -0.203 F 
ATOM     73  C   UNL A   1      38.078  32.259  37.361  1.00  0.00     0.198 A 
ATOM     74  C   UNL A   1      39.249  34.196  36.565  1.00  0.00     0.198 A 
ATOM     75  F   UNL A   1      40.517  34.072  34.586  1.00  0.00    -0.203 F 
ATOM     76  F   UNL A   1      37.248  31.686  38.242  1.00  0.00    -0.200 F 
ATOM     77  C   UNL A   1      38.416  33.597  37.497  1.00  0.00     0.200 A 
ATOM     78  F   UNL A   1      39.586  35.486  36.698  1.00  0.00    -0.200 F 
ATOM     79  F   UNL A   1      37.929  34.313  38.520  1.00  0.00    -0.200 F 
ENDBRANCH  45  69
BRANCH  57  80
ATOM     80  C   UNL A   1      44.732  27.700  34.490  1.00  0.00     0.064 A 
ATOM     81  C   UNL A   1      44.591  26.564  35.297  1.00  0.00     0.173 A 
ATOM     82  C   UNL A   1      45.949  28.395  34.530  1.00  0.00     0.173 A 
ATOM     83  F   UNL A   1      43.438  25.879  35.304  1.00  0.00    -0.203 F 
ATOM     84  C   UNL A   1      45.626  26.150  36.131  1.00  0.00     0.198 A 
ATOM     85  C   UNL A   1      46.990  27.964  35.347  1.00  0.00     0.198 A 
ATOM     86  F   UNL A   1      46.132  29.486  33.771  1.00  0.00    -0.203 F 
ATOM     87  F   UNL A   1      45.459  25.082  36.924  1.00  0.00    -0.200 F 
ATOM     88  C   UNL A   1      46.827  26.846  36.150  1.00  0.00     0.200 A 
ATOM     89  F   UNL A   1      48.152  28.633  35.359  1.00  0.00    -0.200 F 
ATOM     90  F   UNL A   1      47.824  26.442  36.949  1.00  0.00    -0.200 F 
ENDBRANCH  57  80
ENDBRANCH  31  32
ENDBRANCH  24  26
ENDBRANCH  23  24
ENDBRANCH  22  23
ENDBRANCH  21  22
ENDBRANCH   1  21
TORSDOF 16
ENDMDL
MODEL 3
REMARK VINA RESULT:     -11.6      1.097      1.877
REMARK SMILES C[C@@H]1CN(C(=O)NC(=O)CCCCC(=O)OCCOC(=O)c2ccc(-c3c4nc(c(-c5c(F)c(F)c(F)c(F)c5F)c5ccc([nH]5)c(-c5c(F)c(F)c(F)c(F)c5F)c5nc(c(-c6c(F)c(F)c(F)c(F)c6F)c6ccc3[nH]6)C=C5)C=C4)cc2)CCO1
REMARK SMILES IDX 16 1 14 2 15 3 13 4 12 5 11 6 10 7 8 8 5 9 6 10 7 11 9 13
REMARK SMILES IDX 4 14 1 15 2 16 3 17 87 18 86 19 85 20 17 21 18 22 19 23
REMARK SMILES IDX 20 24 21 25 22 26 23 27 84 28 24 29 83 30 25 31 26 32 27 33
REMARK SMILES IDX 77 34 28 35 82 36 76 37 78 38 29 39 81 40 75 41 74 42 30 44
REMARK SMILES IDX 62 45 42 46 61 47 43 48 46 49 60 50 79 51 44 52 45 53 59 55
REMARK SMILES IDX 80 56 47 57 31 58 32 59 40 60 33 61 34 62 38 63 41 64 35 65
REMARK SMILES IDX 36 66 39 67 37 68 63 69 64 70 72 71 65 72 66 73 70 74 73 75
REMARK SMILES IDX 67 76 68 77 71 78 69 79 48 80 49 81 57 82 50 83 51 84 55 85
REMARK SMILES IDX 58 86 52 87 53 88 56 89 54 90
REMARK H PARENT 7 12 78 43 46 54
REMARK Flexibility Score: inf
ROOT
ATOM      1  O   UNL A   1      30.272  30.002  23.823  1.00  0.00    -0.462 OA
ENDROOT
BRANCH   1   2
ATOM      2  C   UNL A   1      30.059  29.195  22.758  1.00  0.00     0.305 C 
ATOM      3  O   UNL A   1      29.759  29.599  21.640  1.00  0.00    -0.252 OA
BRANCH   2   4
ATOM      4  C   UNL A   1      30.355  27.739  23.011  1.00  0.00     0.123 C 
BRANCH   4   5
ATOM      5  C   UNL A   1      29.305  26.882  23.697  1.00  0.00     0.012 C 
BRANCH   5   6
ATOM      6  C   UNL A   1      29.740  25.573  24.351  1.00  0.00     0.010 C 
BRANCH   6   7
ATOM      7  C   UNL A   1      30.043  25.531  25.848  1.00  0.00     0.100 C 
BRANCH   7   8
ATOM      8  C   UNL A   1      31.256  26.280  26.338  1.00  0.00     0.227 C 
ATOM      9  C   UNL A   1      33.375  25.571  24.933  1.00  0.00     0.324 C 
ATOM     10  O   UNL A   1      34.326  26.307  24.650  1.00  0.00    -0.248 OA
ATOM     11  N   UNL A   1      32.568  26.014  25.964  1.00  0.00    -0.278 N 
ATOM     12  H   UNL A   1      33.148  26.222  26.731  1.00  0.00     0.174 HD
ATOM     13  O   UNL A   1      31.091  27.212  27.136  1.00  0.00    -0.275 OA
BRANCH   9  14
ATOM     14  N   UNL A   1      33.158  24.403  24.255  1.00  0.00    -0.320 N 
ATOM     15  C   UNL A   1      32.296  20.700  24.562  1.00  0.00     0.040 C 
ATOM     16  C   UNL A   1      33.052  21.878  23.951  1.00  0.00     0.134 C 
ATOM     17  C   UNL A   1      32.868  23.111  24.845  1.00  0.00     0.153 C 
ATOM     18  O   UNL A   1      32.522  22.094  22.640  1.00  0.00    -0.375 OA
ATOM     19  C   UNL A   1      33.164  23.213  22.028  1.00  0.00     0.182 C 
ATOM     20  C   UNL A   1      32.923  24.506  22.807  1.00  0.00     0.150 C 
ENDBRANCH   9  14
ENDBRANCH   7   8
ENDBRANCH   6   7
ENDBRANCH   5   6
ENDBRANCH   4   5
ENDBRANCH   2   4
ENDBRANCH   1   2
BRANCH   1  21
ATOM     21  C   UNL A   1      31.398  29.619  24.639  1.00  0.00     0.274 C 
BRANCH  21  22
ATOM     22  C   UNL A   1      31.566  30.550  25.843  1.00  0.00     0.275 C 
BRANCH  22  23
ATOM     23  O   UNL A   1      32.782  30.282  26.569  1.00  0.00    -0.458 OA
BRANCH  23  24
ATOM     24  C   UNL A   1      33.323  31.349  27.195  1.00  0.00     0.338 C 
ATOM     25  O   UNL A   1      32.806  32.445  27.381  1.00  0.00    -0.246 OA
BRANCH  24  26
ATOM     26  C   UNL A   1      34.681  31.043  27.660  1.00  0.00     0.060 A 
ATOM     27  C   UNL A   1      35.036  29.729  27.978  1.00  0.00     0.016 A 
ATOM     28  C   UNL A   1      35.550  32.098  27.937  1.00  0.00     0.016 A 
ATOM     29  C   UNL A   1      36.245  29.472  28.624  1.00  0.00     0.010 A 
ATOM     30  C   UNL A   1      36.780  31.834  28.542  1.00  0.00     0.010 A 
ATOM     31  C   UNL A   1      37.124  30.522  28.919  1.00  0.00    -0.014 A 
BRANCH  31  32
ATOM     32  C   UNL A   1      38.375  30.287  29.681  1.00  0.00     0.031 A 
ATOM     33  C   UNL A   1      39.433  29.389  29.103  1.00  0.00     0.074 A 
ATOM     34  C   UNL A   1      38.549  30.835  30.897  1.00  0.00     0.049 A 
ATOM     35  N   UNL A   1      40.471  28.845  29.686  1.00  0.00    -0.248 NA
ATOM     36  C   UNL A   1      39.296  29.047  27.678  1.00  0.00     0.031 C 
ATOM     37  C   UNL A   1      37.627  31.764  31.547  1.00  0.00     0.029 A 
ATOM     38  N   UNL A   1      39.556  30.664  31.815  1.00  0.00    -0.354 N 
ATOM     39  C   UNL A   1      41.076  28.055  28.718  1.00  0.00     0.074 A 
ATOM     40  C   UNL A   1      40.300  28.200  27.505  1.00  0.00     0.031 C 
ATOM     41  C   UNL A   1      38.103  32.073  32.765  1.00  0.00     0.029 A 
ATOM     42  C   UNL A   1      39.326  31.311  33.004  1.00  0.00     0.049 A 
ATOM     43  H   UNL A   1      40.365  30.130  31.638  1.00  0.00     0.167 HD
ATOM     44  C   UNL A   1      42.172  27.270  28.840  1.00  0.00     0.037 A 
ATOM     45  C   UNL A   1      39.995  31.252  34.171  1.00  0.00     0.037 A 
ATOM     46  C   UNL A   1      42.969  27.172  30.035  1.00  0.00     0.049 A 
ATOM     47  C   UNL A   1      41.201  30.359  34.286  1.00  0.00     0.074 A 
ATOM     48  C   UNL A   1      44.114  26.424  30.251  1.00  0.00     0.029 A 
ATOM     49  N   UNL A   1      42.710  27.856  31.212  1.00  0.00    -0.354 N 
ATOM     50  N   UNL A   1      41.745  29.582  33.381  1.00  0.00    -0.248 NA
ATOM     51  C   UNL A   1      41.876  30.321  35.591  1.00  0.00     0.031 C 
ATOM     52  C   UNL A   1      44.531  26.634  31.569  1.00  0.00     0.029 A 
ATOM     53  C   UNL A   1      43.666  27.540  32.162  1.00  0.00     0.049 A 
ATOM     54  H   UNL A   1      41.957  28.476  31.351  1.00  0.00     0.167 HD
ATOM     55  C   UNL A   1      42.830  28.978  34.000  1.00  0.00     0.074 A 
ATOM     56  C   UNL A   1      42.880  29.490  35.353  1.00  0.00     0.031 C 
ATOM     57  C   UNL A   1      43.705  28.074  33.497  1.00  0.00     0.037 A 
BRANCH  44  58
ATOM     58  C   UNL A   1      42.563  26.425  27.667  1.00  0.00     0.064 A 
ATOM     59  C   UNL A   1      43.545  26.831  26.754  1.00  0.00     0.173 A 
ATOM     60  C   UNL A   1      41.986  25.157  27.495  1.00  0.00     0.173 A 
ATOM     61  F   UNL A   1      44.116  28.039  26.869  1.00  0.00    -0.203 F 
ATOM     62  C   UNL A   1      43.928  26.001  25.703  1.00  0.00     0.198 A 
ATOM     63  C   UNL A   1      42.387  24.322  26.456  1.00  0.00     0.198 A 
ATOM     64  F   UNL A   1      41.045  24.722  28.346  1.00  0.00    -0.203 F 
ATOM     65  F   UNL A   1      44.851  26.418  24.825  1.00  0.00    -0.200 F 
ATOM     66  C   UNL A   1      43.356  24.745  25.561  1.00  0.00     0.200 A 
ATOM     67  F   UNL A   1      41.840  23.106  26.326  1.00  0.00    -0.200 F 
ATOM     68  F   UNL A   1      43.736  23.943  24.556  1.00  0.00    -0.200 F 
ENDBRANCH  44  58
BRANCH  45  69
ATOM     69  C   UNL A   1      39.508  32.019  35.347  1.00  0.00     0.064 A 
ATOM     70  C   UNL A   1      38.608  31.451  36.258  1.00  0.00     0.173 A 
ATOM     71  C   UNL A   1      39.913  33.344  35.568  1.00  0.00     0.173 A 
ATOM     72  F   UNL A   1      38.170  30.196  36.072  1.00  0.00    -0.203 F 
ATOM     73  C   UNL A   1      38.116  32.184  37.336  1.00  0.00     0.198 A 
ATOM     74  C   UNL A   1      39.443  34.067  36.662  1.00  0.00     0.198 A 
ATOM     75  F   UNL A   1      40.769  33.935  34.723  1.00  0.00    -0.203 F 
ATOM     76  F   UNL A   1      37.218  31.634  38.163  1.00  0.00    -0.200 F 
ATOM     77  C   UNL A   1      38.537  33.489  37.539  1.00  0.00     0.200 A 
ATOM     78  F   UNL A   1      39.860  35.325  36.861  1.00  0.00    -0.200 F 
ATOM     79  F   UNL A   1      38.063  34.196  38.575  1.00  0.00    -0.200 F 
ENDBRANCH  45  69
BRANCH  57  80
ATOM     80  C   UNL A   1      44.807  27.611  34.400  1.00  0.00     0.064 A 
ATOM     81  C   UNL A   1      46.019  28.307  34.492  1.00  0.00     0.173 A 
ATOM     82  C   UNL A   1      44.629  26.480  35.211  1.00  0.00     0.173 A 
ATOM     83  F   UNL A   1      46.239  29.384  33.722  1.00  0.00    -0.203 F 
ATOM     84  C   UNL A   1      47.025  27.877  35.352  1.00  0.00     0.198 A 
ATOM     85  C   UNL A   1      45.629  26.066  36.087  1.00  0.00     0.198 A 
ATOM     86  F   UNL A   1      43.483  25.785  35.162  1.00  0.00    -0.203 F 
ATOM     87  F   UNL A   1      48.192  28.535  35.397  1.00  0.00    -0.200 F 
ATOM     88  C   UNL A   1      46.827  26.761  36.153  1.00  0.00     0.200 A 
ATOM     89  F   UNL A   1      45.433  24.994  36.866  1.00  0.00    -0.200 F 
ATOM     90  F   UNL A   1      47.795  26.351  36.984  1.00  0.00    -0.200 F 
ENDBRANCH  57  80
ENDBRANCH  31  32
ENDBRANCH  24  26
ENDBRANCH  23  24
ENDBRANCH  22  23
ENDBRANCH  21  22
ENDBRANCH   1  21
TORSDOF 16
ENDMDL
