MODEL 1
REMARK VINA RESULT:     -11.9      0.000      0.000
REMARK SMILES COC(=O)[C@@H]1C[C@@H](C(=O)OCCOC(=O)c2ccc(-c3c4nc(c(-c5c(F)c(F)c(F)c(F)c5F)c5ccc([nH]5)c(-c5c(F)c(F)c(F)c(F)c5F)c5nc(c(-c6c(F)c(F)c(F)c(F)c6F)c6ccc3[nH]6)C=C5)C=C4)cc2)[C@@H](c2cccc(F)c2F)[N@H+]1C
REMARK SMILES IDX 11 1 10 2 8 3 9 4 7 5 5 6 6 7 88 8 79 9 89 10 3 12 4 13 2 14
REMARK SMILES IDX 1 15 80 16 81 17 86 18 82 19 84 20 87 21 83 22 85 23 12 24
REMARK SMILES IDX 13 25 14 26 15 27 16 28 17 29 78 30 18 31 77 32 19 33 20 34
REMARK SMILES IDX 21 35 71 36 22 37 76 38 70 39 72 40 23 41 75 42 69 43 68 44
REMARK SMILES IDX 24 46 56 47 36 48 55 49 37 50 40 51 54 52 73 53 38 54 39 55
REMARK SMILES IDX 53 57 74 58 41 59 25 60 26 61 34 62 27 63 28 64 32 65 35 66
REMARK SMILES IDX 29 67 30 68 33 69 31 70 57 71 58 72 66 73 59 74 60 75 64 76
REMARK SMILES IDX 67 77 61 78 62 79 65 80 63 81 42 82 43 83 51 84 44 85 45 86
REMARK SMILES IDX 49 87 52 88 46 89 47 90 50 91 48 92
REMARK H PARENT 88 11 72 45 40 56
REMARK Flexibility Score: inf
ROOT
ATOM      1  C   UNL A   1      33.081  29.617  24.853  1.00  0.00     0.274 C 
ENDROOT
BRANCH   1   2
ATOM      2  O   UNL A   1      33.593  28.281  25.042  1.00  0.00    -0.462 OA
BRANCH   2   3
ATOM      3  C   UNL A   1      33.464  27.407  24.021  1.00  0.00     0.315 C 
ATOM      4  O   UNL A   1      33.964  27.571  22.913  1.00  0.00    -0.252 OA
BRANCH   3   5
ATOM      5  C   UNL A   1      32.588  26.211  24.330  1.00  0.00     0.169 C 
ATOM      6  C   UNL A   1      31.819  24.666  26.025  1.00  0.00     0.296 C 
ATOM      7  C   UNL A   1      32.087  26.153  25.774  1.00  0.00     0.099 C 
ATOM      8  N   UNL A   1      31.917  24.066  24.678  1.00  0.00    -0.319 N 
ATOM      9  C   UNL A   1      33.011  24.774  23.970  1.00  0.00     0.233 C 
ATOM     10  C   UNL A   1      31.941  22.616  24.652  1.00  0.00     0.334 C 
ATOM     11  H   UNL A   1      31.052  24.213  24.156  1.00  0.00     0.349 HD
BRANCH   6  12
ATOM     12  C   UNL A   1      30.465  24.444  26.695  1.00  0.00     0.364 C 
ATOM     13  O   UNL A   1      29.518  25.211  26.550  1.00  0.00    -0.245 OA
BRANCH  12  14
ATOM     14  O   UNL A   1      30.421  23.291  27.422  1.00  0.00    -0.465 OA
ATOM     15  C   UNL A   1      29.197  22.568  27.288  1.00  0.00     0.282 C 
ENDBRANCH  12  14
ENDBRANCH   6  12
BRANCH   9  16
ATOM     16  C   UNL A   1      34.405  24.251  24.291  1.00  0.00     0.049 A 
ATOM     17  C   UNL A   1      35.090  24.491  25.493  1.00  0.00     0.013 A 
ATOM     18  C   UNL A   1      35.060  23.466  23.326  1.00  0.00     0.167 A 
ATOM     19  C   UNL A   1      36.401  24.036  25.687  1.00  0.00     0.004 A 
ATOM     20  C   UNL A   1      36.350  22.985  23.534  1.00  0.00     0.159 A 
ATOM     21  F   UNL A   1      34.430  23.147  22.184  1.00  0.00    -0.203 F 
ATOM     22  C   UNL A   1      37.034  23.282  24.704  1.00  0.00     0.042 A 
ATOM     23  F   UNL A   1      36.943  22.222  22.604  1.00  0.00    -0.204 F 
ENDBRANCH   9  16
ENDBRANCH   3   5
ENDBRANCH   2   3
ENDBRANCH   1   2
BRANCH   1  24
ATOM     24  C   UNL A   1      31.962  29.926  25.854  1.00  0.00     0.275 C 
BRANCH  24  25
ATOM     25  O   UNL A   1      32.498  30.205  27.161  1.00  0.00    -0.458 OA
BRANCH  25  26
ATOM     26  C   UNL A   1      33.198  31.358  27.252  1.00  0.00     0.338 C 
ATOM     27  O   UNL A   1      32.789  32.487  27.029  1.00  0.00    -0.246 OA
BRANCH  26  28
ATOM     28  C   UNL A   1      34.512  31.100  27.861  1.00  0.00     0.060 A 
ATOM     29  C   UNL A   1      34.818  29.775  28.186  1.00  0.00     0.016 A 
ATOM     30  C   UNL A   1      35.417  32.126  28.141  1.00  0.00     0.016 A 
ATOM     31  C   UNL A   1      36.027  29.465  28.792  1.00  0.00     0.010 A 
ATOM     32  C   UNL A   1      36.635  31.815  28.756  1.00  0.00     0.010 A 
ATOM     33  C   UNL A   1      36.940  30.484  29.091  1.00  0.00    -0.014 A 
BRANCH  33  34
ATOM     34  C   UNL A   1      38.185  30.127  29.807  1.00  0.00     0.031 A 
ATOM     35  C   UNL A   1      38.410  30.626  31.202  1.00  0.00     0.074 A 
ATOM     36  C   UNL A   1      39.063  29.288  29.228  1.00  0.00     0.049 A 
ATOM     37  N   UNL A   1      39.408  30.393  32.015  1.00  0.00    -0.248 NA
ATOM     38  C   UNL A   1      37.368  31.502  31.761  1.00  0.00     0.031 C 
ATOM     39  C   UNL A   1      38.921  28.709  27.893  1.00  0.00     0.029 A 
ATOM     40  N   UNL A   1      40.238  28.760  29.700  1.00  0.00    -0.354 N 
ATOM     41  C   UNL A   1      39.117  31.092  33.180  1.00  0.00     0.074 A 
ATOM     42  C   UNL A   1      37.865  31.784  32.957  1.00  0.00     0.031 C 
ATOM     43  C   UNL A   1      39.959  27.892  27.658  1.00  0.00     0.029 A 
ATOM     44  C   UNL A   1      40.856  27.916  28.811  1.00  0.00     0.049 A 
ATOM     45  H   UNL A   1      40.604  28.966  30.590  1.00  0.00     0.167 HD
ATOM     46  C   UNL A   1      39.829  31.141  34.330  1.00  0.00     0.037 A 
ATOM     47  C   UNL A   1      42.018  27.247  28.915  1.00  0.00     0.037 A 
ATOM     48  C   UNL A   1      41.073  30.447  34.542  1.00  0.00     0.049 A 
ATOM     49  C   UNL A   1      42.813  27.363  30.189  1.00  0.00     0.074 A 
ATOM     50  C   UNL A   1      41.878  30.438  35.669  1.00  0.00     0.029 A 
ATOM     51  N   UNL A   1      41.694  29.637  33.602  1.00  0.00    -0.354 N 
ATOM     52  N   UNL A   1      42.531  28.024  31.286  1.00  0.00    -0.248 NA
ATOM     53  C   UNL A   1      44.090  26.637  30.238  1.00  0.00     0.031 C 
ATOM     54  C   UNL A   1      43.006  29.657  35.395  1.00  0.00     0.029 A 
ATOM     55  C   UNL A   1      42.882  29.137  34.117  1.00  0.00     0.049 A 
ATOM     56  H   UNL A   1      41.344  29.445  32.702  1.00  0.00     0.167 HD
ATOM     57  C   UNL A   1      43.579  27.777  32.161  1.00  0.00     0.074 A 
ATOM     58  C   UNL A   1      44.492  26.884  31.476  1.00  0.00     0.031 C 
ATOM     59  C   UNL A   1      43.774  28.250  33.417  1.00  0.00     0.037 A 
BRANCH  46  60
ATOM     60  C   UNL A   1      39.292  31.996  35.440  1.00  0.00     0.064 A 
ATOM     61  C   UNL A   1      38.470  31.467  36.446  1.00  0.00     0.173 A 
ATOM     62  C   UNL A   1      39.627  33.356  35.515  1.00  0.00     0.173 A 
ATOM     63  F   UNL A   1      38.107  30.176  36.413  1.00  0.00    -0.203 F 
ATOM     64  C   UNL A   1      37.987  32.273  37.475  1.00  0.00     0.198 A 
ATOM     65  C   UNL A   1      39.165  34.153  36.559  1.00  0.00     0.198 A 
ATOM     66  F   UNL A   1      40.411  33.911  34.578  1.00  0.00    -0.203 F 
ATOM     67  F   UNL A   1      37.170  31.756  38.403  1.00  0.00    -0.200 F 
ATOM     68  C   UNL A   1      38.340  33.613  37.534  1.00  0.00     0.200 A 
ATOM     69  F   UNL A   1      39.516  35.445  36.620  1.00  0.00    -0.200 F 
ATOM     70  F   UNL A   1      37.882  34.386  38.527  1.00  0.00    -0.200 F 
ENDBRANCH  46  60
BRANCH  47  71
ATOM     71  C   UNL A   1      42.505  26.411  27.786  1.00  0.00     0.064 A 
ATOM     72  C   UNL A   1      43.349  26.941  26.801  1.00  0.00     0.173 A 
ATOM     73  C   UNL A   1      42.115  25.070  27.657  1.00  0.00     0.173 A 
ATOM     74  F   UNL A   1      43.730  28.226  26.865  1.00  0.00    -0.203 F 
ATOM     75  C   UNL A   1      43.765  26.169  25.719  1.00  0.00     0.198 A 
ATOM     76  C   UNL A   1      42.557  24.290  26.591  1.00  0.00     0.198 A 
ATOM     77  F   UNL A   1      41.305  24.514  28.572  1.00  0.00    -0.203 F 
ATOM     78  F   UNL A   1      44.528  26.716  24.762  1.00  0.00    -0.200 F 
ATOM     79  C   UNL A   1      43.374  24.842  25.618  1.00  0.00     0.200 A 
ATOM     80  F   UNL A   1      42.185  23.005  26.504  1.00  0.00    -0.200 F 
ATOM     81  F   UNL A   1      43.774  24.100  24.576  1.00  0.00    -0.200 F 
ENDBRANCH  47  71
BRANCH  59  82
ATOM     82  C   UNL A   1      45.011  27.786  34.132  1.00  0.00     0.064 A 
ATOM     83  C   UNL A   1      46.216  28.499  34.055  1.00  0.00     0.173 A 
ATOM     84  C   UNL A   1      44.985  26.618  34.909  1.00  0.00     0.173 A 
ATOM     85  F   UNL A   1      46.295  29.613  33.312  1.00  0.00    -0.203 F 
ATOM     86  C   UNL A   1      47.362  28.038  34.698  1.00  0.00     0.198 A 
ATOM     87  C   UNL A   1      46.125  26.178  35.576  1.00  0.00     0.198 A 
ATOM     88  F   UNL A   1      43.857  25.904  35.022  1.00  0.00    -0.203 F 
ATOM     89  F   UNL A   1      48.518  28.701  34.559  1.00  0.00    -0.200 F 
ATOM     90  C   UNL A   1      47.315  26.881  35.462  1.00  0.00     0.200 A 
ATOM     91  F   UNL A   1      46.074  25.067  36.324  1.00  0.00    -0.200 F 
ATOM     92  F   UNL A   1      48.419  26.437  36.077  1.00  0.00    -0.200 F 
ENDBRANCH  59  82
ENDBRANCH  33  34
ENDBRANCH  26  28
ENDBRANCH  25  26
ENDBRANCH  24  25
ENDBRANCH   1  24
TORSDOF 14
ENDMDL
MODEL 2
REMARK VINA RESULT:     -11.8      1.880      3.666
REMARK SMILES COC(=O)[C@@H]1C[C@@H](C(=O)OCCOC(=O)c2ccc(-c3c4nc(c(-c5c(F)c(F)c(F)c(F)c5F)c5ccc([nH]5)c(-c5c(F)c(F)c(F)c(F)c5F)c5nc(c(-c6c(F)c(F)c(F)c(F)c6F)c6ccc3[nH]6)C=C5)C=C4)cc2)[C@@H](c2cccc(F)c2F)[N@H+]1C
REMARK SMILES IDX 11 1 10 2 8 3 9 4 7 5 5 6 6 7 88 8 79 9 89 10 3 12 4 13 2 14
REMARK SMILES IDX 1 15 80 16 81 17 86 18 82 19 84 20 87 21 83 22 85 23 12 24
REMARK SMILES IDX 13 25 14 26 15 27 16 28 17 29 78 30 18 31 77 32 19 33 20 34
REMARK SMILES IDX 21 35 71 36 22 37 76 38 70 39 72 40 23 41 75 42 69 43 68 44
REMARK SMILES IDX 24 46 56 47 36 48 55 49 37 50 40 51 54 52 73 53 38 54 39 55
REMARK SMILES IDX 53 57 74 58 41 59 25 60 26 61 34 62 27 63 28 64 32 65 35 66
REMARK SMILES IDX 29 67 30 68 33 69 31 70 57 71 58 72 66 73 59 74 60 75 64 76
REMARK SMILES IDX 67 77 61 78 62 79 65 80 63 81 42 82 43 83 51 84 44 85 45 86
REMARK SMILES IDX 49 87 52 88 46 89 47 90 50 91 48 92
REMARK H PARENT 88 11 72 45 40 56
REMARK Flexibility Score: inf
ROOT
ATOM      1  C   UNL A   1      31.463  30.396  25.732  1.00  0.00     0.274 C 
ENDROOT
BRANCH   1   2
ATOM      2  O   UNL A   1      32.339  29.342  26.183  1.00  0.00    -0.462 OA
BRANCH   2   3
ATOM      3  C   UNL A   1      31.773  28.222  26.680  1.00  0.00     0.315 C 
ATOM      4  O   UNL A   1      31.206  28.165  27.765  1.00  0.00    -0.252 OA
BRANCH   3   5
ATOM      5  C   UNL A   1      31.946  26.996  25.807  1.00  0.00     0.169 C 
ATOM      6  C   UNL A   1      32.994  26.062  23.837  1.00  0.00     0.296 C 
ATOM      7  C   UNL A   1      33.280  26.937  25.062  1.00  0.00     0.099 C 
ATOM      8  N   UNL A   1      31.661  25.494  24.124  1.00  0.00    -0.319 N 
ATOM      9  C   UNL A   1      30.874  26.559  24.791  1.00  0.00     0.233 C 
ATOM     10  C   UNL A   1      31.034  24.806  23.011  1.00  0.00     0.334 C 
ATOM     11  H   UNL A   1      31.737  24.704  24.765  1.00  0.00     0.349 HD
BRANCH   6  12
ATOM     12  C   UNL A   1      34.078  25.004  23.635  1.00  0.00     0.364 C 
ATOM     13  O   UNL A   1      34.394  24.581  22.528  1.00  0.00    -0.245 OA
BRANCH  12  14
ATOM     14  O   UNL A   1      34.669  24.628  24.804  1.00  0.00    -0.465 OA
ATOM     15  C   UNL A   1      35.821  23.800  24.631  1.00  0.00     0.282 C 
ENDBRANCH  12  14
ENDBRANCH   6  12
BRANCH   9  16
ATOM     16  C   UNL A   1      30.231  27.554  23.835  1.00  0.00     0.049 A 
ATOM     17  C   UNL A   1      30.940  28.471  23.043  1.00  0.00     0.013 A 
ATOM     18  C   UNL A   1      28.829  27.560  23.723  1.00  0.00     0.167 A 
ATOM     19  C   UNL A   1      30.273  29.407  22.239  1.00  0.00     0.004 A 
ATOM     20  C   UNL A   1      28.170  28.466  22.898  1.00  0.00     0.159 A 
ATOM     21  F   UNL A   1      28.100  26.662  24.405  1.00  0.00    -0.203 F 
ATOM     22  C   UNL A   1      28.884  29.405  22.168  1.00  0.00     0.042 A 
ATOM     23  F   UNL A   1      26.832  28.437  22.797  1.00  0.00    -0.204 F 
ENDBRANCH   9  16
ENDBRANCH   3   5
ENDBRANCH   2   3
ENDBRANCH   1   2
BRANCH   1  24
ATOM     24  C   UNL A   1      31.696  31.686  26.526  1.00  0.00     0.275 C 
BRANCH  24  25
ATOM     25  O   UNL A   1      32.740  31.512  27.502  1.00  0.00    -0.458 OA
BRANCH  25  26
ATOM     26  C   UNL A   1      33.590  32.557  27.617  1.00  0.00     0.338 C 
ATOM     27  O   UNL A   1      33.330  33.739  27.445  1.00  0.00    -0.246 OA
BRANCH  26  28
ATOM     28  C   UNL A   1      34.869  32.104  28.184  1.00  0.00     0.060 A 
ATOM     29  C   UNL A   1      34.921  30.799  28.683  1.00  0.00     0.016 A 
ATOM     30  C   UNL A   1      35.987  32.937  28.260  1.00  0.00     0.016 A 
ATOM     31  C   UNL A   1      36.087  30.318  29.260  1.00  0.00     0.010 A 
ATOM     32  C   UNL A   1      37.162  32.454  28.845  1.00  0.00     0.010 A 
ATOM     33  C   UNL A   1      37.213  31.146  29.355  1.00  0.00    -0.014 A 
BRANCH  33  34
ATOM     34  C   UNL A   1      38.415  30.625  30.046  1.00  0.00     0.031 A 
ATOM     35  C   UNL A   1      38.677  31.008  31.471  1.00  0.00     0.074 A 
ATOM     36  C   UNL A   1      39.213  29.746  29.413  1.00  0.00     0.049 A 
ATOM     37  N   UNL A   1      39.643  30.628  32.267  1.00  0.00    -0.248 NA
ATOM     38  C   UNL A   1      37.719  31.940  32.087  1.00  0.00     0.031 C 
ATOM     39  C   UNL A   1      39.024  29.272  28.043  1.00  0.00     0.029 A 
ATOM     40  N   UNL A   1      40.329  29.079  29.850  1.00  0.00    -0.354 N 
ATOM     41  C   UNL A   1      39.412  31.273  33.475  1.00  0.00     0.074 A 
ATOM     42  C   UNL A   1      38.233  32.094  33.299  1.00  0.00     0.031 C 
ATOM     43  C   UNL A   1      39.982  28.378  27.754  1.00  0.00     0.029 A 
ATOM     44  C   UNL A   1      40.869  28.240  28.906  1.00  0.00     0.049 A 
ATOM     45  H   UNL A   1      40.707  29.190  30.751  1.00  0.00     0.167 HD
ATOM     46  C   UNL A   1      40.118  31.179  34.627  1.00  0.00     0.037 A 
ATOM     47  C   UNL A   1      41.963  27.458  28.966  1.00  0.00     0.037 A 
ATOM     48  C   UNL A   1      41.290  30.357  34.793  1.00  0.00     0.049 A 
ATOM     49  C   UNL A   1      42.756  27.414  30.245  1.00  0.00     0.074 A 
ATOM     50  C   UNL A   1      42.082  30.197  35.916  1.00  0.00     0.029 A 
ATOM     51  N   UNL A   1      41.837  29.555  33.801  1.00  0.00    -0.354 N 
ATOM     52  N   UNL A   1      42.532  28.025  31.383  1.00  0.00    -0.248 NA
ATOM     53  C   UNL A   1      43.958  26.569  30.246  1.00  0.00     0.031 C 
ATOM     54  C   UNL A   1      43.133  29.332  35.591  1.00  0.00     0.029 A 
ATOM     55  C   UNL A   1      42.968  28.912  34.282  1.00  0.00     0.049 A 
ATOM     56  H   UNL A   1      41.475  29.457  32.891  1.00  0.00     0.167 HD
ATOM     57  C   UNL A   1      43.545  27.623  32.240  1.00  0.00     0.074 A 
ATOM     58  C   UNL A   1      44.374  26.695  31.497  1.00  0.00     0.031 C 
ATOM     59  C   UNL A   1      43.777  27.992  33.525  1.00  0.00     0.037 A 
BRANCH  46  60
ATOM     60  C   UNL A   1      39.657  32.006  35.790  1.00  0.00     0.064 A 
ATOM     61  C   UNL A   1      40.214  33.263  36.068  1.00  0.00     0.173 A 
ATOM     62  C   UNL A   1      38.623  31.548  36.621  1.00  0.00     0.173 A 
ATOM     63  F   UNL A   1      41.215  33.740  35.313  1.00  0.00    -0.203 F 
ATOM     64  C   UNL A   1      39.766  34.022  37.147  1.00  0.00     0.198 A 
ATOM     65  C   UNL A   1      38.160  32.322  37.682  1.00  0.00     0.198 A 
ATOM     66  F   UNL A   1      38.056  30.353  36.398  1.00  0.00    -0.203 F 
ATOM     67  F   UNL A   1      40.341  35.203  37.418  1.00  0.00    -0.200 F 
ATOM     68  C   UNL A   1      38.736  33.554  37.948  1.00  0.00     0.200 A 
ATOM     69  F   UNL A   1      37.157  31.872  38.449  1.00  0.00    -0.200 F 
ATOM     70  F   UNL A   1      38.302  34.289  38.982  1.00  0.00    -0.200 F 
ENDBRANCH  46  60
BRANCH  47  71
ATOM     71  C   UNL A   1      42.374  26.656  27.785  1.00  0.00     0.064 A 
ATOM     72  C   UNL A   1      41.854  25.375  27.559  1.00  0.00     0.173 A 
ATOM     73  C   UNL A   1      43.316  27.147  26.868  1.00  0.00     0.173 A 
ATOM     74  F   UNL A   1      40.970  24.850  28.420  1.00  0.00    -0.203 F 
ATOM     75  C   UNL A   1      42.278  24.606  26.477  1.00  0.00     0.198 A 
ATOM     76  C   UNL A   1      43.715  26.391  25.769  1.00  0.00     0.198 A 
ATOM     77  F   UNL A   1      43.847  28.368  27.039  1.00  0.00    -0.203 F 
ATOM     78  F   UNL A   1      41.805  23.363  26.315  1.00  0.00    -0.200 F 
ATOM     79  C   UNL A   1      43.203  25.117  25.579  1.00  0.00     0.200 A 
ATOM     80  F   UNL A   1      44.602  26.894  24.899  1.00  0.00    -0.200 F 
ATOM     81  F   UNL A   1      43.610  24.377  24.538  1.00  0.00    -0.200 F 
ENDBRANCH  47  71
BRANCH  59  82
ATOM     82  C   UNL A   1      44.959  27.367  34.208  1.00  0.00     0.064 A 
ATOM     83  C   UNL A   1      44.860  26.132  34.866  1.00  0.00     0.173 A 
ATOM     84  C   UNL A   1      46.207  28.008  34.199  1.00  0.00     0.173 A 
ATOM     85  F   UNL A   1      43.685  25.486  34.916  1.00  0.00    -0.203 F 
ATOM     86  C   UNL A   1      45.957  25.580  35.523  1.00  0.00     0.198 A 
ATOM     87  C   UNL A   1      47.309  27.439  34.830  1.00  0.00     0.198 A 
ATOM     88  F   UNL A   1      46.357  29.187  33.578  1.00  0.00    -0.203 F 
ATOM     89  F   UNL A   1      45.823  24.431  36.197  1.00  0.00    -0.200 F 
ATOM     90  C   UNL A   1      47.181  26.231  35.500  1.00  0.00     0.200 A 
ATOM     91  F   UNL A   1      48.494  28.063  34.796  1.00  0.00    -0.200 F 
ATOM     92  F   UNL A   1      48.235  25.702  36.135  1.00  0.00    -0.200 F 
ENDBRANCH  59  82
ENDBRANCH  33  34
ENDBRANCH  26  28
ENDBRANCH  25  26
ENDBRANCH  24  25
ENDBRANCH   1  24
TORSDOF 14
ENDMDL
MODEL 3
REMARK VINA RESULT:     -11.8      4.474      9.527
REMARK SMILES COC(=O)[C@@H]1C[C@@H](C(=O)OCCOC(=O)c2ccc(-c3c4nc(c(-c5c(F)c(F)c(F)c(F)c5F)c5ccc([nH]5)c(-c5c(F)c(F)c(F)c(F)c5F)c5nc(c(-c6c(F)c(F)c(F)c(F)c6F)c6ccc3[nH]6)C=C5)C=C4)cc2)[C@@H](c2cccc(F)c2F)[N@H+]1C
REMARK SMILES IDX 11 1 10 2 8 3 9 4 7 5 5 6 6 7 88 8 79 9 89 10 3 12 4 13 2 14
REMARK SMILES IDX 1 15 80 16 81 17 86 18 82 19 84 20 87 21 83 22 85 23 12 24
REMARK SMILES IDX 13 25 14 26 15 27 16 28 17 29 78 30 18 31 77 32 19 33 20 34
REMARK SMILES IDX 21 35 71 36 22 37 76 38 70 39 72 40 23 41 75 42 69 43 68 44
REMARK SMILES IDX 24 46 56 47 36 48 55 49 37 50 40 51 54 52 73 53 38 54 39 55
REMARK SMILES IDX 53 57 74 58 41 59 25 60 26 61 34 62 27 63 28 64 32 65 35 66
REMARK SMILES IDX 29 67 30 68 33 69 31 70 57 71 58 72 66 73 59 74 60 75 64 76
REMARK SMILES IDX 67 77 61 78 62 79 65 80 63 81 42 82 43 83 51 84 44 85 45 86
REMARK SMILES IDX 49 87 52 88 46 89 47 90 50 91 48 92
REMARK H PARENT 88 11 72 45 40 56
REMARK Flexibility Score: inf
ROOT
ATOM      1  C   UNL A   1      36.687  20.704  24.635  1.00  0.00     0.274 C 
ENDROOT
BRANCH   1   2
ATOM      2  O   UNL A   1      36.423  22.110  24.823  1.00  0.00    -0.462 OA
BRANCH   2   3
ATOM      3  C   UNL A   1      35.966  22.812  23.764  1.00  0.00     0.315 C 
ATOM      4  O   UNL A   1      36.589  22.953  22.717  1.00  0.00    -0.252 OA
BRANCH   3   5
ATOM      5  C   UNL A   1      34.625  23.478  23.988  1.00  0.00     0.169 C 
ATOM      6  C   UNL A   1      32.912  24.059  25.595  1.00  0.00     0.296 C 
ATOM      7  C   UNL A   1      34.431  24.045  25.396  1.00  0.00     0.099 C 
ATOM      8  N   UNL A   1      32.385  23.776  24.244  1.00  0.00    -0.319 N 
ATOM      9  C   UNL A   1      33.297  22.785  23.625  1.00  0.00     0.233 C 
ATOM     10  C   UNL A   1      30.963  23.493  24.186  1.00  0.00     0.334 C 
ATOM     11  H   UNL A   1      32.394  24.621  23.671  1.00  0.00     0.349 HD
BRANCH   6  12
ATOM     12  C   UNL A   1      32.432  25.390  26.171  1.00  0.00     0.364 C 
ATOM     13  O   UNL A   1      31.432  25.486  26.876  1.00  0.00    -0.245 OA
BRANCH  12  14
ATOM     14  O   UNL A   1      33.255  26.428  25.852  1.00  0.00    -0.465 OA
ATOM     15  C   UNL A   1      32.921  27.654  26.504  1.00  0.00     0.282 C 
ENDBRANCH  12  14
ENDBRANCH   6  12
BRANCH   9  16
ATOM     16  C   UNL A   1      33.018  21.343  24.023  1.00  0.00     0.049 A 
ATOM     17  C   UNL A   1      33.218  20.817  25.309  1.00  0.00     0.013 A 
ATOM     18  C   UNL A   1      32.517  20.466  23.043  1.00  0.00     0.167 A 
ATOM     19  C   UNL A   1      33.005  19.458  25.582  1.00  0.00     0.004 A 
ATOM     20  C   UNL A   1      32.273  19.125  23.324  1.00  0.00     0.159 A 
ATOM     21  F   UNL A   1      32.244  20.926  21.812  1.00  0.00    -0.203 F 
ATOM     22  C   UNL A   1      32.533  18.610  24.586  1.00  0.00     0.042 A 
ATOM     23  F   UNL A   1      31.778  18.317  22.375  1.00  0.00    -0.204 F 
ENDBRANCH   9  16
ENDBRANCH   3   5
ENDBRANCH   2   3
ENDBRANCH   1   2
BRANCH   1  24
ATOM     24  C   UNL A   1      38.135  20.360  25.001  1.00  0.00     0.275 C 
BRANCH  24  25
ATOM     25  O   UNL A   1      38.543  21.045  26.200  1.00  0.00    -0.458 OA
BRANCH  25  26
ATOM     26  C   UNL A   1      39.855  20.929  26.502  1.00  0.00     0.338 C 
ATOM     27  O   UNL A   1      40.573  19.961  26.302  1.00  0.00    -0.246 OA
BRANCH  26  28
ATOM     28  C   UNL A   1      40.385  22.228  26.943  1.00  0.00     0.060 A 
ATOM     29  C   UNL A   1      39.938  23.366  26.263  1.00  0.00     0.016 A 
ATOM     30  C   UNL A   1      41.321  22.340  27.973  1.00  0.00     0.016 A 
ATOM     31  C   UNL A   1      40.422  24.620  26.607  1.00  0.00     0.010 A 
ATOM     32  C   UNL A   1      41.813  23.604  28.318  1.00  0.00     0.010 A 
ATOM     33  C   UNL A   1      41.371  24.747  27.630  1.00  0.00    -0.014 A 
BRANCH  33  34
ATOM     34  C   UNL A   1      41.922  26.090  27.918  1.00  0.00     0.031 A 
ATOM     35  C   UNL A   1      43.272  26.469  27.389  1.00  0.00     0.074 A 
ATOM     36  C   UNL A   1      41.167  26.987  28.578  1.00  0.00     0.049 A 
ATOM     37  N   UNL A   1      43.914  27.605  27.490  1.00  0.00    -0.248 NA
ATOM     38  C   UNL A   1      43.998  25.430  26.640  1.00  0.00     0.031 C 
ATOM     39  C   UNL A   1      39.823  26.737  29.097  1.00  0.00     0.029 A 
ATOM     40  N   UNL A   1      41.417  28.295  28.906  1.00  0.00    -0.354 N 
ATOM     41  C   UNL A   1      45.117  27.419  26.821  1.00  0.00     0.074 A 
ATOM     42  C   UNL A   1      45.130  26.052  26.344  1.00  0.00     0.031 C 
ATOM     43  C   UNL A   1      39.358  27.861  29.665  1.00  0.00     0.029 A 
ATOM     44  C   UNL A   1      40.383  28.899  29.578  1.00  0.00     0.049 A 
ATOM     45  H   UNL A   1      42.257  28.758  28.682  1.00  0.00     0.167 HD
ATOM     46  C   UNL A   1      46.111  28.315  26.617  1.00  0.00     0.037 A 
ATOM     47  C   UNL A   1      40.282  30.145  30.074  1.00  0.00     0.037 A 
ATOM     48  C   UNL A   1      46.087  29.674  27.094  1.00  0.00     0.049 A 
ATOM     49  C   UNL A   1      41.427  31.102  29.876  1.00  0.00     0.074 A 
ATOM     50  C   UNL A   1      47.048  30.660  26.947  1.00  0.00     0.029 A 
ATOM     51  N   UNL A   1      45.042  30.239  27.811  1.00  0.00    -0.354 N 
ATOM     52  N   UNL A   1      42.560  30.921  29.241  1.00  0.00    -0.248 NA
ATOM     53  C   UNL A   1      41.278  32.441  30.464  1.00  0.00     0.031 C 
ATOM     54  C   UNL A   1      46.603  31.807  27.614  1.00  0.00     0.029 A 
ATOM     55  C   UNL A   1      45.344  31.554  28.132  1.00  0.00     0.049 A 
ATOM     56  H   UNL A   1      44.210  29.774  28.058  1.00  0.00     0.167 HD
ATOM     57  C   UNL A   1      43.247  32.123  29.333  1.00  0.00     0.074 A 
ATOM     58  C   UNL A   1      42.392  33.036  30.065  1.00  0.00     0.031 C 
ATOM     59  C   UNL A   1      44.477  32.444  28.861  1.00  0.00     0.037 A 
BRANCH  46  60
ATOM     60  C   UNL A   1      47.322  27.844  25.868  1.00  0.00     0.064 A 
ATOM     61  C   UNL A   1      48.467  27.380  26.533  1.00  0.00     0.173 A 
ATOM     62  C   UNL A   1      47.328  27.828  24.464  1.00  0.00     0.173 A 
ATOM     63  F   UNL A   1      48.519  27.389  27.873  1.00  0.00    -0.203 F 
ATOM     64  C   UNL A   1      49.579  26.937  25.821  1.00  0.00     0.198 A 
ATOM     65  C   UNL A   1      48.431  27.359  23.757  1.00  0.00     0.198 A 
ATOM     66  F   UNL A   1      46.258  28.260  23.780  1.00  0.00    -0.203 F 
ATOM     67  F   UNL A   1      50.678  26.536  26.477  1.00  0.00    -0.200 F 
ATOM     68  C   UNL A   1      49.558  26.921  24.435  1.00  0.00     0.200 A 
ATOM     69  F   UNL A   1      48.405  27.335  22.417  1.00  0.00    -0.200 F 
ATOM     70  F   UNL A   1      50.626  26.487  23.751  1.00  0.00    -0.200 F 
ENDBRANCH  46  60
BRANCH  47  71
ATOM     71  C   UNL A   1      39.058  30.562  30.807  1.00  0.00     0.064 A 
ATOM     72  C   UNL A   1      37.955  31.101  30.131  1.00  0.00     0.173 A 
ATOM     73  C   UNL A   1      38.976  30.451  32.203  1.00  0.00     0.173 A 
ATOM     74  F   UNL A   1      37.993  31.252  28.799  1.00  0.00    -0.203 F 
ATOM     75  C   UNL A   1      36.827  31.535  30.825  1.00  0.00     0.198 A 
ATOM     76  C   UNL A   1      37.835  30.855  32.893  1.00  0.00     0.198 A 
ATOM     77  F   UNL A   1      40.005  29.943  32.898  1.00  0.00    -0.203 F 
ATOM     78  F   UNL A   1      35.808  32.097  30.160  1.00  0.00    -0.200 F 
ATOM     79  C   UNL A   1      36.766  31.405  32.205  1.00  0.00     0.200 A 
ATOM     80  F   UNL A   1      37.777  30.718  34.225  1.00  0.00    -0.200 F 
ATOM     81  F   UNL A   1      35.681  31.823  32.872  1.00  0.00    -0.200 F 
ENDBRANCH  47  71
BRANCH  59  82
ATOM     82  C   UNL A   1      44.952  33.848  29.103  1.00  0.00     0.064 A 
ATOM     83  C   UNL A   1      45.704  34.184  30.238  1.00  0.00     0.173 A 
ATOM     84  C   UNL A   1      44.656  34.867  28.185  1.00  0.00     0.173 A 
ATOM     85  F   UNL A   1      46.000  33.249  31.154  1.00  0.00    -0.203 F 
ATOM     86  C   UNL A   1      46.110  35.497  30.465  1.00  0.00     0.198 A 
ATOM     87  C   UNL A   1      45.090  36.172  28.399  1.00  0.00     0.198 A 
ATOM     88  F   UNL A   1      43.946  34.597  27.080  1.00  0.00    -0.203 F 
ATOM     89  F   UNL A   1      46.773  35.807  31.587  1.00  0.00    -0.200 F 
ATOM     90  C   UNL A   1      45.807  36.489  29.544  1.00  0.00     0.200 A 
ATOM     91  F   UNL A   1      44.807  37.126  27.502  1.00  0.00    -0.200 F 
ATOM     92  F   UNL A   1      46.194  37.752  29.764  1.00  0.00    -0.200 F 
ENDBRANCH  59  82
ENDBRANCH  33  34
ENDBRANCH  26  28
ENDBRANCH  25  26
ENDBRANCH  24  25
ENDBRANCH   1  24
TORSDOF 14
ENDMDL
