MODEL 1
REMARK VINA RESULT:     -11.3      0.000      0.000
REMARK SMILES CC(C)[NH2+][C@@]1(C(=O)OCCOC(=O)c2ccc(-c3c4nc(c(-c5c(F)c(F)c(F)c(F)c5F)c5ccc([nH]5)c(-c5c(F)c(F)c(F)c(F)c5F)c5nc(c(-c6c(F)c(F)c(F)c(F)c6F)c6ccc3[nH]6)C=C5)C=C4)cc2)CC[C@H](Sc2ccccn2)C1
REMARK SMILES IDX 9 1 8 2 6 3 7 4 5 5 77 6 87 7 78 8 79 9 4 10 2 13 1 14 3 15
REMARK SMILES IDX 80 16 81 17 82 18 86 19 83 20 85 21 84 22 10 23 11 24 12 25
REMARK SMILES IDX 13 26 14 27 15 28 76 29 16 30 75 31 17 32 18 33 19 34 69 35
REMARK SMILES IDX 20 36 74 37 68 38 70 39 21 40 73 41 67 42 66 43 22 45 54 46
REMARK SMILES IDX 34 47 53 48 35 49 38 50 52 51 71 52 36 53 37 54 51 56 72 57
REMARK SMILES IDX 39 58 23 59 24 60 32 61 25 62 26 63 30 64 33 65 27 66 28 67
REMARK SMILES IDX 31 68 29 69 55 70 56 71 64 72 57 73 58 74 62 75 65 76 59 77
REMARK SMILES IDX 60 78 63 79 61 80 40 81 41 82 49 83 42 84 43 85 47 86 50 87
REMARK SMILES IDX 44 88 45 89 48 90 46 91
REMARK H PARENT 4 11 4 12 70 44 38 55
REMARK Flexibility Score: inf
ROOT
ATOM      1  C   UNL A   1      31.767  28.526  26.856  1.00  0.00     0.274 C 
ENDROOT
BRANCH   1   2
ATOM      2  O   UNL A   1      32.324  27.581  25.930  1.00  0.00    -0.457 OA
BRANCH   2   3
ATOM      3  C   UNL A   1      31.488  26.637  25.430  1.00  0.00     0.368 C 
ATOM      4  O   UNL A   1      30.586  26.124  26.084  1.00  0.00    -0.245 OA
BRANCH   3   5
ATOM      5  C   UNL A   1      31.840  26.251  23.954  1.00  0.00     0.195 C 
ATOM      6  C   UNL A   1      32.589  27.396  23.265  1.00  0.00     0.082 C 
ATOM      7  C   UNL A   1      30.584  26.155  23.037  1.00  0.00     0.096 C 
ATOM      8  C   UNL A   1      31.502  28.417  22.964  1.00  0.00     0.022 C 
ATOM      9  C   UNL A   1      30.286  27.595  22.538  1.00  0.00     0.060 C 
BRANCH   5  10
ATOM     10  N   UNL A   1      32.594  24.964  23.874  1.00  0.00    -0.330 N 
ATOM     11  H   UNL A   1      32.105  24.295  24.470  1.00  0.00     0.347 HD
ATOM     12  H   UNL A   1      32.615  24.757  22.875  1.00  0.00     0.347 HD
BRANCH  10  13
ATOM     13  C   UNL A   1      34.014  24.935  24.269  1.00  0.00     0.176 C 
ATOM     14  C   UNL A   1      34.097  24.543  25.752  1.00  0.00     0.075 C 
ATOM     15  C   UNL A   1      34.910  23.957  23.508  1.00  0.00     0.075 C 
ENDBRANCH  10  13
ENDBRANCH   5  10
BRANCH   9  16
ATOM     16  S   UNL A   1      28.646  28.189  23.124  1.00  0.00    -0.103 SA
BRANCH  16  17
ATOM     17  C   UNL A   1      28.541  29.894  22.627  1.00  0.00     0.096 A 
ATOM     18  C   UNL A   1      28.572  30.967  23.507  1.00  0.00     0.035 A 
ATOM     19  N   UNL A   1      28.444  30.076  21.288  1.00  0.00    -0.250 NA
ATOM     20  C   UNL A   1      28.440  32.263  23.007  1.00  0.00     0.004 A 
ATOM     21  C   UNL A   1      28.357  31.341  20.822  1.00  0.00     0.112 A 
ATOM     22  C   UNL A   1      28.333  32.457  21.636  1.00  0.00     0.020 A 
ENDBRANCH  16  17
ENDBRANCH   9  16
ENDBRANCH   3   5
ENDBRANCH   2   3
ENDBRANCH   1   2
BRANCH   1  23
ATOM     23  C   UNL A   1      31.775  29.917  26.226  1.00  0.00     0.275 C 
BRANCH  23  24
ATOM     24  O   UNL A   1      33.115  30.442  26.145  1.00  0.00    -0.458 OA
BRANCH  24  25
ATOM     25  C   UNL A   1      33.401  31.438  27.024  1.00  0.00     0.338 C 
ATOM     26  O   UNL A   1      32.768  32.459  27.216  1.00  0.00    -0.246 OA
BRANCH  25  27
ATOM     27  C   UNL A   1      34.593  31.075  27.816  1.00  0.00     0.060 A 
ATOM     28  C   UNL A   1      35.585  32.042  28.003  1.00  0.00     0.016 A 
ATOM     29  C   UNL A   1      34.758  29.791  28.341  1.00  0.00     0.016 A 
ATOM     30  C   UNL A   1      36.720  31.741  28.758  1.00  0.00     0.010 A 
ATOM     31  C   UNL A   1      35.904  29.486  29.084  1.00  0.00     0.010 A 
ATOM     32  C   UNL A   1      36.882  30.465  29.317  1.00  0.00    -0.014 A 
BRANCH  32  33
ATOM     33  C   UNL A   1      38.103  30.142  30.097  1.00  0.00     0.031 A 
ATOM     34  C   UNL A   1      39.124  29.218  29.506  1.00  0.00     0.074 A 
ATOM     35  C   UNL A   1      38.301  30.672  31.318  1.00  0.00     0.049 A 
ATOM     36  N   UNL A   1      40.234  28.762  30.032  1.00  0.00    -0.248 NA
ATOM     37  C   UNL A   1      38.861  28.740  28.141  1.00  0.00     0.031 C 
ATOM     38  C   UNL A   1      37.409  31.622  31.978  1.00  0.00     0.029 A 
ATOM     39  N   UNL A   1      39.320  30.487  32.224  1.00  0.00    -0.354 N 
ATOM     40  C   UNL A   1      40.798  27.944  29.065  1.00  0.00     0.074 A 
ATOM     41  C   UNL A   1      39.911  27.964  27.921  1.00  0.00     0.031 C 
ATOM     42  C   UNL A   1      37.921  31.944  33.178  1.00  0.00     0.029 A 
ATOM     43  C   UNL A   1      39.147  31.179  33.399  1.00  0.00     0.049 A 
ATOM     44  H   UNL A   1      40.099  29.912  32.047  1.00  0.00     0.167 HD
ATOM     45  C   UNL A   1      41.944  27.226  29.132  1.00  0.00     0.037 A 
ATOM     46  C   UNL A   1      39.876  31.167  34.533  1.00  0.00     0.037 A 
ATOM     47  C   UNL A   1      42.795  27.162  30.290  1.00  0.00     0.049 A 
ATOM     48  C   UNL A   1      41.090  30.272  34.618  1.00  0.00     0.074 A 
ATOM     49  C   UNL A   1      43.962  26.439  30.462  1.00  0.00     0.029 A 
ATOM     50  N   UNL A   1      42.558  27.830  31.483  1.00  0.00    -0.354 N 
ATOM     51  N   UNL A   1      41.627  29.512  33.695  1.00  0.00    -0.248 NA
ATOM     52  C   UNL A   1      41.786  30.216  35.913  1.00  0.00     0.031 C 
ATOM     53  C   UNL A   1      44.394  26.615  31.780  1.00  0.00     0.029 A 
ATOM     54  C   UNL A   1      43.537  27.504  32.409  1.00  0.00     0.049 A 
ATOM     55  H   UNL A   1      41.805  28.443  31.648  1.00  0.00     0.167 HD
ATOM     56  C   UNL A   1      42.729  28.907  34.287  1.00  0.00     0.074 A 
ATOM     57  C   UNL A   1      42.799  29.403  35.644  1.00  0.00     0.031 C 
ATOM     58  C   UNL A   1      43.600  28.014  33.756  1.00  0.00     0.037 A 
BRANCH  45  59
ATOM     59  C   UNL A   1      42.297  26.394  27.936  1.00  0.00     0.064 A 
ATOM     60  C   UNL A   1      41.738  25.126  27.726  1.00  0.00     0.173 A 
ATOM     61  C   UNL A   1      43.208  26.879  26.984  1.00  0.00     0.173 A 
ATOM     62  F   UNL A   1      40.877  24.611  28.617  1.00  0.00    -0.203 F 
ATOM     63  C   UNL A   1      42.104  24.358  26.623  1.00  0.00     0.198 A 
ATOM     64  C   UNL A   1      43.546  26.121  25.867  1.00  0.00     0.198 A 
ATOM     65  F   UNL A   1      43.771  28.087  27.138  1.00  0.00    -0.203 F 
ATOM     66  F   UNL A   1      41.599  23.125  26.470  1.00  0.00    -0.200 F 
ATOM     67  C   UNL A   1      43.002  24.859  25.692  1.00  0.00     0.200 A 
ATOM     68  F   UNL A   1      44.407  26.611  24.963  1.00  0.00    -0.200 F 
ATOM     69  F   UNL A   1      43.351  24.119  24.631  1.00  0.00    -0.200 F 
ENDBRANCH  45  59
BRANCH  46  70
ATOM     70  C   UNL A   1      39.464  31.985  35.710  1.00  0.00     0.064 A 
ATOM     71  C   UNL A   1      38.499  31.520  36.615  1.00  0.00     0.173 A 
ATOM     72  C   UNL A   1      39.987  33.269  35.925  1.00  0.00     0.173 A 
ATOM     73  F   UNL A   1      37.941  30.312  36.438  1.00  0.00    -0.203 F 
ATOM     74  C   UNL A   1      38.056  32.315  37.672  1.00  0.00     0.198 A 
ATOM     75  C   UNL A   1      39.569  34.050  37.002  1.00  0.00     0.198 A 
ATOM     76  F   UNL A   1      40.903  33.772  35.085  1.00  0.00    -0.203 F 
ATOM     77  F   UNL A   1      37.087  31.869  38.483  1.00  0.00    -0.200 F 
ATOM     78  C   UNL A   1      38.596  33.576  37.869  1.00  0.00     0.200 A 
ATOM     79  F   UNL A   1      40.103  35.264  37.192  1.00  0.00    -0.200 F 
ATOM     80  F   UNL A   1      38.169  34.342  38.882  1.00  0.00    -0.200 F 
ENDBRANCH  46  70
BRANCH  58  81
ATOM     81  C   UNL A   1      44.727  27.533  34.626  1.00  0.00     0.064 A 
ATOM     82  C   UNL A   1      45.937  28.236  34.725  1.00  0.00     0.173 A 
ATOM     83  C   UNL A   1      44.566  26.392  35.428  1.00  0.00     0.173 A 
ATOM     84  F   UNL A   1      46.149  29.325  33.970  1.00  0.00    -0.203 F 
ATOM     85  C   UNL A   1      46.948  27.805  35.581  1.00  0.00     0.198 A 
ATOM     86  C   UNL A   1      45.566  25.983  36.307  1.00  0.00     0.198 A 
ATOM     87  F   UNL A   1      43.425  25.686  35.378  1.00  0.00    -0.203 F 
ATOM     88  F   UNL A   1      48.111  28.471  35.631  1.00  0.00    -0.200 F 
ATOM     89  C   UNL A   1      46.758  26.688  36.379  1.00  0.00     0.200 A 
ATOM     90  F   UNL A   1      45.372  24.913  37.090  1.00  0.00    -0.200 F 
ATOM     91  F   UNL A   1      47.724  26.287  37.217  1.00  0.00    -0.200 F 
ENDBRANCH  58  81
ENDBRANCH  32  33
ENDBRANCH  25  27
ENDBRANCH  24  25
ENDBRANCH  23  24
ENDBRANCH   1  23
TORSDOF 15
ENDMDL
MODEL 2
REMARK VINA RESULT:     -11.2      2.899      7.881
REMARK SMILES CC(C)[NH2+][C@@]1(C(=O)OCCOC(=O)c2ccc(-c3c4nc(c(-c5c(F)c(F)c(F)c(F)c5F)c5ccc([nH]5)c(-c5c(F)c(F)c(F)c(F)c5F)c5nc(c(-c6c(F)c(F)c(F)c(F)c6F)c6ccc3[nH]6)C=C5)C=C4)cc2)CC[C@H](Sc2ccccn2)C1
REMARK SMILES IDX 9 1 8 2 6 3 7 4 5 5 77 6 87 7 78 8 79 9 4 10 2 13 1 14 3 15
REMARK SMILES IDX 80 16 81 17 82 18 86 19 83 20 85 21 84 22 10 23 11 24 12 25
REMARK SMILES IDX 13 26 14 27 15 28 76 29 16 30 75 31 17 32 18 33 19 34 69 35
REMARK SMILES IDX 20 36 74 37 68 38 70 39 21 40 73 41 67 42 66 43 22 45 54 46
REMARK SMILES IDX 34 47 53 48 35 49 38 50 52 51 71 52 36 53 37 54 51 56 72 57
REMARK SMILES IDX 39 58 23 59 24 60 32 61 25 62 26 63 30 64 33 65 27 66 28 67
REMARK SMILES IDX 31 68 29 69 55 70 56 71 64 72 57 73 58 74 62 75 65 76 59 77
REMARK SMILES IDX 60 78 63 79 61 80 40 81 41 82 49 83 42 84 43 85 47 86 50 87
REMARK SMILES IDX 44 88 45 89 48 90 46 91
REMARK H PARENT 4 11 4 12 70 44 38 55
REMARK Flexibility Score: inf
ROOT
ATOM      1  C   UNL A   1      31.767  28.708  27.045  1.00  0.00     0.274 C 
ENDROOT
BRANCH   1   2
ATOM      2  O   UNL A   1      32.264  27.529  26.392  1.00  0.00    -0.457 OA
BRANCH   2   3
ATOM      3  C   UNL A   1      31.347  26.681  25.862  1.00  0.00     0.368 C 
ATOM      4  O   UNL A   1      30.345  26.313  26.466  1.00  0.00    -0.245 OA
BRANCH   3   5
ATOM      5  C   UNL A   1      31.742  26.196  24.427  1.00  0.00     0.195 C 
ATOM      6  C   UNL A   1      32.524  27.289  23.689  1.00  0.00     0.082 C 
ATOM      7  C   UNL A   1      30.516  26.050  23.478  1.00  0.00     0.096 C 
ATOM      8  C   UNL A   1      31.457  28.295  23.287  1.00  0.00     0.022 C 
ATOM      9  C   UNL A   1      30.247  27.455  22.876  1.00  0.00     0.060 C 
BRANCH   5  10
ATOM     10  N   UNL A   1      32.487  24.901  24.456  1.00  0.00    -0.330 N 
ATOM     11  H   UNL A   1      32.638  24.668  25.438  1.00  0.00     0.347 HD
ATOM     12  H   UNL A   1      31.892  24.269  23.921  1.00  0.00     0.347 HD
BRANCH  10  13
ATOM     13  C   UNL A   1      33.795  24.807  23.784  1.00  0.00     0.176 C 
ATOM     14  C   UNL A   1      34.877  24.600  24.855  1.00  0.00     0.075 C 
ATOM     15  C   UNL A   1      33.959  23.671  22.774  1.00  0.00     0.075 C 
ENDBRANCH  10  13
ENDBRANCH   5  10
BRANCH   9  16
ATOM     16  S   UNL A   1      28.595  28.098  23.369  1.00  0.00    -0.103 SA
BRANCH  16  17
ATOM     17  C   UNL A   1      28.527  29.772  22.769  1.00  0.00     0.096 A 
ATOM     18  C   UNL A   1      28.711  30.895  23.565  1.00  0.00     0.035 A 
ATOM     19  N   UNL A   1      28.293  29.875  21.439  1.00  0.00    -0.250 NA
ATOM     20  C   UNL A   1      28.593  32.163  22.994  1.00  0.00     0.004 A 
ATOM     21  C   UNL A   1      28.224  31.112  20.899  1.00  0.00     0.112 A 
ATOM     22  C   UNL A   1      28.348  32.276  21.632  1.00  0.00     0.020 A 
ENDBRANCH  16  17
ENDBRANCH   9  16
ENDBRANCH   3   5
ENDBRANCH   2   3
ENDBRANCH   1   2
BRANCH   1  23
ATOM     23  C   UNL A   1      32.758  29.852  26.845  1.00  0.00     0.275 C 
BRANCH  23  24
ATOM     24  O   UNL A   1      34.059  29.508  27.361  1.00  0.00    -0.458 OA
BRANCH  24  25
ATOM     25  C   UNL A   1      34.687  30.495  28.053  1.00  0.00     0.338 C 
ATOM     26  O   UNL A   1      34.226  31.568  28.393  1.00  0.00    -0.246 OA
BRANCH  25  27
ATOM     27  C   UNL A   1      36.043  30.052  28.432  1.00  0.00     0.060 A 
ATOM     28  C   UNL A   1      37.062  30.142  27.479  1.00  0.00     0.016 A 
ATOM     29  C   UNL A   1      36.311  29.516  29.694  1.00  0.00     0.016 A 
ATOM     30  C   UNL A   1      38.361  29.746  27.804  1.00  0.00     0.010 A 
ATOM     31  C   UNL A   1      37.610  29.104  30.013  1.00  0.00     0.010 A 
ATOM     32  C   UNL A   1      38.648  29.237  29.079  1.00  0.00    -0.014 A 
BRANCH  32  33
ATOM     33  C   UNL A   1      40.024  28.792  29.411  1.00  0.00     0.031 A 
ATOM     34  C   UNL A   1      40.884  29.660  30.280  1.00  0.00     0.074 A 
ATOM     35  C   UNL A   1      40.501  27.622  28.947  1.00  0.00     0.049 A 
ATOM     36  N   UNL A   1      42.128  29.490  30.651  1.00  0.00    -0.248 NA
ATOM     37  C   UNL A   1      40.260  30.886  30.799  1.00  0.00     0.031 C 
ATOM     38  C   UNL A   1      39.748  26.668  28.138  1.00  0.00     0.029 A 
ATOM     39  N   UNL A   1      41.738  27.036  29.090  1.00  0.00    -0.354 N 
ATOM     40  C   UNL A   1      42.436  30.586  31.443  1.00  0.00     0.074 A 
ATOM     41  C   UNL A   1      41.251  31.416  31.499  1.00  0.00     0.031 C 
ATOM     42  C   UNL A   1      40.531  25.611  27.863  1.00  0.00     0.029 A 
ATOM     43  C   UNL A   1      41.862  25.839  28.424  1.00  0.00     0.049 A 
ATOM     44  H   UNL A   1      42.465  27.436  29.619  1.00  0.00     0.167 HD
ATOM     45  C   UNL A   1      43.607  30.883  32.052  1.00  0.00     0.037 A 
ATOM     46  C   UNL A   1      42.935  25.041  28.259  1.00  0.00     0.037 A 
ATOM     47  C   UNL A   1      44.801  30.087  31.949  1.00  0.00     0.049 A 
ATOM     48  C   UNL A   1      44.258  25.454  28.860  1.00  0.00     0.074 A 
ATOM     49  C   UNL A   1      46.045  30.322  32.508  1.00  0.00     0.029 A 
ATOM     50  N   UNL A   1      44.907  28.913  31.218  1.00  0.00    -0.354 N 
ATOM     51  N   UNL A   1      44.540  26.483  29.620  1.00  0.00    -0.248 NA
ATOM     52  C   UNL A   1      45.420  24.602  28.559  1.00  0.00     0.031 C 
ATOM     53  C   UNL A   1      46.919  29.328  32.061  1.00  0.00     0.029 A 
ATOM     54  C   UNL A   1      46.206  28.432  31.280  1.00  0.00     0.049 A 
ATOM     55  H   UNL A   1      44.168  28.484  30.727  1.00  0.00     0.167 HD
ATOM     56  C   UNL A   1      45.897  26.393  29.904  1.00  0.00     0.074 A 
ATOM     57  C   UNL A   1      46.382  25.197  29.253  1.00  0.00     0.031 C 
ATOM     58  C   UNL A   1      46.673  27.232  30.633  1.00  0.00     0.037 A 
BRANCH  45  59
ATOM     59  C   UNL A   1      43.666  32.165  32.827  1.00  0.00     0.064 A 
ATOM     60  C   UNL A   1      44.028  33.378  32.223  1.00  0.00     0.173 A 
ATOM     61  C   UNL A   1      43.351  32.179  34.195  1.00  0.00     0.173 A 
ATOM     62  F   UNL A   1      44.355  33.414  30.922  1.00  0.00    -0.203 F 
ATOM     63  C   UNL A   1      44.104  34.552  32.968  1.00  0.00     0.198 A 
ATOM     64  C   UNL A   1      43.399  33.360  34.928  1.00  0.00     0.198 A 
ATOM     65  F   UNL A   1      42.999  31.046  34.820  1.00  0.00    -0.203 F 
ATOM     66  F   UNL A   1      44.506  35.690  32.383  1.00  0.00    -0.200 F 
ATOM     67  C   UNL A   1      43.784  34.543  34.318  1.00  0.00     0.200 A 
ATOM     68  F   UNL A   1      43.079  33.352  36.230  1.00  0.00    -0.200 F 
ATOM     69  F   UNL A   1      43.857  35.674  35.032  1.00  0.00    -0.200 F 
ENDBRANCH  45  59
BRANCH  46  70
ATOM     70  C   UNL A   1      42.837  23.793  27.450  1.00  0.00     0.064 A 
ATOM     71  C   UNL A   1      42.421  22.584  28.028  1.00  0.00     0.173 A 
ATOM     72  C   UNL A   1      43.205  23.768  26.096  1.00  0.00     0.173 A 
ATOM     73  F   UNL A   1      42.089  22.542  29.327  1.00  0.00    -0.203 F 
ATOM     74  C   UNL A   1      42.402  21.399  27.292  1.00  0.00     0.198 A 
ATOM     75  C   UNL A   1      43.153  22.591  25.352  1.00  0.00     0.198 A 
ATOM     76  F   UNL A   1      43.623  24.890  25.493  1.00  0.00    -0.203 F 
ATOM     77  F   UNL A   1      42.063  20.248  27.888  1.00  0.00    -0.200 F 
ATOM     78  C   UNL A   1      42.762  21.404  25.954  1.00  0.00     0.200 A 
ATOM     79  F   UNL A   1      43.492  22.604  24.056  1.00  0.00    -0.200 F 
ATOM     80  F   UNL A   1      42.747  20.265  25.247  1.00  0.00    -0.200 F 
ENDBRANCH  46  70
BRANCH  58  81
ATOM     81  C   UNL A   1      48.125  26.877  30.798  1.00  0.00     0.064 A 
ATOM     82  C   UNL A   1      49.117  27.414  29.965  1.00  0.00     0.173 A 
ATOM     83  C   UNL A   1      48.535  26.043  31.851  1.00  0.00     0.173 A 
ATOM     84  F   UNL A   1      48.779  28.205  28.935  1.00  0.00    -0.203 F 
ATOM     85  C   UNL A   1      50.462  27.118  30.170  1.00  0.00     0.198 A 
ATOM     86  C   UNL A   1      49.883  25.776  32.073  1.00  0.00     0.198 A 
ATOM     87  F   UNL A   1      47.627  25.508  32.683  1.00  0.00    -0.203 F 
ATOM     88  F   UNL A   1      51.390  27.613  29.338  1.00  0.00    -0.200 F 
ATOM     89  C   UNL A   1      50.845  26.310  31.230  1.00  0.00     0.200 A 
ATOM     90  F   UNL A   1      50.251  25.009  33.109  1.00  0.00    -0.200 F 
ATOM     91  F   UNL A   1      52.142  26.042  31.437  1.00  0.00    -0.200 F 
ENDBRANCH  58  81
ENDBRANCH  32  33
ENDBRANCH  25  27
ENDBRANCH  24  25
ENDBRANCH  23  24
ENDBRANCH   1  23
TORSDOF 15
ENDMDL
MODEL 3
REMARK VINA RESULT:     -11.2      5.021     10.360
REMARK SMILES CC(C)[NH2+][C@@]1(C(=O)OCCOC(=O)c2ccc(-c3c4nc(c(-c5c(F)c(F)c(F)c(F)c5F)c5ccc([nH]5)c(-c5c(F)c(F)c(F)c(F)c5F)c5nc(c(-c6c(F)c(F)c(F)c(F)c6F)c6ccc3[nH]6)C=C5)C=C4)cc2)CC[C@H](Sc2ccccn2)C1
REMARK SMILES IDX 9 1 8 2 6 3 7 4 5 5 77 6 87 7 78 8 79 9 4 10 2 13 1 14 3 15
REMARK SMILES IDX 80 16 81 17 82 18 86 19 83 20 85 21 84 22 10 23 11 24 12 25
REMARK SMILES IDX 13 26 14 27 15 28 76 29 16 30 75 31 17 32 18 33 19 34 69 35
REMARK SMILES IDX 20 36 74 37 68 38 70 39 21 40 73 41 67 42 66 43 22 45 54 46
REMARK SMILES IDX 34 47 53 48 35 49 38 50 52 51 71 52 36 53 37 54 51 56 72 57
REMARK SMILES IDX 39 58 23 59 24 60 32 61 25 62 26 63 30 64 33 65 27 66 28 67
REMARK SMILES IDX 31 68 29 69 55 70 56 71 64 72 57 73 58 74 62 75 65 76 59 77
REMARK SMILES IDX 60 78 63 79 61 80 40 81 41 82 49 83 42 84 43 85 47 86 50 87
REMARK SMILES IDX 44 88 45 89 48 90 46 91
REMARK H PARENT 4 11 4 12 70 44 38 55
REMARK Flexibility Score: inf
ROOT
ATOM      1  C   UNL A   1      36.597  22.404  23.725  1.00  0.00     0.274 C 
ENDROOT
BRANCH   1   2
ATOM      2  O   UNL A   1      35.546  23.214  24.276  1.00  0.00    -0.457 OA
BRANCH   2   3
ATOM      3  C   UNL A   1      34.386  23.283  23.578  1.00  0.00     0.368 C 
ATOM      4  O   UNL A   1      34.339  23.291  22.352  1.00  0.00    -0.245 OA
BRANCH   3   5
ATOM      5  C   UNL A   1      33.134  23.401  24.512  1.00  0.00     0.195 C 
ATOM      6  C   UNL A   1      33.431  22.785  25.884  1.00  0.00     0.082 C 
ATOM      7  C   UNL A   1      31.952  22.494  24.056  1.00  0.00     0.096 C 
ATOM      8  C   UNL A   1      33.370  21.286  25.634  1.00  0.00     0.022 C 
ATOM      9  C   UNL A   1      32.209  21.087  24.658  1.00  0.00     0.060 C 
BRANCH   5  10
ATOM     10  N   UNL A   1      32.648  24.808  24.625  1.00  0.00    -0.330 N 
ATOM     11  H   UNL A   1      33.412  25.413  24.323  1.00  0.00     0.347 HD
ATOM     12  H   UNL A   1      31.802  24.819  24.054  1.00  0.00     0.347 HD
BRANCH  10  13
ATOM     13  C   UNL A   1      32.193  25.310  25.935  1.00  0.00     0.176 C 
ATOM     14  C   UNL A   1      33.060  26.518  26.318  1.00  0.00     0.075 C 
ATOM     15  C   UNL A   1      30.738  25.774  26.015  1.00  0.00     0.075 C 
ENDBRANCH  10  13
ENDBRANCH   5  10
BRANCH   9  16
ATOM     16  S   UNL A   1      32.447  19.821  23.345  1.00  0.00    -0.103 SA
BRANCH  16  17
ATOM     17  C   UNL A   1      33.023  18.359  24.180  1.00  0.00     0.096 A 
ATOM     18  C   UNL A   1      34.296  17.826  24.032  1.00  0.00     0.035 A 
ATOM     19  N   UNL A   1      32.109  17.796  25.006  1.00  0.00    -0.250 NA
ATOM     20  C   UNL A   1      34.625  16.648  24.705  1.00  0.00     0.004 A 
ATOM     21  C   UNL A   1      32.462  16.679  25.679  1.00  0.00     0.112 A 
ATOM     22  C   UNL A   1      33.691  16.062  25.550  1.00  0.00     0.020 A 
ENDBRANCH  16  17
ENDBRANCH   9  16
ENDBRANCH   3   5
ENDBRANCH   2   3
ENDBRANCH   1   2
BRANCH   1  23
ATOM     23  C   UNL A   1      36.934  21.279  24.700  1.00  0.00     0.275 C 
BRANCH  23  24
ATOM     24  O   UNL A   1      37.488  21.802  25.924  1.00  0.00    -0.458 OA
BRANCH  24  25
ATOM     25  C   UNL A   1      38.802  21.523  26.130  1.00  0.00     0.338 C 
ATOM     26  O   UNL A   1      39.359  20.449  25.999  1.00  0.00    -0.246 OA
BRANCH  25  27
ATOM     27  C   UNL A   1      39.526  22.763  26.473  1.00  0.00     0.060 A 
ATOM     28  C   UNL A   1      40.614  22.676  27.346  1.00  0.00     0.016 A 
ATOM     29  C   UNL A   1      39.124  24.005  25.977  1.00  0.00     0.016 A 
ATOM     30  C   UNL A   1      41.334  23.825  27.683  1.00  0.00     0.010 A 
ATOM     31  C   UNL A   1      39.836  25.158  26.328  1.00  0.00     0.010 A 
ATOM     32  C   UNL A   1      40.958  25.072  27.165  1.00  0.00    -0.014 A 
BRANCH  32  33
ATOM     33  C   UNL A   1      41.710  26.295  27.547  1.00  0.00     0.031 A 
ATOM     34  C   UNL A   1      41.026  27.346  28.368  1.00  0.00     0.074 A 
ATOM     35  C   UNL A   1      42.991  26.462  27.171  1.00  0.00     0.049 A 
ATOM     36  N   UNL A   1      41.476  28.509  28.768  1.00  0.00    -0.248 NA
ATOM     37  C   UNL A   1      39.650  27.051  28.793  1.00  0.00     0.031 C 
ATOM     38  C   UNL A   1      43.780  25.491  26.417  1.00  0.00     0.029 A 
ATOM     39  N   UNL A   1      43.857  27.512  27.371  1.00  0.00    -0.354 N 
ATOM     40  C   UNL A   1      40.440  29.084  29.488  1.00  0.00     0.074 A 
ATOM     41  C   UNL A   1      39.338  28.145  29.471  1.00  0.00     0.031 C 
ATOM     42  C   UNL A   1      45.016  25.984  26.226  1.00  0.00     0.029 A 
ATOM     43  C   UNL A   1      45.089  27.330  26.790  1.00  0.00     0.049 A 
ATOM     44  H   UNL A   1      43.616  28.318  27.883  1.00  0.00     0.167 HD
ATOM     45  C   UNL A   1      40.404  30.294  30.094  1.00  0.00     0.037 A 
ATOM     46  C   UNL A   1      46.141  28.169  26.695  1.00  0.00     0.037 A 
ATOM     47  C   UNL A   1      41.479  31.250  30.062  1.00  0.00     0.049 A 
ATOM     48  C   UNL A   1      46.032  29.555  27.287  1.00  0.00     0.074 A 
ATOM     49  C   UNL A   1      41.524  32.514  30.623  1.00  0.00     0.029 A 
ATOM     50  N   UNL A   1      42.690  31.056  29.414  1.00  0.00    -0.354 N 
ATOM     51  N   UNL A   1      45.055  30.087  27.980  1.00  0.00    -0.248 NA
ATOM     52  C   UNL A   1      47.165  30.466  27.062  1.00  0.00     0.031 C 
ATOM     53  C   UNL A   1      42.734  33.111  30.257  1.00  0.00     0.029 A 
ATOM     54  C   UNL A   1      43.475  32.193  29.528  1.00  0.00     0.049 A 
ATOM     55  H   UNL A   1      42.953  30.232  28.942  1.00  0.00     0.167 HD
ATOM     56  C   UNL A   1      45.462  31.380  28.289  1.00  0.00     0.074 A 
ATOM     57  C   UNL A   1      46.784  31.547  27.727  1.00  0.00     0.031 C 
ATOM     58  C   UNL A   1      44.795  32.343  28.971  1.00  0.00     0.037 A 
BRANCH  45  59
ATOM     59  C   UNL A   1      39.127  30.675  30.780  1.00  0.00     0.064 A 
ATOM     60  C   UNL A   1      38.934  30.464  32.153  1.00  0.00     0.173 A 
ATOM     61  C   UNL A   1      38.081  31.263  30.051  1.00  0.00     0.173 A 
ATOM     62  F   UNL A   1      39.897  29.888  32.890  1.00  0.00    -0.203 F 
ATOM     63  C   UNL A   1      37.729  30.798  32.765  1.00  0.00     0.198 A 
ATOM     64  C   UNL A   1      36.891  31.625  30.673  1.00  0.00     0.198 A 
ATOM     65  F   UNL A   1      38.216  31.487  28.736  1.00  0.00    -0.203 F 
ATOM     66  F   UNL A   1      37.545  30.537  34.067  1.00  0.00    -0.200 F 
ATOM     67  C   UNL A   1      36.711  31.384  32.026  1.00  0.00     0.200 A 
ATOM     68  F   UNL A   1      35.912  32.199  29.959  1.00  0.00    -0.200 F 
ATOM     69  F   UNL A   1      35.552  31.706  32.617  1.00  0.00    -0.200 F 
ENDBRANCH  45  59
BRANCH  46  70
ATOM     70  C   UNL A   1      47.378  27.758  25.971  1.00  0.00     0.064 A 
ATOM     71  C   UNL A   1      47.437  27.772  24.570  1.00  0.00     0.173 A 
ATOM     72  C   UNL A   1      48.508  27.293  26.662  1.00  0.00     0.173 A 
ATOM     73  F   UNL A   1      46.374  28.176  23.858  1.00  0.00    -0.203 F 
ATOM     74  C   UNL A   1      48.566  27.315  23.889  1.00  0.00     0.198 A 
ATOM     75  C   UNL A   1      49.648  26.870  25.982  1.00  0.00     0.198 A 
ATOM     76  F   UNL A   1      48.503  27.245  28.001  1.00  0.00    -0.203 F 
ATOM     77  F   UNL A   1      48.569  27.280  22.550  1.00  0.00    -0.200 F 
ATOM     78  C   UNL A   1      49.672  26.870  24.596  1.00  0.00     0.200 A 
ATOM     79  F   UNL A   1      50.718  26.450  26.671  1.00  0.00    -0.200 F 
ATOM     80  F   UNL A   1      50.756  26.428  23.942  1.00  0.00    -0.200 F 
ENDBRANCH  46  70
BRANCH  58  81
ATOM     81  C   UNL A   1      45.490  33.660  29.181  1.00  0.00     0.064 A 
ATOM     82  C   UNL A   1      46.342  33.880  30.273  1.00  0.00     0.173 A 
ATOM     83  C   UNL A   1      45.356  34.690  28.236  1.00  0.00     0.173 A 
ATOM     84  F   UNL A   1      46.495  32.935  31.213  1.00  0.00    -0.203 F 
ATOM     85  C   UNL A   1      47.022  35.087  30.419  1.00  0.00     0.198 A 
ATOM     86  C   UNL A   1      46.063  35.882  28.368  1.00  0.00     0.198 A 
ATOM     87  F   UNL A   1      44.559  34.529  27.169  1.00  0.00    -0.203 F 
ATOM     88  F   UNL A   1      47.802  35.290  31.490  1.00  0.00    -0.200 F 
ATOM     89  C   UNL A   1      46.892  36.082  29.461  1.00  0.00     0.200 A 
ATOM     90  F   UNL A   1      45.948  36.834  27.432  1.00  0.00    -0.200 F 
ATOM     91  F   UNL A   1      47.562  37.235  29.594  1.00  0.00    -0.200 F 
ENDBRANCH  58  81
ENDBRANCH  32  33
ENDBRANCH  25  27
ENDBRANCH  24  25
ENDBRANCH  23  24
ENDBRANCH   1  23
TORSDOF 15
ENDMDL
