MODEL 1
REMARK VINA RESULT:     -12.5      0.000      0.000
REMARK SMILES C[C@@H](C(=O)OCCOC(=O)c1ccc(-c2c3nc(c(-c4c(F)c(F)c(F)c(F)c4F)c4ccc([nH]4)c(-c4c(F)c(F)c(F)c(F)c4F)c4nc(c(-c5c(F)c(F)c(F)c(F)c5F)c5ccc2[nH]5)C=C4)C=C3)cc1)c1ccc(-c2ccccc2)c(F)c1
REMARK SMILES IDX 6 1 5 2 3 3 4 4 2 5 1 6 74 7 75 8 86 9 76 10 84 11 77 12
REMARK SMILES IDX 85 13 78 14 79 15 83 16 80 17 82 18 81 19 7 20 8 21 9 22
REMARK SMILES IDX 10 23 11 24 12 25 73 26 13 27 72 28 14 29 15 30 16 31 66 32
REMARK SMILES IDX 17 33 71 34 65 35 67 36 18 37 70 38 64 39 63 40 19 42 51 43
REMARK SMILES IDX 31 44 50 45 32 46 35 47 49 48 68 49 33 50 34 51 48 53 69 54
REMARK SMILES IDX 36 55 20 56 21 57 29 58 22 59 23 60 27 61 30 62 24 63 25 64
REMARK SMILES IDX 28 65 26 66 52 67 53 68 61 69 54 70 55 71 59 72 62 73 56 74
REMARK SMILES IDX 57 75 60 76 58 77 37 78 38 79 46 80 39 81 40 82 44 83 47 84
REMARK SMILES IDX 41 85 42 86 45 87 43 88
REMARK H PARENT 67 41 35 52
REMARK Flexibility Score: inf
ROOT
ATOM      1  C   UNL A   1      31.460  28.940  24.321  1.00  0.00     0.274 C 
ENDROOT
BRANCH   1   2
ATOM      2  O   UNL A   1      32.102  27.650  24.261  1.00  0.00    -0.462 OA
BRANCH   2   3
ATOM      3  C   UNL A   1      31.404  26.590  24.754  1.00  0.00     0.313 C 
ATOM      4  O   UNL A   1      30.225  26.367  24.496  1.00  0.00    -0.252 OA
BRANCH   3   5
ATOM      5  C   UNL A   1      32.238  25.728  25.714  1.00  0.00     0.126 C 
ATOM      6  C   UNL A   1      33.608  26.336  26.034  1.00  0.00     0.025 C 
BRANCH   5   7
ATOM      7  C   UNL A   1      32.317  24.279  25.234  1.00  0.00    -0.031 A 
ATOM      8  C   UNL A   1      31.609  23.235  25.839  1.00  0.00     0.005 A 
ATOM      9  C   UNL A   1      33.179  23.947  24.178  1.00  0.00     0.044 A 
ATOM     10  C   UNL A   1      31.778  21.904  25.418  1.00  0.00     0.012 A 
ATOM     11  C   UNL A   1      33.339  22.619  23.765  1.00  0.00     0.131 A 
ATOM     12  C   UNL A   1      32.666  21.553  24.383  1.00  0.00     0.017 A 
ATOM     13  F   UNL A   1      34.193  22.396  22.753  1.00  0.00    -0.206 F 
BRANCH  12  14
ATOM     14  C   UNL A   1      32.915  20.127  24.039  1.00  0.00    -0.015 A 
ATOM     15  C   UNL A   1      33.963  19.394  24.632  1.00  0.00     0.009 A 
ATOM     16  C   UNL A   1      32.154  19.456  23.063  1.00  0.00     0.009 A 
ATOM     17  C   UNL A   1      34.250  18.078  24.251  1.00  0.00     0.001 A 
ATOM     18  C   UNL A   1      32.424  18.132  22.696  1.00  0.00     0.001 A 
ATOM     19  C   UNL A   1      33.482  17.448  23.280  1.00  0.00     0.000 A 
ENDBRANCH  12  14
ENDBRANCH   5   7
ENDBRANCH   3   5
ENDBRANCH   2   3
ENDBRANCH   1   2
BRANCH   1  20
ATOM     20  C   UNL A   1      31.656  29.561  25.701  1.00  0.00     0.275 C 
BRANCH  20  21
ATOM     21  O   UNL A   1      32.880  30.315  25.715  1.00  0.00    -0.458 OA
BRANCH  21  22
ATOM     22  C   UNL A   1      33.094  31.087  26.801  1.00  0.00     0.338 C 
ATOM     23  O   UNL A   1      32.344  31.924  27.283  1.00  0.00    -0.246 OA
BRANCH  22  24
ATOM     24  C   UNL A   1      34.415  30.780  27.371  1.00  0.00     0.060 A 
ATOM     25  C   UNL A   1      34.813  29.455  27.529  1.00  0.00     0.016 A 
ATOM     26  C   UNL A   1      35.214  31.815  27.861  1.00  0.00     0.016 A 
ATOM     27  C   UNL A   1      35.961  29.162  28.262  1.00  0.00     0.010 A 
ATOM     28  C   UNL A   1      36.409  31.515  28.526  1.00  0.00     0.010 A 
ATOM     29  C   UNL A   1      36.772  30.182  28.782  1.00  0.00    -0.014 A 
BRANCH  29  30
ATOM     30  C   UNL A   1      37.941  29.847  29.650  1.00  0.00     0.031 A 
ATOM     31  C   UNL A   1      39.123  29.102  29.082  1.00  0.00     0.074 A 
ATOM     32  C   UNL A   1      37.986  30.258  30.933  1.00  0.00     0.049 A 
ATOM     33  N   UNL A   1      40.158  28.588  29.701  1.00  0.00    -0.248 NA
ATOM     34  C   UNL A   1      39.135  28.880  27.627  1.00  0.00     0.031 C 
ATOM     35  C   UNL A   1      36.955  31.044  31.609  1.00  0.00     0.029 A 
ATOM     36  N   UNL A   1      38.967  30.116  31.884  1.00  0.00    -0.354 N 
ATOM     37  C   UNL A   1      40.884  27.908  28.733  1.00  0.00     0.074 A 
ATOM     38  C   UNL A   1      40.193  28.097  27.476  1.00  0.00     0.031 C 
ATOM     39  C   UNL A   1      37.408  31.416  32.816  1.00  0.00     0.029 A 
ATOM     40  C   UNL A   1      38.720  30.817  33.038  1.00  0.00     0.049 A 
ATOM     41  H   UNL A   1      39.772  29.564  31.750  1.00  0.00     0.167 HD
ATOM     42  C   UNL A   1      42.014  27.176  28.886  1.00  0.00     0.037 A 
ATOM     43  C   UNL A   1      39.468  30.966  34.147  1.00  0.00     0.037 A 
ATOM     44  C   UNL A   1      42.759  27.076  30.114  1.00  0.00     0.049 A 
ATOM     45  C   UNL A   1      40.762  30.213  34.271  1.00  0.00     0.074 A 
ATOM     46  C   UNL A   1      43.897  26.333  30.380  1.00  0.00     0.029 A 
ATOM     47  N   UNL A   1      42.462  27.780  31.271  1.00  0.00    -0.354 N 
ATOM     48  N   UNL A   1      41.374  29.466  33.387  1.00  0.00    -0.248 NA
ATOM     49  C   UNL A   1      41.448  30.293  35.570  1.00  0.00     0.031 C 
ATOM     50  C   UNL A   1      44.283  26.580  31.702  1.00  0.00     0.029 A 
ATOM     51  C   UNL A   1      43.401  27.497  32.250  1.00  0.00     0.049 A 
ATOM     52  H   UNL A   1      41.696  28.390  31.381  1.00  0.00     0.167 HD
ATOM     53  C   UNL A   1      42.499  28.964  34.027  1.00  0.00     0.074 A 
ATOM     54  C   UNL A   1      42.518  29.540  35.356  1.00  0.00     0.031 C 
ATOM     55  C   UNL A   1      43.412  28.077  33.565  1.00  0.00     0.037 A 
BRANCH  42  56
ATOM     56  C   UNL A   1      42.491  26.375  27.712  1.00  0.00     0.064 A 
ATOM     57  C   UNL A   1      43.476  26.848  26.835  1.00  0.00     0.173 A 
ATOM     58  C   UNL A   1      41.978  25.086  27.494  1.00  0.00     0.173 A 
ATOM     59  F   UNL A   1      43.984  28.080  26.991  1.00  0.00    -0.203 F 
ATOM     60  C   UNL A   1      43.919  26.064  25.771  1.00  0.00     0.198 A 
ATOM     61  C   UNL A   1      42.440  24.297  26.445  1.00  0.00     0.198 A 
ATOM     62  F   UNL A   1      41.038  24.586  28.310  1.00  0.00    -0.203 F 
ATOM     63  F   UNL A   1      44.836  26.547  24.923  1.00  0.00    -0.200 F 
ATOM     64  C   UNL A   1      43.407  24.788  25.582  1.00  0.00     0.200 A 
ATOM     65  F   UNL A   1      41.952  23.061  26.271  1.00  0.00    -0.200 F 
ATOM     66  F   UNL A   1      43.843  24.033  24.564  1.00  0.00    -0.200 F 
ENDBRANCH  42  56
BRANCH  43  67
ATOM     67  C   UNL A   1      39.018  31.879  35.230  1.00  0.00     0.064 A 
ATOM     68  C   UNL A   1      38.282  31.379  36.313  1.00  0.00     0.173 A 
ATOM     69  C   UNL A   1      39.314  33.249  35.217  1.00  0.00     0.173 A 
ATOM     70  F   UNL A   1      37.955  30.078  36.355  1.00  0.00    -0.203 F 
ATOM     71  C   UNL A   1      37.856  32.216  37.341  1.00  0.00     0.198 A 
ATOM     72  C   UNL A   1      38.912  34.080  36.260  1.00  0.00     0.198 A 
ATOM     73  F   UNL A   1      40.011  33.776  34.200  1.00  0.00    -0.203 F 
ATOM     74  F   UNL A   1      37.122  31.719  38.347  1.00  0.00    -0.200 F 
ATOM     75  C   UNL A   1      38.179  33.564  37.318  1.00  0.00     0.200 A 
ATOM     76  F   UNL A   1      39.237  35.380  36.241  1.00  0.00    -0.200 F 
ATOM     77  F   UNL A   1      37.778  34.368  38.312  1.00  0.00    -0.200 F 
ENDBRANCH  43  67
BRANCH  55  78
ATOM     78  C   UNL A   1      44.500  27.662  34.507  1.00  0.00     0.064 A 
ATOM     79  C   UNL A   1      44.351  26.542  35.337  1.00  0.00     0.173 A 
ATOM     80  C   UNL A   1      45.714  28.361  34.553  1.00  0.00     0.173 A 
ATOM     81  F   UNL A   1      43.202  25.849  35.335  1.00  0.00    -0.203 F 
ATOM     82  C   UNL A   1      45.373  26.146  36.194  1.00  0.00     0.198 A 
ATOM     83  C   UNL A   1      46.742  27.952  35.399  1.00  0.00     0.198 A 
ATOM     84  F   UNL A   1      45.905  29.437  33.774  1.00  0.00    -0.203 F 
ATOM     85  F   UNL A   1      45.196  25.093  37.004  1.00  0.00    -0.200 F 
ATOM     86  C   UNL A   1      46.569  26.848  36.221  1.00  0.00     0.200 A 
ATOM     87  F   UNL A   1      47.901  28.626  35.419  1.00  0.00    -0.200 F 
ATOM     88  F   UNL A   1      47.553  26.465  37.046  1.00  0.00    -0.200 F 
ENDBRANCH  55  78
ENDBRANCH  29  30
ENDBRANCH  22  24
ENDBRANCH  21  22
ENDBRANCH  20  21
ENDBRANCH   1  20
TORSDOF 13
ENDMDL
MODEL 2
REMARK VINA RESULT:     -12.5      2.028      4.259
REMARK SMILES C[C@@H](C(=O)OCCOC(=O)c1ccc(-c2c3nc(c(-c4c(F)c(F)c(F)c(F)c4F)c4ccc([nH]4)c(-c4c(F)c(F)c(F)c(F)c4F)c4nc(c(-c5c(F)c(F)c(F)c(F)c5F)c5ccc2[nH]5)C=C4)C=C3)cc1)c1ccc(-c2ccccc2)c(F)c1
REMARK SMILES IDX 6 1 5 2 3 3 4 4 2 5 1 6 74 7 75 8 86 9 76 10 84 11 77 12
REMARK SMILES IDX 85 13 78 14 79 15 83 16 80 17 82 18 81 19 7 20 8 21 9 22
REMARK SMILES IDX 10 23 11 24 12 25 73 26 13 27 72 28 14 29 15 30 16 31 66 32
REMARK SMILES IDX 17 33 71 34 65 35 67 36 18 37 70 38 64 39 63 40 19 42 51 43
REMARK SMILES IDX 31 44 50 45 32 46 35 47 49 48 68 49 33 50 34 51 48 53 69 54
REMARK SMILES IDX 36 55 20 56 21 57 29 58 22 59 23 60 27 61 30 62 24 63 25 64
REMARK SMILES IDX 28 65 26 66 52 67 53 68 61 69 54 70 55 71 59 72 62 73 56 74
REMARK SMILES IDX 57 75 60 76 58 77 37 78 38 79 46 80 39 81 40 82 44 83 47 84
REMARK SMILES IDX 41 85 42 86 45 87 43 88
REMARK H PARENT 67 41 35 52
REMARK Flexibility Score: inf
ROOT
ATOM      1  C   UNL A   1      31.923  27.430  26.804  1.00  0.00     0.274 C 
ENDROOT
BRANCH   1   2
ATOM      2  O   UNL A   1      30.725  26.653  26.598  1.00  0.00    -0.462 OA
BRANCH   2   3
ATOM      3  C   UNL A   1      30.889  25.357  26.215  1.00  0.00     0.313 C 
ATOM      4  O   UNL A   1      31.473  24.513  26.887  1.00  0.00    -0.252 OA
BRANCH   3   5
ATOM      5  C   UNL A   1      30.309  25.076  24.820  1.00  0.00     0.126 C 
ATOM      6  C   UNL A   1      31.202  24.169  23.967  1.00  0.00     0.025 C 
BRANCH   5   7
ATOM      7  C   UNL A   1      29.911  26.371  24.112  1.00  0.00    -0.031 A 
ATOM      8  C   UNL A   1      30.844  27.266  23.577  1.00  0.00     0.005 A 
ATOM      9  C   UNL A   1      28.557  26.728  24.033  1.00  0.00     0.044 A 
ATOM     10  C   UNL A   1      30.436  28.486  23.010  1.00  0.00     0.012 A 
ATOM     11  C   UNL A   1      28.160  27.944  23.464  1.00  0.00     0.131 A 
ATOM     12  C   UNL A   1      29.083  28.873  22.956  1.00  0.00     0.017 A 
ATOM     13  F   UNL A   1      26.843  28.205  23.442  1.00  0.00    -0.206 F 
BRANCH  12  14
ATOM     14  C   UNL A   1      28.691  30.220  22.460  1.00  0.00    -0.015 A 
ATOM     15  C   UNL A   1      28.225  30.418  21.145  1.00  0.00     0.009 A 
ATOM     16  C   UNL A   1      28.820  31.370  23.261  1.00  0.00     0.009 A 
ATOM     17  C   UNL A   1      27.932  31.695  20.651  1.00  0.00     0.001 A 
ATOM     18  C   UNL A   1      28.506  32.646  22.778  1.00  0.00     0.001 A 
ATOM     19  C   UNL A   1      28.076  32.810  21.468  1.00  0.00     0.000 A 
ENDBRANCH  12  14
ENDBRANCH   5   7
ENDBRANCH   3   5
ENDBRANCH   2   3
ENDBRANCH   1   2
BRANCH   1  20
ATOM     20  C   UNL A   1      31.568  28.902  26.996  1.00  0.00     0.275 C 
BRANCH  20  21
ATOM     21  O   UNL A   1      32.528  29.718  26.303  1.00  0.00    -0.458 OA
BRANCH  21  22
ATOM     22  C   UNL A   1      32.923  30.843  26.936  1.00  0.00     0.338 C 
ATOM     23  O   UNL A   1      32.297  31.885  27.068  1.00  0.00    -0.246 OA
BRANCH  22  24
ATOM     24  C   UNL A   1      34.276  30.652  27.482  1.00  0.00     0.060 A 
ATOM     25  C   UNL A   1      34.869  29.393  27.442  1.00  0.00     0.016 A 
ATOM     26  C   UNL A   1      34.910  31.705  28.144  1.00  0.00     0.016 A 
ATOM     27  C   UNL A   1      36.049  29.164  28.147  1.00  0.00     0.010 A 
ATOM     28  C   UNL A   1      36.136  31.487  28.782  1.00  0.00     0.010 A 
ATOM     29  C   UNL A   1      36.697  30.200  28.838  1.00  0.00    -0.014 A 
BRANCH  29  30
ATOM     30  C   UNL A   1      37.903  29.912  29.670  1.00  0.00     0.031 A 
ATOM     31  C   UNL A   1      39.097  29.216  29.066  1.00  0.00     0.074 A 
ATOM     32  C   UNL A   1      37.969  30.323  30.952  1.00  0.00     0.049 A 
ATOM     33  N   UNL A   1      40.170  28.744  29.654  1.00  0.00    -0.248 NA
ATOM     34  C   UNL A   1      39.075  28.995  27.611  1.00  0.00     0.031 C 
ATOM     35  C   UNL A   1      36.927  31.066  31.660  1.00  0.00     0.029 A 
ATOM     36  N   UNL A   1      38.983  30.220  31.874  1.00  0.00    -0.354 N 
ATOM     37  C   UNL A   1      40.894  28.094  28.663  1.00  0.00     0.074 A 
ATOM     38  C   UNL A   1      40.160  28.256  27.428  1.00  0.00     0.031 C 
ATOM     39  C   UNL A   1      37.400  31.455  32.853  1.00  0.00     0.029 A 
ATOM     40  C   UNL A   1      38.741  30.910  33.036  1.00  0.00     0.049 A 
ATOM     41  H   UNL A   1      39.805  29.701  31.716  1.00  0.00     0.167 HD
ATOM     42  C   UNL A   1      42.057  27.409  28.783  1.00  0.00     0.037 A 
ATOM     43  C   UNL A   1      39.514  31.088  34.123  1.00  0.00     0.037 A 
ATOM     44  C   UNL A   1      42.841  27.338  29.988  1.00  0.00     0.049 A 
ATOM     45  C   UNL A   1      40.841  30.388  34.208  1.00  0.00     0.074 A 
ATOM     46  C   UNL A   1      44.016  26.642  30.218  1.00  0.00     0.029 A 
ATOM     47  N   UNL A   1      42.550  28.028  31.154  1.00  0.00    -0.354 N 
ATOM     48  N   UNL A   1      41.457  29.667  33.305  1.00  0.00    -0.248 NA
ATOM     49  C   UNL A   1      41.562  30.495  35.486  1.00  0.00     0.031 C 
ATOM     50  C   UNL A   1      44.430  26.903  31.529  1.00  0.00     0.029 A 
ATOM     51  C   UNL A   1      43.528  27.783  32.104  1.00  0.00     0.049 A 
ATOM     52  H   UNL A   1      41.764  28.606  31.288  1.00  0.00     0.167 HD
ATOM     53  C   UNL A   1      42.619  29.211  33.910  1.00  0.00     0.074 A 
ATOM     54  C   UNL A   1      42.654  29.786  35.240  1.00  0.00     0.031 C 
ATOM     55  C   UNL A   1      43.554  28.362  33.420  1.00  0.00     0.037 A 
BRANCH  42  56
ATOM     56  C   UNL A   1      42.532  26.629  27.593  1.00  0.00     0.064 A 
ATOM     57  C   UNL A   1      43.494  27.129  26.707  1.00  0.00     0.173 A 
ATOM     58  C   UNL A   1      42.040  25.333  27.370  1.00  0.00     0.173 A 
ATOM     59  F   UNL A   1      43.982  28.368  26.868  1.00  0.00    -0.203 F 
ATOM     60  C   UNL A   1      43.936  26.364  25.628  1.00  0.00     0.198 A 
ATOM     61  C   UNL A   1      42.501  24.563  26.306  1.00  0.00     0.198 A 
ATOM     62  F   UNL A   1      41.121  24.806  28.194  1.00  0.00    -0.203 F 
ATOM     63  F   UNL A   1      44.831  26.873  24.772  1.00  0.00    -0.200 F 
ATOM     64  C   UNL A   1      43.445  25.081  25.434  1.00  0.00     0.200 A 
ATOM     65  F   UNL A   1      42.033  23.319  26.127  1.00  0.00    -0.200 F 
ATOM     66  F   UNL A   1      43.880  24.344  24.401  1.00  0.00    -0.200 F 
ENDBRANCH  42  56
BRANCH  43  67
ATOM     67  C   UNL A   1      39.060  31.981  35.220  1.00  0.00     0.064 A 
ATOM     68  C   UNL A   1      38.362  31.453  36.315  1.00  0.00     0.173 A 
ATOM     69  C   UNL A   1      39.315  33.359  35.210  1.00  0.00     0.173 A 
ATOM     70  F   UNL A   1      38.074  30.143  36.356  1.00  0.00    -0.203 F 
ATOM     71  C   UNL A   1      37.932  32.272  37.356  1.00  0.00     0.198 A 
ATOM     72  C   UNL A   1      38.910  34.172  36.266  1.00  0.00     0.198 A 
ATOM     73  F   UNL A   1      39.975  33.913  34.182  1.00  0.00    -0.203 F 
ATOM     74  F   UNL A   1      37.234  31.748  38.374  1.00  0.00    -0.200 F 
ATOM     75  C   UNL A   1      38.215  33.629  37.335  1.00  0.00     0.200 A 
ATOM     76  F   UNL A   1      39.196  35.481  36.248  1.00  0.00    -0.200 F 
ATOM     77  F   UNL A   1      37.810  34.415  38.342  1.00  0.00    -0.200 F 
ENDBRANCH  43  67
BRANCH  55  78
ATOM     78  C   UNL A   1      44.685  27.991  34.329  1.00  0.00     0.064 A 
ATOM     79  C   UNL A   1      44.598  26.877  35.175  1.00  0.00     0.173 A 
ATOM     80  C   UNL A   1      45.878  28.727  34.327  1.00  0.00     0.173 A 
ATOM     81  F   UNL A   1      43.471  26.149  35.219  1.00  0.00    -0.203 F 
ATOM     82  C   UNL A   1      45.660  26.521  36.001  1.00  0.00     0.198 A 
ATOM     83  C   UNL A   1      46.945  28.358  35.141  1.00  0.00     0.198 A 
ATOM     84  F   UNL A   1      46.010  29.800  33.531  1.00  0.00    -0.203 F 
ATOM     85  F   UNL A   1      45.542  25.472  36.827  1.00  0.00    -0.200 F 
ATOM     86  C   UNL A   1      46.834  27.259  35.980  1.00  0.00     0.200 A 
ATOM     87  F   UNL A   1      48.083  29.067  35.116  1.00  0.00    -0.200 F 
ATOM     88  F   UNL A   1      47.857  26.915  36.775  1.00  0.00    -0.200 F 
ENDBRANCH  55  78
ENDBRANCH  29  30
ENDBRANCH  22  24
ENDBRANCH  21  22
ENDBRANCH  20  21
ENDBRANCH   1  20
TORSDOF 13
ENDMDL
MODEL 3
REMARK VINA RESULT:     -12.5      5.455     11.912
REMARK SMILES C[C@@H](C(=O)OCCOC(=O)c1ccc(-c2c3nc(c(-c4c(F)c(F)c(F)c(F)c4F)c4ccc([nH]4)c(-c4c(F)c(F)c(F)c(F)c4F)c4nc(c(-c5c(F)c(F)c(F)c(F)c5F)c5ccc2[nH]5)C=C4)C=C3)cc1)c1ccc(-c2ccccc2)c(F)c1
REMARK SMILES IDX 6 1 5 2 3 3 4 4 2 5 1 6 74 7 75 8 86 9 76 10 84 11 77 12
REMARK SMILES IDX 85 13 78 14 79 15 83 16 80 17 82 18 81 19 7 20 8 21 9 22
REMARK SMILES IDX 10 23 11 24 12 25 73 26 13 27 72 28 14 29 15 30 16 31 66 32
REMARK SMILES IDX 17 33 71 34 65 35 67 36 18 37 70 38 64 39 63 40 19 42 51 43
REMARK SMILES IDX 31 44 50 45 32 46 35 47 49 48 68 49 33 50 34 51 48 53 69 54
REMARK SMILES IDX 36 55 20 56 21 57 29 58 22 59 23 60 27 61 30 62 24 63 25 64
REMARK SMILES IDX 28 65 26 66 52 67 53 68 61 69 54 70 55 71 59 72 62 73 56 74
REMARK SMILES IDX 57 75 60 76 58 77 37 78 38 79 46 80 39 81 40 82 44 83 47 84
REMARK SMILES IDX 41 85 42 86 45 87 43 88
REMARK H PARENT 67 41 35 52
REMARK Flexibility Score: inf
ROOT
ATOM      1  C   UNL A   1      42.574  19.781  26.414  1.00  0.00     0.274 C 
ENDROOT
BRANCH   1   2
ATOM      2  O   UNL A   1      43.276  20.158  25.211  1.00  0.00    -0.462 OA
BRANCH   2   3
ATOM      3  C   UNL A   1      43.671  21.457  25.110  1.00  0.00     0.313 C 
ATOM      4  O   UNL A   1      42.898  22.400  24.974  1.00  0.00    -0.252 OA
BRANCH   3   5
ATOM      5  C   UNL A   1      45.200  21.611  25.132  1.00  0.00     0.126 C 
ATOM      6  C   UNL A   1      45.936  20.289  25.374  1.00  0.00     0.025 C 
BRANCH   5   7
ATOM      7  C   UNL A   1      45.633  22.726  26.083  1.00  0.00    -0.031 A 
ATOM      8  C   UNL A   1      46.708  23.581  25.819  1.00  0.00     0.005 A 
ATOM      9  C   UNL A   1      44.973  22.882  27.312  1.00  0.00     0.044 A 
ATOM     10  C   UNL A   1      47.124  24.537  26.762  1.00  0.00     0.012 A 
ATOM     11  C   UNL A   1      45.393  23.838  28.244  1.00  0.00     0.131 A 
ATOM     12  C   UNL A   1      46.493  24.680  28.013  1.00  0.00     0.017 A 
ATOM     13  F   UNL A   1      44.707  23.908  29.396  1.00  0.00    -0.206 F 
BRANCH  12  14
ATOM     14  C   UNL A   1      47.028  25.616  29.038  1.00  0.00    -0.015 A 
ATOM     15  C   UNL A   1      46.238  26.647  29.583  1.00  0.00     0.009 A 
ATOM     16  C   UNL A   1      48.367  25.553  29.471  1.00  0.00     0.009 A 
ATOM     17  C   UNL A   1      46.764  27.579  30.487  1.00  0.00     0.001 A 
ATOM     18  C   UNL A   1      48.889  26.469  30.392  1.00  0.00     0.001 A 
ATOM     19  C   UNL A   1      48.091  27.491  30.890  1.00  0.00     0.000 A 
ENDBRANCH  12  14
ENDBRANCH   5   7
ENDBRANCH   3   5
ENDBRANCH   2   3
ENDBRANCH   1   2
BRANCH   1  20
ATOM     20  C   UNL A   1      41.079  19.656  26.133  1.00  0.00     0.275 C 
BRANCH  20  21
ATOM     21  O   UNL A   1      40.350  20.491  27.048  1.00  0.00    -0.458 OA
BRANCH  21  22
ATOM     22  C   UNL A   1      39.554  21.431  26.496  1.00  0.00     0.338 C 
ATOM     23  O   UNL A   1      38.597  21.259  25.756  1.00  0.00    -0.246 OA
BRANCH  22  24
ATOM     24  C   UNL A   1      40.004  22.767  26.919  1.00  0.00     0.060 A 
ATOM     25  C   UNL A   1      39.476  23.903  26.310  1.00  0.00     0.016 A 
ATOM     26  C   UNL A   1      41.043  22.886  27.844  1.00  0.00     0.016 A 
ATOM     27  C   UNL A   1      40.054  25.147  26.554  1.00  0.00     0.010 A 
ATOM     28  C   UNL A   1      41.564  24.150  28.146  1.00  0.00     0.010 A 
ATOM     29  C   UNL A   1      41.112  25.293  27.464  1.00  0.00    -0.014 A 
BRANCH  29  30
ATOM     30  C   UNL A   1      41.783  26.616  27.635  1.00  0.00     0.031 A 
ATOM     31  C   UNL A   1      41.217  27.639  28.588  1.00  0.00     0.074 A 
ATOM     32  C   UNL A   1      42.933  26.894  26.990  1.00  0.00     0.049 A 
ATOM     33  N   UNL A   1      41.562  28.892  28.763  1.00  0.00    -0.248 NA
ATOM     34  C   UNL A   1      40.099  27.209  29.442  1.00  0.00     0.031 C 
ATOM     35  C   UNL A   1      43.641  25.986  26.088  1.00  0.00     0.029 A 
ATOM     36  N   UNL A   1      43.741  28.004  27.038  1.00  0.00    -0.354 N 
ATOM     37  C   UNL A   1      40.648  29.417  29.668  1.00  0.00     0.074 A 
ATOM     38  C   UNL A   1      39.751  28.343  30.033  1.00  0.00     0.031 C 
ATOM     39  C   UNL A   1      44.828  26.522  25.768  1.00  0.00     0.029 A 
ATOM     40  C   UNL A   1      44.926  27.851  26.362  1.00  0.00     0.049 A 
ATOM     41  H   UNL A   1      43.494  28.830  27.513  1.00  0.00     0.167 HD
ATOM     42  C   UNL A   1      40.558  30.686  30.134  1.00  0.00     0.037 A 
ATOM     43  C   UNL A   1      45.975  28.685  26.239  1.00  0.00     0.037 A 
ATOM     44  C   UNL A   1      41.513  31.726  29.854  1.00  0.00     0.049 A 
ATOM     45  C   UNL A   1      45.896  30.063  26.832  1.00  0.00     0.074 A 
ATOM     46  C   UNL A   1      41.492  33.053  30.252  1.00  0.00     0.029 A 
ATOM     47  N   UNL A   1      42.687  31.541  29.141  1.00  0.00    -0.354 N 
ATOM     48  N   UNL A   1      44.961  30.590  27.582  1.00  0.00    -0.248 NA
ATOM     49  C   UNL A   1      47.007  30.977  26.525  1.00  0.00     0.031 C 
ATOM     50  C   UNL A   1      42.650  33.673  29.770  1.00  0.00     0.029 A 
ATOM     51  C   UNL A   1      43.404  32.726  29.097  1.00  0.00     0.049 A 
ATOM     52  H   UNL A   1      42.970  30.693  28.728  1.00  0.00     0.167 HD
ATOM     53  C   UNL A   1      45.352  31.902  27.812  1.00  0.00     0.074 A 
ATOM     54  C   UNL A   1      46.641  32.074  27.172  1.00  0.00     0.031 C 
ATOM     55  C   UNL A   1      44.685  32.884  28.462  1.00  0.00     0.037 A 
BRANCH  42  56
ATOM     56  C   UNL A   1      39.354  31.044  30.954  1.00  0.00     0.064 A 
ATOM     57  C   UNL A   1      38.176  31.535  30.376  1.00  0.00     0.173 A 
ATOM     58  C   UNL A   1      39.374  30.844  32.343  1.00  0.00     0.173 A 
ATOM     59  F   UNL A   1      38.114  31.759  29.055  1.00  0.00    -0.203 F 
ATOM     60  C   UNL A   1      37.065  31.829  31.164  1.00  0.00     0.198 A 
ATOM     61  C   UNL A   1      38.254  31.116  33.124  1.00  0.00     0.198 A 
ATOM     62  F   UNL A   1      40.477  30.371  32.943  1.00  0.00    -0.203 F 
ATOM     63  F   UNL A   1      35.959  32.330  30.598  1.00  0.00    -0.200 F 
ATOM     64  C   UNL A   1      37.102  31.612  32.534  1.00  0.00     0.200 A 
ATOM     65  F   UNL A   1      38.289  30.895  34.446  1.00  0.00    -0.200 F 
ATOM     66  F   UNL A   1      36.027  31.885  33.288  1.00  0.00    -0.200 F 
ENDBRANCH  42  56
BRANCH  43  67
ATOM     67  C   UNL A   1      47.203  28.236  25.533  1.00  0.00     0.064 A 
ATOM     68  C   UNL A   1      48.377  27.981  26.254  1.00  0.00     0.173 A 
ATOM     69  C   UNL A   1      47.233  28.044  24.145  1.00  0.00     0.173 A 
ATOM     70  F   UNL A   1      48.402  28.175  27.582  1.00  0.00    -0.203 F 
ATOM     71  C   UNL A   1      49.537  27.554  25.612  1.00  0.00     0.198 A 
ATOM     72  C   UNL A   1      48.385  27.589  23.508  1.00  0.00     0.198 A 
ATOM     73  F   UNL A   1      46.136  28.279  23.410  1.00  0.00    -0.203 F 
ATOM     74  F   UNL A   1      50.657  27.353  26.321  1.00  0.00    -0.200 F 
ATOM     75  C   UNL A   1      49.537  27.350  24.241  1.00  0.00     0.200 A 
ATOM     76  F   UNL A   1      48.378  27.380  22.184  1.00  0.00    -0.200 F 
ATOM     77  F   UNL A   1      50.650  26.930  23.625  1.00  0.00    -0.200 F 
ENDBRANCH  43  67
BRANCH  55  78
ATOM     78  C   UNL A   1      45.327  34.237  28.504  1.00  0.00     0.064 A 
ATOM     79  C   UNL A   1      46.217  34.583  29.531  1.00  0.00     0.173 A 
ATOM     80  C   UNL A   1      45.086  35.178  27.494  1.00  0.00     0.173 A 
ATOM     81  F   UNL A   1      46.469  33.719  30.526  1.00  0.00    -0.203 F 
ATOM     82  C   UNL A   1      46.830  35.832  29.555  1.00  0.00     0.198 A 
ATOM     83  C   UNL A   1      45.715  36.419  27.510  1.00  0.00     0.198 A 
ATOM     84  F   UNL A   1      44.246  34.890  26.488  1.00  0.00    -0.203 F 
ATOM     85  F   UNL A   1      47.650  36.155  30.564  1.00  0.00    -0.200 F 
ATOM     86  C   UNL A   1      46.583  36.747  28.542  1.00  0.00     0.200 A 
ATOM     87  F   UNL A   1      45.482  37.302  26.528  1.00  0.00    -0.200 F 
ATOM     88  F   UNL A   1      47.175  37.949  28.565  1.00  0.00    -0.200 F 
ENDBRANCH  55  78
ENDBRANCH  29  30
ENDBRANCH  22  24
ENDBRANCH  21  22
ENDBRANCH  20  21
ENDBRANCH   1  20
TORSDOF 13
ENDMDL
