MODEL 1
REMARK VINA RESULT:     -10.5      0.000      0.000
REMARK SMILES CC(C)[C@H](NC(=O)CC[NH3+])C(=O)OCCOC(=O)c1ccc(-c2c3nc(c(-c4c(F)c(F)c(F)c(F)c4F)c4ccc([nH]4)c(-c4c(F)c(F)c(F)c(F)c4F)c4nc(c(-c5c(F)c(F)c(F)c(F)c5F)c5ccc2[nH]5)C=C4)C=C3)cc1
REMARK SMILES IDX 14 1 13 2 11 3 12 4 4 5 2 6 1 7 3 8 5 9 6 10 7 12 8 13 9 14
REMARK SMILES IDX 10 15 15 19 16 20 17 21 18 22 19 23 20 24 81 25 21 26 80 27
REMARK SMILES IDX 22 28 23 29 24 30 74 31 25 32 79 33 73 34 75 35 26 36 78 37
REMARK SMILES IDX 72 38 71 39 27 41 59 42 39 43 58 44 40 45 43 46 57 47 76 48
REMARK SMILES IDX 41 49 42 50 56 52 77 53 44 54 28 55 29 56 37 57 30 58 31 59
REMARK SMILES IDX 35 60 38 61 32 62 33 63 36 64 34 65 60 66 61 67 69 68 62 69
REMARK SMILES IDX 63 70 67 71 70 72 64 73 65 74 68 75 66 76 45 77 46 78 54 79
REMARK SMILES IDX 47 80 48 81 52 82 55 83 49 84 50 85 53 86 51 87
REMARK H PARENT 5 11 10 16 10 17 10 18 75 40 43 51
REMARK Flexibility Score: inf
ROOT
ATOM      1  C   UNL A   1      35.946  20.273  25.032  1.00  0.00     0.274 C 
ENDROOT
BRANCH   1   2
ATOM      2  O   UNL A   1      35.288  21.185  25.935  1.00  0.00    -0.461 OA
BRANCH   2   3
ATOM      3  C   UNL A   1      33.976  20.897  26.150  1.00  0.00     0.329 C 
ATOM      4  O   UNL A   1      33.292  21.442  27.012  1.00  0.00    -0.250 OA
BRANCH   3   5
ATOM      5  C   UNL A   1      33.401  19.834  25.190  1.00  0.00     0.194 C 
BRANCH   5   6
ATOM      6  C   UNL A   1      32.398  20.419  24.149  1.00  0.00     0.017 C 
ATOM      7  C   UNL A   1      32.720  21.857  23.724  1.00  0.00     0.010 C 
ATOM      8  C   UNL A   1      32.219  19.558  22.893  1.00  0.00     0.010 C 
ENDBRANCH   5   6
BRANCH   5   9
ATOM      9  N   UNL A   1      32.842  18.618  25.808  1.00  0.00    -0.342 N 
ATOM     10  C   UNL A   1      33.086  17.307  25.529  1.00  0.00     0.226 C 
ATOM     11  H   UNL A   1      32.194  18.778  26.532  1.00  0.00     0.164 HD
ATOM     12  O   UNL A   1      32.328  16.454  25.993  1.00  0.00    -0.275 OA
BRANCH  10  13
ATOM     13  C   UNL A   1      34.282  16.925  24.695  1.00  0.00     0.161 C 
BRANCH  13  14
ATOM     14  C   UNL A   1      35.132  15.791  25.258  1.00  0.00     0.268 C 
BRANCH  14  15
ATOM     15  N   UNL A   1      36.301  16.236  26.018  1.00  0.00    -0.357 N 
ATOM     16  H   UNL A   1      37.133  16.167  25.434  1.00  0.00     0.344 HD
ATOM     17  H   UNL A   1      36.414  15.647  26.844  1.00  0.00     0.344 HD
ATOM     18  H   UNL A   1      36.169  17.206  26.307  1.00  0.00     0.344 HD
ENDBRANCH  14  15
ENDBRANCH  13  14
ENDBRANCH  10  13
ENDBRANCH   5   9
ENDBRANCH   3   5
ENDBRANCH   2   3
ENDBRANCH   1   2
BRANCH   1  19
ATOM     19  C   UNL A   1      37.396  20.681  24.771  1.00  0.00     0.275 C 
BRANCH  19  20
ATOM     20  O   UNL A   1      37.840  21.666  25.726  1.00  0.00    -0.458 OA
BRANCH  20  21
ATOM     21  C   UNL A   1      39.092  21.489  26.202  1.00  0.00     0.338 C 
ATOM     22  O   UNL A   1      39.727  20.443  26.241  1.00  0.00    -0.246 OA
BRANCH  21  23
ATOM     23  C   UNL A   1      39.651  22.751  26.722  1.00  0.00     0.060 A 
ATOM     24  C   UNL A   1      39.210  23.990  26.253  1.00  0.00     0.016 A 
ATOM     25  C   UNL A   1      40.747  22.680  27.584  1.00  0.00     0.016 A 
ATOM     26  C   UNL A   1      39.912  25.152  26.590  1.00  0.00     0.010 A 
ATOM     27  C   UNL A   1      41.400  23.849  27.980  1.00  0.00     0.010 A 
ATOM     28  C   UNL A   1      41.010  25.095  27.461  1.00  0.00    -0.014 A 
BRANCH  28  29
ATOM     29  C   UNL A   1      41.767  26.320  27.838  1.00  0.00     0.031 A 
ATOM     30  C   UNL A   1      41.117  27.394  28.670  1.00  0.00     0.074 A 
ATOM     31  C   UNL A   1      43.026  26.497  27.398  1.00  0.00     0.049 A 
ATOM     32  N   UNL A   1      41.537  28.607  28.933  1.00  0.00    -0.248 NA
ATOM     33  C   UNL A   1      39.820  27.063  29.282  1.00  0.00     0.031 C 
ATOM     34  C   UNL A   1      43.789  25.532  26.608  1.00  0.00     0.029 A 
ATOM     35  N   UNL A   1      43.883  27.561  27.544  1.00  0.00    -0.354 N 
ATOM     36  C   UNL A   1      40.541  29.198  29.699  1.00  0.00     0.074 A 
ATOM     37  C   UNL A   1      39.495  28.209  29.864  1.00  0.00     0.031 C 
ATOM     38  C   UNL A   1      45.003  26.039  26.349  1.00  0.00     0.029 A 
ATOM     39  C   UNL A   1      45.081  27.391  26.894  1.00  0.00     0.049 A 
ATOM     40  H   UNL A   1      43.660  28.367  28.064  1.00  0.00     0.167 HD
ATOM     41  C   UNL A   1      40.502  30.450  30.213  1.00  0.00     0.037 A 
ATOM     42  C   UNL A   1      46.111  28.240  26.719  1.00  0.00     0.037 A 
ATOM     43  C   UNL A   1      41.558  31.423  30.088  1.00  0.00     0.049 A 
ATOM     44  C   UNL A   1      46.033  29.631  27.276  1.00  0.00     0.074 A 
ATOM     45  C   UNL A   1      41.616  32.706  30.606  1.00  0.00     0.029 A 
ATOM     46  N   UNL A   1      42.744  31.215  29.401  1.00  0.00    -0.354 N 
ATOM     47  N   UNL A   1      45.069  30.194  27.962  1.00  0.00    -0.248 NA
ATOM     48  C   UNL A   1      47.180  30.513  27.015  1.00  0.00     0.031 C 
ATOM     49  C   UNL A   1      42.827  33.286  30.209  1.00  0.00     0.029 A 
ATOM     50  C   UNL A   1      43.535  32.352  29.471  1.00  0.00     0.049 A 
ATOM     51  H   UNL A   1      42.989  30.384  28.934  1.00  0.00     0.167 HD
ATOM     52  C   UNL A   1      45.488  31.492  28.214  1.00  0.00     0.074 A 
ATOM     53  C   UNL A   1      46.805  31.630  27.628  1.00  0.00     0.031 C 
ATOM     54  C   UNL A   1      44.836  32.481  28.870  1.00  0.00     0.037 A 
BRANCH  41  55
ATOM     55  C   UNL A   1      39.263  30.864  30.950  1.00  0.00     0.064 A 
ATOM     56  C   UNL A   1      38.161  31.418  30.283  1.00  0.00     0.173 A 
ATOM     57  C   UNL A   1      39.153  30.636  32.330  1.00  0.00     0.173 A 
ATOM     58  F   UNL A   1      38.224  31.665  28.966  1.00  0.00    -0.203 F 
ATOM     59  C   UNL A   1      36.996  31.738  30.975  1.00  0.00     0.198 A 
ATOM     60  C   UNL A   1      37.980  30.939  33.015  1.00  0.00     0.198 A 
ATOM     61  F   UNL A   1      40.178  30.102  33.010  1.00  0.00    -0.203 F 
ATOM     62  F   UNL A   1      35.962  32.289  30.324  1.00  0.00    -0.200 F 
ATOM     63  C   UNL A   1      36.903  31.492  32.337  1.00  0.00     0.200 A 
ATOM     64  F   UNL A   1      37.888  30.691  34.328  1.00  0.00    -0.200 F 
ATOM     65  F   UNL A   1      35.776  31.790  32.999  1.00  0.00    -0.200 F 
ENDBRANCH  41  55
BRANCH  42  66
ATOM     66  C   UNL A   1      47.295  27.794  25.946  1.00  0.00     0.064 A 
ATOM     67  C   UNL A   1      47.285  27.806  24.546  1.00  0.00     0.173 A 
ATOM     68  C   UNL A   1      48.470  27.379  26.591  1.00  0.00     0.173 A 
ATOM     69  F   UNL A   1      46.175  28.171  23.888  1.00  0.00    -0.203 F 
ATOM     70  C   UNL A   1      48.409  27.423  23.818  1.00  0.00     0.198 A 
ATOM     71  C   UNL A   1      49.599  27.018  25.863  1.00  0.00     0.198 A 
ATOM     72  F   UNL A   1      48.525  27.349  27.931  1.00  0.00    -0.203 F 
ATOM     73  F   UNL A   1      48.367  27.421  22.478  1.00  0.00    -0.200 F 
ATOM     74  C   UNL A   1      49.567  27.038  24.476  1.00  0.00     0.200 A 
ATOM     75  F   UNL A   1      50.721  26.659  26.503  1.00  0.00    -0.200 F 
ATOM     76  F   UNL A   1      50.652  26.684  23.775  1.00  0.00    -0.200 F 
ENDBRANCH  42  66
BRANCH  54  77
ATOM     77  C   UNL A   1      45.539  33.799  28.987  1.00  0.00     0.064 A 
ATOM     78  C   UNL A   1      45.351  34.810  28.033  1.00  0.00     0.173 A 
ATOM     79  C   UNL A   1      46.390  34.060  30.068  1.00  0.00     0.173 A 
ATOM     80  F   UNL A   1      44.559  34.598  26.972  1.00  0.00    -0.203 F 
ATOM     81  C   UNL A   1      46.008  36.032  28.150  1.00  0.00     0.198 A 
ATOM     82  C   UNL A   1      47.032  35.290  30.193  1.00  0.00     0.198 A 
ATOM     83  F   UNL A   1      46.600  33.124  31.007  1.00  0.00    -0.203 F 
ATOM     84  F   UNL A   1      45.845  36.972  27.209  1.00  0.00    -0.200 F 
ATOM     85  C   UNL A   1      46.844  36.273  29.231  1.00  0.00     0.200 A 
ATOM     86  F   UNL A   1      47.836  35.524  31.239  1.00  0.00    -0.200 F 
ATOM     87  F   UNL A   1      47.478  37.448  29.341  1.00  0.00    -0.200 F 
ENDBRANCH  54  77
ENDBRANCH  28  29
ENDBRANCH  21  23
ENDBRANCH  20  21
ENDBRANCH  19  20
ENDBRANCH   1  19
TORSDOF 16
ENDMDL
MODEL 2
REMARK VINA RESULT:     -10.4      1.122      2.397
REMARK SMILES CC(C)[C@H](NC(=O)CC[NH3+])C(=O)OCCOC(=O)c1ccc(-c2c3nc(c(-c4c(F)c(F)c(F)c(F)c4F)c4ccc([nH]4)c(-c4c(F)c(F)c(F)c(F)c4F)c4nc(c(-c5c(F)c(F)c(F)c(F)c5F)c5ccc2[nH]5)C=C4)C=C3)cc1
REMARK SMILES IDX 14 1 13 2 11 3 12 4 4 5 2 6 1 7 3 8 5 9 6 10 7 12 8 13 9 14
REMARK SMILES IDX 10 15 15 19 16 20 17 21 18 22 19 23 20 24 81 25 21 26 80 27
REMARK SMILES IDX 22 28 23 29 24 30 74 31 25 32 79 33 73 34 75 35 26 36 78 37
REMARK SMILES IDX 72 38 71 39 27 41 59 42 39 43 58 44 40 45 43 46 57 47 76 48
REMARK SMILES IDX 41 49 42 50 56 52 77 53 44 54 28 55 29 56 37 57 30 58 31 59
REMARK SMILES IDX 35 60 38 61 32 62 33 63 36 64 34 65 60 66 61 67 69 68 62 69
REMARK SMILES IDX 63 70 67 71 70 72 64 73 65 74 68 75 66 76 45 77 46 78 54 79
REMARK SMILES IDX 47 80 48 81 52 82 55 83 49 84 50 85 53 86 51 87
REMARK H PARENT 5 11 10 16 10 17 10 18 75 40 43 51
REMARK Flexibility Score: inf
ROOT
ATOM      1  C   UNL A   1      36.642  22.608  23.553  1.00  0.00     0.274 C 
ENDROOT
BRANCH   1   2
ATOM      2  O   UNL A   1      35.701  23.420  24.286  1.00  0.00    -0.461 OA
BRANCH   2   3
ATOM      3  C   UNL A   1      34.509  23.589  23.651  1.00  0.00     0.329 C 
ATOM      4  O   UNL A   1      34.401  24.035  22.512  1.00  0.00    -0.250 OA
BRANCH   3   5
ATOM      5  C   UNL A   1      33.288  23.142  24.482  1.00  0.00     0.194 C 
BRANCH   5   6
ATOM      6  C   UNL A   1      32.162  24.218  24.555  1.00  0.00     0.017 C 
ATOM      7  C   UNL A   1      30.939  23.891  23.690  1.00  0.00     0.010 C 
ATOM      8  C   UNL A   1      31.691  24.543  25.977  1.00  0.00     0.010 C 
ENDBRANCH   5   6
BRANCH   5   9
ATOM      9  N   UNL A   1      33.564  22.603  25.826  1.00  0.00    -0.342 N 
ATOM     10  C   UNL A   1      33.658  21.311  26.246  1.00  0.00     0.226 C 
ATOM     11  H   UNL A   1      33.702  23.281  26.528  1.00  0.00     0.164 HD
ATOM     12  O   UNL A   1      33.649  21.080  27.456  1.00  0.00    -0.275 OA
BRANCH  10  13
ATOM     13  C   UNL A   1      33.803  20.200  25.236  1.00  0.00     0.161 C 
BRANCH  13  14
ATOM     14  C   UNL A   1      32.758  19.094  25.331  1.00  0.00     0.268 C 
BRANCH  14  15
ATOM     15  N   UNL A   1      32.904  18.227  26.500  1.00  0.00    -0.357 N 
ATOM     16  H   UNL A   1      33.427  18.718  27.225  1.00  0.00     0.344 HD
ATOM     17  H   UNL A   1      33.406  17.379  26.233  1.00  0.00     0.344 HD
ATOM     18  H   UNL A   1      31.981  17.978  26.856  1.00  0.00     0.344 HD
ENDBRANCH  14  15
ENDBRANCH  13  14
ENDBRANCH  10  13
ENDBRANCH   5   9
ENDBRANCH   3   5
ENDBRANCH   2   3
ENDBRANCH   1   2
BRANCH   1  19
ATOM     19  C   UNL A   1      37.045  21.360  24.338  1.00  0.00     0.275 C 
BRANCH  19  20
ATOM     20  O   UNL A   1      37.409  21.691  25.693  1.00  0.00    -0.458 OA
BRANCH  20  21
ATOM     21  C   UNL A   1      38.719  21.547  25.993  1.00  0.00     0.338 C 
ATOM     22  O   UNL A   1      39.402  20.541  25.859  1.00  0.00    -0.246 OA
BRANCH  21  23
ATOM     23  C   UNL A   1      39.279  22.792  26.551  1.00  0.00     0.060 A 
ATOM     24  C   UNL A   1      38.831  24.046  26.131  1.00  0.00     0.016 A 
ATOM     25  C   UNL A   1      40.385  22.694  27.399  1.00  0.00     0.016 A 
ATOM     26  C   UNL A   1      39.533  25.197  26.501  1.00  0.00     0.010 A 
ATOM     27  C   UNL A   1      41.038  23.850  27.829  1.00  0.00     0.010 A 
ATOM     28  C   UNL A   1      40.640  25.112  27.359  1.00  0.00    -0.014 A 
BRANCH  28  29
ATOM     29  C   UNL A   1      41.397  26.326  27.771  1.00  0.00     0.031 A 
ATOM     30  C   UNL A   1      40.730  27.403  28.584  1.00  0.00     0.074 A 
ATOM     31  C   UNL A   1      42.674  26.489  27.379  1.00  0.00     0.049 A 
ATOM     32  N   UNL A   1      41.155  28.610  28.870  1.00  0.00    -0.248 NA
ATOM     33  C   UNL A   1      39.408  27.085  29.146  1.00  0.00     0.031 C 
ATOM     34  C   UNL A   1      43.454  25.520  26.612  1.00  0.00     0.029 A 
ATOM     35  N   UNL A   1      43.538  27.542  27.563  1.00  0.00    -0.354 N 
ATOM     36  C   UNL A   1      40.138  29.209  29.602  1.00  0.00     0.074 A 
ATOM     37  C   UNL A   1      39.075  28.232  29.723  1.00  0.00     0.031 C 
ATOM     38  C   UNL A   1      44.683  26.013  26.401  1.00  0.00     0.029 A 
ATOM     39  C   UNL A   1      44.757  27.361  26.957  1.00  0.00     0.049 A 
ATOM     40  H   UNL A   1      43.306  28.348  28.079  1.00  0.00     0.167 HD
ATOM     41  C   UNL A   1      40.096  30.458  30.122  1.00  0.00     0.037 A 
ATOM     42  C   UNL A   1      45.803  28.197  26.825  1.00  0.00     0.037 A 
ATOM     43  C   UNL A   1      41.167  31.418  30.042  1.00  0.00     0.049 A 
ATOM     44  C   UNL A   1      45.722  29.586  27.388  1.00  0.00     0.074 A 
ATOM     45  C   UNL A   1      41.223  32.698  30.569  1.00  0.00     0.029 A 
ATOM     46  N   UNL A   1      42.376  31.200  29.398  1.00  0.00    -0.354 N 
ATOM     47  N   UNL A   1      44.740  30.157  28.041  1.00  0.00    -0.248 NA
ATOM     48  C   UNL A   1      46.889  30.455  27.175  1.00  0.00     0.031 C 
ATOM     49  C   UNL A   1      42.455  33.264  30.222  1.00  0.00     0.029 A 
ATOM     50  C   UNL A   1      43.178  32.326  29.505  1.00  0.00     0.049 A 
ATOM     51  H   UNL A   1      42.628  30.368  28.936  1.00  0.00     0.167 HD
ATOM     52  C   UNL A   1      45.166  31.448  28.316  1.00  0.00     0.074 A 
ATOM     53  C   UNL A   1      46.505  31.573  27.780  1.00  0.00     0.031 C 
ATOM     54  C   UNL A   1      44.502  32.442  28.954  1.00  0.00     0.037 A 
BRANCH  41  55
ATOM     55  C   UNL A   1      38.836  30.884  30.814  1.00  0.00     0.064 A 
ATOM     56  C   UNL A   1      38.687  30.779  32.205  1.00  0.00     0.173 A 
ATOM     57  C   UNL A   1      37.792  31.471  30.082  1.00  0.00     0.173 A 
ATOM     58  F   UNL A   1      39.654  30.215  32.945  1.00  0.00    -0.203 F 
ATOM     59  C   UNL A   1      37.535  31.237  32.836  1.00  0.00     0.198 A 
ATOM     60  C   UNL A   1      36.649  31.946  30.719  1.00  0.00     0.198 A 
ATOM     61  F   UNL A   1      37.890  31.599  28.750  1.00  0.00    -0.203 F 
ATOM     62  F   UNL A   1      37.402  31.106  34.164  1.00  0.00    -0.200 F 
ATOM     63  C   UNL A   1      36.520  31.827  32.095  1.00  0.00     0.200 A 
ATOM     64  F   UNL A   1      35.675  32.524  30.003  1.00  0.00    -0.200 F 
ATOM     65  F   UNL A   1      35.417  32.279  32.706  1.00  0.00    -0.200 F 
ENDBRANCH  41  55
BRANCH  42  66
ATOM     66  C   UNL A   1      47.010  27.741  26.094  1.00  0.00     0.064 A 
ATOM     67  C   UNL A   1      48.120  27.237  26.784  1.00  0.00     0.173 A 
ATOM     68  C   UNL A   1      47.063  27.768  24.692  1.00  0.00     0.173 A 
ATOM     69  F   UNL A   1      48.121  27.217  28.124  1.00  0.00    -0.203 F 
ATOM     70  C   UNL A   1      49.239  26.773  26.098  1.00  0.00     0.198 A 
ATOM     71  C   UNL A   1      48.173  27.282  24.007  1.00  0.00     0.198 A 
ATOM     72  F   UNL A   1      46.025  28.243  23.990  1.00  0.00    -0.203 F 
ATOM     73  F   UNL A   1      50.298  26.317  26.780  1.00  0.00    -0.200 F 
ATOM     74  C   UNL A   1      49.262  26.787  24.711  1.00  0.00     0.200 A 
ATOM     75  F   UNL A   1      48.186  27.286  22.667  1.00  0.00    -0.200 F 
ATOM     76  F   UNL A   1      50.333  26.326  24.052  1.00  0.00    -0.200 F 
ENDBRANCH  42  66
BRANCH  54  77
ATOM     77  C   UNL A   1      45.216  33.750  29.104  1.00  0.00     0.064 A 
ATOM     78  C   UNL A   1      45.083  34.766  28.145  1.00  0.00     0.173 A 
ATOM     79  C   UNL A   1      46.023  33.998  30.222  1.00  0.00     0.173 A 
ATOM     80  F   UNL A   1      44.335  34.566  27.050  1.00  0.00    -0.203 F 
ATOM     81  C   UNL A   1      45.751  35.978  28.295  1.00  0.00     0.198 A 
ATOM     82  C   UNL A   1      46.674  35.220  30.378  1.00  0.00     0.198 A 
ATOM     83  F   UNL A   1      46.179  33.057  31.167  1.00  0.00    -0.203 F 
ATOM     84  F   UNL A   1      45.642  36.922  27.349  1.00  0.00    -0.200 F 
ATOM     85  C   UNL A   1      46.542  36.206  29.411  1.00  0.00     0.200 A 
ATOM     86  F   UNL A   1      47.435  35.440  31.459  1.00  0.00    -0.200 F 
ATOM     87  F   UNL A   1      47.185  37.373  29.552  1.00  0.00    -0.200 F 
ENDBRANCH  54  77
ENDBRANCH  28  29
ENDBRANCH  21  23
ENDBRANCH  20  21
ENDBRANCH  19  20
ENDBRANCH   1  19
TORSDOF 16
ENDMDL
MODEL 3
REMARK VINA RESULT:     -10.2      6.422     11.955
REMARK SMILES CC(C)[C@H](NC(=O)CC[NH3+])C(=O)OCCOC(=O)c1ccc(-c2c3nc(c(-c4c(F)c(F)c(F)c(F)c4F)c4ccc([nH]4)c(-c4c(F)c(F)c(F)c(F)c4F)c4nc(c(-c5c(F)c(F)c(F)c(F)c5F)c5ccc2[nH]5)C=C4)C=C3)cc1
REMARK SMILES IDX 14 1 13 2 11 3 12 4 4 5 2 6 1 7 3 8 5 9 6 10 7 12 8 13 9 14
REMARK SMILES IDX 10 15 15 19 16 20 17 21 18 22 19 23 20 24 81 25 21 26 80 27
REMARK SMILES IDX 22 28 23 29 24 30 74 31 25 32 79 33 73 34 75 35 26 36 78 37
REMARK SMILES IDX 72 38 71 39 27 41 59 42 39 43 58 44 40 45 43 46 57 47 76 48
REMARK SMILES IDX 41 49 42 50 56 52 77 53 44 54 28 55 29 56 37 57 30 58 31 59
REMARK SMILES IDX 35 60 38 61 32 62 33 63 36 64 34 65 60 66 61 67 69 68 62 69
REMARK SMILES IDX 63 70 67 71 70 72 64 73 65 74 68 75 66 76 45 77 46 78 54 79
REMARK SMILES IDX 47 80 48 81 52 82 55 83 49 84 50 85 53 86 51 87
REMARK H PARENT 5 11 10 16 10 17 10 18 75 40 43 51
REMARK Flexibility Score: inf
ROOT
ATOM      1  C   UNL A   1      31.954  33.422  27.084  1.00  0.00     0.274 C 
ENDROOT
BRANCH   1   2
ATOM      2  O   UNL A   1      32.693  33.396  28.322  1.00  0.00    -0.461 OA
BRANCH   2   3
ATOM      3  C   UNL A   1      33.706  34.303  28.380  1.00  0.00     0.329 C 
ATOM      4  O   UNL A   1      34.389  34.623  27.410  1.00  0.00    -0.250 OA
BRANCH   3   5
ATOM      5  C   UNL A   1      33.910  34.927  29.776  1.00  0.00     0.194 C 
BRANCH   5   6
ATOM      6  C   UNL A   1      34.969  34.177  30.640  1.00  0.00     0.017 C 
ATOM      7  C   UNL A   1      34.570  32.740  30.994  1.00  0.00     0.010 C 
ATOM      8  C   UNL A   1      36.380  34.166  30.038  1.00  0.00     0.010 C 
ENDBRANCH   5   6
BRANCH   5   9
ATOM      9  N   UNL A   1      32.694  35.182  30.571  1.00  0.00    -0.342 N 
ATOM     10  C   UNL A   1      32.446  36.147  31.500  1.00  0.00     0.226 C 
ATOM     11  H   UNL A   1      31.948  34.561  30.403  1.00  0.00     0.164 HD
ATOM     12  O   UNL A   1      31.456  36.029  32.223  1.00  0.00    -0.275 OA
BRANCH  10  13
ATOM     13  C   UNL A   1      33.358  37.344  31.605  1.00  0.00     0.161 C 
BRANCH  13  14
ATOM     14  C   UNL A   1      34.042  37.523  32.955  1.00  0.00     0.268 C 
BRANCH  14  15
ATOM     15  N   UNL A   1      33.944  36.361  33.839  1.00  0.00    -0.357 N 
ATOM     16  H   UNL A   1      33.654  36.664  34.768  1.00  0.00     0.344 HD
ATOM     17  H   UNL A   1      34.852  35.901  33.897  1.00  0.00     0.344 HD
ATOM     18  H   UNL A   1      33.255  35.707  33.465  1.00  0.00     0.344 HD
ENDBRANCH  14  15
ENDBRANCH  13  14
ENDBRANCH  10  13
ENDBRANCH   5   9
ENDBRANCH   3   5
ENDBRANCH   2   3
ENDBRANCH   1   2
BRANCH   1  19
ATOM     19  C   UNL A   1      31.751  32.018  26.516  1.00  0.00     0.275 C 
BRANCH  19  20
ATOM     20  O   UNL A   1      32.430  31.028  27.315  1.00  0.00    -0.458 OA
BRANCH  20  21
ATOM     21  C   UNL A   1      33.489  30.433  26.723  1.00  0.00     0.338 C 
ATOM     22  O   UNL A   1      33.531  29.943  25.602  1.00  0.00    -0.246 OA
BRANCH  21  23
ATOM     23  C   UNL A   1      34.660  30.411  27.620  1.00  0.00     0.060 A 
ATOM     24  C   UNL A   1      35.634  31.411  27.572  1.00  0.00     0.016 A 
ATOM     25  C   UNL A   1      34.859  29.280  28.414  1.00  0.00     0.016 A 
ATOM     26  C   UNL A   1      36.837  31.244  28.263  1.00  0.00     0.010 A 
ATOM     27  C   UNL A   1      36.029  29.152  29.164  1.00  0.00     0.010 A 
ATOM     28  C   UNL A   1      37.046  30.116  29.072  1.00  0.00    -0.014 A 
BRANCH  28  29
ATOM     29  C   UNL A   1      38.318  29.923  29.821  1.00  0.00     0.031 A 
ATOM     30  C   UNL A   1      39.406  29.043  29.267  1.00  0.00     0.074 A 
ATOM     31  C   UNL A   1      38.485  30.502  31.025  1.00  0.00     0.049 A 
ATOM     32  N   UNL A   1      40.490  28.596  29.853  1.00  0.00    -0.248 NA
ATOM     33  C   UNL A   1      39.252  28.600  27.873  1.00  0.00     0.031 C 
ATOM     34  C   UNL A   1      37.528  31.398  31.673  1.00  0.00     0.029 A 
ATOM     35  N   UNL A   1      39.518  30.408  31.926  1.00  0.00    -0.354 N 
ATOM     36  C   UNL A   1      41.122  27.787  28.918  1.00  0.00     0.074 A 
ATOM     37  C   UNL A   1      40.304  27.805  27.723  1.00  0.00     0.031 C 
ATOM     38  C   UNL A   1      38.022  31.783  32.859  1.00  0.00     0.029 A 
ATOM     39  C   UNL A   1      39.296  31.108  33.086  1.00  0.00     0.049 A 
ATOM     40  H   UNL A   1      40.338  29.889  31.756  1.00  0.00     0.167 HD
ATOM     41  C   UNL A   1      42.277  27.091  29.047  1.00  0.00     0.037 A 
ATOM     42  C   UNL A   1      40.014  31.169  34.224  1.00  0.00     0.037 A 
ATOM     43  C   UNL A   1      43.116  27.102  30.218  1.00  0.00     0.049 A 
ATOM     44  C   UNL A   1      41.276  30.368  34.353  1.00  0.00     0.074 A 
ATOM     45  C   UNL A   1      44.321  26.451  30.424  1.00  0.00     0.029 A 
ATOM     46  N   UNL A   1      42.841  27.808  31.379  1.00  0.00    -0.354 N 
ATOM     47  N   UNL A   1      41.842  29.572  33.479  1.00  0.00    -0.248 NA
ATOM     48  C   UNL A   1      41.988  30.457  35.636  1.00  0.00     0.031 C 
ATOM     49  C   UNL A   1      44.762  26.741  31.721  1.00  0.00     0.029 A 
ATOM     50  C   UNL A   1      43.847  27.598  32.310  1.00  0.00     0.049 A 
ATOM     51  H   UNL A   1      42.049  28.375  31.522  1.00  0.00     0.167 HD
ATOM     52  C   UNL A   1      42.972  29.065  34.103  1.00  0.00     0.074 A 
ATOM     53  C   UNL A   1      43.027  29.660  35.422  1.00  0.00     0.031 C 
ATOM     54  C   UNL A   1      43.881  28.182  33.624  1.00  0.00     0.037 A 
BRANCH  41  55
ATOM     55  C   UNL A   1      42.704  26.228  27.898  1.00  0.00     0.064 A 
ATOM     56  C   UNL A   1      42.198  24.932  27.721  1.00  0.00     0.173 A 
ATOM     57  C   UNL A   1      43.577  26.733  26.922  1.00  0.00     0.173 A 
ATOM     58  F   UNL A   1      41.368  24.402  28.633  1.00  0.00    -0.203 F 
ATOM     59  C   UNL A   1      42.558  24.170  26.614  1.00  0.00     0.198 A 
ATOM     60  C   UNL A   1      43.920  25.975  25.806  1.00  0.00     0.198 A 
ATOM     61  F   UNL A   1      44.083  27.970  27.044  1.00  0.00    -0.203 F 
ATOM     62  F   UNL A   1      42.082  22.924  26.475  1.00  0.00    -0.200 F 
ATOM     63  C   UNL A   1      43.413  24.694  25.654  1.00  0.00     0.200 A 
ATOM     64  F   UNL A   1      44.737  26.486  24.875  1.00  0.00    -0.200 F 
ATOM     65  F   UNL A   1      43.749  23.962  24.582  1.00  0.00    -0.200 F 
ENDBRANCH  41  55
BRANCH  42  66
ATOM     66  C   UNL A   1      39.524  32.005  35.347  1.00  0.00     0.064 A 
ATOM     67  C   UNL A   1      38.643  31.481  36.301  1.00  0.00     0.173 A 
ATOM     68  C   UNL A   1      39.952  33.332  35.505  1.00  0.00     0.173 A 
ATOM     69  F   UNL A   1      38.189  30.226  36.174  1.00  0.00    -0.203 F 
ATOM     70  C   UNL A   1      38.211  32.253  37.377  1.00  0.00     0.198 A 
ATOM     71  C   UNL A   1      39.538  34.094  36.593  1.00  0.00     0.198 A 
ATOM     72  F   UNL A   1      40.794  33.876  34.615  1.00  0.00    -0.203 F 
ATOM     73  F   UNL A   1      37.350  31.737  38.265  1.00  0.00    -0.200 F 
ATOM     74  C   UNL A   1      38.665  33.555  37.527  1.00  0.00     0.200 A 
ATOM     75  F   UNL A   1      39.988  35.348  36.742  1.00  0.00    -0.200 F 
ATOM     76  F   UNL A   1      38.260  34.291  38.571  1.00  0.00    -0.200 F 
ENDBRANCH  42  66
BRANCH  54  77
ATOM     77  C   UNL A   1      45.010  27.807  34.534  1.00  0.00     0.064 A 
ATOM     78  C   UNL A   1      46.198  28.554  34.565  1.00  0.00     0.173 A 
ATOM     79  C   UNL A   1      44.899  26.707  35.394  1.00  0.00     0.173 A 
ATOM     80  F   UNL A   1      46.356  29.604  33.746  1.00  0.00    -0.203 F 
ATOM     81  C   UNL A   1      47.241  28.197  35.415  1.00  0.00     0.198 A 
ATOM     82  C   UNL A   1      45.938  26.365  36.256  1.00  0.00     0.198 A 
ATOM     83  F   UNL A   1      43.781  25.964  35.401  1.00  0.00    -0.203 F 
ATOM     84  F   UNL A   1      48.383  28.900  35.403  1.00  0.00    -0.200 F 
ATOM     85  C   UNL A   1      47.110  27.107  36.262  1.00  0.00     0.200 A 
ATOM     86  F   UNL A   1      45.807  25.313  37.077  1.00  0.00    -0.200 F 
ATOM     87  F   UNL A   1      48.116  26.764  37.077  1.00  0.00    -0.200 F 
ENDBRANCH  54  77
ENDBRANCH  28  29
ENDBRANCH  21  23
ENDBRANCH  20  21
ENDBRANCH  19  20
ENDBRANCH   1  19
TORSDOF 16
ENDMDL
