MODEL 1
REMARK VINA RESULT:     -12.6      0.000      0.000
REMARK SMILES Cc1ccccc1/C=C1\SC(=S)N(CCC(=O)N[C@@H](C)C(=O)OCCOC(=O)c2ccc(-c3c4nc(c(-c5c(F)c(F)c(F)c(F)c5F)c5ccc([nH]5)c(-c5c(F)c(F)c(F)c(F)c5F)c5nc(c(-c6c(F)c(F)c(F)c(F)c6F)c6ccc3[nH]6)C=C5)C=C4)cc2)C1=O
REMARK SMILES IDX 23 1 21 2 22 3 19 4 20 5 18 6 16 7 17 8 15 10 14 11 13 12
REMARK SMILES IDX 8 13 9 14 10 15 92 16 11 17 93 18 12 19 7 20 1 21 2 22 3 23
REMARK SMILES IDX 4 24 6 25 5 26 24 27 25 28 26 29 27 30 28 31 29 32 30 33
REMARK SMILES IDX 91 34 31 35 90 36 32 37 33 38 34 39 84 40 35 41 89 42 83 43
REMARK SMILES IDX 85 44 36 45 88 46 82 47 81 48 37 50 69 51 49 52 68 53 50 54
REMARK SMILES IDX 53 55 67 56 86 57 51 58 52 59 66 61 87 62 54 63 38 64 39 65
REMARK SMILES IDX 47 66 40 67 41 68 45 69 48 70 42 71 43 72 46 73 44 74 70 75
REMARK SMILES IDX 71 76 79 77 72 78 73 79 77 80 80 81 74 82 75 83 78 84 76 85
REMARK SMILES IDX 55 86 56 87 64 88 57 89 58 90 62 91 65 92 59 93 60 94 63 95
REMARK SMILES IDX 61 96
REMARK H PARENT 18 9 85 49 53 60
REMARK Flexibility Score: inf
ROOT
ATOM      1  O   UNL A   1      33.132  30.455  26.310  1.00  0.00    -0.461 OA
ENDROOT
BRANCH   1   2
ATOM      2  C   UNL A   1      31.901  30.332  25.757  1.00  0.00     0.328 C 
ATOM      3  O   UNL A   1      31.042  31.211  25.794  1.00  0.00    -0.250 OA
BRANCH   2   4
ATOM      4  C   UNL A   1      31.702  29.037  24.969  1.00  0.00     0.189 C 
ATOM      5  C   UNL A   1      30.659  29.361  23.894  1.00  0.00     0.043 C 
BRANCH   4   6
ATOM      6  N   UNL A   1      31.304  27.797  25.628  1.00  0.00    -0.343 N 
ATOM      7  C   UNL A   1      31.059  26.609  24.988  1.00  0.00     0.222 C 
ATOM      8  O   UNL A   1      30.085  25.937  25.322  1.00  0.00    -0.275 OA
ATOM      9  H   UNL A   1      31.203  27.814  26.608  1.00  0.00     0.164 HD
BRANCH   7  10
ATOM     10  C   UNL A   1      32.024  26.105  23.936  1.00  0.00     0.122 C 
BRANCH  10  11
ATOM     11  C   UNL A   1      31.808  24.646  23.533  1.00  0.00     0.137 C 
BRANCH  11  12
ATOM     12  N   UNL A   1      32.793  23.741  24.154  1.00  0.00    -0.292 N 
ATOM     13  C   UNL A   1      36.490  23.220  24.759  1.00  0.00     0.029 C 
ATOM     14  C   UNL A   1      35.063  22.986  24.619  1.00  0.00     0.081 C 
ATOM     15  S   UNL A   1      33.844  21.905  25.498  1.00  0.00    -0.054 SA
ATOM     16  C   UNL A   1      34.059  23.524  23.598  1.00  0.00     0.266 C 
ATOM     17  C   UNL A   1      32.451  22.864  25.149  1.00  0.00     0.148 C 
ATOM     18  O   UNL A   1      34.288  23.543  22.400  1.00  0.00    -0.268 OA
ATOM     19  S   UNL A   1      31.012  22.658  25.967  1.00  0.00    -0.052 S 
BRANCH  13  20
ATOM     20  C   UNL A   1      38.041  22.932  25.676  1.00  0.00    -0.021 A 
ATOM     21  C   UNL A   1      39.368  20.262  25.740  1.00  0.00     0.045 C 
ATOM     22  C   UNL A   1      39.084  21.828  26.018  1.00  0.00    -0.044 A 
ATOM     23  C   UNL A   1      40.165  22.037  26.931  1.00  0.00     0.004 A 
ATOM     24  C   UNL A   1      40.296  23.171  27.652  1.00  0.00     0.000 A 
ATOM     25  C   UNL A   1      38.316  24.077  26.460  1.00  0.00     0.008 A 
ATOM     26  C   UNL A   1      39.372  24.170  27.424  1.00  0.00     0.001 A 
ENDBRANCH  13  20
ENDBRANCH  11  12
ENDBRANCH  10  11
ENDBRANCH   7  10
ENDBRANCH   4   6
ENDBRANCH   2   4
ENDBRANCH   1   2
BRANCH   1  27
ATOM     27  C   UNL A   1      33.118  31.090  27.601  1.00  0.00     0.274 C 
BRANCH  27  28
ATOM     28  C   UNL A   1      34.042  32.314  27.612  1.00  0.00     0.275 C 
BRANCH  28  29
ATOM     29  O   UNL A   1      33.415  33.523  28.110  1.00  0.00    -0.458 OA
BRANCH  29  30
ATOM     30  C   UNL A   1      33.987  34.171  29.154  1.00  0.00     0.338 C 
ATOM     31  O   UNL A   1      33.574  35.216  29.664  1.00  0.00    -0.246 OA
BRANCH  30  32
ATOM     32  C   UNL A   1      35.147  33.387  29.659  1.00  0.00     0.060 A 
ATOM     33  C   UNL A   1      36.462  33.511  29.204  1.00  0.00     0.016 A 
ATOM     34  C   UNL A   1      34.929  32.565  30.743  1.00  0.00     0.016 A 
ATOM     35  C   UNL A   1      37.530  32.808  29.845  1.00  0.00     0.010 A 
ATOM     36  C   UNL A   1      35.993  32.083  31.484  1.00  0.00     0.010 A 
ATOM     37  C   UNL A   1      37.350  32.102  31.062  1.00  0.00    -0.014 A 
BRANCH  37  38
ATOM     38  C   UNL A   1      38.378  30.915  31.652  1.00  0.00     0.031 A 
ATOM     39  C   UNL A   1      38.824  29.114  31.072  1.00  0.00     0.074 A 
ATOM     40  C   UNL A   1      39.195  31.914  32.184  1.00  0.00     0.049 A 
ATOM     41  N   UNL A   1      39.932  28.365  31.357  1.00  0.00    -0.248 NA
ATOM     42  C   UNL A   1      38.185  28.080  30.046  1.00  0.00     0.031 C 
ATOM     43  C   UNL A   1      40.278  32.800  31.541  1.00  0.00     0.029 A 
ATOM     44  N   UNL A   1      38.910  32.794  33.208  1.00  0.00    -0.354 N 
ATOM     45  C   UNL A   1      40.362  27.624  30.168  1.00  0.00     0.074 A 
ATOM     46  C   UNL A   1      39.143  27.308  29.528  1.00  0.00     0.031 C 
ATOM     47  C   UNL A   1      40.958  33.439  32.494  1.00  0.00     0.029 A 
ATOM     48  C   UNL A   1      40.152  33.305  33.652  1.00  0.00     0.049 A 
ATOM     49  H   UNL A   1      38.019  33.020  33.560  1.00  0.00     0.167 HD
ATOM     50  C   UNL A   1      41.663  27.477  29.667  1.00  0.00     0.037 A 
ATOM     51  C   UNL A   1      40.508  33.082  34.928  1.00  0.00     0.037 A 
ATOM     52  C   UNL A   1      42.736  27.996  30.540  1.00  0.00     0.049 A 
ATOM     53  C   UNL A   1      41.287  31.747  35.022  1.00  0.00     0.074 A 
ATOM     54  C   UNL A   1      43.876  28.780  30.384  1.00  0.00     0.029 A 
ATOM     55  N   UNL A   1      42.599  27.863  31.906  1.00  0.00    -0.354 N 
ATOM     56  N   UNL A   1      42.071  31.144  34.136  1.00  0.00    -0.248 NA
ATOM     57  C   UNL A   1      41.139  30.972  36.246  1.00  0.00     0.031 C 
ATOM     58  C   UNL A   1      44.270  29.275  31.681  1.00  0.00     0.029 A 
ATOM     59  C   UNL A   1      43.390  28.764  32.618  1.00  0.00     0.049 A 
ATOM     60  H   UNL A   1      42.005  27.202  32.331  1.00  0.00     0.167 HD
ATOM     61  C   UNL A   1      42.447  29.883  34.638  1.00  0.00     0.074 A 
ATOM     62  C   UNL A   1      41.830  29.863  35.962  1.00  0.00     0.031 C 
ATOM     63  C   UNL A   1      43.137  28.827  34.050  1.00  0.00     0.037 A 
BRANCH  50  64
ATOM     64  C   UNL A   1      42.110  27.001  28.231  1.00  0.00     0.064 A 
ATOM     65  C   UNL A   1      42.775  25.745  28.097  1.00  0.00     0.173 A 
ATOM     66  C   UNL A   1      42.067  27.730  27.018  1.00  0.00     0.173 A 
ATOM     67  F   UNL A   1      42.845  24.887  29.125  1.00  0.00    -0.203 F 
ATOM     68  C   UNL A   1      43.392  25.299  26.916  1.00  0.00     0.198 A 
ATOM     69  C   UNL A   1      42.613  27.236  25.806  1.00  0.00     0.198 A 
ATOM     70  F   UNL A   1      41.530  28.954  26.949  1.00  0.00    -0.203 F 
ATOM     71  F   UNL A   1      44.083  24.149  26.916  1.00  0.00    -0.200 F 
ATOM     72  C   UNL A   1      43.297  26.037  25.762  1.00  0.00     0.200 A 
ATOM     73  F   UNL A   1      42.487  27.948  24.674  1.00  0.00    -0.200 F 
ATOM     74  F   UNL A   1      43.854  25.597  24.624  1.00  0.00    -0.200 F 
ENDBRANCH  50  64
BRANCH  51  75
ATOM     75  C   UNL A   1      39.272  33.627  35.674  1.00  0.00     0.064 A 
ATOM     76  C   UNL A   1      38.443  32.578  36.194  1.00  0.00     0.173 A 
ATOM     77  C   UNL A   1      39.359  34.792  36.469  1.00  0.00     0.173 A 
ATOM     78  F   UNL A   1      38.360  31.412  35.529  1.00  0.00    -0.203 F 
ATOM     79  C   UNL A   1      37.984  32.589  37.519  1.00  0.00     0.198 A 
ATOM     80  C   UNL A   1      38.870  34.798  37.791  1.00  0.00     0.198 A 
ATOM     81  F   UNL A   1      40.161  35.799  36.094  1.00  0.00    -0.203 F 
ATOM     82  F   UNL A   1      37.464  31.474  38.057  1.00  0.00    -0.200 F 
ATOM     83  C   UNL A   1      38.233  33.683  38.326  1.00  0.00     0.200 A 
ATOM     84  F   UNL A   1      39.176  35.816  38.610  1.00  0.00    -0.200 F 
ATOM     85  F   UNL A   1      37.957  33.625  39.639  1.00  0.00    -0.200 F 
ENDBRANCH  51  75
BRANCH  63  86
ATOM     86  C   UNL A   1      43.526  27.565  34.834  1.00  0.00     0.064 A 
ATOM     87  C   UNL A   1      44.845  27.346  35.255  1.00  0.00     0.173 A 
ATOM     88  C   UNL A   1      42.632  26.496  35.118  1.00  0.00     0.173 A 
ATOM     89  F   UNL A   1      45.827  28.187  34.897  1.00  0.00    -0.203 F 
ATOM     90  C   UNL A   1      45.194  26.256  36.056  1.00  0.00     0.198 A 
ATOM     91  C   UNL A   1      42.995  25.380  35.861  1.00  0.00     0.198 A 
ATOM     92  F   UNL A   1      41.361  26.464  34.703  1.00  0.00    -0.203 F 
ATOM     93  F   UNL A   1      46.442  26.161  36.532  1.00  0.00    -0.200 F 
ATOM     94  C   UNL A   1      44.267  25.280  36.370  1.00  0.00     0.200 A 
ATOM     95  F   UNL A   1      42.091  24.415  36.088  1.00  0.00    -0.200 F 
ATOM     96  F   UNL A   1      44.598  24.239  37.143  1.00  0.00    -0.200 F 
ENDBRANCH  63  86
ENDBRANCH  37  38
ENDBRANCH  30  32
ENDBRANCH  29  30
ENDBRANCH  28  29
ENDBRANCH  27  28
ENDBRANCH   1  27
TORSDOF 16
ENDMDL
MODEL 2
REMARK VINA RESULT:     -12.3      5.007      9.454
REMARK SMILES Cc1ccccc1/C=C1\SC(=S)N(CCC(=O)N[C@@H](C)C(=O)OCCOC(=O)c2ccc(-c3c4nc(c(-c5c(F)c(F)c(F)c(F)c5F)c5ccc([nH]5)c(-c5c(F)c(F)c(F)c(F)c5F)c5nc(c(-c6c(F)c(F)c(F)c(F)c6F)c6ccc3[nH]6)C=C5)C=C4)cc2)C1=O
REMARK SMILES IDX 23 1 21 2 22 3 19 4 20 5 18 6 16 7 17 8 15 10 14 11 13 12
REMARK SMILES IDX 8 13 9 14 10 15 92 16 11 17 93 18 12 19 7 20 1 21 2 22 3 23
REMARK SMILES IDX 4 24 6 25 5 26 24 27 25 28 26 29 27 30 28 31 29 32 30 33
REMARK SMILES IDX 91 34 31 35 90 36 32 37 33 38 34 39 84 40 35 41 89 42 83 43
REMARK SMILES IDX 85 44 36 45 88 46 82 47 81 48 37 50 69 51 49 52 68 53 50 54
REMARK SMILES IDX 53 55 67 56 86 57 51 58 52 59 66 61 87 62 54 63 38 64 39 65
REMARK SMILES IDX 47 66 40 67 41 68 45 69 48 70 42 71 43 72 46 73 44 74 70 75
REMARK SMILES IDX 71 76 79 77 72 78 73 79 77 80 80 81 74 82 75 83 78 84 76 85
REMARK SMILES IDX 55 86 56 87 64 88 57 89 58 90 62 91 65 92 59 93 60 94 63 95
REMARK SMILES IDX 61 96
REMARK H PARENT 18 9 85 49 53 60
REMARK Flexibility Score: inf
ROOT
ATOM      1  O   UNL A   1      34.683  29.156  26.655  1.00  0.00    -0.461 OA
ENDROOT
BRANCH   1   2
ATOM      2  C   UNL A   1      33.667  28.593  25.956  1.00  0.00     0.328 C 
ATOM      3  O   UNL A   1      33.205  27.480  26.195  1.00  0.00    -0.250 OA
BRANCH   2   4
ATOM      4  C   UNL A   1      33.053  29.517  24.903  1.00  0.00     0.189 C 
ATOM      5  C   UNL A   1      31.535  29.381  25.065  1.00  0.00     0.043 C 
BRANCH   4   6
ATOM      6  N   UNL A   1      33.372  29.376  23.486  1.00  0.00    -0.343 N 
ATOM      7  C   UNL A   1      33.079  28.278  22.718  1.00  0.00     0.222 C 
ATOM      8  O   UNL A   1      33.925  27.850  21.935  1.00  0.00    -0.275 OA
ATOM      9  H   UNL A   1      33.835  30.127  23.047  1.00  0.00     0.164 HD
BRANCH   7  10
ATOM     10  C   UNL A   1      31.702  27.654  22.788  1.00  0.00     0.122 C 
BRANCH  10  11
ATOM     11  C   UNL A   1      31.612  26.259  22.168  1.00  0.00     0.137 C 
BRANCH  11  12
ATOM     12  N   UNL A   1      32.260  25.231  23.004  1.00  0.00    -0.292 N 
ATOM     13  C   UNL A   1      35.555  23.511  23.704  1.00  0.00     0.029 C 
ATOM     14  C   UNL A   1      34.135  23.810  23.640  1.00  0.00     0.081 C 
ATOM     15  S   UNL A   1      32.708  23.526  24.785  1.00  0.00    -0.054 SA
ATOM     16  C   UNL A   1      33.293  24.420  22.519  1.00  0.00     0.266 C 
ATOM     17  C   UNL A   1      31.730  24.824  24.199  1.00  0.00     0.148 C 
ATOM     18  O   UNL A   1      33.383  24.055  21.358  1.00  0.00    -0.268 OA
ATOM     19  S   UNL A   1      30.412  25.388  25.051  1.00  0.00    -0.052 S 
BRANCH  13  20
ATOM     20  C   UNL A   1      36.983  22.891  24.656  1.00  0.00    -0.021 A 
ATOM     21  C   UNL A   1      37.694  19.996  24.734  1.00  0.00     0.045 C 
ATOM     22  C   UNL A   1      37.752  21.586  25.016  1.00  0.00    -0.044 A 
ATOM     23  C   UNL A   1      38.830  21.554  25.956  1.00  0.00     0.004 A 
ATOM     24  C   UNL A   1      39.187  22.632  26.687  1.00  0.00     0.000 A 
ATOM     25  C   UNL A   1      37.482  23.948  25.454  1.00  0.00     0.008 A 
ATOM     26  C   UNL A   1      38.509  23.807  26.443  1.00  0.00     0.001 A 
ENDBRANCH  13  20
ENDBRANCH  11  12
ENDBRANCH  10  11
ENDBRANCH   7  10
ENDBRANCH   4   6
ENDBRANCH   2   4
ENDBRANCH   1   2
BRANCH   1  27
ATOM     27  C   UNL A   1      34.290  30.329  27.390  1.00  0.00     0.274 C 
BRANCH  27  28
ATOM     28  C   UNL A   1      35.520  31.152  27.793  1.00  0.00     0.275 C 
BRANCH  28  29
ATOM     29  O   UNL A   1      36.773  30.429  27.696  1.00  0.00    -0.458 OA
BRANCH  29  30
ATOM     30  C   UNL A   1      37.377  30.017  28.836  1.00  0.00     0.338 C 
ATOM     31  O   UNL A   1      36.807  29.774  29.904  1.00  0.00    -0.246 OA
BRANCH  30  32
ATOM     32  C   UNL A   1      38.831  29.812  28.590  1.00  0.00     0.060 A 
ATOM     33  C   UNL A   1      39.841  29.999  29.537  1.00  0.00     0.016 A 
ATOM     34  C   UNL A   1      39.197  29.279  27.374  1.00  0.00     0.016 A 
ATOM     35  C   UNL A   1      41.196  29.647  29.244  1.00  0.00     0.010 A 
ATOM     36  C   UNL A   1      40.457  28.738  27.195  1.00  0.00     0.010 A 
ATOM     37  C   UNL A   1      41.559  28.939  28.070  1.00  0.00    -0.014 A 
BRANCH  37  38
ATOM     38  C   UNL A   1      43.105  28.868  27.423  1.00  0.00     0.031 A 
ATOM     39  C   UNL A   1      44.290  30.184  26.623  1.00  0.00     0.074 A 
ATOM     40  C   UNL A   1      43.394  27.806  28.282  1.00  0.00     0.049 A 
ATOM     41  N   UNL A   1      45.649  30.149  26.481  1.00  0.00    -0.248 NA
ATOM     42  C   UNL A   1      44.105  31.663  26.068  1.00  0.00     0.031 C 
ATOM     43  C   UNL A   1      43.806  27.773  29.765  1.00  0.00     0.029 A 
ATOM     44  N   UNL A   1      42.857  26.534  28.276  1.00  0.00    -0.354 N 
ATOM     45  C   UNL A   1      46.221  31.474  26.738  1.00  0.00     0.074 A 
ATOM     46  C   UNL A   1      45.237  32.351  26.230  1.00  0.00     0.031 C 
ATOM     47  C   UNL A   1      44.210  26.543  30.091  1.00  0.00     0.029 A 
ATOM     48  C   UNL A   1      43.738  25.727  29.032  1.00  0.00     0.049 A 
ATOM     49  H   UNL A   1      42.026  26.246  27.834  1.00  0.00     0.167 HD
ATOM     50  C   UNL A   1      47.345  31.793  27.512  1.00  0.00     0.037 A 
ATOM     51  C   UNL A   1      44.328  24.687  28.420  1.00  0.00     0.037 A 
ATOM     52  C   UNL A   1      48.135  30.636  27.982  1.00  0.00     0.049 A 
ATOM     53  C   UNL A   1      45.664  25.149  27.787  1.00  0.00     0.074 A 
ATOM     54  C   UNL A   1      48.714  30.226  29.180  1.00  0.00     0.029 A 
ATOM     55  N   UNL A   1      48.268  29.545  27.149  1.00  0.00    -0.354 N 
ATOM     56  N   UNL A   1      46.514  26.096  28.168  1.00  0.00    -0.248 NA
ATOM     57  C   UNL A   1      46.082  24.496  26.555  1.00  0.00     0.031 C 
ATOM     58  C   UNL A   1      48.988  28.812  29.093  1.00  0.00     0.029 A 
ATOM     59  C   UNL A   1      48.607  28.380  27.835  1.00  0.00     0.049 A 
ATOM     60  H   UNL A   1      48.137  29.586  26.173  1.00  0.00     0.167 HD
ATOM     61  C   UNL A   1      47.522  26.227  27.194  1.00  0.00     0.074 A 
ATOM     62  C   UNL A   1      47.180  25.185  26.230  1.00  0.00     0.031 C 
ATOM     63  C   UNL A   1      48.553  27.152  27.056  1.00  0.00     0.037 A 
BRANCH  50  64
ATOM     64  C   UNL A   1      47.768  33.199  28.090  1.00  0.00     0.064 A 
ATOM     65  C   UNL A   1      48.551  34.072  27.276  1.00  0.00     0.173 A 
ATOM     66  C   UNL A   1      47.591  33.689  29.406  1.00  0.00     0.173 A 
ATOM     67  F   UNL A   1      48.758  33.806  25.978  1.00  0.00    -0.203 F 
ATOM     68  C   UNL A   1      49.152  35.255  27.737  1.00  0.00     0.198 A 
ATOM     69  C   UNL A   1      48.124  34.929  29.842  1.00  0.00     0.198 A 
ATOM     70  F   UNL A   1      46.928  32.991  30.336  1.00  0.00    -0.203 F 
ATOM     71  F   UNL A   1      49.956  35.957  26.924  1.00  0.00    -0.200 F 
ATOM     72  C   UNL A   1      48.925  35.696  29.018  1.00  0.00     0.200 A 
ATOM     73  F   UNL A   1      47.871  35.369  31.085  1.00  0.00    -0.200 F 
ATOM     74  F   UNL A   1      49.468  36.844  29.450  1.00  0.00    -0.200 F 
ENDBRANCH  50  64
BRANCH  51  75
ATOM     75  C   UNL A   1      43.098  23.953  27.845  1.00  0.00     0.064 A 
ATOM     76  C   UNL A   1      43.030  24.039  26.414  1.00  0.00     0.173 A 
ATOM     77  C   UNL A   1      42.649  22.737  28.409  1.00  0.00     0.173 A 
ATOM     78  F   UNL A   1      43.499  25.138  25.797  1.00  0.00    -0.203 F 
ATOM     79  C   UNL A   1      42.808  22.908  25.617  1.00  0.00     0.198 A 
ATOM     80  C   UNL A   1      42.405  21.614  27.593  1.00  0.00     0.198 A 
ATOM     81  F   UNL A   1      42.736  22.542  29.732  1.00  0.00    -0.203 F 
ATOM     82  F   UNL A   1      43.036  22.965  24.295  1.00  0.00    -0.200 F 
ATOM     83  C   UNL A   1      42.535  21.690  26.210  1.00  0.00     0.200 A 
ATOM     84  F   UNL A   1      42.221  20.410  28.154  1.00  0.00    -0.200 F 
ATOM     85  F   UNL A   1      42.501  20.573  25.464  1.00  0.00    -0.200 F 
ENDBRANCH  51  75
BRANCH  63  86
ATOM     86  C   UNL A   1      49.611  27.039  25.949  1.00  0.00     0.064 A 
ATOM     87  C   UNL A   1      49.333  27.426  24.631  1.00  0.00     0.173 A 
ATOM     88  C   UNL A   1      50.900  26.466  26.135  1.00  0.00     0.173 A 
ATOM     89  F   UNL A   1      48.098  27.815  24.277  1.00  0.00    -0.203 F 
ATOM     90  C   UNL A   1      50.315  27.426  23.637  1.00  0.00     0.198 A 
ATOM     91  C   UNL A   1      51.857  26.407  25.129  1.00  0.00     0.198 A 
ATOM     92  F   UNL A   1      51.315  25.937  27.290  1.00  0.00    -0.203 F 
ATOM     93  F   UNL A   1      50.028  27.921  22.426  1.00  0.00    -0.200 F 
ATOM     94  C   UNL A   1      51.580  26.929  23.889  1.00  0.00     0.200 A 
ATOM     95  F   UNL A   1      53.051  25.853  25.385  1.00  0.00    -0.200 F 
ATOM     96  F   UNL A   1      52.523  26.935  22.940  1.00  0.00    -0.200 F 
ENDBRANCH  63  86
ENDBRANCH  37  38
ENDBRANCH  30  32
ENDBRANCH  29  30
ENDBRANCH  28  29
ENDBRANCH  27  28
ENDBRANCH   1  27
TORSDOF 16
ENDMDL
MODEL 3
REMARK VINA RESULT:     -12.3      4.786      9.605
REMARK SMILES Cc1ccccc1/C=C1\SC(=S)N(CCC(=O)N[C@@H](C)C(=O)OCCOC(=O)c2ccc(-c3c4nc(c(-c5c(F)c(F)c(F)c(F)c5F)c5ccc([nH]5)c(-c5c(F)c(F)c(F)c(F)c5F)c5nc(c(-c6c(F)c(F)c(F)c(F)c6F)c6ccc3[nH]6)C=C5)C=C4)cc2)C1=O
REMARK SMILES IDX 23 1 21 2 22 3 19 4 20 5 18 6 16 7 17 8 15 10 14 11 13 12
REMARK SMILES IDX 8 13 9 14 10 15 92 16 11 17 93 18 12 19 7 20 1 21 2 22 3 23
REMARK SMILES IDX 4 24 6 25 5 26 24 27 25 28 26 29 27 30 28 31 29 32 30 33
REMARK SMILES IDX 91 34 31 35 90 36 32 37 33 38 34 39 84 40 35 41 89 42 83 43
REMARK SMILES IDX 85 44 36 45 88 46 82 47 81 48 37 50 69 51 49 52 68 53 50 54
REMARK SMILES IDX 53 55 67 56 86 57 51 58 52 59 66 61 87 62 54 63 38 64 39 65
REMARK SMILES IDX 47 66 40 67 41 68 45 69 48 70 42 71 43 72 46 73 44 74 70 75
REMARK SMILES IDX 71 76 79 77 72 78 73 79 77 80 80 81 74 82 75 83 78 84 76 85
REMARK SMILES IDX 55 86 56 87 64 88 57 89 58 90 62 91 65 92 59 93 60 94 63 95
REMARK SMILES IDX 61 96
REMARK H PARENT 18 9 85 49 53 60
REMARK Flexibility Score: inf
ROOT
ATOM      1  O   UNL A   1      45.062  22.677  25.469  1.00  0.00    -0.461 OA
ENDROOT
BRANCH   1   2
ATOM      2  C   UNL A   1      44.793  21.742  24.525  1.00  0.00     0.328 C 
ATOM      3  O   UNL A   1      44.523  22.005  23.356  1.00  0.00    -0.250 OA
BRANCH   2   4
ATOM      4  C   UNL A   1      44.969  20.302  25.012  1.00  0.00     0.189 C 
ATOM      5  C   UNL A   1      46.313  19.833  24.446  1.00  0.00     0.043 C 
BRANCH   4   6
ATOM      6  N   UNL A   1      43.973  19.274  24.727  1.00  0.00    -0.343 N 
ATOM      7  C   UNL A   1      42.973  18.888  25.583  1.00  0.00     0.222 C 
ATOM      8  O   UNL A   1      42.725  17.690  25.714  1.00  0.00    -0.275 OA
ATOM      9  H   UNL A   1      44.023  18.822  23.853  1.00  0.00     0.164 HD
BRANCH   7  10
ATOM     10  C   UNL A   1      42.143  19.934  26.295  1.00  0.00     0.122 C 
BRANCH  10  11
ATOM     11  C   UNL A   1      40.634  19.776  26.103  1.00  0.00     0.137 C 
BRANCH  11  12
ATOM     12  N   UNL A   1      39.906  21.040  26.320  1.00  0.00    -0.292 N 
ATOM     13  C   UNL A   1      40.330  24.663  27.321  1.00  0.00     0.029 C 
ATOM     14  C   UNL A   1      39.747  23.361  27.046  1.00  0.00     0.081 C 
ATOM     15  S   UNL A   1      38.121  22.798  26.364  1.00  0.00    -0.054 SA
ATOM     16  C   UNL A   1      40.279  21.952  27.314  1.00  0.00     0.266 C 
ATOM     17  C   UNL A   1      38.682  21.282  25.756  1.00  0.00     0.148 C 
ATOM     18  O   UNL A   1      40.775  21.631  28.381  1.00  0.00    -0.268 OA
ATOM     19  S   UNL A   1      37.791  20.384  24.669  1.00  0.00    -0.052 S 
BRANCH  13  20
ATOM     20  C   UNL A   1      40.219  26.481  27.219  1.00  0.00    -0.021 A 
ATOM     21  C   UNL A   1      42.141  28.095  25.608  1.00  0.00     0.045 C 
ATOM     22  C   UNL A   1      40.901  27.724  26.575  1.00  0.00    -0.044 A 
ATOM     23  C   UNL A   1      40.517  29.067  26.882  1.00  0.00     0.004 A 
ATOM     24  C   UNL A   1      39.611  29.361  27.839  1.00  0.00     0.000 A 
ATOM     25  C   UNL A   1      39.263  26.925  28.164  1.00  0.00     0.008 A 
ATOM     26  C   UNL A   1      39.005  28.299  28.477  1.00  0.00     0.001 A 
ENDBRANCH  13  20
ENDBRANCH  11  12
ENDBRANCH  10  11
ENDBRANCH   7  10
ENDBRANCH   4   6
ENDBRANCH   2   4
ENDBRANCH   1   2
BRANCH   1  27
ATOM     27  C   UNL A   1      44.925  24.027  24.990  1.00  0.00     0.274 C 
BRANCH  27  28
ATOM     28  C   UNL A   1      44.405  24.945  26.102  1.00  0.00     0.275 C 
BRANCH  28  29
ATOM     29  O   UNL A   1      44.560  24.403  27.438  1.00  0.00    -0.458 OA
BRANCH  29  30
ATOM     30  C   UNL A   1      45.412  25.016  28.295  1.00  0.00     0.338 C 
ATOM     31  O   UNL A   1      46.634  24.848  28.337  1.00  0.00    -0.246 OA
BRANCH  30  32
ATOM     32  C   UNL A   1      44.666  25.998  29.129  1.00  0.00     0.060 A 
ATOM     33  C   UNL A   1      43.290  25.972  29.366  1.00  0.00     0.016 A 
ATOM     34  C   UNL A   1      45.408  26.931  29.819  1.00  0.00     0.016 A 
ATOM     35  C   UNL A   1      42.686  26.882  30.290  1.00  0.00     0.010 A 
ATOM     36  C   UNL A   1      44.846  27.638  30.868  1.00  0.00     0.010 A 
ATOM     37  C   UNL A   1      43.453  27.724  31.135  1.00  0.00    -0.014 A 
BRANCH  37  38
ATOM     38  C   UNL A   1      42.880  29.099  31.907  1.00  0.00     0.031 A 
ATOM     39  C   UNL A   1      42.026  30.732  31.289  1.00  0.00     0.074 A 
ATOM     40  C   UNL A   1      42.627  28.330  33.045  1.00  0.00     0.049 A 
ATOM     41  N   UNL A   1      41.245  31.614  31.982  1.00  0.00    -0.248 NA
ATOM     42  C   UNL A   1      41.840  31.427  29.870  1.00  0.00     0.031 C 
ATOM     43  C   UNL A   1      41.454  27.402  33.412  1.00  0.00     0.029 A 
ATOM     44  N   UNL A   1      43.538  27.709  33.874  1.00  0.00    -0.354 N 
ATOM     45  C   UNL A   1      40.132  32.072  31.146  1.00  0.00     0.074 A 
ATOM     46  C   UNL A   1      40.700  32.122  29.854  1.00  0.00     0.031 C 
ATOM     47  C   UNL A   1      41.530  27.073  34.703  1.00  0.00     0.029 A 
ATOM     48  C   UNL A   1      42.852  27.424  35.078  1.00  0.00     0.049 A 
ATOM     49  H   UNL A   1      44.479  27.505  33.669  1.00  0.00     0.167 HD
ATOM     50  C   UNL A   1      38.781  32.194  31.500  1.00  0.00     0.037 A 
ATOM     51  C   UNL A   1      43.305  27.981  36.213  1.00  0.00     0.037 A 
ATOM     52  C   UNL A   1      38.485  31.993  32.933  1.00  0.00     0.049 A 
ATOM     53  C   UNL A   1      42.625  29.357  36.421  1.00  0.00     0.074 A 
ATOM     54  C   UNL A   1      37.546  31.289  33.683  1.00  0.00     0.029 A 
ATOM     55  N   UNL A   1      39.394  32.446  33.865  1.00  0.00    -0.354 N 
ATOM     56  N   UNL A   1      41.420  29.784  36.061  1.00  0.00    -0.248 NA
ATOM     57  C   UNL A   1      43.404  30.394  37.082  1.00  0.00     0.031 C 
ATOM     58  C   UNL A   1      38.043  31.161  35.032  1.00  0.00     0.029 A 
ATOM     59  C   UNL A   1      39.261  31.815  35.102  1.00  0.00     0.049 A 
ATOM     60  H   UNL A   1      40.066  33.142  33.677  1.00  0.00     0.167 HD
ATOM     61  C   UNL A   1      41.310  31.155  36.362  1.00  0.00     0.074 A 
ATOM     62  C   UNL A   1      42.588  31.451  37.004  1.00  0.00     0.031 C 
ATOM     63  C   UNL A   1      40.319  32.086  36.063  1.00  0.00     0.037 A 
BRANCH  50  64
ATOM     64  C   UNL A   1      37.530  32.336  30.549  1.00  0.00     0.064 A 
ATOM     65  C   UNL A   1      36.885  31.154  30.076  1.00  0.00     0.173 A 
ATOM     66  C   UNL A   1      37.013  33.515  29.961  1.00  0.00     0.173 A 
ATOM     67  F   UNL A   1      37.193  29.950  30.579  1.00  0.00    -0.203 F 
ATOM     68  C   UNL A   1      35.895  31.139  29.079  1.00  0.00     0.198 A 
ATOM     69  C   UNL A   1      35.951  33.503  29.020  1.00  0.00     0.198 A 
ATOM     70  F   UNL A   1      37.520  34.723  30.236  1.00  0.00    -0.203 F 
ATOM     71  F   UNL A   1      35.420  29.968  28.626  1.00  0.00    -0.200 F 
ATOM     72  C   UNL A   1      35.412  32.316  28.561  1.00  0.00     0.200 A 
ATOM     73  F   UNL A   1      35.462  34.659  28.543  1.00  0.00    -0.200 F 
ATOM     74  F   UNL A   1      34.441  32.306  27.636  1.00  0.00    -0.200 F 
ENDBRANCH  50  64
BRANCH  51  75
ATOM     75  C   UNL A   1      44.783  27.540  36.182  1.00  0.00     0.064 A 
ATOM     76  C   UNL A   1      44.936  26.129  36.398  1.00  0.00     0.173 A 
ATOM     77  C   UNL A   1      45.698  28.125  35.278  1.00  0.00     0.173 A 
ATOM     78  F   UNL A   1      44.064  25.486  37.194  1.00  0.00    -0.203 F 
ATOM     79  C   UNL A   1      45.739  25.339  35.564  1.00  0.00     0.198 A 
ATOM     80  C   UNL A   1      46.518  27.319  34.463  1.00  0.00     0.198 A 
ATOM     81  F   UNL A   1      45.590  29.424  34.966  1.00  0.00    -0.203 F 
ATOM     82  F   UNL A   1      45.636  24.000  35.607  1.00  0.00    -0.200 F 
ATOM     83  C   UNL A   1      46.498  25.932  34.573  1.00  0.00     0.200 A 
ATOM     84  F   UNL A   1      47.195  27.871  33.446  1.00  0.00    -0.200 F 
ATOM     85  F   UNL A   1      47.125  25.171  33.661  1.00  0.00    -0.200 F 
ENDBRANCH  51  75
BRANCH  63  86
ATOM     86  C   UNL A   1      40.366  33.528  36.588  1.00  0.00     0.064 A 
ATOM     87  C   UNL A   1      39.504  33.964  37.603  1.00  0.00     0.173 A 
ATOM     88  C   UNL A   1      41.199  34.546  36.046  1.00  0.00     0.173 A 
ATOM     89  F   UNL A   1      38.542  33.158  38.078  1.00  0.00    -0.203 F 
ATOM     90  C   UNL A   1      39.603  35.241  38.160  1.00  0.00     0.198 A 
ATOM     91  C   UNL A   1      41.253  35.836  36.559  1.00  0.00     0.198 A 
ATOM     92  F   UNL A   1      42.011  34.359  35.000  1.00  0.00    -0.203 F 
ATOM     93  F   UNL A   1      38.838  35.564  39.211  1.00  0.00    -0.200 F 
ATOM     94  C   UNL A   1      40.486  36.173  37.647  1.00  0.00     0.200 A 
ATOM     95  F   UNL A   1      42.069  36.738  35.993  1.00  0.00    -0.200 F 
ATOM     96  F   UNL A   1      40.588  37.393  38.186  1.00  0.00    -0.200 F 
ENDBRANCH  63  86
ENDBRANCH  37  38
ENDBRANCH  30  32
ENDBRANCH  29  30
ENDBRANCH  28  29
ENDBRANCH  27  28
ENDBRANCH   1  27
TORSDOF 16
ENDMDL
