MODEL 1
REMARK VINA RESULT:     -11.7      0.000      0.000
REMARK SMILES Nn1c(Cc2ccc(F)c(F)c2)nnc1SCC(=O)OCCOC(=O)c1ccc(-c2c3nc(c(-c4c(F)c(F)c(F)c(F)c4F)c4ccc([nH]4)c(-c4c(F)c(F)c(F)c(F)c4F)c4nc(c(-c5c(F)c(F)c(F)c(F)c5F)c5ccc2[nH]5)C=C4)C=C3)cc1
REMARK SMILES IDX 21 1 20 2 18 3 19 4 17 5 16 6 15 7 2 8 3 9 13 10 14 11 1 12
REMARK SMILES IDX 4 15 5 16 6 17 12 18 7 19 10 20 8 21 11 22 9 23 22 24 23 25
REMARK SMILES IDX 24 26 25 27 26 28 27 29 88 30 28 31 87 32 29 33 30 34 31 35
REMARK SMILES IDX 81 36 32 37 86 38 80 39 82 40 33 41 85 42 79 43 78 44 34 46
REMARK SMILES IDX 66 47 46 48 65 49 47 50 50 51 64 52 83 53 48 54 49 55 63 57
REMARK SMILES IDX 84 58 51 59 35 60 36 61 44 62 37 63 38 64 42 65 45 66 39 67
REMARK SMILES IDX 40 68 43 69 41 70 67 71 68 72 76 73 69 74 70 75 74 76 77 77
REMARK SMILES IDX 71 78 72 79 75 80 73 81 52 82 53 83 61 84 54 85 55 86 59 87
REMARK SMILES IDX 62 88 56 89 57 90 60 91 58 92
REMARK H PARENT 1 13 1 14 82 45 50 56
REMARK Flexibility Score: inf
ROOT
ATOM      1  C   UNL A   1      35.120  34.972  33.836  1.00  0.00     0.274 C 
ENDROOT
BRANCH   1   2
ATOM      2  O   UNL A   1      35.145  36.194  33.072  1.00  0.00    -0.461 OA
BRANCH   2   3
ATOM      3  C   UNL A   1      34.010  36.935  33.095  1.00  0.00     0.316 C 
ATOM      4  O   UNL A   1      33.349  37.151  34.108  1.00  0.00    -0.251 OA
BRANCH   3   5
ATOM      5  C   UNL A   1      33.573  37.486  31.761  1.00  0.00     0.200 C 
BRANCH   5   6
ATOM      6  S   UNL A   1      32.636  36.408  30.666  1.00  0.00    -0.073 SA
BRANCH   6   7
ATOM      7  C   UNL A   1      33.668  35.059  30.336  1.00  0.00     0.210 A 
ATOM      8  N   UNL A   1      34.432  34.860  29.210  1.00  0.00    -0.221 N 
ATOM      9  C   UNL A   1      34.979  33.602  29.348  1.00  0.00     0.157 A 
ATOM     10  N   UNL A   1      34.523  33.063  30.463  1.00  0.00    -0.132 NA
ATOM     11  N   UNL A   1      33.704  33.977  31.081  1.00  0.00    -0.121 NA
BRANCH   8  12
ATOM     12  N   UNL A   1      34.559  35.721  28.068  1.00  0.00    -0.336 N 
ATOM     13  H   UNL A   1      33.833  36.345  27.837  1.00  0.00     0.178 HD
ATOM     14  H   UNL A   1      35.373  35.688  27.515  1.00  0.00     0.178 HD
ENDBRANCH   8  12
BRANCH   9  15
ATOM     15  C   UNL A   1      35.884  32.966  28.346  1.00  0.00     0.115 C 
BRANCH  15  16
ATOM     16  C   UNL A   1      35.454  31.579  27.920  1.00  0.00    -0.037 A 
ATOM     17  C   UNL A   1      36.365  30.508  27.941  1.00  0.00     0.007 A 
ATOM     18  C   UNL A   1      34.152  31.350  27.447  1.00  0.00     0.046 A 
ATOM     19  C   UNL A   1      35.981  29.240  27.496  1.00  0.00     0.043 A 
ATOM     20  C   UNL A   1      33.780  30.086  27.000  1.00  0.00     0.159 A 
ATOM     21  C   UNL A   1      34.689  29.038  27.024  1.00  0.00     0.158 A 
ATOM     22  F   UNL A   1      32.533  29.893  26.547  1.00  0.00    -0.204 F 
ATOM     23  F   UNL A   1      34.328  27.822  26.592  1.00  0.00    -0.204 F 
ENDBRANCH  15  16
ENDBRANCH   9  15
ENDBRANCH   6   7
ENDBRANCH   5   6
ENDBRANCH   3   5
ENDBRANCH   2   3
ENDBRANCH   1   2
BRANCH   1  24
ATOM     24  C   UNL A   1      36.500  34.327  33.898  1.00  0.00     0.275 C 
BRANCH  24  25
ATOM     25  O   UNL A   1      36.510  33.092  33.156  1.00  0.00    -0.458 OA
BRANCH  25  26
ATOM     26  C   UNL A   1      37.170  32.078  33.751  1.00  0.00     0.338 C 
ATOM     27  O   UNL A   1      37.117  31.738  34.920  1.00  0.00    -0.246 OA
BRANCH  26  28
ATOM     28  C   UNL A   1      38.015  31.342  32.800  1.00  0.00     0.060 A 
ATOM     29  C   UNL A   1      38.995  30.459  33.256  1.00  0.00     0.016 A 
ATOM     30  C   UNL A   1      37.962  31.708  31.451  1.00  0.00     0.016 A 
ATOM     31  C   UNL A   1      39.979  30.010  32.372  1.00  0.00     0.010 A 
ATOM     32  C   UNL A   1      38.913  31.213  30.559  1.00  0.00     0.010 A 
ATOM     33  C   UNL A   1      39.957  30.399  31.022  1.00  0.00    -0.014 A 
BRANCH  33  34
ATOM     34  C   UNL A   1      41.059  30.007  30.107  1.00  0.00     0.031 A 
ATOM     35  C   UNL A   1      41.060  28.649  29.457  1.00  0.00     0.074 A 
ATOM     36  C   UNL A   1      42.048  30.878  29.836  1.00  0.00     0.049 A 
ATOM     37  N   UNL A   1      41.947  28.117  28.654  1.00  0.00    -0.248 NA
ATOM     38  C   UNL A   1      39.911  27.773  29.742  1.00  0.00     0.031 C 
ATOM     39  C   UNL A   1      42.153  32.232  30.378  1.00  0.00     0.029 A 
ATOM     40  N   UNL A   1      43.147  30.754  29.024  1.00  0.00    -0.354 N 
ATOM     41  C   UNL A   1      41.477  26.847  28.354  1.00  0.00     0.074 A 
ATOM     42  C   UNL A   1      40.229  26.677  29.066  1.00  0.00     0.031 C 
ATOM     43  C   UNL A   1      43.235  32.829  29.854  1.00  0.00     0.029 A 
ATOM     44  C   UNL A   1      43.921  31.885  28.975  1.00  0.00     0.049 A 
ATOM     45  H   UNL A   1      43.359  29.932  28.525  1.00  0.00     0.167 HD
ATOM     46  C   UNL A   1      42.032  25.907  27.553  1.00  0.00     0.037 A 
ATOM     47  C   UNL A   1      45.063  32.131  28.307  1.00  0.00     0.037 A 
ATOM     48  C   UNL A   1      43.258  26.073  26.819  1.00  0.00     0.049 A 
ATOM     49  C   UNL A   1      45.692  31.049  27.480  1.00  0.00     0.074 A 
ATOM     50  C   UNL A   1      43.867  25.191  25.944  1.00  0.00     0.029 A 
ATOM     51  N   UNL A   1      44.062  27.200  26.877  1.00  0.00    -0.354 N 
ATOM     52  N   UNL A   1      45.245  29.846  27.219  1.00  0.00    -0.248 NA
ATOM     53  C   UNL A   1      47.000  31.350  26.880  1.00  0.00     0.031 C 
ATOM     54  C   UNL A   1      45.055  25.775  25.490  1.00  0.00     0.029 A 
ATOM     55  C   UNL A   1      45.175  27.026  26.071  1.00  0.00     0.049 A 
ATOM     56  H   UNL A   1      43.871  28.004  27.412  1.00  0.00     0.167 HD
ATOM     57  C   UNL A   1      46.216  29.243  26.433  1.00  0.00     0.074 A 
ATOM     58  C   UNL A   1      47.272  30.216  26.247  1.00  0.00     0.031 C 
ATOM     59  C   UNL A   1      46.229  27.991  25.918  1.00  0.00     0.037 A 
BRANCH  46  60
ATOM     60  C   UNL A   1      41.318  24.598  27.422  1.00  0.00     0.064 A 
ATOM     61  C   UNL A   1      41.841  23.442  28.017  1.00  0.00     0.173 A 
ATOM     62  C   UNL A   1      40.153  24.482  26.654  1.00  0.00     0.173 A 
ATOM     63  F   UNL A   1      42.952  23.510  28.764  1.00  0.00    -0.203 F 
ATOM     64  C   UNL A   1      41.221  22.208  27.839  1.00  0.00     0.198 A 
ATOM     65  C   UNL A   1      39.532  23.248  26.485  1.00  0.00     0.198 A 
ATOM     66  F   UNL A   1      39.612  25.567  26.080  1.00  0.00    -0.203 F 
ATOM     67  F   UNL A   1      41.741  21.111  28.408  1.00  0.00    -0.200 F 
ATOM     68  C   UNL A   1      40.069  22.111  27.073  1.00  0.00     0.200 A 
ATOM     69  F   UNL A   1      38.408  23.159  25.759  1.00  0.00    -0.200 F 
ATOM     70  F   UNL A   1      39.471  20.924  26.906  1.00  0.00    -0.200 F 
ENDBRANCH  46  60
BRANCH  47  71
ATOM     71  C   UNL A   1      45.688  33.468  28.407  1.00  0.00     0.064 A 
ATOM     72  C   UNL A   1      45.478  34.444  27.424  1.00  0.00     0.173 A 
ATOM     73  C   UNL A   1      46.539  33.777  29.475  1.00  0.00     0.173 A 
ATOM     74  F   UNL A   1      44.667  34.187  26.388  1.00  0.00    -0.203 F 
ATOM     75  C   UNL A   1      46.115  35.681  27.497  1.00  0.00     0.198 A 
ATOM     76  C   UNL A   1      47.166  35.019  29.553  1.00  0.00     0.198 A 
ATOM     77  F   UNL A   1      46.751  32.877  30.445  1.00  0.00    -0.203 F 
ATOM     78  F   UNL A   1      45.916  36.591  26.535  1.00  0.00    -0.200 F 
ATOM     79  C   UNL A   1      46.958  35.967  28.561  1.00  0.00     0.200 A 
ATOM     80  F   UNL A   1      47.970  35.297  30.587  1.00  0.00    -0.200 F 
ATOM     81  F   UNL A   1      47.570  37.157  28.630  1.00  0.00    -0.200 F 
ENDBRANCH  47  71
BRANCH  59  82
ATOM     82  C   UNL A   1      47.431  27.590  25.125  1.00  0.00     0.064 A 
ATOM     83  C   UNL A   1      48.551  27.028  25.752  1.00  0.00     0.173 A 
ATOM     84  C   UNL A   1      47.484  27.813  23.742  1.00  0.00     0.173 A 
ATOM     85  F   UNL A   1      48.542  26.799  27.073  1.00  0.00    -0.203 F 
ATOM     86  C   UNL A   1      49.691  26.709  25.018  1.00  0.00     0.198 A 
ATOM     87  C   UNL A   1      48.621  27.483  23.012  1.00  0.00     0.198 A 
ATOM     88  F   UNL A   1      46.428  28.338  23.102  1.00  0.00    -0.203 F 
ATOM     89  F   UNL A   1      50.756  26.181  25.636  1.00  0.00    -0.200 F 
ATOM     90  C   UNL A   1      49.725  26.935  23.650  1.00  0.00     0.200 A 
ATOM     91  F   UNL A   1      48.648  27.688  21.687  1.00  0.00    -0.200 F 
ATOM     92  F   UNL A   1      50.819  26.620  22.946  1.00  0.00    -0.200 F 
ENDBRANCH  59  82
ENDBRANCH  33  34
ENDBRANCH  26  28
ENDBRANCH  25  26
ENDBRANCH  24  25
ENDBRANCH   1  24
TORSDOF 16
ENDMDL
MODEL 2
REMARK VINA RESULT:     -11.4      6.240      9.668
REMARK SMILES Nn1c(Cc2ccc(F)c(F)c2)nnc1SCC(=O)OCCOC(=O)c1ccc(-c2c3nc(c(-c4c(F)c(F)c(F)c(F)c4F)c4ccc([nH]4)c(-c4c(F)c(F)c(F)c(F)c4F)c4nc(c(-c5c(F)c(F)c(F)c(F)c5F)c5ccc2[nH]5)C=C4)C=C3)cc1
REMARK SMILES IDX 21 1 20 2 18 3 19 4 17 5 16 6 15 7 2 8 3 9 13 10 14 11 1 12
REMARK SMILES IDX 4 15 5 16 6 17 12 18 7 19 10 20 8 21 11 22 9 23 22 24 23 25
REMARK SMILES IDX 24 26 25 27 26 28 27 29 88 30 28 31 87 32 29 33 30 34 31 35
REMARK SMILES IDX 81 36 32 37 86 38 80 39 82 40 33 41 85 42 79 43 78 44 34 46
REMARK SMILES IDX 66 47 46 48 65 49 47 50 50 51 64 52 83 53 48 54 49 55 63 57
REMARK SMILES IDX 84 58 51 59 35 60 36 61 44 62 37 63 38 64 42 65 45 66 39 67
REMARK SMILES IDX 40 68 43 69 41 70 67 71 68 72 76 73 69 74 70 75 74 76 77 77
REMARK SMILES IDX 71 78 72 79 75 80 73 81 52 82 53 83 61 84 54 85 55 86 59 87
REMARK SMILES IDX 62 88 56 89 57 90 60 91 58 92
REMARK H PARENT 1 13 1 14 82 45 50 56
REMARK Flexibility Score: inf
ROOT
ATOM      1  C   UNL A   1      31.861  29.180  24.885  1.00  0.00     0.274 C 
ENDROOT
BRANCH   1   2
ATOM      2  O   UNL A   1      30.669  28.835  24.153  1.00  0.00    -0.461 OA
BRANCH   2   3
ATOM      3  C   UNL A   1      30.833  27.976  23.117  1.00  0.00     0.316 C 
ATOM      4  O   UNL A   1      30.189  28.027  22.071  1.00  0.00    -0.251 OA
BRANCH   3   5
ATOM      5  C   UNL A   1      31.872  26.903  23.326  1.00  0.00     0.200 C 
BRANCH   5   6
ATOM      6  S   UNL A   1      32.341  25.894  21.913  1.00  0.00    -0.073 SA
BRANCH   6   7
ATOM      7  C   UNL A   1      32.751  24.341  22.557  1.00  0.00     0.210 A 
ATOM      8  N   UNL A   1      31.932  23.504  23.278  1.00  0.00    -0.221 N 
ATOM      9  C   UNL A   1      32.730  22.450  23.673  1.00  0.00     0.157 A 
ATOM     10  N   UNL A   1      33.962  22.676  23.259  1.00  0.00    -0.132 NA
ATOM     11  N   UNL A   1      33.974  23.858  22.560  1.00  0.00    -0.121 NA
BRANCH   8  12
ATOM     12  N   UNL A   1      30.561  23.716  23.648  1.00  0.00    -0.336 N 
ATOM     13  H   UNL A   1      30.301  23.718  24.598  1.00  0.00     0.178 HD
ATOM     14  H   UNL A   1      29.880  23.859  22.952  1.00  0.00     0.178 HD
ENDBRANCH   8  12
BRANCH   9  15
ATOM     15  C   UNL A   1      32.252  21.296  24.489  1.00  0.00     0.115 C 
BRANCH  15  16
ATOM     16  C   UNL A   1      32.776  19.954  24.026  1.00  0.00    -0.037 A 
ATOM     17  C   UNL A   1      32.146  19.263  22.976  1.00  0.00     0.007 A 
ATOM     18  C   UNL A   1      33.868  19.354  24.671  1.00  0.00     0.046 A 
ATOM     19  C   UNL A   1      32.598  17.999  22.585  1.00  0.00     0.043 A 
ATOM     20  C   UNL A   1      34.308  18.093  24.280  1.00  0.00     0.159 A 
ATOM     21  C   UNL A   1      33.677  17.420  23.244  1.00  0.00     0.158 A 
ATOM     22  F   UNL A   1      35.350  17.537  24.915  1.00  0.00    -0.204 F 
ATOM     23  F   UNL A   1      34.102  16.205  22.870  1.00  0.00    -0.204 F 
ENDBRANCH  15  16
ENDBRANCH   9  15
ENDBRANCH   6   7
ENDBRANCH   5   6
ENDBRANCH   3   5
ENDBRANCH   2   3
ENDBRANCH   1   2
BRANCH   1  24
ATOM     24  C   UNL A   1      31.654  30.434  25.726  1.00  0.00     0.275 C 
BRANCH  24  25
ATOM     25  O   UNL A   1      32.390  30.339  26.961  1.00  0.00    -0.458 OA
BRANCH  25  26
ATOM     26  C   UNL A   1      33.158  31.408  27.247  1.00  0.00     0.338 C 
ATOM     27  O   UNL A   1      32.849  32.585  27.192  1.00  0.00    -0.246 OA
BRANCH  26  28
ATOM     28  C   UNL A   1      34.505  31.014  27.685  1.00  0.00     0.060 A 
ATOM     29  C   UNL A   1      34.812  29.673  27.921  1.00  0.00     0.016 A 
ATOM     30  C   UNL A   1      35.396  32.023  28.067  1.00  0.00     0.016 A 
ATOM     31  C   UNL A   1      35.976  29.348  28.621  1.00  0.00     0.010 A 
ATOM     32  C   UNL A   1      36.585  31.691  28.715  1.00  0.00     0.010 A 
ATOM     33  C   UNL A   1      36.861  30.355  29.041  1.00  0.00    -0.014 A 
BRANCH  33  34
ATOM     34  C   UNL A   1      38.044  30.020  29.873  1.00  0.00     0.031 A 
ATOM     35  C   UNL A   1      39.144  29.154  29.318  1.00  0.00     0.074 A 
ATOM     36  C   UNL A   1      38.149  30.514  31.121  1.00  0.00     0.049 A 
ATOM     37  N   UNL A   1      40.237  28.731  29.900  1.00  0.00    -0.248 NA
ATOM     38  C   UNL A   1      38.999  28.706  27.922  1.00  0.00     0.031 C 
ATOM     39  C   UNL A   1      37.169  31.385  31.768  1.00  0.00     0.029 A 
ATOM     40  N   UNL A   1      39.137  30.360  32.060  1.00  0.00    -0.354 N 
ATOM     41  C   UNL A   1      40.898  27.958  28.956  1.00  0.00     0.074 A 
ATOM     42  C   UNL A   1      40.082  27.958  27.760  1.00  0.00     0.031 C 
ATOM     43  C   UNL A   1      37.623  31.721  32.986  1.00  0.00     0.029 A 
ATOM     44  C   UNL A   1      38.903  31.055  33.218  1.00  0.00     0.049 A 
ATOM     45  H   UNL A   1      39.938  29.806  31.915  1.00  0.00     0.167 HD
ATOM     46  C   UNL A   1      42.081  27.309  29.072  1.00  0.00     0.037 A 
ATOM     47  C   UNL A   1      39.630  31.137  34.348  1.00  0.00     0.037 A 
ATOM     48  C   UNL A   1      42.913  27.322  30.245  1.00  0.00     0.049 A 
ATOM     49  C   UNL A   1      40.903  30.354  34.474  1.00  0.00     0.074 A 
ATOM     50  C   UNL A   1      44.152  26.733  30.431  1.00  0.00     0.029 A 
ATOM     51  N   UNL A   1      42.588  27.957  31.432  1.00  0.00    -0.354 N 
ATOM     52  N   UNL A   1      41.508  29.614  33.578  1.00  0.00    -0.248 NA
ATOM     53  C   UNL A   1      41.579  30.395  35.779  1.00  0.00     0.031 C 
ATOM     54  C   UNL A   1      44.567  26.993  31.742  1.00  0.00     0.029 A 
ATOM     55  C   UNL A   1      43.593  27.755  32.364  1.00  0.00     0.049 A 
ATOM     56  H   UNL A   1      41.766  28.475  31.590  1.00  0.00     0.167 HD
ATOM     57  C   UNL A   1      42.627  29.094  34.210  1.00  0.00     0.074 A 
ATOM     58  C   UNL A   1      42.629  29.614  35.562  1.00  0.00     0.031 C 
ATOM     59  C   UNL A   1      43.566  28.255  33.711  1.00  0.00     0.037 A 
BRANCH  46  60
ATOM     60  C   UNL A   1      42.556  26.520  27.893  1.00  0.00     0.064 A 
ATOM     61  C   UNL A   1      43.381  27.113  26.927  1.00  0.00     0.173 A 
ATOM     62  C   UNL A   1      42.142  25.197  27.691  1.00  0.00     0.173 A 
ATOM     63  F   UNL A   1      43.804  28.376  27.084  1.00  0.00    -0.203 F 
ATOM     64  C   UNL A   1      43.768  26.408  25.791  1.00  0.00     0.198 A 
ATOM     65  C   UNL A   1      42.538  24.492  26.557  1.00  0.00     0.198 A 
ATOM     66  F   UNL A   1      41.366  24.587  28.599  1.00  0.00    -0.203 F 
ATOM     67  F   UNL A   1      44.548  26.995  24.873  1.00  0.00    -0.200 F 
ATOM     68  C   UNL A   1      43.346  25.100  25.606  1.00  0.00     0.200 A 
ATOM     69  F   UNL A   1      42.144  23.222  26.388  1.00  0.00    -0.200 F 
ATOM     70  F   UNL A   1      43.722  24.421  24.514  1.00  0.00    -0.200 F 
ENDBRANCH  46  60
BRANCH  47  71
ATOM     71  C   UNL A   1      39.154  31.995  35.455  1.00  0.00     0.064 A 
ATOM     72  C   UNL A   1      39.509  33.349  35.530  1.00  0.00     0.173 A 
ATOM     73  C   UNL A   1      38.367  31.460  36.481  1.00  0.00     0.173 A 
ATOM     74  F   UNL A   1      40.260  33.898  34.565  1.00  0.00    -0.203 F 
ATOM     75  C   UNL A   1      39.104  34.135  36.606  1.00  0.00     0.198 A 
ATOM     76  C   UNL A   1      37.952  32.251  37.551  1.00  0.00     0.198 A 
ATOM     77  F   UNL A   1      37.992  30.173  36.437  1.00  0.00    -0.203 F 
ATOM     78  F   UNL A   1      39.471  35.422  36.667  1.00  0.00    -0.200 F 
ATOM     79  C   UNL A   1      38.327  33.585  37.615  1.00  0.00     0.200 A 
ATOM     80  F   UNL A   1      37.192  31.721  38.518  1.00  0.00    -0.200 F 
ATOM     81  F   UNL A   1      37.937  34.343  38.649  1.00  0.00    -0.200 F 
ENDBRANCH  47  71
BRANCH  59  82
ATOM     82  C   UNL A   1      44.661  27.826  34.635  1.00  0.00     0.064 A 
ATOM     83  C   UNL A   1      45.838  28.577  34.752  1.00  0.00     0.173 A 
ATOM     84  C   UNL A   1      44.554  26.636  35.368  1.00  0.00     0.173 A 
ATOM     85  F   UNL A   1      45.981  29.721  34.067  1.00  0.00    -0.203 F 
ATOM     86  C   UNL A   1      46.879  28.144  35.570  1.00  0.00     0.198 A 
ATOM     87  C   UNL A   1      45.593  26.214  36.192  1.00  0.00     0.198 A 
ATOM     88  F   UNL A   1      43.439  25.895  35.294  1.00  0.00    -0.203 F 
ATOM     89  F   UNL A   1      48.002  28.871  35.661  1.00  0.00    -0.200 F 
ATOM     90  C   UNL A   1      46.756  26.965  36.289  1.00  0.00     0.200 A 
ATOM     91  F   UNL A   1      45.467  25.082  36.899  1.00  0.00    -0.200 F 
ATOM     92  F   UNL A   1      47.755  26.555  37.081  1.00  0.00    -0.200 F 
ENDBRANCH  59  82
ENDBRANCH  33  34
ENDBRANCH  26  28
ENDBRANCH  25  26
ENDBRANCH  24  25
ENDBRANCH   1  24
TORSDOF 16
ENDMDL
MODEL 3
REMARK VINA RESULT:     -11.3      6.359     12.249
REMARK SMILES Nn1c(Cc2ccc(F)c(F)c2)nnc1SCC(=O)OCCOC(=O)c1ccc(-c2c3nc(c(-c4c(F)c(F)c(F)c(F)c4F)c4ccc([nH]4)c(-c4c(F)c(F)c(F)c(F)c4F)c4nc(c(-c5c(F)c(F)c(F)c(F)c5F)c5ccc2[nH]5)C=C4)C=C3)cc1
REMARK SMILES IDX 21 1 20 2 18 3 19 4 17 5 16 6 15 7 2 8 3 9 13 10 14 11 1 12
REMARK SMILES IDX 4 15 5 16 6 17 12 18 7 19 10 20 8 21 11 22 9 23 22 24 23 25
REMARK SMILES IDX 24 26 25 27 26 28 27 29 88 30 28 31 87 32 29 33 30 34 31 35
REMARK SMILES IDX 81 36 32 37 86 38 80 39 82 40 33 41 85 42 79 43 78 44 34 46
REMARK SMILES IDX 66 47 46 48 65 49 47 50 50 51 64 52 83 53 48 54 49 55 63 57
REMARK SMILES IDX 84 58 51 59 35 60 36 61 44 62 37 63 38 64 42 65 45 66 39 67
REMARK SMILES IDX 40 68 43 69 41 70 67 71 68 72 76 73 69 74 70 75 74 76 77 77
REMARK SMILES IDX 71 78 72 79 75 80 73 81 52 82 53 83 61 84 54 85 55 86 59 87
REMARK SMILES IDX 62 88 56 89 57 90 60 91 58 92
REMARK H PARENT 1 13 1 14 82 45 50 56
REMARK Flexibility Score: inf
ROOT
ATOM      1  C   UNL A   1      42.703  21.112  26.269  1.00  0.00     0.274 C 
ENDROOT
BRANCH   1   2
ATOM      2  O   UNL A   1      41.353  21.151  25.766  1.00  0.00    -0.461 OA
BRANCH   2   3
ATOM      3  C   UNL A   1      40.390  21.464  26.668  1.00  0.00     0.316 C 
ATOM      4  O   UNL A   1      40.601  21.648  27.865  1.00  0.00    -0.251 OA
BRANCH   3   5
ATOM      5  C   UNL A   1      38.992  21.562  26.111  1.00  0.00     0.200 C 
BRANCH   5   6
ATOM      6  S   UNL A   1      38.217  23.184  26.049  1.00  0.00    -0.073 SA
BRANCH   6   7
ATOM      7  C   UNL A   1      36.738  22.969  25.179  1.00  0.00     0.210 A 
ATOM      8  N   UNL A   1      35.615  22.302  25.610  1.00  0.00    -0.221 N 
ATOM      9  C   UNL A   1      34.751  22.292  24.536  1.00  0.00     0.157 A 
ATOM     10  N   UNL A   1      35.347  22.870  23.510  1.00  0.00    -0.132 NA
ATOM     11  N   UNL A   1      36.589  23.294  23.914  1.00  0.00    -0.121 NA
BRANCH   8  12
ATOM     12  N   UNL A   1      35.409  21.649  26.872  1.00  0.00    -0.336 N 
ATOM     13  H   UNL A   1      35.806  20.764  27.040  1.00  0.00     0.178 HD
ATOM     14  H   UNL A   1      34.870  22.086  27.571  1.00  0.00     0.178 HD
ENDBRANCH   8  12
BRANCH   9  15
ATOM     15  C   UNL A   1      33.398  21.664  24.553  1.00  0.00     0.115 C 
BRANCH  15  16
ATOM     16  C   UNL A   1      33.391  20.201  24.163  1.00  0.00    -0.037 A 
ATOM     17  C   UNL A   1      32.365  19.679  23.357  1.00  0.00     0.007 A 
ATOM     18  C   UNL A   1      34.383  19.332  24.643  1.00  0.00     0.046 A 
ATOM     19  C   UNL A   1      32.332  18.318  23.042  1.00  0.00     0.043 A 
ATOM     20  C   UNL A   1      34.339  17.977  24.331  1.00  0.00     0.159 A 
ATOM     21  C   UNL A   1      33.320  17.473  23.536  1.00  0.00     0.158 A 
ATOM     22  F   UNL A   1      35.294  17.164  24.806  1.00  0.00    -0.204 F 
ATOM     23  F   UNL A   1      33.280  16.167  23.237  1.00  0.00    -0.204 F 
ENDBRANCH  15  16
ENDBRANCH   9  15
ENDBRANCH   6   7
ENDBRANCH   5   6
ENDBRANCH   3   5
ENDBRANCH   2   3
ENDBRANCH   1   2
BRANCH   1  24
ATOM     24  C   UNL A   1      43.646  21.930  25.393  1.00  0.00     0.275 C 
BRANCH  24  25
ATOM     25  O   UNL A   1      42.975  23.101  24.889  1.00  0.00    -0.458 OA
BRANCH  25  26
ATOM     26  C   UNL A   1      43.664  24.251  25.024  1.00  0.00     0.338 C 
ATOM     27  O   UNL A   1      44.732  24.545  24.515  1.00  0.00    -0.246 OA
BRANCH  26  28
ATOM     28  C   UNL A   1      42.963  25.212  25.888  1.00  0.00     0.060 A 
ATOM     29  C   UNL A   1      43.387  26.539  25.965  1.00  0.00     0.016 A 
ATOM     30  C   UNL A   1      42.011  24.718  26.786  1.00  0.00     0.016 A 
ATOM     31  C   UNL A   1      42.919  27.350  27.001  1.00  0.00     0.010 A 
ATOM     32  C   UNL A   1      41.503  25.547  27.786  1.00  0.00     0.010 A 
ATOM     33  C   UNL A   1      41.990  26.854  27.931  1.00  0.00    -0.014 A 
BRANCH  33  34
ATOM     34  C   UNL A   1      41.571  27.680  29.092  1.00  0.00     0.031 A 
ATOM     35  C   UNL A   1      42.384  27.677  30.360  1.00  0.00     0.074 A 
ATOM     36  C   UNL A   1      40.475  28.456  29.004  1.00  0.00     0.049 A 
ATOM     37  N   UNL A   1      42.163  28.308  31.486  1.00  0.00    -0.248 NA
ATOM     38  C   UNL A   1      43.610  26.860  30.363  1.00  0.00     0.031 C 
ATOM     39  C   UNL A   1      39.615  28.571  27.827  1.00  0.00     0.029 A 
ATOM     40  N   UNL A   1      39.907  29.303  29.921  1.00  0.00    -0.354 N 
ATOM     41  C   UNL A   1      43.204  27.953  32.332  1.00  0.00     0.074 A 
ATOM     42  C   UNL A   1      44.057  27.043  31.598  1.00  0.00     0.031 C 
ATOM     43  C   UNL A   1      38.650  29.469  28.079  1.00  0.00     0.029 A 
ATOM     44  C   UNL A   1      38.799  29.958  29.448  1.00  0.00     0.049 A 
ATOM     45  H   UNL A   1      40.262  29.430  30.831  1.00  0.00     0.167 HD
ATOM     46  C   UNL A   1      43.432  28.353  33.606  1.00  0.00     0.037 A 
ATOM     47  C   UNL A   1      37.986  30.844  30.052  1.00  0.00     0.037 A 
ATOM     48  C   UNL A   1      42.607  29.277  34.336  1.00  0.00     0.049 A 
ATOM     49  C   UNL A   1      38.223  31.218  31.485  1.00  0.00     0.074 A 
ATOM     50  C   UNL A   1      42.792  29.776  35.614  1.00  0.00     0.029 A 
ATOM     51  N   UNL A   1      41.437  29.839  33.852  1.00  0.00    -0.354 N 
ATOM     52  N   UNL A   1      39.202  30.862  32.278  1.00  0.00    -0.248 NA
ATOM     53  C   UNL A   1      37.224  32.094  32.114  1.00  0.00     0.031 C 
ATOM     54  C   UNL A   1      41.720  30.624  35.912  1.00  0.00     0.029 A 
ATOM     55  C   UNL A   1      40.878  30.663  34.815  1.00  0.00     0.049 A 
ATOM     56  H   UNL A   1      41.060  29.677  32.957  1.00  0.00     0.167 HD
ATOM     57  C   UNL A   1      38.936  31.461  33.501  1.00  0.00     0.074 A 
ATOM     58  C   UNL A   1      37.710  32.216  33.343  1.00  0.00     0.031 C 
ATOM     59  C   UNL A   1      39.645  31.384  34.652  1.00  0.00     0.037 A 
BRANCH  46  60
ATOM     60  C   UNL A   1      44.631  27.793  34.304  1.00  0.00     0.064 A 
ATOM     61  C   UNL A   1      45.863  28.459  34.244  1.00  0.00     0.173 A 
ATOM     62  C   UNL A   1      44.571  26.565  34.975  1.00  0.00     0.173 A 
ATOM     63  F   UNL A   1      45.963  29.638  33.615  1.00  0.00    -0.203 F 
ATOM     64  C   UNL A   1      47.000  27.907  34.829  1.00  0.00     0.198 A 
ATOM     65  C   UNL A   1      45.708  26.021  35.567  1.00  0.00     0.198 A 
ATOM     66  F   UNL A   1      43.408  25.904  35.069  1.00  0.00    -0.203 F 
ATOM     67  F   UNL A   1      48.172  28.553  34.754  1.00  0.00    -0.200 F 
ATOM     68  C   UNL A   1      46.922  26.689  35.488  1.00  0.00     0.200 A 
ATOM     69  F   UNL A   1      45.627  24.852  36.218  1.00  0.00    -0.200 F 
ATOM     70  F   UNL A   1      48.015  26.161  36.055  1.00  0.00    -0.200 F 
ENDBRANCH  46  60
BRANCH  47  71
ATOM     71  C   UNL A   1      36.860  31.429  29.292  1.00  0.00     0.064 A 
ATOM     72  C   UNL A   1      36.861  32.779  28.915  1.00  0.00     0.173 A 
ATOM     73  C   UNL A   1      35.743  30.652  28.963  1.00  0.00     0.173 A 
ATOM     74  F   UNL A   1      37.913  33.555  29.209  1.00  0.00    -0.203 F 
ATOM     75  C   UNL A   1      35.772  33.336  28.249  1.00  0.00     0.198 A 
ATOM     76  C   UNL A   1      34.659  31.207  28.286  1.00  0.00     0.198 A 
ATOM     77  F   UNL A   1      35.712  29.352  29.291  1.00  0.00    -0.203 F 
ATOM     78  F   UNL A   1      35.785  34.633  27.916  1.00  0.00    -0.200 F 
ATOM     79  C   UNL A   1      34.672  32.550  27.936  1.00  0.00     0.200 A 
ATOM     80  F   UNL A   1      33.604  30.443  27.975  1.00  0.00    -0.200 F 
ATOM     81  F   UNL A   1      33.625  33.086  27.295  1.00  0.00    -0.200 F 
ENDBRANCH  47  71
BRANCH  59  82
ATOM     82  C   UNL A   1      39.103  32.114  35.839  1.00  0.00     0.064 A 
ATOM     83  C   UNL A   1      39.475  33.439  36.099  1.00  0.00     0.173 A 
ATOM     84  C   UNL A   1      38.249  31.472  36.747  1.00  0.00     0.173 A 
ATOM     85  F   UNL A   1      40.291  34.090  35.257  1.00  0.00    -0.203 F 
ATOM     86  C   UNL A   1      39.014  34.097  37.236  1.00  0.00     0.198 A 
ATOM     87  C   UNL A   1      37.782  32.137  37.876  1.00  0.00     0.198 A 
ATOM     88  F   UNL A   1      37.859  30.207  36.527  1.00  0.00    -0.203 F 
ATOM     89  F   UNL A   1      39.388  35.362  37.474  1.00  0.00    -0.200 F 
ATOM     90  C   UNL A   1      38.168  33.447  38.123  1.00  0.00     0.200 A 
ATOM     91  F   UNL A   1      36.953  31.513  38.725  1.00  0.00    -0.200 F 
ATOM     92  F   UNL A   1      37.720  34.084  39.212  1.00  0.00    -0.200 F 
ENDBRANCH  59  82
ENDBRANCH  33  34
ENDBRANCH  26  28
ENDBRANCH  25  26
ENDBRANCH  24  25
ENDBRANCH   1  24
TORSDOF 16
ENDMDL
