MODEL 1
REMARK VINA RESULT:     -13.1      0.000      0.000
REMARK SMILES Cc1cc(S(=O)(=O)Nc2ccc(Cl)cc2F)ccc1OCC(=O)OCCOC(=O)c1ccc(-c2c3nc(c(-c4c(F)c(F)c(F)c(F)c4F)c4ccc([nH]4)c(-c4c(F)c(F)c(F)c(F)c4F)c4nc(c(-c5c(F)c(F)c(F)c(F)c5F)c5ccc2[nH]5)C=C4)C=C3)cc1
REMARK SMILES IDX 24 1 22 2 23 3 21 4 20 5 19 6 1 7 2 8 3 9 4 10 18 11 17 12
REMARK SMILES IDX 5 13 6 14 7 15 8 16 9 18 10 19 15 20 11 21 14 22 16 23 12 24
REMARK SMILES IDX 13 25 25 26 26 27 27 28 28 29 29 30 30 31 31 32 92 33 32 34
REMARK SMILES IDX 91 35 33 36 34 37 35 38 85 39 36 40 90 41 84 42 86 43 37 44
REMARK SMILES IDX 89 45 83 46 82 47 38 49 70 50 50 51 69 52 51 53 54 54 68 55
REMARK SMILES IDX 87 56 52 57 53 58 67 60 88 61 55 62 39 63 40 64 48 65 41 66
REMARK SMILES IDX 42 67 46 68 49 69 43 70 44 71 47 72 45 73 71 74 72 75 80 76
REMARK SMILES IDX 73 77 74 78 78 79 81 80 75 81 76 82 79 83 77 84 56 85 57 86
REMARK SMILES IDX 65 87 58 88 59 89 63 90 66 91 60 92 61 93 64 94 62 95
REMARK H PARENT 8 17 86 48 54 59
REMARK Flexibility Score: inf
ROOT
ATOM      1  O   UNL A   1      41.869  19.483  25.403  1.00  0.00    -0.460 OA
ENDROOT
BRANCH   1   2
ATOM      2  C   UNL A   1      41.102  19.903  26.441  1.00  0.00     0.344 C 
ATOM      3  O   UNL A   1      41.446  19.846  27.618  1.00  0.00    -0.248 OA
BRANCH   2   4
ATOM      4  C   UNL A   1      39.723  20.412  25.986  1.00  0.00     0.351 C 
BRANCH   4   5
ATOM      5  O   UNL A   1      39.414  21.800  25.995  1.00  0.00    -0.482 OA
BRANCH   5   6
ATOM      6  C   UNL A   1      38.190  22.208  25.536  1.00  0.00     0.123 A 
ATOM      7  C   UNL A   1      38.528  24.372  26.874  1.00  0.00     0.048 C 
ATOM      8  C   UNL A   1      37.743  23.479  25.949  1.00  0.00    -0.008 A 
ATOM      9  C   UNL A   1      36.546  23.993  25.416  1.00  0.00     0.029 A 
ATOM     10  C   UNL A   1      35.808  23.252  24.494  1.00  0.00     0.088 A 
ATOM     11  C   UNL A   1      37.413  21.462  24.642  1.00  0.00     0.048 A 
ATOM     12  C   UNL A   1      36.271  22.010  24.068  1.00  0.00     0.026 A 
BRANCH  10  13
ATOM     13  S   UNL A   1      34.333  23.929  23.783  1.00  0.00     0.262 S 
ATOM     14  O   UNL A   1      34.246  25.332  24.132  1.00  0.00    -0.201 OA
ATOM     15  O   UNL A   1      34.301  23.513  22.396  1.00  0.00    -0.201 OA
BRANCH  13  16
ATOM     16  N   UNL A   1      32.973  23.188  24.510  1.00  0.00    -0.277 N 
ATOM     17  H   UNL A   1      32.255  23.736  24.898  1.00  0.00     0.180 HD
BRANCH  16  18
ATOM     18  C   UNL A   1      32.893  21.754  24.547  1.00  0.00     0.085 A 
ATOM     19  C   UNL A   1      32.528  21.033  23.407  1.00  0.00     0.031 A 
ATOM     20  C   UNL A   1      33.247  21.063  25.713  1.00  0.00     0.148 A 
ATOM     21  C   UNL A   1      32.523  19.633  23.446  1.00  0.00     0.023 A 
ATOM     22  C   UNL A   1      33.262  19.673  25.752  1.00  0.00     0.062 A 
ATOM     23  F   UNL A   1      33.621  21.740  26.808  1.00  0.00    -0.205 F 
ATOM     24  C   UNL A   1      32.898  18.962  24.613  1.00  0.00     0.044 A 
ATOM     25  Cl  UNL A   1      32.931  17.243  24.636  1.00  0.00    -0.084 Cl
ENDBRANCH  16  18
ENDBRANCH  13  16
ENDBRANCH  10  13
ENDBRANCH   5   6
ENDBRANCH   4   5
ENDBRANCH   2   4
ENDBRANCH   1   2
BRANCH   1  26
ATOM     26  C   UNL A   1      43.049  18.761  25.742  1.00  0.00     0.274 C 
BRANCH  26  27
ATOM     27  C   UNL A   1      44.151  18.987  24.695  1.00  0.00     0.275 C 
BRANCH  27  28
ATOM     28  O   UNL A   1      44.567  20.315  24.240  1.00  0.00    -0.458 OA
BRANCH  28  29
ATOM     29  C   UNL A   1      45.625  21.060  24.634  1.00  0.00     0.338 C 
ATOM     30  O   UNL A   1      46.778  20.643  24.640  1.00  0.00    -0.246 OA
BRANCH  29  31
ATOM     31  C   UNL A   1      45.287  22.353  25.229  1.00  0.00     0.060 A 
ATOM     32  C   UNL A   1      44.998  22.475  26.601  1.00  0.00     0.016 A 
ATOM     33  C   UNL A   1      45.375  23.463  24.404  1.00  0.00     0.016 A 
ATOM     34  C   UNL A   1      44.901  23.726  27.189  1.00  0.00     0.010 A 
ATOM     35  C   UNL A   1      45.432  24.686  25.001  1.00  0.00     0.010 A 
ATOM     36  C   UNL A   1      45.131  24.820  26.373  1.00  0.00    -0.014 A 
BRANCH  36  37
ATOM     37  C   UNL A   1      44.845  26.192  26.732  1.00  0.00     0.031 A 
ATOM     38  C   UNL A   1      43.489  26.744  26.644  1.00  0.00     0.074 A 
ATOM     39  C   UNL A   1      45.823  26.633  27.554  1.00  0.00     0.049 A 
ATOM     40  N   UNL A   1      43.163  27.896  27.103  1.00  0.00    -0.248 NA
ATOM     41  C   UNL A   1      42.367  26.055  26.021  1.00  0.00     0.031 C 
ATOM     42  C   UNL A   1      45.769  27.508  28.707  1.00  0.00     0.029 A 
ATOM     43  N   UNL A   1      47.176  26.255  27.483  1.00  0.00    -0.354 N 
ATOM     44  C   UNL A   1      41.785  27.952  27.170  1.00  0.00     0.074 A 
ATOM     45  C   UNL A   1      41.338  26.837  26.375  1.00  0.00     0.031 C 
ATOM     46  C   UNL A   1      47.031  27.854  29.037  1.00  0.00     0.029 A 
ATOM     47  C   UNL A   1      47.899  27.344  27.980  1.00  0.00     0.049 A 
ATOM     48  H   UNL A   1      47.538  25.402  27.151  1.00  0.00     0.167 HD
ATOM     49  C   UNL A   1      41.239  28.857  28.035  1.00  0.00     0.037 A 
ATOM     50  C   UNL A   1      48.559  28.113  27.060  1.00  0.00     0.037 A 
ATOM     51  C   UNL A   1      42.310  29.687  28.595  1.00  0.00     0.049 A 
ATOM     52  C   UNL A   1      47.921  29.480  26.998  1.00  0.00     0.074 A 
ATOM     53  C   UNL A   1      43.012  29.619  29.788  1.00  0.00     0.029 A 
ATOM     54  N   UNL A   1      43.065  30.481  27.735  1.00  0.00    -0.354 N 
ATOM     55  N   UNL A   1      46.639  29.709  27.112  1.00  0.00    -0.248 NA
ATOM     56  C   UNL A   1      48.725  30.694  26.970  1.00  0.00     0.031 C 
ATOM     57  C   UNL A   1      44.242  30.309  29.604  1.00  0.00     0.029 A 
ATOM     58  C   UNL A   1      44.284  30.795  28.305  1.00  0.00     0.049 A 
ATOM     59  H   UNL A   1      42.770  30.780  26.845  1.00  0.00     0.167 HD
ATOM     60  C   UNL A   1      46.449  31.055  27.289  1.00  0.00     0.074 A 
ATOM     61  C   UNL A   1      47.778  31.629  27.156  1.00  0.00     0.031 C 
ATOM     62  C   UNL A   1      45.245  31.626  27.598  1.00  0.00     0.037 A 
BRANCH  49  63
ATOM     63  C   UNL A   1      39.827  28.856  28.600  1.00  0.00     0.064 A 
ATOM     64  C   UNL A   1      38.750  29.336  27.813  1.00  0.00     0.173 A 
ATOM     65  C   UNL A   1      39.455  28.452  29.896  1.00  0.00     0.173 A 
ATOM     66  F   UNL A   1      38.922  29.703  26.536  1.00  0.00    -0.203 F 
ATOM     67  C   UNL A   1      37.446  29.468  28.303  1.00  0.00     0.198 A 
ATOM     68  C   UNL A   1      38.151  28.597  30.392  1.00  0.00     0.198 A 
ATOM     69  F   UNL A   1      40.320  27.865  30.727  1.00  0.00    -0.203 F 
ATOM     70  F   UNL A   1      36.482  29.951  27.506  1.00  0.00    -0.200 F 
ATOM     71  C   UNL A   1      37.148  29.112  29.599  1.00  0.00     0.200 A 
ATOM     72  F   UNL A   1      37.876  28.225  31.651  1.00  0.00    -0.200 F 
ATOM     73  F   UNL A   1      35.903  29.247  30.075  1.00  0.00    -0.200 F 
ENDBRANCH  49  63
BRANCH  50  74
ATOM     74  C   UNL A   1      49.048  27.288  25.899  1.00  0.00     0.064 A 
ATOM     75  C   UNL A   1      48.338  27.402  24.680  1.00  0.00     0.173 A 
ATOM     76  C   UNL A   1      50.363  26.806  25.820  1.00  0.00     0.173 A 
ATOM     77  F   UNL A   1      47.077  27.864  24.685  1.00  0.00    -0.203 F 
ATOM     78  C   UNL A   1      48.957  27.196  23.445  1.00  0.00     0.198 A 
ATOM     79  C   UNL A   1      50.973  26.579  24.579  1.00  0.00     0.198 A 
ATOM     80  F   UNL A   1      51.103  26.664  26.928  1.00  0.00    -0.203 F 
ATOM     81  F   UNL A   1      48.291  27.459  22.311  1.00  0.00    -0.200 F 
ATOM     82  C   UNL A   1      50.285  26.813  23.396  1.00  0.00     0.200 A 
ATOM     83  F   UNL A   1      52.265  26.221  24.523  1.00  0.00    -0.200 F 
ATOM     84  F   UNL A   1      50.913  26.711  22.215  1.00  0.00    -0.200 F 
ENDBRANCH  50  74
BRANCH  62  85
ATOM     85  C   UNL A   1      44.899  33.076  27.359  1.00  0.00     0.064 A 
ATOM     86  C   UNL A   1      44.149  33.516  26.256  1.00  0.00     0.173 A 
ATOM     87  C   UNL A   1      45.153  34.058  28.349  1.00  0.00     0.173 A 
ATOM     88  F   UNL A   1      43.712  32.665  25.317  1.00  0.00    -0.203 F 
ATOM     89  C   UNL A   1      43.759  34.846  26.110  1.00  0.00     0.198 A 
ATOM     90  C   UNL A   1      44.688  35.366  28.238  1.00  0.00     0.198 A 
ATOM     91  F   UNL A   1      45.821  33.776  29.476  1.00  0.00    -0.203 F 
ATOM     92  F   UNL A   1      43.098  35.222  25.006  1.00  0.00    -0.200 F 
ATOM     93  C   UNL A   1      44.013  35.766  27.107  1.00  0.00     0.200 A 
ATOM     94  F   UNL A   1      44.878  36.224  29.250  1.00  0.00    -0.200 F 
ATOM     95  F   UNL A   1      43.583  37.030  26.989  1.00  0.00    -0.200 F 
ENDBRANCH  62  85
ENDBRANCH  36  37
ENDBRANCH  29  31
ENDBRANCH  28  29
ENDBRANCH  27  28
ENDBRANCH  26  27
ENDBRANCH   1  26
TORSDOF 16
ENDMDL
MODEL 2
REMARK VINA RESULT:     -12.9      3.885      6.079
REMARK SMILES Cc1cc(S(=O)(=O)Nc2ccc(Cl)cc2F)ccc1OCC(=O)OCCOC(=O)c1ccc(-c2c3nc(c(-c4c(F)c(F)c(F)c(F)c4F)c4ccc([nH]4)c(-c4c(F)c(F)c(F)c(F)c4F)c4nc(c(-c5c(F)c(F)c(F)c(F)c5F)c5ccc2[nH]5)C=C4)C=C3)cc1
REMARK SMILES IDX 24 1 22 2 23 3 21 4 20 5 19 6 1 7 2 8 3 9 4 10 18 11 17 12
REMARK SMILES IDX 5 13 6 14 7 15 8 16 9 18 10 19 15 20 11 21 14 22 16 23 12 24
REMARK SMILES IDX 13 25 25 26 26 27 27 28 28 29 29 30 30 31 31 32 92 33 32 34
REMARK SMILES IDX 91 35 33 36 34 37 35 38 85 39 36 40 90 41 84 42 86 43 37 44
REMARK SMILES IDX 89 45 83 46 82 47 38 49 70 50 50 51 69 52 51 53 54 54 68 55
REMARK SMILES IDX 87 56 52 57 53 58 67 60 88 61 55 62 39 63 40 64 48 65 41 66
REMARK SMILES IDX 42 67 46 68 49 69 43 70 44 71 47 72 45 73 71 74 72 75 80 76
REMARK SMILES IDX 73 77 74 78 78 79 81 80 75 81 76 82 79 83 77 84 56 85 57 86
REMARK SMILES IDX 65 87 58 88 59 89 63 90 66 91 60 92 61 93 64 94 62 95
REMARK H PARENT 8 17 86 48 54 59
REMARK Flexibility Score: inf
ROOT
ATOM      1  O   UNL A   1      35.925  21.597  25.682  1.00  0.00    -0.460 OA
ENDROOT
BRANCH   1   2
ATOM      2  C   UNL A   1      35.650  20.414  25.077  1.00  0.00     0.344 C 
ATOM      3  O   UNL A   1      36.494  19.561  24.819  1.00  0.00    -0.248 OA
BRANCH   2   4
ATOM      4  C   UNL A   1      34.165  20.277  24.698  1.00  0.00     0.351 C 
BRANCH   4   5
ATOM      5  O   UNL A   1      33.139  20.552  25.643  1.00  0.00    -0.482 OA
BRANCH   5   6
ATOM      6  C   UNL A   1      32.504  21.765  25.595  1.00  0.00     0.123 A 
ATOM      7  C   UNL A   1      33.402  22.208  27.958  1.00  0.00     0.048 C 
ATOM      8  C   UNL A   1      32.634  22.600  26.723  1.00  0.00    -0.008 A 
ATOM      9  C   UNL A   1      32.097  23.900  26.681  1.00  0.00     0.029 A 
ATOM     10  C   UNL A   1      31.440  24.356  25.539  1.00  0.00     0.088 A 
ATOM     11  C   UNL A   1      31.804  22.226  24.474  1.00  0.00     0.048 A 
ATOM     12  C   UNL A   1      31.342  23.537  24.418  1.00  0.00     0.026 A 
BRANCH  10  13
ATOM     13  S   UNL A   1      30.818  26.014  25.471  1.00  0.00     0.262 S 
ATOM     14  O   UNL A   1      29.755  26.076  24.489  1.00  0.00    -0.201 OA
ATOM     15  O   UNL A   1      30.582  26.433  26.838  1.00  0.00    -0.201 OA
BRANCH  13  16
ATOM     16  N   UNL A   1      32.048  27.047  24.886  1.00  0.00    -0.277 N 
ATOM     17  H   UNL A   1      32.462  26.882  24.009  1.00  0.00     0.180 HD
BRANCH  16  18
ATOM     18  C   UNL A   1      32.471  28.159  25.691  1.00  0.00     0.085 A 
ATOM     19  C   UNL A   1      33.612  28.064  26.492  1.00  0.00     0.031 A 
ATOM     20  C   UNL A   1      31.776  29.374  25.627  1.00  0.00     0.148 A 
ATOM     21  C   UNL A   1      34.046  29.183  27.216  1.00  0.00     0.023 A 
ATOM     22  C   UNL A   1      32.212  30.493  26.328  1.00  0.00     0.062 A 
ATOM     23  F   UNL A   1      30.692  29.488  24.846  1.00  0.00    -0.205 F 
ATOM     24  C   UNL A   1      33.349  30.391  27.122  1.00  0.00     0.044 A 
ATOM     25  Cl  UNL A   1      33.915  31.770  27.980  1.00  0.00    -0.084 Cl
ENDBRANCH  16  18
ENDBRANCH  13  16
ENDBRANCH  10  13
ENDBRANCH   5   6
ENDBRANCH   4   5
ENDBRANCH   2   4
ENDBRANCH   1   2
BRANCH   1  26
ATOM     26  C   UNL A   1      36.322  22.665  24.827  1.00  0.00     0.274 C 
BRANCH  26  27
ATOM     27  C   UNL A   1      37.243  23.648  25.567  1.00  0.00     0.275 C 
BRANCH  27  28
ATOM     28  O   UNL A   1      38.272  23.225  26.518  1.00  0.00    -0.458 OA
BRANCH  28  29
ATOM     29  C   UNL A   1      39.531  23.693  26.679  1.00  0.00     0.338 C 
ATOM     30  O   UNL A   1      40.532  23.005  26.513  1.00  0.00    -0.246 OA
BRANCH  29  31
ATOM     31  C   UNL A   1      39.625  25.039  27.244  1.00  0.00     0.060 A 
ATOM     32  C   UNL A   1      39.228  25.308  28.567  1.00  0.00     0.016 A 
ATOM     33  C   UNL A   1      40.227  26.007  26.456  1.00  0.00     0.016 A 
ATOM     34  C   UNL A   1      39.529  26.525  29.156  1.00  0.00     0.010 A 
ATOM     35  C   UNL A   1      40.658  27.142  27.074  1.00  0.00     0.010 A 
ATOM     36  C   UNL A   1      40.254  27.426  28.396  1.00  0.00    -0.014 A 
BRANCH  36  37
ATOM     37  C   UNL A   1      40.456  28.818  28.735  1.00  0.00     0.031 A 
ATOM     38  C   UNL A   1      39.354  29.784  28.712  1.00  0.00     0.074 A 
ATOM     39  C   UNL A   1      41.575  28.918  29.486  1.00  0.00     0.049 A 
ATOM     40  N   UNL A   1      39.452  30.982  29.159  1.00  0.00    -0.248 NA
ATOM     41  C   UNL A   1      38.030  29.498  28.174  1.00  0.00     0.031 C 
ATOM     42  C   UNL A   1      41.884  29.768  30.618  1.00  0.00     0.029 A 
ATOM     43  N   UNL A   1      42.722  28.116  29.346  1.00  0.00    -0.354 N 
ATOM     44  C   UNL A   1      38.176  31.487  29.305  1.00  0.00     0.074 A 
ATOM     45  C   UNL A   1      37.339  30.576  28.567  1.00  0.00     0.031 C 
ATOM     46  C   UNL A   1      43.208  29.682  30.863  1.00  0.00     0.029 A 
ATOM     47  C   UNL A   1      43.792  28.909  29.771  1.00  0.00     0.049 A 
ATOM     48  H   UNL A   1      42.764  27.190  29.016  1.00  0.00     0.167 HD
ATOM     49  C   UNL A   1      38.012  32.527  30.176  1.00  0.00     0.037 A 
ATOM     50  C   UNL A   1      44.607  29.415  28.795  1.00  0.00     0.037 A 
ATOM     51  C   UNL A   1      39.329  32.961  30.651  1.00  0.00     0.049 A 
ATOM     52  C   UNL A   1      44.450  30.914  28.735  1.00  0.00     0.074 A 
ATOM     53  C   UNL A   1      40.045  32.673  31.802  1.00  0.00     0.029 A 
ATOM     54  N   UNL A   1      40.246  33.459  29.728  1.00  0.00    -0.354 N 
ATOM     55  N   UNL A   1      43.324  31.553  28.917  1.00  0.00    -0.248 NA
ATOM     56  C   UNL A   1      45.603  31.798  28.628  1.00  0.00     0.031 C 
ATOM     57  C   UNL A   1      41.419  32.920  31.528  1.00  0.00     0.029 A 
ATOM     58  C   UNL A   1      41.535  33.358  30.218  1.00  0.00     0.049 A 
ATOM     59  H   UNL A   1      40.009  33.833  28.849  1.00  0.00     0.167 HD
ATOM     60  C   UNL A   1      43.596  32.888  29.069  1.00  0.00     0.074 A 
ATOM     61  C   UNL A   1      45.029  32.992  28.844  1.00  0.00     0.031 C 
ATOM     62  C   UNL A   1      42.668  33.824  29.433  1.00  0.00     0.037 A 
BRANCH  49  63
ATOM     63  C   UNL A   1      36.717  32.992  30.823  1.00  0.00     0.064 A 
ATOM     64  C   UNL A   1      35.805  33.789  30.086  1.00  0.00     0.173 A 
ATOM     65  C   UNL A   1      36.320  32.745  32.151  1.00  0.00     0.173 A 
ATOM     66  F   UNL A   1      36.002  34.065  28.790  1.00  0.00    -0.203 F 
ATOM     67  C   UNL A   1      34.649  34.344  30.647  1.00  0.00     0.198 A 
ATOM     68  C   UNL A   1      35.169  33.313  32.718  1.00  0.00     0.198 A 
ATOM     69  F   UNL A   1      37.000  31.918  32.948  1.00  0.00    -0.203 F 
ATOM     70  F   UNL A   1      33.845  35.106  29.893  1.00  0.00    -0.200 F 
ATOM     71  C   UNL A   1      34.339  34.119  31.969  1.00  0.00     0.200 A 
ATOM     72  F   UNL A   1      34.872  33.066  34.002  1.00  0.00    -0.200 F 
ATOM     73  F   UNL A   1      33.239  34.657  32.512  1.00  0.00    -0.200 F 
ENDBRANCH  49  63
BRANCH  50  74
ATOM     74  C   UNL A   1      44.724  28.468  27.629  1.00  0.00     0.064 A 
ATOM     75  C   UNL A   1      45.328  27.211  27.875  1.00  0.00     0.173 A 
ATOM     76  C   UNL A   1      43.900  28.561  26.499  1.00  0.00     0.173 A 
ATOM     77  F   UNL A   1      46.123  27.052  28.946  1.00  0.00    -0.203 F 
ATOM     78  C   UNL A   1      45.000  26.079  27.127  1.00  0.00     0.198 A 
ATOM     79  C   UNL A   1      43.592  27.426  25.737  1.00  0.00     0.198 A 
ATOM     80  F   UNL A   1      43.295  29.717  26.192  1.00  0.00    -0.203 F 
ATOM     81  F   UNL A   1      45.479  24.878  27.486  1.00  0.00    -0.200 F 
ATOM     82  C   UNL A   1      44.108  26.182  26.075  1.00  0.00     0.200 A 
ATOM     83  F   UNL A   1      42.716  27.516  24.724  1.00  0.00    -0.200 F 
ATOM     84  F   UNL A   1      43.713  25.083  25.416  1.00  0.00    -0.200 F 
ENDBRANCH  50  74
BRANCH  62  85
ATOM     85  C   UNL A   1      42.801  35.306  29.177  1.00  0.00     0.064 A 
ATOM     86  C   UNL A   1      42.168  35.961  28.108  1.00  0.00     0.173 A 
ATOM     87  C   UNL A   1      43.424  36.155  30.125  1.00  0.00     0.173 A 
ATOM     88  F   UNL A   1      41.419  35.296  27.218  1.00  0.00    -0.203 F 
ATOM     89  C   UNL A   1      42.226  37.345  27.950  1.00  0.00     0.198 A 
ATOM     90  C   UNL A   1      43.407  37.543  30.008  1.00  0.00     0.198 A 
ATOM     91  F   UNL A   1      44.032  35.676  31.219  1.00  0.00    -0.203 F 
ATOM     92  F   UNL A   1      41.657  37.910  26.876  1.00  0.00    -0.200 F 
ATOM     93  C   UNL A   1      42.830  38.136  28.907  1.00  0.00     0.200 A 
ATOM     94  F   UNL A   1      43.929  38.297  30.984  1.00  0.00    -0.200 F 
ATOM     95  F   UNL A   1      42.830  39.470  28.781  1.00  0.00    -0.200 F 
ENDBRANCH  62  85
ENDBRANCH  36  37
ENDBRANCH  29  31
ENDBRANCH  28  29
ENDBRANCH  27  28
ENDBRANCH  26  27
ENDBRANCH   1  26
TORSDOF 16
ENDMDL
MODEL 3
REMARK VINA RESULT:     -12.8      6.781     12.362
REMARK SMILES Cc1cc(S(=O)(=O)Nc2ccc(Cl)cc2F)ccc1OCC(=O)OCCOC(=O)c1ccc(-c2c3nc(c(-c4c(F)c(F)c(F)c(F)c4F)c4ccc([nH]4)c(-c4c(F)c(F)c(F)c(F)c4F)c4nc(c(-c5c(F)c(F)c(F)c(F)c5F)c5ccc2[nH]5)C=C4)C=C3)cc1
REMARK SMILES IDX 24 1 22 2 23 3 21 4 20 5 19 6 1 7 2 8 3 9 4 10 18 11 17 12
REMARK SMILES IDX 5 13 6 14 7 15 8 16 9 18 10 19 15 20 11 21 14 22 16 23 12 24
REMARK SMILES IDX 13 25 25 26 26 27 27 28 28 29 29 30 30 31 31 32 92 33 32 34
REMARK SMILES IDX 91 35 33 36 34 37 35 38 85 39 36 40 90 41 84 42 86 43 37 44
REMARK SMILES IDX 89 45 83 46 82 47 38 49 70 50 50 51 69 52 51 53 54 54 68 55
REMARK SMILES IDX 87 56 52 57 53 58 67 60 88 61 55 62 39 63 40 64 48 65 41 66
REMARK SMILES IDX 42 67 46 68 49 69 43 70 44 71 47 72 45 73 71 74 72 75 80 76
REMARK SMILES IDX 73 77 74 78 78 79 81 80 75 81 76 82 79 83 77 84 56 85 57 86
REMARK SMILES IDX 65 87 58 88 59 89 63 90 66 91 60 92 61 93 64 94 62 95
REMARK H PARENT 8 17 86 48 54 59
REMARK Flexibility Score: inf
ROOT
ATOM      1  O   UNL A   1      34.156  34.824  29.397  1.00  0.00    -0.460 OA
ENDROOT
BRANCH   1   2
ATOM      2  C   UNL A   1      34.110  33.472  29.517  1.00  0.00     0.344 C 
ATOM      3  O   UNL A   1      34.371  32.864  30.550  1.00  0.00    -0.248 OA
BRANCH   2   4
ATOM      4  C   UNL A   1      33.743  32.777  28.195  1.00  0.00     0.351 C 
BRANCH   4   5
ATOM      5  O   UNL A   1      34.550  31.733  27.665  1.00  0.00    -0.482 OA
BRANCH   5   6
ATOM      6  C   UNL A   1      33.943  30.595  27.204  1.00  0.00     0.123 A 
ATOM      7  C   UNL A   1      36.181  29.389  27.549  1.00  0.00     0.048 C 
ATOM      8  C   UNL A   1      34.728  29.427  27.153  1.00  0.00    -0.008 A 
ATOM      9  C   UNL A   1      34.124  28.208  26.795  1.00  0.00     0.029 A 
ATOM     10  C   UNL A   1      32.764  28.156  26.491  1.00  0.00     0.088 A 
ATOM     11  C   UNL A   1      32.589  30.531  26.854  1.00  0.00     0.048 A 
ATOM     12  C   UNL A   1      31.988  29.309  26.574  1.00  0.00     0.026 A 
BRANCH  10  13
ATOM     13  S   UNL A   1      31.997  26.608  26.098  1.00  0.00     0.262 S 
ATOM     14  O   UNL A   1      32.921  25.536  26.403  1.00  0.00    -0.201 OA
ATOM     15  O   UNL A   1      30.674  26.629  26.690  1.00  0.00    -0.201 OA
BRANCH  13  16
ATOM     16  N   UNL A   1      31.737  26.528  24.410  1.00  0.00    -0.277 N 
ATOM     17  H   UNL A   1      32.196  25.848  23.867  1.00  0.00     0.180 HD
BRANCH  16  18
ATOM     18  C   UNL A   1      30.840  27.466  23.793  1.00  0.00     0.085 A 
ATOM     19  C   UNL A   1      31.331  28.625  23.186  1.00  0.00     0.031 A 
ATOM     20  C   UNL A   1      29.468  27.190  23.739  1.00  0.00     0.148 A 
ATOM     21  C   UNL A   1      30.447  29.492  22.531  1.00  0.00     0.023 A 
ATOM     22  C   UNL A   1      28.587  28.037  23.074  1.00  0.00     0.062 A 
ATOM     23  F   UNL A   1      28.984  26.072  24.298  1.00  0.00    -0.205 F 
ATOM     24  C   UNL A   1      29.083  29.188  22.471  1.00  0.00     0.044 A 
ATOM     25  Cl  UNL A   1      28.013  30.236  21.626  1.00  0.00    -0.084 Cl
ENDBRANCH  16  18
ENDBRANCH  13  16
ENDBRANCH  10  13
ENDBRANCH   5   6
ENDBRANCH   4   5
ENDBRANCH   2   4
ENDBRANCH   1   2
BRANCH   1  26
ATOM     26  C   UNL A   1      32.935  35.519  29.631  1.00  0.00     0.274 C 
BRANCH  26  27
ATOM     27  C   UNL A   1      32.945  36.196  31.011  1.00  0.00     0.275 C 
BRANCH  27  28
ATOM     28  O   UNL A   1      34.165  36.418  31.789  1.00  0.00    -0.458 OA
BRANCH  28  29
ATOM     29  C   UNL A   1      34.420  36.118  33.083  1.00  0.00     0.338 C 
ATOM     30  O   UNL A   1      33.967  36.758  34.025  1.00  0.00    -0.246 OA
BRANCH  29  31
ATOM     31  C   UNL A   1      35.425  35.075  33.292  1.00  0.00     0.060 A 
ATOM     32  C   UNL A   1      35.294  34.128  34.324  1.00  0.00     0.016 A 
ATOM     33  C   UNL A   1      36.447  34.996  32.359  1.00  0.00     0.016 A 
ATOM     34  C   UNL A   1      36.127  33.022  34.371  1.00  0.00     0.010 A 
ATOM     35  C   UNL A   1      37.165  33.840  32.311  1.00  0.00     0.010 A 
ATOM     36  C   UNL A   1      37.050  32.890  33.349  1.00  0.00    -0.014 A 
BRANCH  36  37
ATOM     37  C   UNL A   1      38.152  31.952  33.347  1.00  0.00     0.031 A 
ATOM     38  C   UNL A   1      38.108  30.714  32.563  1.00  0.00     0.074 A 
ATOM     39  C   UNL A   1      39.273  32.607  33.722  1.00  0.00     0.049 A 
ATOM     40  N   UNL A   1      39.118  29.940  32.404  1.00  0.00    -0.248 NA
ATOM     41  C   UNL A   1      36.916  30.219  31.886  1.00  0.00     0.031 C 
ATOM     42  C   UNL A   1      40.643  32.479  33.268  1.00  0.00     0.029 A 
ATOM     43  N   UNL A   1      39.326  33.660  34.653  1.00  0.00    -0.354 N 
ATOM     44  C   UNL A   1      38.837  29.084  31.358  1.00  0.00     0.074 A 
ATOM     45  C   UNL A   1      37.417  29.216  31.153  1.00  0.00     0.031 C 
ATOM     46  C   UNL A   1      41.437  33.164  34.117  1.00  0.00     0.029 A 
ATOM     47  C   UNL A   1      40.597  33.591  35.231  1.00  0.00     0.049 A 
ATOM     48  H   UNL A   1      38.615  34.311  34.855  1.00  0.00     0.167 HD
ATOM     49  C   UNL A   1      39.900  28.511  30.718  1.00  0.00     0.037 A 
ATOM     50  C   UNL A   1      40.664  33.095  36.505  1.00  0.00     0.037 A 
ATOM     51  C   UNL A   1      41.130  28.854  31.438  1.00  0.00     0.049 A 
ATOM     52  C   UNL A   1      41.381  31.767  36.491  1.00  0.00     0.074 A 
ATOM     53  C   UNL A   1      42.086  29.835  31.230  1.00  0.00     0.029 A 
ATOM     54  N   UNL A   1      41.280  28.426  32.755  1.00  0.00    -0.354 N 
ATOM     55  N   UNL A   1      41.275  30.874  35.542  1.00  0.00    -0.248 NA
ATOM     56  C   UNL A   1      42.399  31.440  37.480  1.00  0.00     0.031 C 
ATOM     57  C   UNL A   1      42.754  30.054  32.467  1.00  0.00     0.029 A 
ATOM     58  C   UNL A   1      42.206  29.208  33.419  1.00  0.00     0.049 A 
ATOM     59  H   UNL A   1      40.796  27.669  33.157  1.00  0.00     0.167 HD
ATOM     60  C   UNL A   1      42.260  29.935  35.712  1.00  0.00     0.074 A 
ATOM     61  C   UNL A   1      42.911  30.315  36.956  1.00  0.00     0.031 C 
ATOM     62  C   UNL A   1      42.541  28.946  34.810  1.00  0.00     0.037 A 
BRANCH  49  63
ATOM     63  C   UNL A   1      39.912  27.883  29.334  1.00  0.00     0.064 A 
ATOM     64  C   UNL A   1      39.352  26.595  29.136  1.00  0.00     0.173 A 
ATOM     65  C   UNL A   1      40.483  28.444  28.176  1.00  0.00     0.173 A 
ATOM     66  F   UNL A   1      38.716  25.947  30.121  1.00  0.00    -0.203 F 
ATOM     67  C   UNL A   1      39.425  25.909  27.919  1.00  0.00     0.198 A 
ATOM     68  C   UNL A   1      40.568  27.751  26.959  1.00  0.00     0.198 A 
ATOM     69  F   UNL A   1      40.947  29.695  28.155  1.00  0.00    -0.203 F 
ATOM     70  F   UNL A   1      38.892  24.684  27.813  1.00  0.00    -0.200 F 
ATOM     71  C   UNL A   1      40.048  26.481  26.832  1.00  0.00     0.200 A 
ATOM     72  F   UNL A   1      41.160  28.333  25.905  1.00  0.00    -0.200 F 
ATOM     73  F   UNL A   1      40.129  25.824  25.668  1.00  0.00    -0.200 F 
ENDBRANCH  49  63
BRANCH  50  74
ATOM     74  C   UNL A   1      39.438  33.455  37.303  1.00  0.00     0.064 A 
ATOM     75  C   UNL A   1      38.472  32.438  37.497  1.00  0.00     0.173 A 
ATOM     76  C   UNL A   1      39.417  34.526  38.208  1.00  0.00     0.173 A 
ATOM     77  F   UNL A   1      38.443  31.380  36.670  1.00  0.00    -0.203 F 
ATOM     78  C   UNL A   1      37.642  32.418  38.620  1.00  0.00     0.198 A 
ATOM     79  C   UNL A   1      38.566  34.511  39.321  1.00  0.00     0.198 A 
ATOM     80  F   UNL A   1      40.295  35.532  38.092  1.00  0.00    -0.203 F 
ATOM     81  F   UNL A   1      36.845  31.361  38.843  1.00  0.00    -0.200 F 
ATOM     82  C   UNL A   1      37.711  33.441  39.547  1.00  0.00     0.200 A 
ATOM     83  F   UNL A   1      38.637  35.495  40.232  1.00  0.00    -0.200 F 
ATOM     84  F   UNL A   1      36.988  33.378  40.676  1.00  0.00    -0.200 F 
ENDBRANCH  50  74
BRANCH  62  85
ATOM     85  C   UNL A   1      43.270  27.666  35.143  1.00  0.00     0.064 A 
ATOM     86  C   UNL A   1      42.618  26.437  35.332  1.00  0.00     0.173 A 
ATOM     87  C   UNL A   1      44.685  27.601  35.094  1.00  0.00     0.173 A 
ATOM     88  F   UNL A   1      41.285  26.327  35.255  1.00  0.00    -0.203 F 
ATOM     89  C   UNL A   1      43.322  25.252  35.541  1.00  0.00     0.198 A 
ATOM     90  C   UNL A   1      45.381  26.401  35.218  1.00  0.00     0.198 A 
ATOM     91  F   UNL A   1      45.440  28.687  34.879  1.00  0.00    -0.203 F 
ATOM     92  F   UNL A   1      42.647  24.118  35.778  1.00  0.00    -0.200 F 
ATOM     93  C   UNL A   1      44.700  25.230  35.467  1.00  0.00     0.200 A 
ATOM     94  F   UNL A   1      46.712  26.389  35.067  1.00  0.00    -0.200 F 
ATOM     95  F   UNL A   1      45.368  24.078  35.609  1.00  0.00    -0.200 F 
ENDBRANCH  62  85
ENDBRANCH  36  37
ENDBRANCH  29  31
ENDBRANCH  28  29
ENDBRANCH  27  28
ENDBRANCH  26  27
ENDBRANCH   1  26
TORSDOF 16
ENDMDL
