MODEL 1
REMARK VINA RESULT:     -12.8      0.000      0.000
REMARK SMILES O=C(OCCOC(=O)c1cc(NC(=S)NC(=O)c2ccccc2F)ccc1Cl)c1ccc(-c2c3nc(c(-c4c(F)c(F)c(F)c(F)c4F)c4ccc([nH]4)c(-c4c(F)c(F)c(F)c(F)c4F)c4nc(c(-c5c(F)c(F)c(F)c(F)c5F)c5ccc2[nH]5)C=C4)C=C3)cc1
REMARK SMILES IDX 5 1 4 2 3 3 2 4 1 5 29 6 30 7 91 8 31 9 90 10 32 11 33 12
REMARK SMILES IDX 34 13 84 14 35 15 89 16 83 17 85 18 36 19 88 20 82 21 81 22
REMARK SMILES IDX 37 24 69 25 49 26 68 27 50 28 53 29 67 30 86 31 51 32 52 33
REMARK SMILES IDX 66 35 87 36 54 37 38 38 39 39 47 40 40 41 41 42 45 43 48 44
REMARK SMILES IDX 42 45 43 46 46 47 44 48 70 49 71 50 79 51 72 52 73 53 77 54
REMARK SMILES IDX 80 55 74 56 75 57 78 58 76 59 55 60 56 61 64 62 57 63 58 64
REMARK SMILES IDX 62 65 65 66 59 67 60 68 63 69 61 70 6 71 7 72 8 73 9 74
REMARK SMILES IDX 10 75 27 76 11 77 26 78 28 79 25 80 12 81 13 83 14 84 15 85
REMARK SMILES IDX 16 86 17 88 18 89 19 90 23 91 20 92 22 93 24 94 21 95
REMARK H PARENT 85 23 53 34 12 82 15 87
REMARK Flexibility Score: inf
ROOT
ATOM      1  C   UNL A   1      43.441  21.562  25.647  1.00  0.00     0.275 C 
ENDROOT
BRANCH   1   2
ATOM      2  C   UNL A   1      43.765  22.663  24.626  1.00  0.00     0.275 C 
BRANCH   2   3
ATOM      3  O   UNL A   1      44.877  23.478  24.991  1.00  0.00    -0.458 OA
BRANCH   3   4
ATOM      4  C   UNL A   1      44.936  24.824  25.046  1.00  0.00     0.338 C 
ATOM      5  O   UNL A   1      45.959  25.366  24.626  1.00  0.00    -0.246 OA
BRANCH   4   6
ATOM      6  C   UNL A   1      43.898  25.696  25.708  1.00  0.00     0.060 A 
ATOM      7  C   UNL A   1      42.576  25.380  26.050  1.00  0.00     0.016 A 
ATOM      8  C   UNL A   1      44.377  26.924  26.158  1.00  0.00     0.016 A 
ATOM      9  C   UNL A   1      41.848  26.132  26.987  1.00  0.00     0.010 A 
ATOM     10  C   UNL A   1      43.685  27.636  27.136  1.00  0.00     0.010 A 
ATOM     11  C   UNL A   1      42.431  27.219  27.623  1.00  0.00    -0.014 A 
BRANCH  11  12
ATOM     12  C   UNL A   1      41.771  27.937  28.763  1.00  0.00     0.031 A 
ATOM     13  C   UNL A   1      42.321  27.708  30.144  1.00  0.00     0.074 A 
ATOM     14  C   UNL A   1      40.664  28.711  28.622  1.00  0.00     0.049 A 
ATOM     15  N   UNL A   1      41.858  28.121  31.295  1.00  0.00    -0.248 NA
ATOM     16  C   UNL A   1      43.533  26.874  30.257  1.00  0.00     0.031 C 
ATOM     17  C   UNL A   1      39.985  29.039  27.366  1.00  0.00     0.029 A 
ATOM     18  N   UNL A   1      39.882  29.354  29.566  1.00  0.00    -0.354 N 
ATOM     19  C   UNL A   1      42.748  27.624  32.232  1.00  0.00     0.074 A 
ATOM     20  C   UNL A   1      43.626  26.701  31.562  1.00  0.00     0.031 C 
ATOM     21  C   UNL A   1      38.883  29.770  27.617  1.00  0.00     0.029 A 
ATOM     22  C   UNL A   1      38.763  29.981  29.053  1.00  0.00     0.049 A 
ATOM     23  H   UNL A   1      40.106  29.364  30.524  1.00  0.00     0.167 HD
ATOM     24  C   UNL A   1      42.942  28.027  33.503  1.00  0.00     0.037 A 
ATOM     25  C   UNL A   1      37.762  30.656  29.662  1.00  0.00     0.037 A 
ATOM     26  C   UNL A   1      42.157  29.025  34.154  1.00  0.00     0.049 A 
ATOM     27  C   UNL A   1      37.888  30.964  31.133  1.00  0.00     0.074 A 
ATOM     28  C   UNL A   1      42.351  29.584  35.400  1.00  0.00     0.029 A 
ATOM     29  N   UNL A   1      41.032  29.616  33.606  1.00  0.00    -0.354 N 
ATOM     30  N   UNL A   1      38.843  30.617  31.960  1.00  0.00    -0.248 NA
ATOM     31  C   UNL A   1      36.847  31.807  31.744  1.00  0.00     0.031 C 
ATOM     32  C   UNL A   1      41.301  30.469  35.638  1.00  0.00     0.029 A 
ATOM     33  C   UNL A   1      40.484  30.497  34.518  1.00  0.00     0.049 A 
ATOM     34  H   UNL A   1      40.677  29.435  32.706  1.00  0.00     0.167 HD
ATOM     35  C   UNL A   1      38.559  31.257  33.158  1.00  0.00     0.074 A 
ATOM     36  C   UNL A   1      37.331  31.995  32.965  1.00  0.00     0.031 C 
ATOM     37  C   UNL A   1      39.277  31.249  34.305  1.00  0.00     0.037 A 
BRANCH  24  38
ATOM     38  C   UNL A   1      44.132  27.471  34.213  1.00  0.00     0.064 A 
ATOM     39  C   UNL A   1      45.374  28.108  34.136  1.00  0.00     0.173 A 
ATOM     40  C   UNL A   1      44.036  26.281  34.955  1.00  0.00     0.173 A 
ATOM     41  F   UNL A   1      45.505  29.252  33.447  1.00  0.00    -0.203 F 
ATOM     42  C   UNL A   1      46.487  27.567  34.770  1.00  0.00     0.198 A 
ATOM     43  C   UNL A   1      45.143  25.760  35.612  1.00  0.00     0.198 A 
ATOM     44  F   UNL A   1      42.856  25.653  35.078  1.00  0.00    -0.203 F 
ATOM     45  F   UNL A   1      47.674  28.178  34.668  1.00  0.00    -0.200 F 
ATOM     46  C   UNL A   1      46.370  26.397  35.510  1.00  0.00     0.200 A 
ATOM     47  F   UNL A   1      45.019  24.651  36.354  1.00  0.00    -0.200 F 
ATOM     48  F   UNL A   1      47.442  25.886  36.129  1.00  0.00    -0.200 F 
ENDBRANCH  24  38
BRANCH  25  49
ATOM     49  C   UNL A   1      36.564  31.139  28.911  1.00  0.00     0.064 A 
ATOM     50  C   UNL A   1      35.512  30.264  28.598  1.00  0.00     0.173 A 
ATOM     51  C   UNL A   1      36.392  32.493  28.586  1.00  0.00     0.173 A 
ATOM     52  F   UNL A   1      35.608  28.962  28.903  1.00  0.00    -0.203 F 
ATOM     53  C   UNL A   1      34.340  30.724  27.991  1.00  0.00     0.198 A 
ATOM     54  C   UNL A   1      35.211  32.955  28.001  1.00  0.00     0.198 A 
ATOM     55  F   UNL A   1      37.345  33.381  28.902  1.00  0.00    -0.203 F 
ATOM     56  F   UNL A   1      33.355  29.861  27.706  1.00  0.00    -0.200 F 
ATOM     57  C   UNL A   1      34.186  32.071  27.703  1.00  0.00     0.200 A 
ATOM     58  F   UNL A   1      35.051  34.264  27.761  1.00  0.00    -0.200 F 
ATOM     59  F   UNL A   1      33.046  32.517  27.156  1.00  0.00    -0.200 F 
ENDBRANCH  25  49
BRANCH  37  60
ATOM     60  C   UNL A   1      38.798  32.077  35.456  1.00  0.00     0.064 A 
ATOM     61  C   UNL A   1      39.152  33.434  35.541  1.00  0.00     0.173 A 
ATOM     62  C   UNL A   1      38.150  31.492  36.549  1.00  0.00     0.173 A 
ATOM     63  F   UNL A   1      39.785  34.032  34.520  1.00  0.00    -0.203 F 
ATOM     64  C   UNL A   1      38.923  34.158  36.704  1.00  0.00     0.198 A 
ATOM     65  C   UNL A   1      37.891  32.230  37.699  1.00  0.00     0.198 A 
ATOM     66  F   UNL A   1      37.780  30.202  36.504  1.00  0.00    -0.203 F 
ATOM     67  F   UNL A   1      39.342  35.428  36.793  1.00  0.00    -0.200 F 
ATOM     68  C   UNL A   1      38.297  33.555  37.784  1.00  0.00     0.200 A 
ATOM     69  F   UNL A   1      37.268  31.653  38.735  1.00  0.00    -0.200 F 
ATOM     70  F   UNL A   1      38.093  34.247  38.913  1.00  0.00    -0.200 F 
ENDBRANCH  37  60
ENDBRANCH  11  12
ENDBRANCH   4   6
ENDBRANCH   3   4
ENDBRANCH   2   3
ENDBRANCH   1   2
BRANCH   1  71
ATOM     71  O   UNL A   1      42.218  20.809  25.404  1.00  0.00    -0.458 OA
BRANCH  71  72
ATOM     72  C   UNL A   1      41.494  20.504  26.520  1.00  0.00     0.339 C 
ATOM     73  O   UNL A   1      41.782  19.600  27.290  1.00  0.00    -0.246 OA
BRANCH  72  74
ATOM     74  C   UNL A   1      40.173  21.302  26.603  1.00  0.00     0.080 A 
ATOM     75  C   UNL A   1      38.486  21.430  25.513  1.00  0.00     0.043 A 
ATOM     76  C   UNL A   1      40.472  22.771  27.627  1.00  0.00     0.055 A 
ATOM     77  C   UNL A   1      37.406  22.701  25.480  1.00  0.00     0.041 A 
ATOM     78  C   UNL A   1      39.278  24.114  27.541  1.00  0.00     0.023 A 
ATOM     79  Cl  UNL A   1      41.870  22.960  28.607  1.00  0.00    -0.083 Cl
ATOM     80  C   UNL A   1      37.797  24.057  26.499  1.00  0.00     0.028 A 
BRANCH  77  81
ATOM     81  N   UNL A   1      36.385  22.357  24.543  1.00  0.00    -0.332 N 
ATOM     82  H   UNL A   1      36.664  22.401  23.600  1.00  0.00     0.169 HD
BRANCH  81  83
ATOM     83  C   UNL A   1      35.034  21.963  24.743  1.00  0.00     0.177 C 
ATOM     84  S   UNL A   1      34.541  21.742  26.336  1.00  0.00    -0.040 S 
BRANCH  83  85
ATOM     85  N   UNL A   1      33.975  21.777  23.720  1.00  0.00    -0.299 N 
ATOM     86  C   UNL A   1      32.559  22.066  23.119  1.00  0.00     0.260 C 
ATOM     87  H   UNL A   1      34.371  21.135  23.088  1.00  0.00     0.172 HD
ATOM     88  O   UNL A   1      32.096  21.297  22.283  1.00  0.00    -0.269 OA
BRANCH  86  89
ATOM     89  C   UNL A   1      31.738  23.368  23.548  1.00  0.00     0.075 A 
ATOM     90  C   UNL A   1      31.196  23.234  25.263  1.00  0.00     0.017 A 
ATOM     91  C   UNL A   1      32.824  24.673  23.016  1.00  0.00     0.135 A 
ATOM     92  C   UNL A   1      31.959  24.332  26.501  1.00  0.00     0.001 A 
ATOM     93  C   UNL A   1      33.600  25.833  24.088  1.00  0.00     0.040 A 
ATOM     94  F   UNL A   1      33.527  24.416  21.894  1.00  0.00    -0.206 F 
ATOM     95  C   UNL A   1      33.271  25.736  25.837  1.00  0.00     0.003 A 
ENDBRANCH  86  89
ENDBRANCH  83  85
ENDBRANCH  81  83
ENDBRANCH  77  81
ENDBRANCH  72  74
ENDBRANCH  71  72
ENDBRANCH   1  71
TORSDOF 15
ENDMDL
MODEL 2
REMARK VINA RESULT:     -12.3      1.538      7.513
REMARK SMILES O=C(OCCOC(=O)c1cc(NC(=S)NC(=O)c2ccccc2F)ccc1Cl)c1ccc(-c2c3nc(c(-c4c(F)c(F)c(F)c(F)c4F)c4ccc([nH]4)c(-c4c(F)c(F)c(F)c(F)c4F)c4nc(c(-c5c(F)c(F)c(F)c(F)c5F)c5ccc2[nH]5)C=C4)C=C3)cc1
REMARK SMILES IDX 5 1 4 2 3 3 2 4 1 5 29 6 30 7 91 8 31 9 90 10 32 11 33 12
REMARK SMILES IDX 34 13 84 14 35 15 89 16 83 17 85 18 36 19 88 20 82 21 81 22
REMARK SMILES IDX 37 24 69 25 49 26 68 27 50 28 53 29 67 30 86 31 51 32 52 33
REMARK SMILES IDX 66 35 87 36 54 37 38 38 39 39 47 40 40 41 41 42 45 43 48 44
REMARK SMILES IDX 42 45 43 46 46 47 44 48 70 49 71 50 79 51 72 52 73 53 77 54
REMARK SMILES IDX 80 55 74 56 75 57 78 58 76 59 55 60 56 61 64 62 57 63 58 64
REMARK SMILES IDX 62 65 65 66 59 67 60 68 63 69 61 70 6 71 7 72 8 73 9 74
REMARK SMILES IDX 10 75 27 76 11 77 26 78 28 79 25 80 12 81 13 83 14 84 15 85
REMARK SMILES IDX 16 86 17 88 18 89 19 90 23 91 20 92 22 93 24 94 21 95
REMARK H PARENT 85 23 53 34 12 82 15 87
REMARK Flexibility Score: inf
ROOT
ATOM      1  C   UNL A   1      42.379  21.347  26.119  1.00  0.00     0.275 C 
ENDROOT
BRANCH   1   2
ATOM      2  C   UNL A   1      43.626  22.103  25.640  1.00  0.00     0.275 C 
BRANCH   2   3
ATOM      3  O   UNL A   1      43.336  23.228  24.812  1.00  0.00    -0.458 OA
BRANCH   3   4
ATOM      4  C   UNL A   1      43.573  24.530  25.071  1.00  0.00     0.338 C 
ATOM      5  O   UNL A   1      44.624  25.011  24.645  1.00  0.00    -0.246 OA
BRANCH   4   6
ATOM      6  C   UNL A   1      42.710  25.395  25.955  1.00  0.00     0.060 A 
ATOM      7  C   UNL A   1      41.639  25.017  26.775  1.00  0.00     0.016 A 
ATOM      8  C   UNL A   1      43.137  26.716  26.065  1.00  0.00     0.016 A 
ATOM      9  C   UNL A   1      41.173  25.834  27.818  1.00  0.00     0.010 A 
ATOM     10  C   UNL A   1      42.725  27.504  27.138  1.00  0.00     0.010 A 
ATOM     11  C   UNL A   1      41.780  27.054  28.081  1.00  0.00    -0.014 A 
BRANCH  11  12
ATOM     12  C   UNL A   1      41.452  27.876  29.292  1.00  0.00     0.031 A 
ATOM     13  C   UNL A   1      40.285  28.821  29.198  1.00  0.00     0.074 A 
ATOM     14  C   UNL A   1      42.194  27.868  30.429  1.00  0.00     0.049 A 
ATOM     15  N   UNL A   1      39.874  29.712  30.062  1.00  0.00    -0.248 NA
ATOM     16  C   UNL A   1      39.492  28.791  27.954  1.00  0.00     0.031 C 
ATOM     17  C   UNL A   1      43.363  27.027  30.699  1.00  0.00     0.029 A 
ATOM     18  N   UNL A   1      42.092  28.625  31.584  1.00  0.00    -0.354 N 
ATOM     19  C   UNL A   1      38.769  30.296  29.467  1.00  0.00     0.074 A 
ATOM     20  C   UNL A   1      38.710  29.844  28.103  1.00  0.00     0.031 C 
ATOM     21  C   UNL A   1      43.887  27.341  31.899  1.00  0.00     0.029 A 
ATOM     22  C   UNL A   1      43.097  28.404  32.505  1.00  0.00     0.049 A 
ATOM     23  H   UNL A   1      41.362  29.267  31.735  1.00  0.00     0.167 HD
ATOM     24  C   UNL A   1      37.782  31.009  30.045  1.00  0.00     0.037 A 
ATOM     25  C   UNL A   1      43.350  28.978  33.703  1.00  0.00     0.037 A 
ATOM     26  C   UNL A   1      37.761  31.372  31.425  1.00  0.00     0.049 A 
ATOM     27  C   UNL A   1      42.324  29.918  34.284  1.00  0.00     0.074 A 
ATOM     28  C   UNL A   1      36.748  31.991  32.129  1.00  0.00     0.029 A 
ATOM     29  N   UNL A   1      38.799  31.144  32.310  1.00  0.00    -0.354 N 
ATOM     30  N   UNL A   1      41.194  30.320  33.757  1.00  0.00    -0.248 NA
ATOM     31  C   UNL A   1      42.563  30.432  35.644  1.00  0.00     0.031 C 
ATOM     32  C   UNL A   1      37.200  32.200  33.431  1.00  0.00     0.029 A 
ATOM     33  C   UNL A   1      38.473  31.664  33.548  1.00  0.00     0.049 A 
ATOM     34  H   UNL A   1      39.641  30.682  32.092  1.00  0.00     0.167 HD
ATOM     35  C   UNL A   1      40.558  31.064  34.741  1.00  0.00     0.074 A 
ATOM     36  C   UNL A   1      41.435  31.084  35.890  1.00  0.00     0.031 C 
ATOM     37  C   UNL A   1      39.341  31.653  34.695  1.00  0.00     0.037 A 
BRANCH  24  38
ATOM     38  C   UNL A   1      36.590  31.319  29.202  1.00  0.00     0.064 A 
ATOM     39  C   UNL A   1      35.687  30.315  28.841  1.00  0.00     0.173 A 
ATOM     40  C   UNL A   1      36.362  32.623  28.730  1.00  0.00     0.173 A 
ATOM     41  F   UNL A   1      35.863  29.059  29.278  1.00  0.00    -0.203 F 
ATOM     42  C   UNL A   1      34.599  30.602  28.024  1.00  0.00     0.198 A 
ATOM     43  C   UNL A   1      35.257  32.913  27.941  1.00  0.00     0.198 A 
ATOM     44  F   UNL A   1      37.189  33.623  29.077  1.00  0.00    -0.203 F 
ATOM     45  F   UNL A   1      33.755  29.624  27.670  1.00  0.00    -0.200 F 
ATOM     46  C   UNL A   1      34.383  31.900  27.580  1.00  0.00     0.200 A 
ATOM     47  F   UNL A   1      35.032  34.173  27.543  1.00  0.00    -0.200 F 
ATOM     48  F   UNL A   1      33.325  32.175  26.804  1.00  0.00    -0.200 F 
ENDBRANCH  24  38
BRANCH  25  49
ATOM     49  C   UNL A   1      44.590  28.674  34.479  1.00  0.00     0.064 A 
ATOM     50  C   UNL A   1      45.735  29.474  34.345  1.00  0.00     0.173 A 
ATOM     51  C   UNL A   1      44.627  27.655  35.442  1.00  0.00     0.173 A 
ATOM     52  F   UNL A   1      45.753  30.478  33.456  1.00  0.00    -0.203 F 
ATOM     53  C   UNL A   1      46.864  29.267  35.142  1.00  0.00     0.198 A 
ATOM     54  C   UNL A   1      45.747  27.464  36.254  1.00  0.00     0.198 A 
ATOM     55  F   UNL A   1      43.546  26.888  35.645  1.00  0.00    -0.203 F 
ATOM     56  F   UNL A   1      47.941  30.049  34.988  1.00  0.00    -0.200 F 
ATOM     57  C   UNL A   1      46.865  28.268  36.103  1.00  0.00     0.200 A 
ATOM     58  F   UNL A   1      45.728  26.523  37.209  1.00  0.00    -0.200 F 
ATOM     59  F   UNL A   1      47.935  28.095  36.893  1.00  0.00    -0.200 F 
ENDBRANCH  25  49
BRANCH  37  60
ATOM     60  C   UNL A   1      38.837  32.355  35.917  1.00  0.00     0.064 A 
ATOM     61  C   UNL A   1      39.183  33.695  36.150  1.00  0.00     0.173 A 
ATOM     62  C   UNL A   1      38.169  31.656  36.929  1.00  0.00     0.173 A 
ATOM     63  F   UNL A   1      39.834  34.399  35.211  1.00  0.00    -0.203 F 
ATOM     64  C   UNL A   1      38.929  34.293  37.379  1.00  0.00     0.198 A 
ATOM     65  C   UNL A   1      37.884  32.269  38.145  1.00  0.00     0.198 A 
ATOM     66  F   UNL A   1      37.805  30.378  36.741  1.00  0.00    -0.203 F 
ATOM     67  F   UNL A   1      39.340  35.548  37.609  1.00  0.00    -0.200 F 
ATOM     68  C   UNL A   1      38.284  33.578  38.376  1.00  0.00     0.200 A 
ATOM     69  F   UNL A   1      37.243  31.585  39.102  1.00  0.00    -0.200 F 
ATOM     70  F   UNL A   1      38.054  34.148  39.567  1.00  0.00    -0.200 F 
ENDBRANCH  37  60
ENDBRANCH  11  12
ENDBRANCH   4   6
ENDBRANCH   3   4
ENDBRANCH   2   3
ENDBRANCH   1   2
BRANCH   1  71
ATOM     71  O   UNL A   1      41.108  21.806  25.576  1.00  0.00    -0.458 OA
BRANCH  71  72
ATOM     72  C   UNL A   1      40.092  21.903  26.482  1.00  0.00     0.339 C 
ATOM     73  O   UNL A   1      40.224  21.690  27.677  1.00  0.00    -0.246 OA
BRANCH  72  74
ATOM     74  C   UNL A   1      38.720  22.132  25.806  1.00  0.00     0.080 A 
ATOM     75  C   UNL A   1      37.343  23.599  25.784  1.00  0.00     0.043 A 
ATOM     76  C   UNL A   1      38.039  20.509  25.362  1.00  0.00     0.055 A 
ATOM     77  C   UNL A   1      35.723  23.450  25.411  1.00  0.00     0.041 A 
ATOM     78  C   UNL A   1      36.284  20.408  24.981  1.00  0.00     0.023 A 
ATOM     79  Cl  UNL A   1      38.975  19.069  25.364  1.00  0.00    -0.083 Cl
ATOM     80  C   UNL A   1      35.181  21.846  25.004  1.00  0.00     0.028 A 
BRANCH  77  81
ATOM     81  N   UNL A   1      35.140  24.745  25.558  1.00  0.00    -0.332 N 
ATOM     82  H   UNL A   1      35.785  25.489  25.537  1.00  0.00     0.169 HD
BRANCH  81  83
ATOM     83  C   UNL A   1      33.785  25.140  25.733  1.00  0.00     0.177 C 
ATOM     84  S   UNL A   1      33.461  26.786  25.621  1.00  0.00    -0.040 S 
BRANCH  83  85
ATOM     85  N   UNL A   1      32.600  24.272  25.945  1.00  0.00    -0.299 N 
ATOM     86  C   UNL A   1      31.200  23.707  25.528  1.00  0.00     0.260 C 
ATOM     87  H   UNL A   1      32.798  23.808  26.790  1.00  0.00     0.172 HD
ATOM     88  O   UNL A   1      30.513  23.136  26.368  1.00  0.00    -0.269 OA
BRANCH  86  89
ATOM     89  C   UNL A   1      30.685  23.829  24.022  1.00  0.00     0.075 A 
ATOM     90  C   UNL A   1      30.403  25.558  23.590  1.00  0.00     0.017 A 
ATOM     91  C   UNL A   1      31.875  22.835  23.149  1.00  0.00     0.135 A 
ATOM     92  C   UNL A   1      31.521  26.342  22.384  1.00  0.00     0.001 A 
ATOM     93  C   UNL A   1      32.990  23.444  21.931  1.00  0.00     0.040 A 
ATOM     94  F   UNL A   1      32.341  21.767  23.828  1.00  0.00    -0.206 F 
ATOM     95  C   UNL A   1      32.928  25.171  21.499  1.00  0.00     0.003 A 
ENDBRANCH  86  89
ENDBRANCH  83  85
ENDBRANCH  81  83
ENDBRANCH  77  81
ENDBRANCH  72  74
ENDBRANCH  71  72
ENDBRANCH   1  71
TORSDOF 15
ENDMDL
MODEL 3
REMARK VINA RESULT:     -12.3      4.707      7.503
REMARK SMILES O=C(OCCOC(=O)c1cc(NC(=S)NC(=O)c2ccccc2F)ccc1Cl)c1ccc(-c2c3nc(c(-c4c(F)c(F)c(F)c(F)c4F)c4ccc([nH]4)c(-c4c(F)c(F)c(F)c(F)c4F)c4nc(c(-c5c(F)c(F)c(F)c(F)c5F)c5ccc2[nH]5)C=C4)C=C3)cc1
REMARK SMILES IDX 5 1 4 2 3 3 2 4 1 5 29 6 30 7 91 8 31 9 90 10 32 11 33 12
REMARK SMILES IDX 34 13 84 14 35 15 89 16 83 17 85 18 36 19 88 20 82 21 81 22
REMARK SMILES IDX 37 24 69 25 49 26 68 27 50 28 53 29 67 30 86 31 51 32 52 33
REMARK SMILES IDX 66 35 87 36 54 37 38 38 39 39 47 40 40 41 41 42 45 43 48 44
REMARK SMILES IDX 42 45 43 46 46 47 44 48 70 49 71 50 79 51 72 52 73 53 77 54
REMARK SMILES IDX 80 55 74 56 75 57 78 58 76 59 55 60 56 61 64 62 57 63 58 64
REMARK SMILES IDX 62 65 65 66 59 67 60 68 63 69 61 70 6 71 7 72 8 73 9 74
REMARK SMILES IDX 10 75 27 76 11 77 26 78 28 79 25 80 12 81 13 83 14 84 15 85
REMARK SMILES IDX 16 86 17 88 18 89 19 90 23 91 20 92 22 93 24 94 21 95
REMARK H PARENT 85 23 53 34 12 82 15 87
REMARK Flexibility Score: inf
ROOT
ATOM      1  C   UNL A   1      37.986  20.020  24.980  1.00  0.00     0.275 C 
ENDROOT
BRANCH   1   2
ATOM      2  C   UNL A   1      39.293  20.350  25.715  1.00  0.00     0.275 C 
BRANCH   2   3
ATOM      3  O   UNL A   1      40.185  19.243  25.832  1.00  0.00    -0.458 OA
BRANCH   3   4
ATOM      4  C   UNL A   1      41.529  19.269  25.937  1.00  0.00     0.338 C 
ATOM      5  O   UNL A   1      42.120  18.189  25.930  1.00  0.00    -0.246 OA
BRANCH   4   6
ATOM      6  C   UNL A   1      42.340  20.514  26.198  1.00  0.00     0.060 A 
ATOM      7  C   UNL A   1      42.993  21.344  25.277  1.00  0.00     0.016 A 
ATOM      8  C   UNL A   1      42.305  20.960  27.517  1.00  0.00     0.016 A 
ATOM      9  C   UNL A   1      43.382  22.654  25.599  1.00  0.00     0.010 A 
ATOM     10  C   UNL A   1      42.629  22.281  27.824  1.00  0.00     0.010 A 
ATOM     11  C   UNL A   1      43.113  23.180  26.855  1.00  0.00    -0.014 A 
BRANCH  11  12
ATOM     12  C   UNL A   1      43.332  24.625  27.189  1.00  0.00     0.031 A 
ATOM     13  C   UNL A   1      44.739  25.154  27.107  1.00  0.00     0.074 A 
ATOM     14  C   UNL A   1      42.350  25.451  27.634  1.00  0.00     0.049 A 
ATOM     15  N   UNL A   1      45.199  26.328  27.453  1.00  0.00    -0.248 NA
ATOM     16  C   UNL A   1      45.776  24.234  26.605  1.00  0.00     0.031 C 
ATOM     17  C   UNL A   1      40.933  25.114  27.787  1.00  0.00     0.029 A 
ATOM     18  N   UNL A   1      42.400  26.762  28.076  1.00  0.00    -0.354 N 
ATOM     19  C   UNL A   1      46.553  26.274  27.167  1.00  0.00     0.074 A 
ATOM     20  C   UNL A   1      46.883  24.909  26.850  1.00  0.00     0.031 C 
ATOM     21  C   UNL A   1      40.268  26.157  28.321  1.00  0.00     0.029 A 
ATOM     22  C   UNL A   1      41.198  27.253  28.549  1.00  0.00     0.049 A 
ATOM     23  H   UNL A   1      43.223  27.300  28.053  1.00  0.00     0.167 HD
ATOM     24  C   UNL A   1      47.419  27.293  27.005  1.00  0.00     0.037 A 
ATOM     25  C   UNL A   1      40.877  28.449  29.093  1.00  0.00     0.037 A 
ATOM     26  C   UNL A   1      47.083  28.666  27.201  1.00  0.00     0.049 A 
ATOM     27  C   UNL A   1      41.905  29.552  29.073  1.00  0.00     0.074 A 
ATOM     28  C   UNL A   1      47.860  29.779  26.947  1.00  0.00     0.029 A 
ATOM     29  N   UNL A   1      45.870  29.113  27.693  1.00  0.00    -0.354 N 
ATOM     30  N   UNL A   1      43.138  29.510  28.633  1.00  0.00    -0.248 NA
ATOM     31  C   UNL A   1      41.489  30.880  29.557  1.00  0.00     0.031 C 
ATOM     32  C   UNL A   1      47.139  30.901  27.350  1.00  0.00     0.029 A 
ATOM     33  C   UNL A   1      45.896  30.489  27.806  1.00  0.00     0.049 A 
ATOM     34  H   UNL A   1      45.106  28.538  27.927  1.00  0.00     0.167 HD
ATOM     35  C   UNL A   1      43.615  30.810  28.714  1.00  0.00     0.074 A 
ATOM     36  C   UNL A   1      42.553  31.618  29.269  1.00  0.00     0.031 C 
ATOM     37  C   UNL A   1      44.822  31.288  28.333  1.00  0.00     0.037 A 
BRANCH  24  38
ATOM     38  C   UNL A   1      48.770  26.952  26.469  1.00  0.00     0.064 A 
ATOM     39  C   UNL A   1      49.033  27.015  25.097  1.00  0.00     0.173 A 
ATOM     40  C   UNL A   1      49.801  26.536  27.328  1.00  0.00     0.173 A 
ATOM     41  F   UNL A   1      48.078  27.417  24.244  1.00  0.00    -0.203 F 
ATOM     42  C   UNL A   1      50.282  26.661  24.599  1.00  0.00     0.198 A 
ATOM     43  C   UNL A   1      51.057  26.213  26.831  1.00  0.00     0.198 A 
ATOM     44  F   UNL A   1      49.599  26.490  28.655  1.00  0.00    -0.203 F 
ATOM     45  F   UNL A   1      50.510  26.706  23.280  1.00  0.00    -0.200 F 
ATOM     46  C   UNL A   1      51.293  26.266  25.466  1.00  0.00     0.200 A 
ATOM     47  F   UNL A   1      52.041  25.867  27.672  1.00  0.00    -0.200 F 
ATOM     48  F   UNL A   1      52.499  25.939  24.983  1.00  0.00    -0.200 F 
ENDBRANCH  24  38
BRANCH  25  49
ATOM     49  C   UNL A   1      39.524  28.717  29.669  1.00  0.00     0.064 A 
ATOM     50  C   UNL A   1      39.262  28.476  31.026  1.00  0.00     0.173 A 
ATOM     51  C   UNL A   1      38.504  29.314  28.914  1.00  0.00     0.173 A 
ATOM     52  F   UNL A   1      40.204  27.927  31.806  1.00  0.00    -0.203 F 
ATOM     53  C   UNL A   1      38.036  28.821  31.602  1.00  0.00     0.198 A 
ATOM     54  C   UNL A   1      37.288  29.680  29.496  1.00  0.00     0.198 A 
ATOM     55  F   UNL A   1      38.715  29.608  27.623  1.00  0.00    -0.203 F 
ATOM     56  F   UNL A   1      37.818  28.577  32.902  1.00  0.00    -0.200 F 
ATOM     57  C   UNL A   1      37.054  29.433  30.839  1.00  0.00     0.200 A 
ATOM     58  F   UNL A   1      36.358  30.307  28.762  1.00  0.00    -0.200 F 
ATOM     59  F   UNL A   1      35.893  29.798  31.402  1.00  0.00    -0.200 F 
ENDBRANCH  25  49
BRANCH  37  60
ATOM     60  C   UNL A   1      45.087  32.755  28.460  1.00  0.00     0.064 A 
ATOM     61  C   UNL A   1      44.771  33.620  27.400  1.00  0.00     0.173 A 
ATOM     62  C   UNL A   1      45.806  33.270  29.544  1.00  0.00     0.173 A 
ATOM     63  F   UNL A   1      44.091  33.166  26.336  1.00  0.00    -0.203 F 
ATOM     64  C   UNL A   1      45.217  34.936  27.397  1.00  0.00     0.198 A 
ATOM     65  C   UNL A   1      46.222  34.597  29.554  1.00  0.00     0.198 A 
ATOM     66  F   UNL A   1      46.116  32.482  30.585  1.00  0.00    -0.203 F 
ATOM     67  F   UNL A   1      44.974  35.722  26.340  1.00  0.00    -0.200 F 
ATOM     68  C   UNL A   1      45.946  35.422  28.472  1.00  0.00     0.200 A 
ATOM     69  F   UNL A   1      46.909  35.073  30.601  1.00  0.00    -0.200 F 
ATOM     70  F   UNL A   1      46.393  36.686  28.462  1.00  0.00    -0.200 F 
ENDBRANCH  37  60
ENDBRANCH  11  12
ENDBRANCH   4   6
ENDBRANCH   3   4
ENDBRANCH   2   3
ENDBRANCH   1   2
BRANCH   1  71
ATOM     71  O   UNL A   1      37.325  21.138  24.323  1.00  0.00    -0.458 OA
BRANCH  71  72
ATOM     72  C   UNL A   1      36.346  21.745  25.055  1.00  0.00     0.339 C 
ATOM     73  O   UNL A   1      36.325  21.766  26.277  1.00  0.00    -0.246 OA
BRANCH  72  74
ATOM     74  C   UNL A   1      35.174  22.241  24.177  1.00  0.00     0.080 A 
ATOM     75  C   UNL A   1      34.598  24.002  23.391  1.00  0.00     0.043 A 
ATOM     76  C   UNL A   1      33.811  21.055  24.343  1.00  0.00     0.055 A 
ATOM     77  C   UNL A   1      33.059  24.429  22.908  1.00  0.00     0.041 A 
ATOM     78  C   UNL A   1      32.172  21.576  23.815  1.00  0.00     0.023 A 
ATOM     79  Cl  UNL A   1      34.004  19.498  25.043  1.00  0.00    -0.083 Cl
ATOM     80  C   UNL A   1      31.831  23.214  23.117  1.00  0.00     0.028 A 
BRANCH  77  81
ATOM     81  N   UNL A   1      33.127  25.778  22.446  1.00  0.00    -0.332 N 
ATOM     82  H   UNL A   1      32.773  25.918  21.538  1.00  0.00     0.169 HD
BRANCH  81  83
ATOM     83  C   UNL A   1      33.620  26.954  23.077  1.00  0.00     0.177 C 
ATOM     84  S   UNL A   1      34.020  28.238  22.069  1.00  0.00    -0.040 S 
BRANCH  83  85
ATOM     85  N   UNL A   1      33.773  27.215  24.530  1.00  0.00    -0.299 N 
ATOM     86  C   UNL A   1      33.297  27.832  25.887  1.00  0.00     0.260 C 
ATOM     87  H   UNL A   1      34.617  26.764  24.761  1.00  0.00     0.172 HD
ATOM     88  O   UNL A   1      34.101  27.948  26.806  1.00  0.00    -0.269 OA
BRANCH  86  89
ATOM     89  C   UNL A   1      31.775  28.268  26.098  1.00  0.00     0.075 A 
ATOM     90  C   UNL A   1      31.354  29.637  25.000  1.00  0.00     0.017 A 
ATOM     91  C   UNL A   1      30.932  26.704  25.999  1.00  0.00     0.135 A 
ATOM     92  C   UNL A   1      30.197  29.322  23.629  1.00  0.00     0.001 A 
ATOM     93  C   UNL A   1      29.760  26.273  24.758  1.00  0.00     0.040 A 
ATOM     94  F   UNL A   1      31.614  25.651  26.493  1.00  0.00    -0.206 F 
ATOM     95  C   UNL A   1      29.346  27.479  23.514  1.00  0.00     0.003 A 
ENDBRANCH  86  89
ENDBRANCH  83  85
ENDBRANCH  81  83
ENDBRANCH  77  81
ENDBRANCH  72  74
ENDBRANCH  71  72
ENDBRANCH   1  71
TORSDOF 15
ENDMDL
