MODEL 1
REMARK VINA RESULT:     -13.1      0.000      0.000
REMARK SMILES COc1cccc(C(=O)Nc2ccc(NC(=O)[C@@H]3[C@@H](C(=O)OCCOC(=O)c4ccc(-c5c6nc(c(-c7c(F)c(F)c(F)c(F)c7F)c7ccc([nH]7)c(-c7c(F)c(F)c(F)c(F)c7F)c7nc(c(-c8c(F)c(F)c(F)c(F)c8F)c8ccc5[nH]8)C=C7)C=C6)cc4)[C@@H]4C=C[C@H]3C4)cc2)c1
REMARK SMILES IDX 22 1 20 2 21 3 19 4 18 5 94 6 91 7 93 8 95 9 92 10 16 11
REMARK SMILES IDX 15 12 17 14 14 15 11 16 12 17 97 18 13 19 96 20 10 21 8 22
REMARK SMILES IDX 9 23 7 25 3 26 4 27 98 28 5 29 6 30 2 31 1 32 23 33 24 34
REMARK SMILES IDX 25 35 26 36 27 37 28 38 29 39 90 40 30 41 89 42 31 43 32 44
REMARK SMILES IDX 33 45 83 46 34 47 88 48 82 49 84 50 35 51 87 52 81 53 80 54
REMARK SMILES IDX 36 56 68 57 48 58 67 59 49 60 52 61 66 62 85 63 50 64 51 65
REMARK SMILES IDX 65 67 86 68 53 69 37 70 38 71 46 72 39 73 40 74 44 75 47 76
REMARK SMILES IDX 41 77 42 78 45 79 43 80 69 81 70 82 78 83 71 84 72 85 76 86
REMARK SMILES IDX 79 87 73 88 74 89 77 90 75 91 54 92 55 93 63 94 56 95 57 96
REMARK SMILES IDX 61 97 64 98 58 99 59 100 62 101 60 102
REMARK H PARENT 15 13 10 24 84 55 52 66
REMARK Flexibility Score: inf
ROOT
ATOM      1  O   UNL A   1      32.322  29.411  24.429  1.00  0.00    -0.462 OA
ENDROOT
BRANCH   1   2
ATOM      2  C   UNL A   1      31.507  29.119  23.374  1.00  0.00     0.310 C 
ATOM      3  O   UNL A   1      31.901  28.780  22.268  1.00  0.00    -0.252 OA
BRANCH   2   4
ATOM      4  C   UNL A   1      30.044  29.245  23.782  1.00  0.00     0.119 C 
ATOM      5  C   UNL A   1      29.118  28.218  23.051  1.00  0.00     0.100 C 
ATOM      6  C   UNL A   1      28.140  29.127  22.253  1.00  0.00     0.025 C 
ATOM      7  C   UNL A   1      29.519  30.603  23.231  1.00  0.00     0.027 C 
ATOM      8  C   UNL A   1      27.308  30.011  23.143  1.00  0.00    -0.027 C 
ATOM      9  C   UNL A   1      29.124  30.215  21.796  1.00  0.00     0.017 C 
ATOM     10  C   UNL A   1      28.134  30.875  23.749  1.00  0.00    -0.027 C 
BRANCH   5  11
ATOM     11  C   UNL A   1      28.544  26.972  23.752  1.00  0.00     0.228 C 
ATOM     12  N   UNL A   1      29.256  25.984  24.357  1.00  0.00    -0.326 N 
ATOM     13  H   UNL A   1      28.761  25.504  25.060  1.00  0.00     0.169 HD
ATOM     14  O   UNL A   1      27.315  26.898  23.901  1.00  0.00    -0.274 OA
BRANCH  12  15
ATOM     15  C   UNL A   1      30.555  25.527  24.163  1.00  0.00     0.041 A 
ATOM     16  C   UNL A   1      33.204  24.810  23.747  1.00  0.00     0.041 A 
ATOM     17  C   UNL A   1      32.244  24.506  22.782  1.00  0.00     0.028 A 
ATOM     18  C   UNL A   1      32.843  25.426  24.944  1.00  0.00     0.028 A 
ATOM     19  C   UNL A   1      30.912  24.825  23.018  1.00  0.00     0.028 A 
ATOM     20  C   UNL A   1      31.504  25.754  25.167  1.00  0.00     0.028 A 
BRANCH  16  21
ATOM     21  N   UNL A   1      34.527  24.441  23.521  1.00  0.00    -0.322 N 
ATOM     22  C   UNL A   1      35.039  23.158  23.563  1.00  0.00     0.255 C 
ATOM     23  O   UNL A   1      36.003  22.883  22.850  1.00  0.00    -0.269 OA
ATOM     24  H   UNL A   1      35.160  25.164  23.309  1.00  0.00     0.170 HD
BRANCH  22  25
ATOM     25  C   UNL A   1      34.570  22.171  24.591  1.00  0.00     0.043 A 
ATOM     26  C   UNL A   1      33.192  20.314  25.373  1.00  0.00     0.119 A 
ATOM     27  C   UNL A   1      33.551  20.612  26.684  1.00  0.00     0.046 A 
ATOM     28  C   UNL A   1      33.742  21.067  24.336  1.00  0.00     0.060 A 
ATOM     29  C   UNL A   1      34.440  21.652  26.957  1.00  0.00     0.005 A 
ATOM     30  C   UNL A   1      34.940  22.433  25.915  1.00  0.00     0.014 A 
BRANCH  26  31
ATOM     31  O   UNL A   1      32.294  19.292  25.227  1.00  0.00    -0.497 OA
ATOM     32  C   UNL A   1      32.656  18.004  25.720  1.00  0.00     0.278 C 
ENDBRANCH  26  31
ENDBRANCH  22  25
ENDBRANCH  16  21
ENDBRANCH  12  15
ENDBRANCH   5  11
ENDBRANCH   2   4
ENDBRANCH   1   2
BRANCH   1  33
ATOM     33  C   UNL A   1      31.746  29.309  25.745  1.00  0.00     0.274 C 
BRANCH  33  34
ATOM     34  C   UNL A   1      31.933  30.594  26.553  1.00  0.00     0.275 C 
BRANCH  34  35
ATOM     35  O   UNL A   1      33.280  31.086  26.463  1.00  0.00    -0.458 OA
BRANCH  35  36
ATOM     36  C   UNL A   1      33.577  32.108  27.303  1.00  0.00     0.338 C 
ATOM     37  O   UNL A   1      32.890  33.080  27.560  1.00  0.00    -0.246 OA
BRANCH  36  38
ATOM     38  C   UNL A   1      34.808  31.778  28.040  1.00  0.00     0.060 A 
ATOM     39  C   UNL A   1      34.861  30.535  28.675  1.00  0.00     0.016 A 
ATOM     40  C   UNL A   1      35.887  32.659  28.111  1.00  0.00     0.016 A 
ATOM     41  C   UNL A   1      36.005  30.148  29.361  1.00  0.00     0.010 A 
ATOM     42  C   UNL A   1      37.034  32.275  28.811  1.00  0.00     0.010 A 
ATOM     43  C   UNL A   1      37.101  31.014  29.432  1.00  0.00    -0.014 A 
BRANCH  43  44
ATOM     44  C   UNL A   1      38.305  30.609  30.186  1.00  0.00     0.031 A 
ATOM     45  C   UNL A   1      39.273  29.648  29.568  1.00  0.00     0.074 A 
ATOM     46  C   UNL A   1      38.532  31.118  31.411  1.00  0.00     0.049 A 
ATOM     47  N   UNL A   1      40.314  29.062  30.100  1.00  0.00    -0.248 NA
ATOM     48  C   UNL A   1      39.037  29.305  28.158  1.00  0.00     0.031 C 
ATOM     49  C   UNL A   1      37.702  32.124  32.072  1.00  0.00     0.029 A 
ATOM     50  N   UNL A   1      39.523  30.846  32.321  1.00  0.00    -0.354 N 
ATOM     51  C   UNL A   1      40.850  28.270  29.096  1.00  0.00     0.074 A 
ATOM     52  C   UNL A   1      40.011  28.435  27.929  1.00  0.00     0.031 C 
ATOM     53  C   UNL A   1      38.205  32.369  33.293  1.00  0.00     0.029 A 
ATOM     54  C   UNL A   1      39.355  31.498  33.518  1.00  0.00     0.049 A 
ATOM     55  H   UNL A   1      40.279  30.244  32.135  1.00  0.00     0.167 HD
ATOM     56  C   UNL A   1      41.946  27.477  29.152  1.00  0.00     0.037 A 
ATOM     57  C   UNL A   1      40.027  31.367  34.678  1.00  0.00     0.037 A 
ATOM     58  C   UNL A   1      42.770  27.324  30.324  1.00  0.00     0.049 A 
ATOM     59  C   UNL A   1      41.172  30.390  34.750  1.00  0.00     0.074 A 
ATOM     60  C   UNL A   1      43.903  26.548  30.488  1.00  0.00     0.029 A 
ATOM     61  N   UNL A   1      42.538  27.957  31.537  1.00  0.00    -0.354 N 
ATOM     62  N   UNL A   1      41.675  29.634  33.804  1.00  0.00    -0.248 NA
ATOM     63  C   UNL A   1      41.835  30.239  36.052  1.00  0.00     0.031 C 
ATOM     64  C   UNL A   1      44.322  26.664  31.816  1.00  0.00     0.029 A 
ATOM     65  C   UNL A   1      43.486  27.559  32.466  1.00  0.00     0.049 A 
ATOM     66  H   UNL A   1      41.808  28.595  31.713  1.00  0.00     0.167 HD
ATOM     67  C   UNL A   1      42.719  28.932  34.389  1.00  0.00     0.074 A 
ATOM     68  C   UNL A   1      42.793  29.368  35.767  1.00  0.00     0.031 C 
ATOM     69  C   UNL A   1      43.541  28.006  33.836  1.00  0.00     0.037 A 
BRANCH  56  70
ATOM     70  C   UNL A   1      42.289  26.680  27.928  1.00  0.00     0.064 A 
ATOM     71  C   UNL A   1      43.209  27.144  26.975  1.00  0.00     0.173 A 
ATOM     72  C   UNL A   1      41.709  25.420  27.720  1.00  0.00     0.173 A 
ATOM     73  F   UNL A   1      43.782  28.347  27.120  1.00  0.00    -0.203 F 
ATOM     74  C   UNL A   1      43.513  26.386  25.846  1.00  0.00     0.198 A 
ATOM     75  C   UNL A   1      42.037  24.653  26.606  1.00  0.00     0.198 A 
ATOM     76  F   UNL A   1      40.824  24.928  28.601  1.00  0.00    -0.203 F 
ATOM     77  F   UNL A   1      44.358  26.869  24.925  1.00  0.00    -0.200 F 
ATOM     78  C   UNL A   1      42.933  25.140  25.666  1.00  0.00     0.200 A 
ATOM     79  F   UNL A   1      41.485  23.443  26.440  1.00  0.00    -0.200 F 
ATOM     80  F   UNL A   1      43.231  24.410  24.582  1.00  0.00    -0.200 F 
ENDBRANCH  56  70
BRANCH  57  81
ATOM     81  C   UNL A   1      39.597  32.135  35.877  1.00  0.00     0.064 A 
ATOM     82  C   UNL A   1      40.215  33.341  36.228  1.00  0.00     0.173 A 
ATOM     83  C   UNL A   1      38.566  31.665  36.708  1.00  0.00     0.173 A 
ATOM     84  F   UNL A   1      41.224  33.818  35.485  1.00  0.00    -0.203 F 
ATOM     85  C   UNL A   1      39.832  34.040  37.372  1.00  0.00     0.198 A 
ATOM     86  C   UNL A   1      38.162  32.382  37.831  1.00  0.00     0.198 A 
ATOM     87  F   UNL A   1      37.946  30.510  36.423  1.00  0.00    -0.203 F 
ATOM     88  F   UNL A   1      40.476  35.165  37.713  1.00  0.00    -0.200 F 
ATOM     89  C   UNL A   1      38.801  33.564  38.168  1.00  0.00     0.200 A 
ATOM     90  F   UNL A   1      37.159  31.922  38.591  1.00  0.00    -0.200 F 
ATOM     91  F   UNL A   1      38.433  34.238  39.267  1.00  0.00    -0.200 F 
ENDBRANCH  57  81
BRANCH  69  92
ATOM     92  C   UNL A   1      44.602  27.411  34.715  1.00  0.00     0.064 A 
ATOM     93  C   UNL A   1      45.845  28.037  34.889  1.00  0.00     0.173 A 
ATOM     94  C   UNL A   1      44.348  26.238  35.443  1.00  0.00     0.173 A 
ATOM     95  F   UNL A   1      46.142  29.151  34.203  1.00  0.00    -0.203 F 
ATOM     96  C   UNL A   1      46.801  27.502  35.749  1.00  0.00     0.198 A 
ATOM     97  C   UNL A   1      45.294  25.725  36.326  1.00  0.00     0.198 A 
ATOM     98  F   UNL A   1      43.173  25.604  35.317  1.00  0.00    -0.203 F 
ATOM     99  F   UNL A   1      47.996  28.096  35.871  1.00  0.00    -0.200 F 
ATOM    100  C   UNL A   1      46.521  26.354  36.474  1.00  0.00     0.200 A 
ATOM    101  F   UNL A   1      45.015  24.624  37.037  1.00  0.00    -0.200 F 
ATOM    102  F   UNL A   1      47.435  25.851  37.315  1.00  0.00    -0.200 F 
ENDBRANCH  69  92
ENDBRANCH  43  44
ENDBRANCH  36  38
ENDBRANCH  35  36
ENDBRANCH  34  35
ENDBRANCH  33  34
ENDBRANCH   1  33
TORSDOF 16
ENDMDL
MODEL 2
REMARK VINA RESULT:     -13.1      4.895     10.438
REMARK SMILES COc1cccc(C(=O)Nc2ccc(NC(=O)[C@@H]3[C@@H](C(=O)OCCOC(=O)c4ccc(-c5c6nc(c(-c7c(F)c(F)c(F)c(F)c7F)c7ccc([nH]7)c(-c7c(F)c(F)c(F)c(F)c7F)c7nc(c(-c8c(F)c(F)c(F)c(F)c8F)c8ccc5[nH]8)C=C7)C=C6)cc4)[C@@H]4C=C[C@H]3C4)cc2)c1
REMARK SMILES IDX 22 1 20 2 21 3 19 4 18 5 94 6 91 7 93 8 95 9 92 10 16 11
REMARK SMILES IDX 15 12 17 14 14 15 11 16 12 17 97 18 13 19 96 20 10 21 8 22
REMARK SMILES IDX 9 23 7 25 3 26 4 27 98 28 5 29 6 30 2 31 1 32 23 33 24 34
REMARK SMILES IDX 25 35 26 36 27 37 28 38 29 39 90 40 30 41 89 42 31 43 32 44
REMARK SMILES IDX 33 45 83 46 34 47 88 48 82 49 84 50 35 51 87 52 81 53 80 54
REMARK SMILES IDX 36 56 68 57 48 58 67 59 49 60 52 61 66 62 85 63 50 64 51 65
REMARK SMILES IDX 65 67 86 68 53 69 37 70 38 71 46 72 39 73 40 74 44 75 47 76
REMARK SMILES IDX 41 77 42 78 45 79 43 80 69 81 70 82 78 83 71 84 72 85 76 86
REMARK SMILES IDX 79 87 73 88 74 89 77 90 75 91 54 92 55 93 63 94 56 95 57 96
REMARK SMILES IDX 61 97 64 98 58 99 59 100 62 101 60 102
REMARK H PARENT 15 13 10 24 84 55 52 66
REMARK Flexibility Score: inf
ROOT
ATOM      1  O   UNL A   1      38.808  21.838  25.498  1.00  0.00    -0.462 OA
ENDROOT
BRANCH   1   2
ATOM      2  C   UNL A   1      38.120  22.891  26.027  1.00  0.00     0.310 C 
ATOM      3  O   UNL A   1      38.629  23.801  26.665  1.00  0.00    -0.252 OA
BRANCH   2   4
ATOM      4  C   UNL A   1      36.640  22.786  25.679  1.00  0.00     0.119 C 
ATOM      5  C   UNL A   1      36.341  21.670  24.624  1.00  0.00     0.100 C 
ATOM      6  C   UNL A   1      35.743  22.463  23.427  1.00  0.00     0.025 C 
ATOM      7  C   UNL A   1      36.250  24.078  24.901  1.00  0.00     0.027 C 
ATOM      8  C   UNL A   1      34.466  23.178  23.780  1.00  0.00    -0.027 C 
ATOM      9  C   UNL A   1      36.653  23.701  23.466  1.00  0.00     0.017 C 
ATOM     10  C   UNL A   1      34.763  24.125  24.682  1.00  0.00    -0.027 C 
BRANCH   5  11
ATOM     11  C   UNL A   1      35.692  20.325  25.001  1.00  0.00     0.228 C 
ATOM     12  N   UNL A   1      34.389  20.118  25.330  1.00  0.00    -0.326 N 
ATOM     13  H   UNL A   1      34.071  19.202  25.160  1.00  0.00     0.169 HD
ATOM     14  O   UNL A   1      36.372  19.294  24.885  1.00  0.00    -0.274 OA
BRANCH  12  15
ATOM     15  C   UNL A   1      33.423  20.965  25.863  1.00  0.00     0.041 A 
ATOM     16  C   UNL A   1      31.538  22.787  26.776  1.00  0.00     0.041 A 
ATOM     17  C   UNL A   1      32.713  22.584  27.499  1.00  0.00     0.028 A 
ATOM     18  C   UNL A   1      31.272  22.049  25.623  1.00  0.00     0.028 A 
ATOM     19  C   UNL A   1      33.631  21.636  27.062  1.00  0.00     0.028 A 
ATOM     20  C   UNL A   1      32.206  21.107  25.185  1.00  0.00     0.028 A 
BRANCH  16  21
ATOM     21  N   UNL A   1      30.605  23.704  27.250  1.00  0.00    -0.322 N 
ATOM     22  C   UNL A   1      30.014  24.722  26.527  1.00  0.00     0.255 C 
ATOM     23  O   UNL A   1      28.880  25.085  26.837  1.00  0.00    -0.269 OA
ATOM     24  H   UNL A   1      30.340  23.619  28.195  1.00  0.00     0.170 HD
BRANCH  22  25
ATOM     25  C   UNL A   1      30.796  25.509  25.517  1.00  0.00     0.043 A 
ATOM     26  C   UNL A   1      31.593  25.992  23.261  1.00  0.00     0.119 A 
ATOM     27  C   UNL A   1      32.552  26.848  23.793  1.00  0.00     0.046 A 
ATOM     28  C   UNL A   1      30.694  25.367  24.124  1.00  0.00     0.060 A 
ATOM     29  C   UNL A   1      32.618  27.071  25.169  1.00  0.00     0.005 A 
ATOM     30  C   UNL A   1      31.749  26.397  26.027  1.00  0.00     0.014 A 
BRANCH  26  31
ATOM     31  O   UNL A   1      31.640  25.829  21.904  1.00  0.00    -0.497 OA
ATOM     32  C   UNL A   1      32.903  25.951  21.255  1.00  0.00     0.278 C 
ENDBRANCH  26  31
ENDBRANCH  22  25
ENDBRANCH  16  21
ENDBRANCH  12  15
ENDBRANCH   5  11
ENDBRANCH   2   4
ENDBRANCH   1   2
BRANCH   1  33
ATOM     33  C   UNL A   1      39.466  20.956  26.428  1.00  0.00     0.274 C 
BRANCH  33  34
ATOM     34  C   UNL A   1      39.959  19.676  25.751  1.00  0.00     0.275 C 
BRANCH  34  35
ATOM     35  O   UNL A   1      41.109  19.131  26.420  1.00  0.00    -0.458 OA
BRANCH  35  36
ATOM     36  C   UNL A   1      42.302  19.433  25.852  1.00  0.00     0.338 C 
ATOM     37  O   UNL A   1      42.897  18.803  24.997  1.00  0.00    -0.246 OA
BRANCH  36  38
ATOM     38  C   UNL A   1      42.710  20.780  26.286  1.00  0.00     0.060 A 
ATOM     39  C   UNL A   1      43.111  21.679  25.296  1.00  0.00     0.016 A 
ATOM     40  C   UNL A   1      42.701  21.159  27.629  1.00  0.00     0.016 A 
ATOM     41  C   UNL A   1      43.477  22.975  25.633  1.00  0.00     0.010 A 
ATOM     42  C   UNL A   1      43.081  22.460  27.971  1.00  0.00     0.010 A 
ATOM     43  C   UNL A   1      43.463  23.376  26.972  1.00  0.00    -0.014 A 
BRANCH  43  44
ATOM     44  C   UNL A   1      43.880  24.748  27.330  1.00  0.00     0.031 A 
ATOM     45  C   UNL A   1      42.854  25.729  27.805  1.00  0.00     0.074 A 
ATOM     46  C   UNL A   1      45.176  25.099  27.244  1.00  0.00     0.049 A 
ATOM     47  N   UNL A   1      42.978  27.010  28.041  1.00  0.00    -0.248 NA
ATOM     48  C   UNL A   1      41.507  25.195  28.049  1.00  0.00     0.031 C 
ATOM     49  C   UNL A   1      46.270  24.200  26.876  1.00  0.00     0.029 A 
ATOM     50  N   UNL A   1      45.789  26.310  27.447  1.00  0.00    -0.354 N 
ATOM     51  C   UNL A   1      41.723  27.437  28.449  1.00  0.00     0.074 A 
ATOM     52  C   UNL A   1      40.847  26.286  28.410  1.00  0.00     0.031 C 
ATOM     53  C   UNL A   1      47.418  24.896  26.858  1.00  0.00     0.029 A 
ATOM     54  C   UNL A   1      47.130  26.296  27.156  1.00  0.00     0.049 A 
ATOM     55  H   UNL A   1      45.314  27.109  27.770  1.00  0.00     0.167 HD
ATOM     56  C   UNL A   1      41.344  28.683  28.820  1.00  0.00     0.037 A 
ATOM     57  C   UNL A   1      48.014  27.311  27.091  1.00  0.00     0.037 A 
ATOM     58  C   UNL A   1      42.230  29.818  28.850  1.00  0.00     0.049 A 
ATOM     59  C   UNL A   1      47.541  28.708  27.396  1.00  0.00     0.074 A 
ATOM     60  C   UNL A   1      41.950  31.123  29.212  1.00  0.00     0.029 A 
ATOM     61  N   UNL A   1      43.572  29.780  28.495  1.00  0.00    -0.354 N 
ATOM     62  N   UNL A   1      46.353  29.116  27.773  1.00  0.00    -0.248 NA
ATOM     63  C   UNL A   1      48.526  29.788  27.253  1.00  0.00     0.031 C 
ATOM     64  C   UNL A   1      43.105  31.887  29.018  1.00  0.00     0.029 A 
ATOM     65  C   UNL A   1      44.123  31.047  28.593  1.00  0.00     0.049 A 
ATOM     66  H   UNL A   1      44.061  28.971  28.216  1.00  0.00     0.167 HD
ATOM     67  C   UNL A   1      46.451  30.492  27.929  1.00  0.00     0.074 A 
ATOM     68  C   UNL A   1      47.821  30.848  27.626  1.00  0.00     0.031 C 
ATOM     69  C   UNL A   1      45.491  31.381  28.286  1.00  0.00     0.037 A 
BRANCH  56  70
ATOM     70  C   UNL A   1      39.902  28.892  29.176  1.00  0.00     0.064 A 
ATOM     71  C   UNL A   1      39.441  28.782  30.496  1.00  0.00     0.173 A 
ATOM     72  C   UNL A   1      38.972  29.236  28.183  1.00  0.00     0.173 A 
ATOM     73  F   UNL A   1      40.286  28.443  31.481  1.00  0.00    -0.203 F 
ATOM     74  C   UNL A   1      38.097  28.981  30.804  1.00  0.00     0.198 A 
ATOM     75  C   UNL A   1      37.636  29.463  28.498  1.00  0.00     0.198 A 
ATOM     76  F   UNL A   1      39.360  29.356  26.905  1.00  0.00    -0.203 F 
ATOM     77  F   UNL A   1      37.669  28.823  32.065  1.00  0.00    -0.200 F 
ATOM     78  C   UNL A   1      37.198  29.328  29.807  1.00  0.00     0.200 A 
ATOM     79  F   UNL A   1      36.771  29.811  27.535  1.00  0.00    -0.200 F 
ATOM     80  F   UNL A   1      35.906  29.525  30.106  1.00  0.00    -0.200 F 
ENDBRANCH  56  70
BRANCH  57  81
ATOM     81  C   UNL A   1      49.415  27.050  26.667  1.00  0.00     0.064 A 
ATOM     82  C   UNL A   1      49.775  27.040  25.313  1.00  0.00     0.173 A 
ATOM     83  C   UNL A   1      50.422  26.786  27.610  1.00  0.00     0.173 A 
ATOM     84  F   UNL A   1      48.845  27.256  24.371  1.00  0.00    -0.203 F 
ATOM     85  C   UNL A   1      51.082  26.760  24.917  1.00  0.00     0.198 A 
ATOM     86  C   UNL A   1      51.734  26.540  27.214  1.00  0.00     0.198 A 
ATOM     87  F   UNL A   1      50.131  26.774  28.919  1.00  0.00    -0.203 F 
ATOM     88  F   UNL A   1      51.387  26.705  23.613  1.00  0.00    -0.200 F 
ATOM     89  C   UNL A   1      52.062  26.518  25.868  1.00  0.00     0.200 A 
ATOM     90  F   UNL A   1      52.679  26.317  28.139  1.00  0.00    -0.200 F 
ATOM     91  F   UNL A   1      53.319  26.251  25.487  1.00  0.00    -0.200 F 
ENDBRANCH  57  81
BRANCH  69  92
ATOM     92  C   UNL A   1      45.891  32.824  28.385  1.00  0.00     0.064 A 
ATOM     93  C   UNL A   1      45.749  33.701  27.300  1.00  0.00     0.173 A 
ATOM     94  C   UNL A   1      46.359  33.350  29.599  1.00  0.00     0.173 A 
ATOM     95  F   UNL A   1      45.322  33.243  26.113  1.00  0.00    -0.203 F 
ATOM     96  C   UNL A   1      46.074  35.049  27.422  1.00  0.00     0.198 A 
ATOM     97  C   UNL A   1      46.653  34.706  29.726  1.00  0.00     0.198 A 
ATOM     98  F   UNL A   1      46.508  32.556  30.670  1.00  0.00    -0.203 F 
ATOM     99  F   UNL A   1      45.966  35.861  26.361  1.00  0.00    -0.200 F 
ATOM    100  C   UNL A   1      46.515  35.552  28.637  1.00  0.00     0.200 A 
ATOM    101  F   UNL A   1      47.063  35.192  30.906  1.00  0.00    -0.200 F 
ATOM    102  F   UNL A   1      46.810  36.854  28.758  1.00  0.00    -0.200 F 
ENDBRANCH  69  92
ENDBRANCH  43  44
ENDBRANCH  36  38
ENDBRANCH  35  36
ENDBRANCH  34  35
ENDBRANCH  33  34
ENDBRANCH   1  33
TORSDOF 16
ENDMDL
MODEL 3
REMARK VINA RESULT:     -13.1      4.226     10.263
REMARK SMILES COc1cccc(C(=O)Nc2ccc(NC(=O)[C@@H]3[C@@H](C(=O)OCCOC(=O)c4ccc(-c5c6nc(c(-c7c(F)c(F)c(F)c(F)c7F)c7ccc([nH]7)c(-c7c(F)c(F)c(F)c(F)c7F)c7nc(c(-c8c(F)c(F)c(F)c(F)c8F)c8ccc5[nH]8)C=C7)C=C6)cc4)[C@@H]4C=C[C@H]3C4)cc2)c1
REMARK SMILES IDX 22 1 20 2 21 3 19 4 18 5 94 6 91 7 93 8 95 9 92 10 16 11
REMARK SMILES IDX 15 12 17 14 14 15 11 16 12 17 97 18 13 19 96 20 10 21 8 22
REMARK SMILES IDX 9 23 7 25 3 26 4 27 98 28 5 29 6 30 2 31 1 32 23 33 24 34
REMARK SMILES IDX 25 35 26 36 27 37 28 38 29 39 90 40 30 41 89 42 31 43 32 44
REMARK SMILES IDX 33 45 83 46 34 47 88 48 82 49 84 50 35 51 87 52 81 53 80 54
REMARK SMILES IDX 36 56 68 57 48 58 67 59 49 60 52 61 66 62 85 63 50 64 51 65
REMARK SMILES IDX 65 67 86 68 53 69 37 70 38 71 46 72 39 73 40 74 44 75 47 76
REMARK SMILES IDX 41 77 42 78 45 79 43 80 69 81 70 82 78 83 71 84 72 85 76 86
REMARK SMILES IDX 79 87 73 88 74 89 77 90 75 91 54 92 55 93 63 94 56 95 57 96
REMARK SMILES IDX 61 97 64 98 58 99 59 100 62 101 60 102
REMARK H PARENT 15 13 10 24 84 55 52 66
REMARK Flexibility Score: inf
ROOT
ATOM      1  O   UNL A   1      35.298  21.099  25.881  1.00  0.00    -0.462 OA
ENDROOT
BRANCH   1   2
ATOM      2  C   UNL A   1      34.039  20.602  25.709  1.00  0.00     0.310 C 
ATOM      3  O   UNL A   1      33.105  20.802  26.471  1.00  0.00    -0.252 OA
BRANCH   2   4
ATOM      4  C   UNL A   1      33.960  19.796  24.418  1.00  0.00     0.119 C 
ATOM      5  C   UNL A   1      32.522  19.775  23.801  1.00  0.00     0.100 C 
ATOM      6  C   UNL A   1      32.147  18.266  23.823  1.00  0.00     0.025 C 
ATOM      7  C   UNL A   1      34.173  18.298  24.788  1.00  0.00     0.027 C 
ATOM      8  C   UNL A   1      33.068  17.423  22.982  1.00  0.00    -0.027 C 
ATOM      9  C   UNL A   1      32.748  17.877  25.183  1.00  0.00     0.017 C 
ATOM     10  C   UNL A   1      34.286  17.464  23.542  1.00  0.00    -0.027 C 
BRANCH   5  11
ATOM     11  C   UNL A   1      32.141  20.601  22.558  1.00  0.00     0.228 C 
ATOM     12  N   UNL A   1      32.203  21.954  22.434  1.00  0.00    -0.326 N 
ATOM     13  H   UNL A   1      32.304  22.269  21.507  1.00  0.00     0.169 HD
ATOM     14  O   UNL A   1      31.864  19.992  21.513  1.00  0.00    -0.274 OA
BRANCH  12  15
ATOM     15  C   UNL A   1      32.148  22.973  23.378  1.00  0.00     0.041 A 
ATOM     16  C   UNL A   1      32.123  24.877  25.398  1.00  0.00     0.041 A 
ATOM     17  C   UNL A   1      30.925  24.310  24.966  1.00  0.00     0.028 A 
ATOM     18  C   UNL A   1      33.333  24.538  24.794  1.00  0.00     0.028 A 
ATOM     19  C   UNL A   1      30.939  23.392  23.922  1.00  0.00     0.028 A 
ATOM     20  C   UNL A   1      33.339  23.606  23.754  1.00  0.00     0.028 A 
BRANCH  16  21
ATOM     21  N   UNL A   1      32.089  25.831  26.410  1.00  0.00    -0.322 N 
ATOM     22  C   UNL A   1      31.544  27.098  26.326  1.00  0.00     0.255 C 
ATOM     23  O   UNL A   1      31.085  27.612  27.345  1.00  0.00    -0.269 OA
ATOM     24  H   UNL A   1      32.494  25.579  27.272  1.00  0.00     0.170 HD
BRANCH  22  25
ATOM     25  C   UNL A   1      31.678  27.917  25.076  1.00  0.00     0.043 A 
ATOM     26  C   UNL A   1      30.907  28.760  22.919  1.00  0.00     0.119 A 
ATOM     27  C   UNL A   1      32.194  29.217  22.648  1.00  0.00     0.046 A 
ATOM     28  C   UNL A   1      30.652  28.157  24.149  1.00  0.00     0.060 A 
ATOM     29  C   UNL A   1      33.212  29.066  23.589  1.00  0.00     0.005 A 
ATOM     30  C   UNL A   1      32.957  28.411  24.794  1.00  0.00     0.014 A 
BRANCH  26  31
ATOM     31  O   UNL A   1      29.997  28.938  21.914  1.00  0.00    -0.497 OA
ATOM     32  C   UNL A   1      29.441  30.238  21.732  1.00  0.00     0.278 C 
ENDBRANCH  26  31
ENDBRANCH  22  25
ENDBRANCH  16  21
ENDBRANCH  12  15
ENDBRANCH   5  11
ENDBRANCH   2   4
ENDBRANCH   1   2
BRANCH   1  33
ATOM     33  C   UNL A   1      36.082  21.316  24.693  1.00  0.00     0.274 C 
BRANCH  33  34
ATOM     34  C   UNL A   1      37.564  21.016  24.921  1.00  0.00     0.275 C 
BRANCH  34  35
ATOM     35  O   UNL A   1      38.099  21.780  26.015  1.00  0.00    -0.458 OA
BRANCH  35  36
ATOM     36  C   UNL A   1      39.351  21.435  26.401  1.00  0.00     0.338 C 
ATOM     37  O   UNL A   1      39.880  20.342  26.310  1.00  0.00    -0.246 OA
BRANCH  36  38
ATOM     38  C   UNL A   1      40.086  22.653  26.783  1.00  0.00     0.060 A 
ATOM     39  C   UNL A   1      39.749  23.838  26.126  1.00  0.00     0.016 A 
ATOM     40  C   UNL A   1      41.081  22.640  27.761  1.00  0.00     0.016 A 
ATOM     41  C   UNL A   1      40.381  25.028  26.462  1.00  0.00     0.010 A 
ATOM     42  C   UNL A   1      41.726  23.836  28.091  1.00  0.00     0.010 A 
ATOM     43  C   UNL A   1      41.371  25.036  27.448  1.00  0.00    -0.014 A 
BRANCH  43  44
ATOM     44  C   UNL A   1      42.061  26.300  27.782  1.00  0.00     0.031 A 
ATOM     45  C   UNL A   1      41.339  27.346  28.573  1.00  0.00     0.074 A 
ATOM     46  C   UNL A   1      43.333  26.495  27.390  1.00  0.00     0.049 A 
ATOM     47  N   UNL A   1      41.704  28.569  28.859  1.00  0.00    -0.248 NA
ATOM     48  C   UNL A   1      40.029  26.960  29.117  1.00  0.00     0.031 C 
ATOM     49  C   UNL A   1      44.159  25.510  26.691  1.00  0.00     0.029 A 
ATOM     50  N   UNL A   1      44.148  27.592  27.513  1.00  0.00    -0.354 N 
ATOM     51  C   UNL A   1      40.664  29.104  29.605  1.00  0.00     0.074 A 
ATOM     52  C   UNL A   1      39.646  28.081  29.712  1.00  0.00     0.031 C 
ATOM     53  C   UNL A   1      45.357  26.056  26.427  1.00  0.00     0.029 A 
ATOM     54  C   UNL A   1      45.361  27.442  26.887  1.00  0.00     0.049 A 
ATOM     55  H   UNL A   1      43.890  28.405  28.003  1.00  0.00     0.167 HD
ATOM     56  C   UNL A   1      40.575  30.341  30.148  1.00  0.00     0.037 A 
ATOM     57  C   UNL A   1      46.341  28.340  26.668  1.00  0.00     0.037 A 
ATOM     58  C   UNL A   1      41.598  31.347  30.029  1.00  0.00     0.049 A 
ATOM     59  C   UNL A   1      46.167  29.745  27.182  1.00  0.00     0.074 A 
ATOM     60  C   UNL A   1      41.610  32.632  30.542  1.00  0.00     0.029 A 
ATOM     61  N   UNL A   1      42.791  31.180  29.339  1.00  0.00    -0.354 N 
ATOM     62  N   UNL A   1      45.181  30.256  27.880  1.00  0.00    -0.248 NA
ATOM     63  C   UNL A   1      47.236  30.703  26.867  1.00  0.00     0.031 C 
ATOM     64  C   UNL A   1      42.781  33.262  30.112  1.00  0.00     0.029 A 
ATOM     65  C   UNL A   1      43.530  32.352  29.381  1.00  0.00     0.049 A 
ATOM     66  H   UNL A   1      43.072  30.351  28.887  1.00  0.00     0.167 HD
ATOM     67  C   UNL A   1      45.516  31.585  28.102  1.00  0.00     0.074 A 
ATOM     68  C   UNL A   1      46.807  31.797  27.483  1.00  0.00     0.031 C 
ATOM     69  C   UNL A   1      44.815  32.543  28.756  1.00  0.00     0.037 A 
BRANCH  56  70
ATOM     70  C   UNL A   1      39.311  30.689  30.877  1.00  0.00     0.064 A 
ATOM     71  C   UNL A   1      38.204  31.244  30.219  1.00  0.00     0.173 A 
ATOM     72  C   UNL A   1      39.197  30.436  32.253  1.00  0.00     0.173 A 
ATOM     73  F   UNL A   1      38.265  31.518  28.908  1.00  0.00    -0.203 F 
ATOM     74  C   UNL A   1      37.039  31.558  30.917  1.00  0.00     0.198 A 
ATOM     75  C   UNL A   1      38.023  30.724  32.941  1.00  0.00     0.198 A 
ATOM     76  F   UNL A   1      40.226  29.904  32.931  1.00  0.00    -0.203 F 
ATOM     77  F   UNL A   1      36.011  32.133  30.277  1.00  0.00    -0.200 F 
ATOM     78  C   UNL A   1      36.947  31.292  32.274  1.00  0.00     0.200 A 
ATOM     79  F   UNL A   1      37.931  30.453  34.251  1.00  0.00    -0.200 F 
ATOM     80  F   UNL A   1      35.824  31.590  32.943  1.00  0.00    -0.200 F 
ENDBRANCH  56  70
BRANCH  57  81
ATOM     81  C   UNL A   1      47.540  27.953  25.880  1.00  0.00     0.064 A 
ATOM     82  C   UNL A   1      47.492  27.852  24.484  1.00  0.00     0.173 A 
ATOM     83  C   UNL A   1      48.760  27.658  26.512  1.00  0.00     0.173 A 
ATOM     84  F   UNL A   1      46.344  28.093  23.834  1.00  0.00    -0.203 F 
ATOM     85  C   UNL A   1      48.610  27.454  23.751  1.00  0.00     0.198 A 
ATOM     86  C   UNL A   1      49.884  27.294  25.776  1.00  0.00     0.198 A 
ATOM     87  F   UNL A   1      48.860  27.731  27.848  1.00  0.00    -0.203 F 
ATOM     88  F   UNL A   1      48.520  27.314  22.421  1.00  0.00    -0.200 F 
ATOM     89  C   UNL A   1      49.807  27.184  24.397  1.00  0.00     0.200 A 
ATOM     90  F   UNL A   1      51.041  27.044  26.405  1.00  0.00    -0.200 F 
ATOM     91  F   UNL A   1      50.881  26.803  23.692  1.00  0.00    -0.200 F 
ENDBRANCH  57  81
BRANCH  69  92
ATOM     92  C   UNL A   1      45.434  33.907  28.851  1.00  0.00     0.064 A 
ATOM     93  C   UNL A   1      46.322  34.239  29.885  1.00  0.00     0.173 A 
ATOM     94  C   UNL A   1      45.188  34.870  27.861  1.00  0.00     0.173 A 
ATOM     95  F   UNL A   1      46.576  33.359  30.865  1.00  0.00    -0.203 F 
ATOM     96  C   UNL A   1      46.930  35.491  29.931  1.00  0.00     0.198 A 
ATOM     97  C   UNL A   1      45.823  36.109  27.893  1.00  0.00     0.198 A 
ATOM     98  F   UNL A   1      44.351  34.602  26.847  1.00  0.00    -0.203 F 
ATOM     99  F   UNL A   1      47.746  35.799  30.949  1.00  0.00    -0.200 F 
ATOM    100  C   UNL A   1      46.689  36.420  28.931  1.00  0.00     0.200 A 
ATOM    101  F   UNL A   1      45.600  37.000  26.917  1.00  0.00    -0.200 F 
ATOM    102  F   UNL A   1      47.289  37.617  28.967  1.00  0.00    -0.200 F 
ENDBRANCH  69  92
ENDBRANCH  43  44
ENDBRANCH  36  38
ENDBRANCH  35  36
ENDBRANCH  34  35
ENDBRANCH  33  34
ENDBRANCH   1  33
TORSDOF 16
ENDMDL
