MODEL 1
REMARK VINA RESULT:     -12.1      0.000      0.000
REMARK SMILES Cc1cc(=O)n(Cc2cc(C(=O)OCCOC(=O)c3ccc(-c4c5nc(c(-c6c(F)c(F)c(F)c(F)c6F)c6ccc([nH]6)c(-c6c(F)c(F)c(F)c(F)c6F)c6nc(c(-c7c(F)c(F)c(F)c(F)c7F)c7ccc4[nH]7)C=C6)C=C5)cc3)oc2C)cc1[N+](=O)[O-]
REMARK SMILES IDX 14 1 13 2 11 3 12 4 10 5 8 6 9 7 83 8 82 9 84 10 7 11 6 12
REMARK SMILES IDX 1 13 2 14 3 15 86 16 4 17 85 18 5 19 87 20 88 21 89 22 15 23
REMARK SMILES IDX 16 24 17 25 18 26 19 27 20 28 81 29 21 30 80 31 22 32 23 33
REMARK SMILES IDX 24 34 74 35 25 36 79 37 73 38 75 39 26 40 78 41 72 42 71 43
REMARK SMILES IDX 27 45 59 46 39 47 58 48 40 49 43 50 57 51 76 52 41 53 42 54
REMARK SMILES IDX 56 56 77 57 44 58 28 59 29 60 37 61 30 62 31 63 35 64 38 65
REMARK SMILES IDX 32 66 33 67 36 68 34 69 60 70 61 71 69 72 62 73 63 74 67 75
REMARK SMILES IDX 70 76 64 77 65 78 68 79 66 80 45 81 46 82 54 83 47 84 48 85
REMARK SMILES IDX 52 86 55 87 49 88 50 89 53 90 51 91
REMARK H PARENT 75 44 43 55
REMARK Flexibility Score: inf
ROOT
ATOM      1  C   UNL A   1      31.375  29.126  25.101  1.00  0.00     0.275 C 
ENDROOT
BRANCH   1   2
ATOM      2  O   UNL A   1      32.124  28.016  25.628  1.00  0.00    -0.456 OA
BRANCH   2   3
ATOM      3  C   UNL A   1      31.478  27.250  26.559  1.00  0.00     0.374 C 
ATOM      4  O   UNL A   1      31.027  27.676  27.612  1.00  0.00    -0.242 OA
BRANCH   3   5
ATOM      5  C   UNL A   1      31.347  25.894  26.075  1.00  0.00     0.212 A 
ATOM      6  C   UNL A   1      31.296  23.900  25.000  1.00  0.00     0.014 A 
ATOM      7  C   UNL A   1      31.713  25.265  24.903  1.00  0.00     0.064 A 
ATOM      8  C   UNL A   1      30.618  23.812  26.202  1.00  0.00     0.107 A 
ATOM      9  O   UNL A   1      30.700  24.991  26.876  1.00  0.00    -0.454 OA
ATOM     10  C   UNL A   1      29.848  22.750  26.883  1.00  0.00     0.088 C 
BRANCH   6  11
ATOM     11  C   UNL A   1      31.582  22.814  24.011  1.00  0.00     0.164 C 
BRANCH  11  12
ATOM     12  N   UNL A   1      32.847  22.194  24.411  1.00  0.00    -0.304 N 
ATOM     13  C   UNL A   1      36.525  19.994  24.697  1.00  0.00     0.052 C 
ATOM     14  C   UNL A   1      35.261  20.802  24.728  1.00  0.00     0.034 A 
ATOM     15  C   UNL A   1      34.104  20.224  25.105  1.00  0.00     0.082 A 
ATOM     16  C   UNL A   1      35.228  22.186  24.265  1.00  0.00     0.288 A 
ATOM     17  C   UNL A   1      32.800  20.935  25.001  1.00  0.00     0.251 A 
ATOM     18  C   UNL A   1      34.051  22.817  24.093  1.00  0.00     0.175 A 
ATOM     19  O   UNL A   1      31.780  20.366  25.373  1.00  0.00    -0.269 OA
BRANCH  16  20
ATOM     20  N   UNL A   1      36.429  22.969  23.946  1.00  0.00     0.064 N 
ATOM     21  O   UNL A   1      36.728  23.116  22.751  1.00  0.00    -0.258 OA
ATOM     22  O   UNL A   1      37.065  23.458  24.888  1.00  0.00    -0.258 OA
ENDBRANCH  16  20
ENDBRANCH  11  12
ENDBRANCH   6  11
ENDBRANCH   3   5
ENDBRANCH   2   3
ENDBRANCH   1   2
BRANCH   1  23
ATOM     23  C   UNL A   1      31.807  30.455  25.733  1.00  0.00     0.275 C 
BRANCH  23  24
ATOM     24  O   UNL A   1      33.122  30.369  26.315  1.00  0.00    -0.458 OA
BRANCH  24  25
ATOM     25  C   UNL A   1      33.498  31.433  27.065  1.00  0.00     0.338 C 
ATOM     26  O   UNL A   1      32.864  32.459  27.250  1.00  0.00    -0.246 OA
BRANCH  25  27
ATOM     27  C   UNL A   1      34.736  31.107  27.800  1.00  0.00     0.060 A 
ATOM     28  C   UNL A   1      35.752  32.043  28.005  1.00  0.00     0.016 A 
ATOM     29  C   UNL A   1      34.858  29.814  28.313  1.00  0.00     0.016 A 
ATOM     30  C   UNL A   1      36.902  31.664  28.709  1.00  0.00     0.010 A 
ATOM     31  C   UNL A   1      36.011  29.429  28.991  1.00  0.00     0.010 A 
ATOM     32  C   UNL A   1      37.042  30.352  29.193  1.00  0.00    -0.014 A 
BRANCH  32  33
ATOM     33  C   UNL A   1      38.230  29.942  29.974  1.00  0.00     0.031 A 
ATOM     34  C   UNL A   1      38.461  30.468  31.360  1.00  0.00     0.074 A 
ATOM     35  C   UNL A   1      39.147  29.148  29.393  1.00  0.00     0.049 A 
ATOM     36  N   UNL A   1      39.428  30.186  32.197  1.00  0.00    -0.248 NA
ATOM     37  C   UNL A   1      37.492  31.452  31.863  1.00  0.00     0.031 C 
ATOM     38  C   UNL A   1      39.069  28.643  28.023  1.00  0.00     0.029 A 
ATOM     39  N   UNL A   1      40.325  28.637  29.874  1.00  0.00    -0.354 N 
ATOM     40  C   UNL A   1      39.177  30.945  33.332  1.00  0.00     0.074 A 
ATOM     41  C   UNL A   1      37.996  31.737  33.057  1.00  0.00     0.031 C 
ATOM     42  C   UNL A   1      40.144  27.877  27.778  1.00  0.00     0.029 A 
ATOM     43  C   UNL A   1      40.985  27.843  28.972  1.00  0.00     0.049 A 
ATOM     44  H   UNL A   1      40.664  28.823  30.779  1.00  0.00     0.167 HD
ATOM     45  C   UNL A   1      39.860  30.959  34.501  1.00  0.00     0.037 A 
ATOM     46  C   UNL A   1      42.132  27.149  29.100  1.00  0.00     0.037 A 
ATOM     47  C   UNL A   1      41.038  30.173  34.766  1.00  0.00     0.049 A 
ATOM     48  C   UNL A   1      42.867  27.171  30.410  1.00  0.00     0.074 A 
ATOM     49  C   UNL A   1      41.760  30.066  35.942  1.00  0.00     0.029 A 
ATOM     50  N   UNL A   1      41.674  29.368  33.832  1.00  0.00    -0.354 N 
ATOM     51  N   UNL A   1      42.565  27.809  31.514  1.00  0.00    -0.248 NA
ATOM     52  C   UNL A   1      44.095  26.368  30.495  1.00  0.00     0.031 C 
ATOM     53  C   UNL A   1      42.856  29.226  35.709  1.00  0.00     0.029 A 
ATOM     54  C   UNL A   1      42.793  28.778  34.399  1.00  0.00     0.049 A 
ATOM     55  H   UNL A   1      41.376  29.235  32.903  1.00  0.00     0.167 HD
ATOM     56  C   UNL A   1      43.551  27.473  32.431  1.00  0.00     0.074 A 
ATOM     57  C   UNL A   1      44.455  26.563  31.757  1.00  0.00     0.031 C 
ATOM     58  C   UNL A   1      43.689  27.881  33.715  1.00  0.00     0.037 A 
BRANCH  45  59
ATOM     59  C   UNL A   1      39.339  31.836  35.602  1.00  0.00     0.064 A 
ATOM     60  C   UNL A   1      38.442  31.341  36.560  1.00  0.00     0.173 A 
ATOM     61  C   UNL A   1      39.787  33.158  35.742  1.00  0.00     0.173 A 
ATOM     62  F   UNL A   1      37.982  30.084  36.468  1.00  0.00    -0.203 F 
ATOM     63  C   UNL A   1      37.998  32.143  37.608  1.00  0.00     0.198 A 
ATOM     64  C   UNL A   1      39.360  33.950  36.805  1.00  0.00     0.198 A 
ATOM     65  F   UNL A   1      40.654  33.676  34.859  1.00  0.00    -0.203 F 
ATOM     66  F   UNL A   1      37.119  31.658  38.495  1.00  0.00    -0.200 F 
ATOM     67  C   UNL A   1      38.463  33.444  37.734  1.00  0.00     0.200 A 
ATOM     68  F   UNL A   1      39.821  35.202  36.935  1.00  0.00    -0.200 F 
ATOM     69  F   UNL A   1      38.044  34.209  38.751  1.00  0.00    -0.200 F 
ENDBRANCH  45  59
BRANCH  46  70
ATOM     70  C   UNL A   1      42.600  26.313  27.969  1.00  0.00     0.064 A 
ATOM     71  C   UNL A   1      42.107  25.013  27.795  1.00  0.00     0.173 A 
ATOM     72  C   UNL A   1      43.499  26.808  27.014  1.00  0.00     0.173 A 
ATOM     73  F   UNL A   1      41.257  24.495  28.694  1.00  0.00    -0.203 F 
ATOM     74  C   UNL A   1      42.497  24.237  26.708  1.00  0.00     0.198 A 
ATOM     75  C   UNL A   1      43.874  26.038  25.916  1.00  0.00     0.198 A 
ATOM     76  F   UNL A   1      43.992  28.049  27.136  1.00  0.00    -0.203 F 
ATOM     77  F   UNL A   1      42.024  22.990  26.573  1.00  0.00    -0.200 F 
ATOM     78  C   UNL A   1      43.374  24.752  25.764  1.00  0.00     0.200 A 
ATOM     79  F   UNL A   1      44.712  26.542  25.001  1.00  0.00    -0.200 F 
ATOM     80  F   UNL A   1      43.737  24.011  24.709  1.00  0.00    -0.200 F 
ENDBRANCH  46  70
BRANCH  58  81
ATOM     81  C   UNL A   1      44.859  27.346  34.486  1.00  0.00     0.064 A 
ATOM     82  C   UNL A   1      44.797  26.109  35.141  1.00  0.00     0.173 A 
ATOM     83  C   UNL A   1      46.074  28.048  34.514  1.00  0.00     0.173 A 
ATOM     84  F   UNL A   1      43.653  25.408  35.154  1.00  0.00    -0.203 F 
ATOM     85  C   UNL A   1      45.906  25.597  35.808  1.00  0.00     0.198 A 
ATOM     86  C   UNL A   1      47.188  27.522  35.163  1.00  0.00     0.198 A 
ATOM     87  F   UNL A   1      46.185  29.234  33.898  1.00  0.00    -0.203 F 
ATOM     88  F   UNL A   1      45.818  24.425  36.452  1.00  0.00    -0.200 F 
ATOM     89  C   UNL A   1      47.103  26.300  35.811  1.00  0.00     0.200 A 
ATOM     90  F   UNL A   1      48.346  28.198  35.157  1.00  0.00    -0.200 F 
ATOM     91  F   UNL A   1      48.173  25.799  36.443  1.00  0.00    -0.200 F 
ENDBRANCH  58  81
ENDBRANCH  32  33
ENDBRANCH  25  27
ENDBRANCH  24  25
ENDBRANCH  23  24
ENDBRANCH   1  23
TORSDOF 14
ENDMDL
MODEL 2
REMARK VINA RESULT:     -11.9      0.950      2.030
REMARK SMILES Cc1cc(=O)n(Cc2cc(C(=O)OCCOC(=O)c3ccc(-c4c5nc(c(-c6c(F)c(F)c(F)c(F)c6F)c6ccc([nH]6)c(-c6c(F)c(F)c(F)c(F)c6F)c6nc(c(-c7c(F)c(F)c(F)c(F)c7F)c7ccc4[nH]7)C=C6)C=C5)cc3)oc2C)cc1[N+](=O)[O-]
REMARK SMILES IDX 14 1 13 2 11 3 12 4 10 5 8 6 9 7 83 8 82 9 84 10 7 11 6 12
REMARK SMILES IDX 1 13 2 14 3 15 86 16 4 17 85 18 5 19 87 20 88 21 89 22 15 23
REMARK SMILES IDX 16 24 17 25 18 26 19 27 20 28 81 29 21 30 80 31 22 32 23 33
REMARK SMILES IDX 24 34 74 35 25 36 79 37 73 38 75 39 26 40 78 41 72 42 71 43
REMARK SMILES IDX 27 45 59 46 39 47 58 48 40 49 43 50 57 51 76 52 41 53 42 54
REMARK SMILES IDX 56 56 77 57 44 58 28 59 29 60 37 61 30 62 31 63 35 64 38 65
REMARK SMILES IDX 32 66 33 67 36 68 34 69 60 70 61 71 69 72 62 73 63 74 67 75
REMARK SMILES IDX 70 76 64 77 65 78 68 79 66 80 45 81 46 82 54 83 47 84 48 85
REMARK SMILES IDX 52 86 55 87 49 88 50 89 53 90 51 91
REMARK H PARENT 75 44 43 55
REMARK Flexibility Score: inf
ROOT
ATOM      1  C   UNL A   1      31.444  29.655  25.524  1.00  0.00     0.275 C 
ENDROOT
BRANCH   1   2
ATOM      2  O   UNL A   1      32.143  28.454  25.899  1.00  0.00    -0.456 OA
BRANCH   2   3
ATOM      3  C   UNL A   1      31.478  27.621  26.754  1.00  0.00     0.374 C 
ATOM      4  O   UNL A   1      31.056  27.950  27.853  1.00  0.00    -0.242 OA
BRANCH   3   5
ATOM      5  C   UNL A   1      31.285  26.330  26.133  1.00  0.00     0.212 A 
ATOM      6  C   UNL A   1      31.031  24.490  24.836  1.00  0.00     0.014 A 
ATOM      7  C   UNL A   1      31.323  25.890  24.826  1.00  0.00     0.064 A 
ATOM      8  C   UNL A   1      30.745  24.187  26.154  1.00  0.00     0.107 A 
ATOM      9  O   UNL A   1      30.956  25.275  26.943  1.00  0.00    -0.454 OA
ATOM     10  C   UNL A   1      30.271  22.978  26.861  1.00  0.00     0.088 C 
BRANCH   6  11
ATOM     11  C   UNL A   1      31.072  23.569  23.657  1.00  0.00     0.164 C 
BRANCH  11  12
ATOM     12  N   UNL A   1      32.472  23.182  23.465  1.00  0.00    -0.304 N 
ATOM     13  C   UNL A   1      36.743  22.735  23.561  1.00  0.00     0.052 C 
ATOM     14  C   UNL A   1      35.249  22.794  23.429  1.00  0.00     0.034 A 
ATOM     15  C   UNL A   1      34.685  23.652  22.558  1.00  0.00     0.082 A 
ATOM     16  C   UNL A   1      34.375  22.007  24.295  1.00  0.00     0.288 A 
ATOM     17  C   UNL A   1      33.213  23.862  22.503  1.00  0.00     0.251 A 
ATOM     18  C   UNL A   1      33.049  22.240  24.312  1.00  0.00     0.175 A 
ATOM     19  O   UNL A   1      32.752  24.646  21.680  1.00  0.00    -0.269 OA
BRANCH  16  20
ATOM     20  N   UNL A   1      34.854  20.951  25.196  1.00  0.00     0.064 N 
ATOM     21  O   UNL A   1      35.171  21.270  26.352  1.00  0.00    -0.258 OA
ATOM     22  O   UNL A   1      34.893  19.794  24.757  1.00  0.00    -0.258 OA
ENDBRANCH  16  20
ENDBRANCH  11  12
ENDBRANCH   6  11
ENDBRANCH   3   5
ENDBRANCH   2   3
ENDBRANCH   1   2
BRANCH   1  23
ATOM     23  C   UNL A   1      31.792  30.828  26.448  1.00  0.00     0.275 C 
BRANCH  23  24
ATOM     24  O   UNL A   1      33.209  31.085  26.478  1.00  0.00    -0.458 OA
BRANCH  24  25
ATOM     25  C   UNL A   1      33.606  32.066  27.324  1.00  0.00     0.338 C 
ATOM     26  O   UNL A   1      32.989  33.079  27.612  1.00  0.00    -0.246 OA
BRANCH  25  27
ATOM     27  C   UNL A   1      34.843  31.653  28.014  1.00  0.00     0.060 A 
ATOM     28  C   UNL A   1      35.961  32.485  28.107  1.00  0.00     0.016 A 
ATOM     29  C   UNL A   1      34.859  30.387  28.602  1.00  0.00     0.016 A 
ATOM     30  C   UNL A   1      37.103  32.027  28.776  1.00  0.00     0.010 A 
ATOM     31  C   UNL A   1      36.002  29.920  29.244  1.00  0.00     0.010 A 
ATOM     32  C   UNL A   1      37.133  30.737  29.334  1.00  0.00    -0.014 A 
BRANCH  32  33
ATOM     33  C   UNL A   1      38.316  30.249  30.079  1.00  0.00     0.031 A 
ATOM     34  C   UNL A   1      38.594  30.717  31.477  1.00  0.00     0.074 A 
ATOM     35  C   UNL A   1      39.185  29.435  29.455  1.00  0.00     0.049 A 
ATOM     36  N   UNL A   1      39.561  30.364  32.286  1.00  0.00    -0.248 NA
ATOM     37  C   UNL A   1      37.679  31.725  32.031  1.00  0.00     0.031 C 
ATOM     38  C   UNL A   1      39.061  28.980  28.071  1.00  0.00     0.029 A 
ATOM     39  N   UNL A   1      40.348  28.857  29.897  1.00  0.00    -0.354 N 
ATOM     40  C   UNL A   1      39.364  31.094  33.450  1.00  0.00     0.074 A 
ATOM     41  C   UNL A   1      38.216  31.948  33.224  1.00  0.00     0.031 C 
ATOM     42  C   UNL A   1      40.096  28.176  27.781  1.00  0.00     0.029 A 
ATOM     43  C   UNL A   1      40.955  28.064  28.957  1.00  0.00     0.049 A 
ATOM     44  H   UNL A   1      40.710  28.996  30.801  1.00  0.00     0.167 HD
ATOM     45  C   UNL A   1      40.068  31.039  34.606  1.00  0.00     0.037 A 
ATOM     46  C   UNL A   1      42.072  27.316  29.040  1.00  0.00     0.037 A 
ATOM     47  C   UNL A   1      41.214  30.193  34.822  1.00  0.00     0.049 A 
ATOM     48  C   UNL A   1      42.830  27.261  30.336  1.00  0.00     0.074 A 
ATOM     49  C   UNL A   1      41.950  30.014  35.980  1.00  0.00     0.029 A 
ATOM     50  N   UNL A   1      41.797  29.392  33.851  1.00  0.00    -0.354 N 
ATOM     51  N   UNL A   1      42.576  27.874  31.466  1.00  0.00    -0.248 NA
ATOM     52  C   UNL A   1      44.022  26.402  30.372  1.00  0.00     0.031 C 
ATOM     53  C   UNL A   1      43.002  29.135  35.699  1.00  0.00     0.029 A 
ATOM     54  C   UNL A   1      42.897  28.734  34.377  1.00  0.00     0.049 A 
ATOM     55  H   UNL A   1      41.477  29.304  32.924  1.00  0.00     0.167 HD
ATOM     56  C   UNL A   1      43.561  27.463  32.353  1.00  0.00     0.074 A 
ATOM     57  C   UNL A   1      44.411  26.538  31.633  1.00  0.00     0.031 C 
ATOM     58  C   UNL A   1      43.740  27.821  33.647  1.00  0.00     0.037 A 
BRANCH  45  59
ATOM     59  C   UNL A   1      39.606  31.900  35.745  1.00  0.00     0.064 A 
ATOM     60  C   UNL A   1      40.136  33.184  35.944  1.00  0.00     0.173 A 
ATOM     61  C   UNL A   1      38.582  31.472  36.602  1.00  0.00     0.173 A 
ATOM     62  F   UNL A   1      41.118  33.638  35.152  1.00  0.00    -0.203 F 
ATOM     63  C   UNL A   1      39.671  33.999  36.971  1.00  0.00     0.198 A 
ATOM     64  C   UNL A   1      38.102  32.299  37.615  1.00  0.00     0.198 A 
ATOM     65  F   UNL A   1      38.033  30.257  36.447  1.00  0.00    -0.203 F 
ATOM     66  F   UNL A   1      40.212  35.211  37.161  1.00  0.00    -0.200 F 
ATOM     67  C   UNL A   1      38.650  33.560  37.801  1.00  0.00     0.200 A 
ATOM     68  F   UNL A   1      37.105  31.880  38.406  1.00  0.00    -0.200 F 
ATOM     69  F   UNL A   1      38.194  34.352  38.781  1.00  0.00    -0.200 F 
ENDBRANCH  45  59
BRANCH  46  70
ATOM     70  C   UNL A   1      42.482  26.499  27.873  1.00  0.00     0.064 A 
ATOM     71  C   UNL A   1      41.906  25.241  27.650  1.00  0.00     0.173 A 
ATOM     72  C   UNL A   1      43.407  26.975  26.935  1.00  0.00     0.173 A 
ATOM     73  F   UNL A   1      41.028  24.742  28.532  1.00  0.00    -0.203 F 
ATOM     74  C   UNL A   1      42.242  24.487  26.530  1.00  0.00     0.198 A 
ATOM     75  C   UNL A   1      43.729  26.227  25.804  1.00  0.00     0.198 A 
ATOM     76  F   UNL A   1      43.979  28.175  27.104  1.00  0.00    -0.203 F 
ATOM     77  F   UNL A   1      41.691  23.279  26.347  1.00  0.00    -0.200 F 
ATOM     78  C   UNL A   1      43.147  24.983  25.603  1.00  0.00     0.200 A 
ATOM     79  F   UNL A   1      44.594  26.714  24.905  1.00  0.00    -0.200 F 
ATOM     80  F   UNL A   1      43.459  24.264  24.517  1.00  0.00    -0.200 F 
ENDBRANCH  46  70
BRANCH  58  81
ATOM     81  C   UNL A   1      44.897  27.210  34.377  1.00  0.00     0.064 A 
ATOM     82  C   UNL A   1      46.140  27.853  34.444  1.00  0.00     0.173 A 
ATOM     83  C   UNL A   1      44.743  26.001  35.073  1.00  0.00     0.173 A 
ATOM     84  F   UNL A   1      46.340  29.005  33.783  1.00  0.00    -0.203 F 
ATOM     85  C   UNL A   1      47.192  27.304  35.170  1.00  0.00     0.198 A 
ATOM     86  C   UNL A   1      45.790  25.465  35.818  1.00  0.00     0.198 A 
ATOM     87  F   UNL A   1      43.571  25.349  35.045  1.00  0.00    -0.203 F 
ATOM     88  F   UNL A   1      48.382  27.921  35.197  1.00  0.00    -0.200 F 
ATOM     89  C   UNL A   1      47.014  26.115  35.863  1.00  0.00     0.200 A 
ATOM     90  F   UNL A   1      45.614  24.322  36.494  1.00  0.00    -0.200 F 
ATOM     91  F   UNL A   1      48.025  25.594  36.573  1.00  0.00    -0.200 F 
ENDBRANCH  58  81
ENDBRANCH  32  33
ENDBRANCH  25  27
ENDBRANCH  24  25
ENDBRANCH  23  24
ENDBRANCH   1  23
TORSDOF 14
ENDMDL
MODEL 3
REMARK VINA RESULT:     -11.8      2.885      8.474
REMARK SMILES Cc1cc(=O)n(Cc2cc(C(=O)OCCOC(=O)c3ccc(-c4c5nc(c(-c6c(F)c(F)c(F)c(F)c6F)c6ccc([nH]6)c(-c6c(F)c(F)c(F)c(F)c6F)c6nc(c(-c7c(F)c(F)c(F)c(F)c7F)c7ccc4[nH]7)C=C6)C=C5)cc3)oc2C)cc1[N+](=O)[O-]
REMARK SMILES IDX 14 1 13 2 11 3 12 4 10 5 8 6 9 7 83 8 82 9 84 10 7 11 6 12
REMARK SMILES IDX 1 13 2 14 3 15 86 16 4 17 85 18 5 19 87 20 88 21 89 22 15 23
REMARK SMILES IDX 16 24 17 25 18 26 19 27 20 28 81 29 21 30 80 31 22 32 23 33
REMARK SMILES IDX 24 34 74 35 25 36 79 37 73 38 75 39 26 40 78 41 72 42 71 43
REMARK SMILES IDX 27 45 59 46 39 47 58 48 40 49 43 50 57 51 76 52 41 53 42 54
REMARK SMILES IDX 56 56 77 57 44 58 28 59 29 60 37 61 30 62 31 63 35 64 38 65
REMARK SMILES IDX 32 66 33 67 36 68 34 69 60 70 61 71 69 72 62 73 63 74 67 75
REMARK SMILES IDX 70 76 64 77 65 78 68 79 66 80 45 81 46 82 54 83 47 84 48 85
REMARK SMILES IDX 52 86 55 87 49 88 50 89 53 90 51 91
REMARK H PARENT 75 44 43 55
REMARK Flexibility Score: inf
ROOT
ATOM      1  C   UNL A   1      32.012  32.511  26.897  1.00  0.00     0.275 C 
ENDROOT
BRANCH   1   2
ATOM      2  O   UNL A   1      32.213  31.139  27.283  1.00  0.00    -0.456 OA
BRANCH   2   3
ATOM      3  C   UNL A   1      33.438  30.611  26.983  1.00  0.00     0.374 C 
ATOM      4  O   UNL A   1      34.488  30.964  27.500  1.00  0.00    -0.242 OA
BRANCH   3   5
ATOM      5  C   UNL A   1      33.290  29.534  26.031  1.00  0.00     0.212 A 
ATOM      6  C   UNL A   1      32.851  28.089  24.341  1.00  0.00     0.014 A 
ATOM      7  C   UNL A   1      32.672  29.432  24.802  1.00  0.00     0.064 A 
ATOM      8  C   UNL A   1      33.497  27.434  25.374  1.00  0.00     0.107 A 
ATOM      9  O   UNL A   1      33.815  28.312  26.362  1.00  0.00    -0.454 OA
ATOM     10  C   UNL A   1      33.895  26.033  25.624  1.00  0.00     0.088 C 
BRANCH   6  11
ATOM     11  C   UNL A   1      32.448  27.550  23.005  1.00  0.00     0.164 C 
BRANCH  11  12
ATOM     12  N   UNL A   1      30.993  27.691  22.909  1.00  0.00    -0.304 N 
ATOM     13  C   UNL A   1      26.820  28.532  23.489  1.00  0.00     0.052 C 
ATOM     14  C   UNL A   1      28.243  28.175  23.168  1.00  0.00     0.034 A 
ATOM     15  C   UNL A   1      28.758  27.010  23.606  1.00  0.00     0.082 A 
ATOM     16  C   UNL A   1      29.124  29.106  22.469  1.00  0.00     0.288 A 
ATOM     17  C   UNL A   1      30.201  26.682  23.453  1.00  0.00     0.251 A 
ATOM     18  C   UNL A   1      30.445  28.860  22.390  1.00  0.00     0.175 A 
ATOM     19  O   UNL A   1      30.614  25.601  23.857  1.00  0.00    -0.269 OA
BRANCH  16  20
ATOM     20  N   UNL A   1      28.662  30.347  21.834  1.00  0.00     0.064 N 
ATOM     21  O   UNL A   1      28.872  31.417  22.425  1.00  0.00    -0.258 OA
ATOM     22  O   UNL A   1      28.108  30.258  20.732  1.00  0.00    -0.258 OA
ENDBRANCH  16  20
ENDBRANCH  11  12
ENDBRANCH   6  11
ENDBRANCH   3   5
ENDBRANCH   2   3
ENDBRANCH   1   2
BRANCH   1  23
ATOM     23  C   UNL A   1      32.985  33.452  27.618  1.00  0.00     0.275 C 
BRANCH  23  24
ATOM     24  O   UNL A   1      32.303  34.568  28.223  1.00  0.00    -0.458 OA
BRANCH  24  25
ATOM     25  C   UNL A   1      33.098  35.455  28.870  1.00  0.00     0.338 C 
ATOM     26  O   UNL A   1      32.865  36.636  29.071  1.00  0.00    -0.246 OA
BRANCH  25  27
ATOM     27  C   UNL A   1      34.240  34.745  29.477  1.00  0.00     0.060 A 
ATOM     28  C   UNL A   1      35.506  34.727  28.891  1.00  0.00     0.016 A 
ATOM     29  C   UNL A   1      34.019  34.092  30.692  1.00  0.00     0.016 A 
ATOM     30  C   UNL A   1      36.545  34.030  29.522  1.00  0.00     0.010 A 
ATOM     31  C   UNL A   1      35.043  33.378  31.308  1.00  0.00     0.010 A 
ATOM     32  C   UNL A   1      36.313  33.341  30.725  1.00  0.00    -0.014 A 
BRANCH  32  33
ATOM     33  C   UNL A   1      37.406  32.632  31.429  1.00  0.00     0.031 A 
ATOM     34  C   UNL A   1      38.084  31.448  30.805  1.00  0.00     0.074 A 
ATOM     35  C   UNL A   1      37.732  33.016  32.675  1.00  0.00     0.049 A 
ATOM     36  N   UNL A   1      39.081  30.734  31.264  1.00  0.00    -0.248 NA
ATOM     37  C   UNL A   1      37.564  30.996  29.507  1.00  0.00     0.031 C 
ATOM     38  C   UNL A   1      37.085  34.100  33.414  1.00  0.00     0.029 A 
ATOM     39  N   UNL A   1      38.677  32.534  33.544  1.00  0.00    -0.354 N 
ATOM     40  C   UNL A   1      39.318  29.758  30.307  1.00  0.00     0.074 A 
ATOM     41  C   UNL A   1      38.328  29.940  29.264  1.00  0.00     0.031 C 
ATOM     42  C   UNL A   1      37.666  34.215  34.618  1.00  0.00     0.029 A 
ATOM     43  C   UNL A   1      38.720  33.211  34.736  1.00  0.00     0.049 A 
ATOM     44  H   UNL A   1      39.268  31.776  33.332  1.00  0.00     0.167 HD
ATOM     45  C   UNL A   1      40.287  28.812  30.293  1.00  0.00     0.037 A 
ATOM     46  C   UNL A   1      39.532  33.052  35.798  1.00  0.00     0.037 A 
ATOM     47  C   UNL A   1      41.264  28.632  31.336  1.00  0.00     0.049 A 
ATOM     48  C   UNL A   1      40.607  32.003  35.756  1.00  0.00     0.074 A 
ATOM     49  C   UNL A   1      42.329  27.748  31.381  1.00  0.00     0.029 A 
ATOM     50  N   UNL A   1      41.286  29.344  32.527  1.00  0.00    -0.354 N 
ATOM     51  N   UNL A   1      40.893  31.153  34.800  1.00  0.00    -0.248 NA
ATOM     52  C   UNL A   1      41.480  31.900  36.934  1.00  0.00     0.031 C 
ATOM     53  C   UNL A   1      42.972  27.899  32.615  1.00  0.00     0.029 A 
ATOM     54  C   UNL A   1      42.333  28.904  33.322  1.00  0.00     0.049 A 
ATOM     55  H   UNL A   1      40.652  30.056  32.771  1.00  0.00     0.167 HD
ATOM     56  C   UNL A   1      41.986  30.427  35.250  1.00  0.00     0.074 A 
ATOM     57  C   UNL A   1      42.322  30.945  36.560  1.00  0.00     0.031 C 
ATOM     58  C   UNL A   1      42.651  29.424  34.628  1.00  0.00     0.037 A 
BRANCH  45  59
ATOM     59  C   UNL A   1      40.361  27.907  29.098  1.00  0.00     0.064 A 
ATOM     60  C   UNL A   1      39.629  26.712  29.047  1.00  0.00     0.173 A 
ATOM     61  C   UNL A   1      41.112  28.266  27.969  1.00  0.00     0.173 A 
ATOM     62  F   UNL A   1      38.896  26.325  30.102  1.00  0.00    -0.203 F 
ATOM     63  C   UNL A   1      39.661  25.899  27.918  1.00  0.00     0.198 A 
ATOM     64  C   UNL A   1      41.123  27.462  26.832  1.00  0.00     0.198 A 
ATOM     65  F   UNL A   1      41.821  29.404  27.961  1.00  0.00    -0.203 F 
ATOM     66  F   UNL A   1      38.976  24.747  27.904  1.00  0.00    -0.200 F 
ATOM     67  C   UNL A   1      40.402  26.278  26.808  1.00  0.00     0.200 A 
ATOM     68  F   UNL A   1      41.828  27.836  25.754  1.00  0.00    -0.200 F 
ATOM     69  F   UNL A   1      40.420  25.500  25.717  1.00  0.00    -0.200 F 
ENDBRANCH  45  59
BRANCH  46  70
ATOM     70  C   UNL A   1      39.397  33.970  36.954  1.00  0.00     0.064 A 
ATOM     71  C   UNL A   1      38.673  33.581  38.088  1.00  0.00     0.173 A 
ATOM     72  C   UNL A   1      40.029  35.220  36.974  1.00  0.00     0.173 A 
ATOM     73  F   UNL A   1      38.040  32.398  38.105  1.00  0.00    -0.203 F 
ATOM     74  C   UNL A   1      38.583  34.411  39.202  1.00  0.00     0.198 A 
ATOM     75  C   UNL A   1      39.954  36.042  38.096  1.00  0.00     0.198 A 
ATOM     76  F   UNL A   1      40.739  35.632  35.914  1.00  0.00    -0.203 F 
ATOM     77  F   UNL A   1      37.870  34.024  40.268  1.00  0.00    -0.200 F 
ATOM     78  C   UNL A   1      39.231  35.638  39.209  1.00  0.00     0.200 A 
ATOM     79  F   UNL A   1      40.590  37.221  38.105  1.00  0.00    -0.200 F 
ATOM     80  F   UNL A   1      39.157  36.430  40.287  1.00  0.00    -0.200 F 
ENDBRANCH  46  70
BRANCH  58  81
ATOM     81  C   UNL A   1      43.815  28.816  35.352  1.00  0.00     0.064 A 
ATOM     82  C   UNL A   1      45.118  29.302  35.175  1.00  0.00     0.173 A 
ATOM     83  C   UNL A   1      43.617  27.783  36.280  1.00  0.00     0.173 A 
ATOM     84  F   UNL A   1      45.359  30.280  34.288  1.00  0.00    -0.203 F 
ATOM     85  C   UNL A   1      46.184  28.767  35.892  1.00  0.00     0.198 A 
ATOM     86  C   UNL A   1      44.682  27.266  37.013  1.00  0.00     0.198 A 
ATOM     87  F   UNL A   1      42.388  27.287  36.489  1.00  0.00    -0.203 F 
ATOM     88  F   UNL A   1      47.426  29.227  35.687  1.00  0.00    -0.200 F 
ATOM     89  C   UNL A   1      45.964  27.756  36.817  1.00  0.00     0.200 A 
ATOM     90  F   UNL A   1      44.466  26.296  37.912  1.00  0.00    -0.200 F 
ATOM     91  F   UNL A   1      46.990  27.252  37.516  1.00  0.00    -0.200 F 
ENDBRANCH  58  81
ENDBRANCH  32  33
ENDBRANCH  25  27
ENDBRANCH  24  25
ENDBRANCH  23  24
ENDBRANCH   1  23
TORSDOF 14
ENDMDL
