MODEL 1
REMARK VINA RESULT:     -12.6      0.000      0.000
REMARK SMILES CS(=O)(=O)N(Cc1ccc(Cl)cc1)c1ccc(C(=O)Nc2ccccc2C(=O)OCCOC(=O)c2ccc(-c3c4nc(c(-c5c(F)c(F)c(F)c(F)c5F)c5ccc([nH]5)c(-c5c(F)c(F)c(F)c(F)c5F)c5nc(c(-c6c(F)c(F)c(F)c(F)c6F)c6ccc3[nH]6)C=C5)C=C4)cc2)cc1
REMARK SMILES IDX 29 1 27 2 28 3 26 4 21 5 22 6 23 7 25 8 24 9 20 10 18 11
REMARK SMILES IDX 19 12 17 14 14 15 15 16 99 17 16 18 98 19 5 20 2 21 1 22
REMARK SMILES IDX 3 23 4 24 6 25 7 26 8 27 13 28 9 29 12 30 10 31 11 32 30 33
REMARK SMILES IDX 31 34 32 35 33 36 34 37 35 38 36 39 97 40 37 41 96 42 38 43
REMARK SMILES IDX 39 44 40 45 90 46 41 47 95 48 89 49 91 50 42 51 94 52 88 53
REMARK SMILES IDX 87 54 43 56 75 57 55 58 74 59 56 60 59 61 73 62 92 63 57 64
REMARK SMILES IDX 58 65 72 67 93 68 60 69 44 70 45 71 53 72 46 73 47 74 51 75
REMARK SMILES IDX 54 76 48 77 49 78 52 79 50 80 76 81 77 82 85 83 78 84 79 85
REMARK SMILES IDX 83 86 86 87 80 88 81 89 84 90 82 91 61 92 62 93 70 94 63 95
REMARK SMILES IDX 64 96 68 97 71 98 65 99 66 100 69 101 67 102
REMARK H PARENT 20 13 91 55 59 66
REMARK Flexibility Score: inf
ROOT
ATOM      1  O   UNL A   1      34.003  33.283  28.756  1.00  0.00    -0.458 OA
ENDROOT
BRANCH   1   2
ATOM      2  C   UNL A   1      35.150  33.177  28.043  1.00  0.00     0.340 C 
ATOM      3  O   UNL A   1      35.773  34.100  27.540  1.00  0.00    -0.246 OA
BRANCH   2   4
ATOM      4  C   UNL A   1      35.623  31.778  27.967  1.00  0.00     0.083 A 
ATOM      5  C   UNL A   1      34.787  30.650  27.958  1.00  0.00     0.056 A 
ATOM      6  C   UNL A   1      35.381  29.376  28.008  1.00  0.00     0.027 A 
ATOM      7  C   UNL A   1      36.768  29.217  27.955  1.00  0.00     0.002 A 
ATOM      8  C   UNL A   1      37.018  31.603  27.905  1.00  0.00     0.018 A 
ATOM      9  C   UNL A   1      37.588  30.333  27.887  1.00  0.00     0.001 A 
BRANCH   5  10
ATOM     10  N   UNL A   1      33.380  30.635  27.882  1.00  0.00    -0.321 N 
ATOM     11  C   UNL A   1      32.510  30.021  27.014  1.00  0.00     0.255 C 
ATOM     12  O   UNL A   1      31.329  30.369  26.990  1.00  0.00    -0.269 OA
ATOM     13  H   UNL A   1      32.936  31.166  28.583  1.00  0.00     0.170 HD
BRANCH  11  14
ATOM     14  C   UNL A   1      32.928  28.885  26.162  1.00  0.00     0.040 A 
ATOM     15  C   UNL A   1      33.524  26.619  24.541  1.00  0.00     0.052 A 
ATOM     16  C   UNL A   1      33.003  26.493  25.844  1.00  0.00     0.028 A 
ATOM     17  C   UNL A   1      33.821  27.924  24.119  1.00  0.00     0.028 A 
ATOM     18  C   UNL A   1      32.723  27.600  26.651  1.00  0.00     0.016 A 
ATOM     19  C   UNL A   1      33.524  29.047  24.912  1.00  0.00     0.016 A 
BRANCH  15  20
ATOM     20  N   UNL A   1      33.905  25.405  23.781  1.00  0.00    -0.266 N 
BRANCH  20  21
ATOM     21  S   UNL A   1      33.297  25.238  22.189  1.00  0.00     0.232 S 
ATOM     22  C   UNL A   1      31.530  25.434  22.365  1.00  0.00     0.183 C 
ATOM     23  O   UNL A   1      33.498  23.872  21.749  1.00  0.00    -0.207 OA
ATOM     24  O   UNL A   1      33.781  26.351  21.397  1.00  0.00    -0.207 OA
ENDBRANCH  20  21
BRANCH  20  25
ATOM     25  C   UNL A   1      33.951  24.130  24.567  1.00  0.00     0.170 C 
BRANCH  25  26
ATOM     26  C   UNL A   1      35.359  23.592  24.811  1.00  0.00    -0.027 A 
ATOM     27  C   UNL A   1      36.182  24.067  25.848  1.00  0.00     0.007 A 
ATOM     28  C   UNL A   1      35.823  22.518  24.034  1.00  0.00     0.007 A 
ATOM     29  C   UNL A   1      37.391  23.438  26.155  1.00  0.00     0.021 A 
ATOM     30  C   UNL A   1      37.049  21.907  24.322  1.00  0.00     0.021 A 
ATOM     31  C   UNL A   1      37.816  22.356  25.394  1.00  0.00     0.041 A 
ATOM     32  Cl  UNL A   1      39.287  21.557  25.794  1.00  0.00    -0.084 Cl
ENDBRANCH  25  26
ENDBRANCH  20  25
ENDBRANCH  15  20
ENDBRANCH  11  14
ENDBRANCH   5  10
ENDBRANCH   2   4
ENDBRANCH   1   2
BRANCH   1  33
ATOM     33  C   UNL A   1      33.155  34.398  28.402  1.00  0.00     0.275 C 
BRANCH  33  34
ATOM     34  C   UNL A   1      33.135  35.494  29.461  1.00  0.00     0.275 C 
BRANCH  34  35
ATOM     35  O   UNL A   1      32.568  34.989  30.683  1.00  0.00    -0.458 OA
BRANCH  35  36
ATOM     36  C   UNL A   1      32.840  35.708  31.789  1.00  0.00     0.338 C 
ATOM     37  O   UNL A   1      32.298  36.740  32.163  1.00  0.00    -0.246 OA
BRANCH  36  38
ATOM     38  C   UNL A   1      33.908  35.067  32.567  1.00  0.00     0.060 A 
ATOM     39  C   UNL A   1      35.164  35.664  32.618  1.00  0.00     0.016 A 
ATOM     40  C   UNL A   1      33.724  33.785  33.078  1.00  0.00     0.016 A 
ATOM     41  C   UNL A   1      36.270  34.942  33.049  1.00  0.00     0.010 A 
ATOM     42  C   UNL A   1      34.817  33.096  33.610  1.00  0.00     0.010 A 
ATOM     43  C   UNL A   1      36.112  33.645  33.547  1.00  0.00    -0.014 A 
BRANCH  43  44
ATOM     44  C   UNL A   1      37.302  32.832  33.909  1.00  0.00     0.031 A 
ATOM     45  C   UNL A   1      37.942  33.018  35.258  1.00  0.00     0.074 A 
ATOM     46  C   UNL A   1      37.790  31.905  33.062  1.00  0.00     0.049 A 
ATOM     47  N   UNL A   1      39.102  32.597  35.693  1.00  0.00    -0.248 NA
ATOM     48  C   UNL A   1      37.177  33.795  36.249  1.00  0.00     0.031 C 
ATOM     49  C   UNL A   1      37.218  31.560  31.760  1.00  0.00     0.029 A 
ATOM     50  N   UNL A   1      38.878  31.077  33.177  1.00  0.00    -0.354 N 
ATOM     51  C   UNL A   1      39.239  33.121  36.972  1.00  0.00     0.074 A 
ATOM     52  C   UNL A   1      38.038  33.877  37.254  1.00  0.00     0.031 C 
ATOM     53  C   UNL A   1      37.938  30.569  31.213  1.00  0.00     0.029 A 
ATOM     54  C   UNL A   1      39.076  30.278  32.077  1.00  0.00     0.049 A 
ATOM     55  H   UNL A   1      39.460  31.057  33.970  1.00  0.00     0.167 HD
ATOM     56  C   UNL A   1      40.283  32.992  37.824  1.00  0.00     0.037 A 
ATOM     57  C   UNL A   1      40.088  29.444  31.776  1.00  0.00     0.037 A 
ATOM     58  C   UNL A   1      41.439  32.176  37.562  1.00  0.00     0.049 A 
ATOM     59  C   UNL A   1      41.239  29.318  32.733  1.00  0.00     0.074 A 
ATOM     60  C   UNL A   1      42.555  31.974  38.356  1.00  0.00     0.029 A 
ATOM     61  N   UNL A   1      41.611  31.401  36.425  1.00  0.00    -0.354 N 
ATOM     62  N   UNL A   1      41.415  29.903  33.893  1.00  0.00    -0.248 NA
ATOM     63  C   UNL A   1      42.344  28.440  32.328  1.00  0.00     0.031 C 
ATOM     64  C   UNL A   1      43.412  31.092  37.687  1.00  0.00     0.029 A 
ATOM     65  C   UNL A   1      42.815  30.720  36.494  1.00  0.00     0.049 A 
ATOM     66  H   UNL A   1      40.970  31.343  35.679  1.00  0.00     0.167 HD
ATOM     67  C   UNL A   1      42.649  29.469  34.355  1.00  0.00     0.074 A 
ATOM     68  C   UNL A   1      43.165  28.547  33.363  1.00  0.00     0.031 C 
ATOM     69  C   UNL A   1      43.304  29.812  35.490  1.00  0.00     0.037 A 
BRANCH  56  70
ATOM     70  C   UNL A   1      40.246  33.784  39.096  1.00  0.00     0.064 A 
ATOM     71  C   UNL A   1      40.847  35.045  39.209  1.00  0.00     0.173 A 
ATOM     72  C   UNL A   1      39.567  33.278  40.216  1.00  0.00     0.173 A 
ATOM     73  F   UNL A   1      41.524  35.564  38.173  1.00  0.00    -0.203 F 
ATOM     74  C   UNL A   1      40.784  35.764  40.401  1.00  0.00     0.198 A 
ATOM     75  C   UNL A   1      39.485  34.008  41.398  1.00  0.00     0.198 A 
ATOM     76  F   UNL A   1      38.974  32.075  40.160  1.00  0.00    -0.203 F 
ATOM     77  F   UNL A   1      41.397  36.951  40.499  1.00  0.00    -0.200 F 
ATOM     78  C   UNL A   1      40.098  35.248  41.491  1.00  0.00     0.200 A 
ATOM     79  F   UNL A   1      38.815  33.512  42.447  1.00  0.00    -0.200 F 
ATOM     80  F   UNL A   1      40.033  35.944  42.634  1.00  0.00    -0.200 F 
ENDBRANCH  56  70
BRANCH  57  81
ATOM     81  C   UNL A   1      40.082  28.714  30.481  1.00  0.00     0.064 A 
ATOM     82  C   UNL A   1      40.741  29.229  29.358  1.00  0.00     0.173 A 
ATOM     83  C   UNL A   1      39.429  27.479  30.346  1.00  0.00     0.173 A 
ATOM     84  F   UNL A   1      41.353  30.420  29.428  1.00  0.00    -0.203 F 
ATOM     85  C   UNL A   1      40.742  28.540  28.146  1.00  0.00     0.198 A 
ATOM     86  C   UNL A   1      39.458  26.776  29.145  1.00  0.00     0.198 A 
ATOM     87  F   UNL A   1      38.780  26.944  31.392  1.00  0.00    -0.203 F 
ATOM     88  F   UNL A   1      41.347  29.072  27.076  1.00  0.00    -0.200 F 
ATOM     89  C   UNL A   1      40.109  27.309  28.044  1.00  0.00     0.200 A 
ATOM     90  F   UNL A   1      38.856  25.582  29.055  1.00  0.00    -0.200 F 
ATOM     91  F   UNL A   1      40.122  26.641  26.883  1.00  0.00    -0.200 F 
ENDBRANCH  57  81
BRANCH  69  92
ATOM     92  C   UNL A   1      44.642  29.178  35.716  1.00  0.00     0.064 A 
ATOM     93  C   UNL A   1      44.763  27.959  36.399  1.00  0.00     0.173 A 
ATOM     94  C   UNL A   1      45.808  29.783  35.227  1.00  0.00     0.173 A 
ATOM     95  F   UNL A   1      43.674  27.355  36.899  1.00  0.00    -0.203 F 
ATOM     96  C   UNL A   1      46.011  27.377  36.603  1.00  0.00     0.198 A 
ATOM     97  C   UNL A   1      47.052  29.187  35.415  1.00  0.00     0.198 A 
ATOM     98  F   UNL A   1      45.740  30.947  34.566  1.00  0.00    -0.203 F 
ATOM     99  F   UNL A   1      46.109  26.234  37.293  1.00  0.00    -0.200 F 
ATOM    100  C   UNL A   1      47.152  27.989  36.106  1.00  0.00     0.200 A 
ATOM    101  F   UNL A   1      48.154  29.775  34.929  1.00  0.00    -0.200 F 
ATOM    102  F   UNL A   1      48.353  27.428  36.304  1.00  0.00    -0.200 F 
ENDBRANCH  69  92
ENDBRANCH  43  44
ENDBRANCH  36  38
ENDBRANCH  35  36
ENDBRANCH  34  35
ENDBRANCH  33  34
ENDBRANCH   1  33
TORSDOF 17
ENDMDL
MODEL 2
REMARK VINA RESULT:     -12.5      0.229      1.862
REMARK SMILES CS(=O)(=O)N(Cc1ccc(Cl)cc1)c1ccc(C(=O)Nc2ccccc2C(=O)OCCOC(=O)c2ccc(-c3c4nc(c(-c5c(F)c(F)c(F)c(F)c5F)c5ccc([nH]5)c(-c5c(F)c(F)c(F)c(F)c5F)c5nc(c(-c6c(F)c(F)c(F)c(F)c6F)c6ccc3[nH]6)C=C5)C=C4)cc2)cc1
REMARK SMILES IDX 29 1 27 2 28 3 26 4 21 5 22 6 23 7 25 8 24 9 20 10 18 11
REMARK SMILES IDX 19 12 17 14 14 15 15 16 99 17 16 18 98 19 5 20 2 21 1 22
REMARK SMILES IDX 3 23 4 24 6 25 7 26 8 27 13 28 9 29 12 30 10 31 11 32 30 33
REMARK SMILES IDX 31 34 32 35 33 36 34 37 35 38 36 39 97 40 37 41 96 42 38 43
REMARK SMILES IDX 39 44 40 45 90 46 41 47 95 48 89 49 91 50 42 51 94 52 88 53
REMARK SMILES IDX 87 54 43 56 75 57 55 58 74 59 56 60 59 61 73 62 92 63 57 64
REMARK SMILES IDX 58 65 72 67 93 68 60 69 44 70 45 71 53 72 46 73 47 74 51 75
REMARK SMILES IDX 54 76 48 77 49 78 52 79 50 80 76 81 77 82 85 83 78 84 79 85
REMARK SMILES IDX 83 86 86 87 80 88 81 89 84 90 82 91 61 92 62 93 70 94 63 95
REMARK SMILES IDX 64 96 68 97 71 98 65 99 66 100 69 101 67 102
REMARK H PARENT 20 13 91 55 59 66
REMARK Flexibility Score: inf
ROOT
ATOM      1  O   UNL A   1      34.045  33.218  28.788  1.00  0.00    -0.458 OA
ENDROOT
BRANCH   1   2
ATOM      2  C   UNL A   1      35.204  33.115  28.095  1.00  0.00     0.340 C 
ATOM      3  O   UNL A   1      35.859  34.043  27.647  1.00  0.00    -0.246 OA
BRANCH   2   4
ATOM      4  C   UNL A   1      35.646  31.709  27.966  1.00  0.00     0.083 A 
ATOM      5  C   UNL A   1      34.784  30.602  27.912  1.00  0.00     0.056 A 
ATOM      6  C   UNL A   1      35.349  29.314  27.914  1.00  0.00     0.027 A 
ATOM      7  C   UNL A   1      36.732  29.126  27.859  1.00  0.00     0.002 A 
ATOM      8  C   UNL A   1      37.036  31.506  27.902  1.00  0.00     0.018 A 
ATOM      9  C   UNL A   1      37.577  30.224  27.836  1.00  0.00     0.001 A 
BRANCH   5  10
ATOM     10  N   UNL A   1      33.377  30.622  27.831  1.00  0.00    -0.321 N 
ATOM     11  C   UNL A   1      32.496  30.048  26.946  1.00  0.00     0.255 C 
ATOM     12  O   UNL A   1      31.324  30.425  26.927  1.00  0.00    -0.269 OA
ATOM     13  H   UNL A   1      32.944  31.147  28.542  1.00  0.00     0.170 HD
BRANCH  11  14
ATOM     14  C   UNL A   1      32.891  28.923  26.070  1.00  0.00     0.040 A 
ATOM     15  C   UNL A   1      33.431  26.706  24.363  1.00  0.00     0.052 A 
ATOM     16  C   UNL A   1      32.696  26.572  25.558  1.00  0.00     0.028 A 
ATOM     17  C   UNL A   1      33.964  27.979  24.107  1.00  0.00     0.028 A 
ATOM     18  C   UNL A   1      32.440  27.652  26.408  1.00  0.00     0.016 A 
ATOM     19  C   UNL A   1      33.695  29.078  24.943  1.00  0.00     0.016 A 
BRANCH  15  20
ATOM     20  N   UNL A   1      33.764  25.502  23.565  1.00  0.00    -0.266 N 
BRANCH  20  21
ATOM     21  S   UNL A   1      33.127  25.397  21.980  1.00  0.00     0.232 S 
ATOM     22  C   UNL A   1      31.377  25.695  22.182  1.00  0.00     0.183 C 
ATOM     23  O   UNL A   1      33.240  24.028  21.517  1.00  0.00    -0.207 OA
ATOM     24  O   UNL A   1      33.667  26.491  21.197  1.00  0.00    -0.207 OA
ENDBRANCH  20  21
BRANCH  20  25
ATOM     25  C   UNL A   1      33.784  24.206  24.317  1.00  0.00     0.170 C 
BRANCH  25  26
ATOM     26  C   UNL A   1      35.184  23.689  24.641  1.00  0.00    -0.027 A 
ATOM     27  C   UNL A   1      35.871  24.049  25.814  1.00  0.00     0.007 A 
ATOM     28  C   UNL A   1      35.777  22.745  23.788  1.00  0.00     0.007 A 
ATOM     29  C   UNL A   1      37.070  23.427  26.168  1.00  0.00     0.021 A 
ATOM     30  C   UNL A   1      36.995  22.143  24.127  1.00  0.00     0.021 A 
ATOM     31  C   UNL A   1      37.623  22.471  25.325  1.00  0.00     0.041 A 
ATOM     32  Cl  UNL A   1      39.081  21.677  25.777  1.00  0.00    -0.084 Cl
ENDBRANCH  25  26
ENDBRANCH  20  25
ENDBRANCH  15  20
ENDBRANCH  11  14
ENDBRANCH   5  10
ENDBRANCH   2   4
ENDBRANCH   1   2
BRANCH   1  33
ATOM     33  C   UNL A   1      33.172  34.294  28.379  1.00  0.00     0.275 C 
BRANCH  33  34
ATOM     34  C   UNL A   1      33.115  35.434  29.389  1.00  0.00     0.275 C 
BRANCH  34  35
ATOM     35  O   UNL A   1      32.478  34.989  30.600  1.00  0.00    -0.458 OA
BRANCH  35  36
ATOM     36  C   UNL A   1      32.745  35.720  31.699  1.00  0.00     0.338 C 
ATOM     37  O   UNL A   1      32.214  36.766  32.050  1.00  0.00    -0.246 OA
BRANCH  36  38
ATOM     38  C   UNL A   1      33.792  35.075  32.501  1.00  0.00     0.060 A 
ATOM     39  C   UNL A   1      35.026  35.704  32.642  1.00  0.00     0.016 A 
ATOM     40  C   UNL A   1      33.622  33.767  32.945  1.00  0.00     0.016 A 
ATOM     41  C   UNL A   1      36.130  34.995  33.096  1.00  0.00     0.010 A 
ATOM     42  C   UNL A   1      34.708  33.085  33.502  1.00  0.00     0.010 A 
ATOM     43  C   UNL A   1      35.987  33.673  33.528  1.00  0.00    -0.014 A 
BRANCH  43  44
ATOM     44  C   UNL A   1      37.182  32.878  33.914  1.00  0.00     0.031 A 
ATOM     45  C   UNL A   1      37.786  33.067  35.279  1.00  0.00     0.074 A 
ATOM     46  C   UNL A   1      37.705  31.964  33.074  1.00  0.00     0.049 A 
ATOM     47  N   UNL A   1      38.943  32.663  35.739  1.00  0.00    -0.248 NA
ATOM     48  C   UNL A   1      36.986  33.826  36.255  1.00  0.00     0.031 C 
ATOM     49  C   UNL A   1      37.171  31.616  31.758  1.00  0.00     0.029 A 
ATOM     50  N   UNL A   1      38.804  31.153  33.211  1.00  0.00    -0.354 N 
ATOM     51  C   UNL A   1      39.041  33.183  37.024  1.00  0.00     0.074 A 
ATOM     52  C   UNL A   1      37.821  33.917  37.281  1.00  0.00     0.031 C 
ATOM     53  C   UNL A   1      37.920  30.640  31.223  1.00  0.00     0.029 A 
ATOM     54  C   UNL A   1      39.042  30.364  32.112  1.00  0.00     0.049 A 
ATOM     55  H   UNL A   1      39.368  31.139  34.017  1.00  0.00     0.167 HD
ATOM     56  C   UNL A   1      40.066  33.066  37.899  1.00  0.00     0.037 A 
ATOM     57  C   UNL A   1      40.075  29.549  31.830  1.00  0.00     0.037 A 
ATOM     58  C   UNL A   1      41.243  32.271  37.661  1.00  0.00     0.049 A 
ATOM     59  C   UNL A   1      41.205  29.437  32.814  1.00  0.00     0.074 A 
ATOM     60  C   UNL A   1      42.343  32.084  38.480  1.00  0.00     0.029 A 
ATOM     61  N   UNL A   1      41.454  31.506  36.524  1.00  0.00    -0.354 N 
ATOM     62  N   UNL A   1      41.343  30.018  33.981  1.00  0.00    -0.248 NA
ATOM     63  C   UNL A   1      42.334  28.580  32.431  1.00  0.00     0.031 C 
ATOM     64  C   UNL A   1      43.230  31.220  37.827  1.00  0.00     0.029 A 
ATOM     65  C   UNL A   1      42.667  30.845  36.618  1.00  0.00     0.049 A 
ATOM     66  H   UNL A   1      40.833  31.441  35.763  1.00  0.00     0.167 HD
ATOM     67  C   UNL A   1      42.573  29.603  34.470  1.00  0.00     0.074 A 
ATOM     68  C   UNL A   1      43.129  28.695  33.485  1.00  0.00     0.031 C 
ATOM     69  C   UNL A   1      43.195  29.951  35.621  1.00  0.00     0.037 A 
BRANCH  56  70
ATOM     70  C   UNL A   1      39.986  33.851  39.175  1.00  0.00     0.064 A 
ATOM     71  C   UNL A   1      39.362  33.347  40.324  1.00  0.00     0.173 A 
ATOM     72  C   UNL A   1      40.576  35.122  39.251  1.00  0.00     0.173 A 
ATOM     73  F   UNL A   1      38.768  32.145  40.296  1.00  0.00    -0.203 F 
ATOM     74  C   UNL A   1      39.316  34.095  41.499  1.00  0.00     0.198 A 
ATOM     75  C   UNL A   1      40.549  35.857  40.433  1.00  0.00     0.198 A 
ATOM     76  F   UNL A   1      41.187  35.650  38.179  1.00  0.00    -0.203 F 
ATOM     77  F   UNL A   1      38.681  33.610  42.575  1.00  0.00    -0.200 F 
ATOM     78  C   UNL A   1      39.914  35.345  41.554  1.00  0.00     0.200 A 
ATOM     79  F   UNL A   1      41.136  37.061  40.487  1.00  0.00    -0.200 F 
ATOM     80  F   UNL A   1      39.875  36.059  42.688  1.00  0.00    -0.200 F 
ENDBRANCH  56  70
BRANCH  57  81
ATOM     81  C   UNL A   1      40.111  28.826  30.532  1.00  0.00     0.064 A 
ATOM     82  C   UNL A   1      39.468  27.593  30.373  1.00  0.00     0.173 A 
ATOM     83  C   UNL A   1      40.778  29.364  29.420  1.00  0.00     0.173 A 
ATOM     84  F   UNL A   1      38.843  27.024  31.415  1.00  0.00    -0.203 F 
ATOM     85  C   UNL A   1      39.495  26.920  29.153  1.00  0.00     0.198 A 
ATOM     86  C   UNL A   1      40.777  28.707  28.193  1.00  0.00     0.198 A 
ATOM     87  F   UNL A   1      41.413  30.541  29.521  1.00  0.00    -0.203 F 
ATOM     88  F   UNL A   1      38.904  25.723  29.037  1.00  0.00    -0.200 F 
ATOM     89  C   UNL A   1      40.141  27.482  28.061  1.00  0.00     0.200 A 
ATOM     90  F   UNL A   1      41.390  29.260  27.138  1.00  0.00    -0.200 F 
ATOM     91  F   UNL A   1      40.154  26.842  26.884  1.00  0.00    -0.200 F 
ENDBRANCH  57  81
BRANCH  69  92
ATOM     92  C   UNL A   1      44.538  29.338  35.876  1.00  0.00     0.064 A 
ATOM     93  C   UNL A   1      45.721  30.010  35.534  1.00  0.00     0.173 A 
ATOM     94  C   UNL A   1      44.643  28.081  36.489  1.00  0.00     0.173 A 
ATOM     95  F   UNL A   1      45.666  31.207  34.930  1.00  0.00    -0.203 F 
ATOM     96  C   UNL A   1      46.964  29.433  35.776  1.00  0.00     0.198 A 
ATOM     97  C   UNL A   1      45.888  27.517  36.748  1.00  0.00     0.198 A 
ATOM     98  F   UNL A   1      43.539  27.404  36.836  1.00  0.00    -0.203 F 
ATOM     99  F   UNL A   1      48.080  30.072  35.404  1.00  0.00    -0.200 F 
ATOM    100  C   UNL A   1      47.046  28.190  36.387  1.00  0.00     0.200 A 
ATOM    101  F   UNL A   1      45.967  26.320  37.345  1.00  0.00    -0.200 F 
ATOM    102  F   UNL A   1      48.244  27.636  36.620  1.00  0.00    -0.200 F 
ENDBRANCH  69  92
ENDBRANCH  43  44
ENDBRANCH  36  38
ENDBRANCH  35  36
ENDBRANCH  34  35
ENDBRANCH  33  34
ENDBRANCH   1  33
TORSDOF 17
ENDMDL
MODEL 3
REMARK VINA RESULT:     -12.0      6.672     12.479
REMARK SMILES CS(=O)(=O)N(Cc1ccc(Cl)cc1)c1ccc(C(=O)Nc2ccccc2C(=O)OCCOC(=O)c2ccc(-c3c4nc(c(-c5c(F)c(F)c(F)c(F)c5F)c5ccc([nH]5)c(-c5c(F)c(F)c(F)c(F)c5F)c5nc(c(-c6c(F)c(F)c(F)c(F)c6F)c6ccc3[nH]6)C=C5)C=C4)cc2)cc1
REMARK SMILES IDX 29 1 27 2 28 3 26 4 21 5 22 6 23 7 25 8 24 9 20 10 18 11
REMARK SMILES IDX 19 12 17 14 14 15 15 16 99 17 16 18 98 19 5 20 2 21 1 22
REMARK SMILES IDX 3 23 4 24 6 25 7 26 8 27 13 28 9 29 12 30 10 31 11 32 30 33
REMARK SMILES IDX 31 34 32 35 33 36 34 37 35 38 36 39 97 40 37 41 96 42 38 43
REMARK SMILES IDX 39 44 40 45 90 46 41 47 95 48 89 49 91 50 42 51 94 52 88 53
REMARK SMILES IDX 87 54 43 56 75 57 55 58 74 59 56 60 59 61 73 62 92 63 57 64
REMARK SMILES IDX 58 65 72 67 93 68 60 69 44 70 45 71 53 72 46 73 47 74 51 75
REMARK SMILES IDX 54 76 48 77 49 78 52 79 50 80 76 81 77 82 85 83 78 84 79 85
REMARK SMILES IDX 83 86 86 87 80 88 81 89 84 90 82 91 61 92 62 93 70 94 63 95
REMARK SMILES IDX 64 96 68 97 71 98 65 99 66 100 69 101 67 102
REMARK H PARENT 20 13 91 55 59 66
REMARK Flexibility Score: inf
ROOT
ATOM      1  O   UNL A   1      41.463  20.425  26.544  1.00  0.00    -0.458 OA
ENDROOT
BRANCH   1   2
ATOM      2  C   UNL A   1      40.192  20.307  26.090  1.00  0.00     0.340 C 
ATOM      3  O   UNL A   1      39.667  19.283  25.679  1.00  0.00    -0.246 OA
BRANCH   2   4
ATOM      4  C   UNL A   1      39.452  21.584  26.187  1.00  0.00     0.083 A 
ATOM      5  C   UNL A   1      38.168  21.805  25.663  1.00  0.00     0.056 A 
ATOM      6  C   UNL A   1      37.638  23.107  25.721  1.00  0.00     0.027 A 
ATOM      7  C   UNL A   1      38.311  24.139  26.379  1.00  0.00     0.002 A 
ATOM      8  C   UNL A   1      40.115  22.629  26.855  1.00  0.00     0.018 A 
ATOM      9  C   UNL A   1      39.545  23.896  26.961  1.00  0.00     0.001 A 
BRANCH   5  10
ATOM     10  N   UNL A   1      37.308  20.849  25.087  1.00  0.00    -0.321 N 
ATOM     11  C   UNL A   1      35.938  20.762  25.020  1.00  0.00     0.255 C 
ATOM     12  O   UNL A   1      35.414  19.698  24.692  1.00  0.00    -0.269 OA
ATOM     13  H   UNL A   1      37.778  20.102  24.649  1.00  0.00     0.170 HD
BRANCH  11  14
ATOM     14  C   UNL A   1      35.069  21.938  25.245  1.00  0.00     0.040 A 
ATOM     15  C   UNL A   1      33.249  24.111  25.534  1.00  0.00     0.052 A 
ATOM     16  C   UNL A   1      33.754  23.716  24.279  1.00  0.00     0.028 A 
ATOM     17  C   UNL A   1      33.766  23.432  26.648  1.00  0.00     0.028 A 
ATOM     18  C   UNL A   1      34.659  22.662  24.131  1.00  0.00     0.016 A 
ATOM     19  C   UNL A   1      34.660  22.354  26.511  1.00  0.00     0.016 A 
BRANCH  15  20
ATOM     20  N   UNL A   1      32.382  25.309  25.635  1.00  0.00    -0.266 N 
BRANCH  20  21
ATOM     21  S   UNL A   1      30.686  25.069  25.611  1.00  0.00     0.232 S 
ATOM     22  C   UNL A   1      30.136  25.916  24.138  1.00  0.00     0.183 C 
ATOM     23  O   UNL A   1      30.093  25.787  26.721  1.00  0.00    -0.207 OA
ATOM     24  O   UNL A   1      30.429  23.655  25.421  1.00  0.00    -0.207 OA
ENDBRANCH  20  21
BRANCH  20  25
ATOM     25  C   UNL A   1      32.850  26.519  24.884  1.00  0.00     0.170 C 
BRANCH  25  26
ATOM     26  C   UNL A   1      33.050  27.758  25.753  1.00  0.00    -0.027 A 
ATOM     27  C   UNL A   1      34.246  28.007  26.453  1.00  0.00     0.007 A 
ATOM     28  C   UNL A   1      32.045  28.738  25.787  1.00  0.00     0.007 A 
ATOM     29  C   UNL A   1      34.464  29.228  27.095  1.00  0.00     0.021 A 
ATOM     30  C   UNL A   1      32.252  29.950  26.457  1.00  0.00     0.021 A 
ATOM     31  C   UNL A   1      33.469  30.197  27.088  1.00  0.00     0.041 A 
ATOM     32  Cl  UNL A   1      33.751  31.715  27.848  1.00  0.00    -0.084 Cl
ENDBRANCH  25  26
ENDBRANCH  20  25
ENDBRANCH  15  20
ENDBRANCH  11  14
ENDBRANCH   5  10
ENDBRANCH   2   4
ENDBRANCH   1   2
BRANCH   1  33
ATOM     33  C   UNL A   1      42.058  19.207  27.044  1.00  0.00     0.275 C 
BRANCH  33  34
ATOM     34  C   UNL A   1      43.091  18.613  26.093  1.00  0.00     0.275 C 
BRANCH  34  35
ATOM     35  O   UNL A   1      43.172  19.406  24.895  1.00  0.00    -0.458 OA
BRANCH  35  36
ATOM     36  C   UNL A   1      44.402  19.524  24.361  1.00  0.00     0.338 C 
ATOM     37  O   UNL A   1      45.044  18.669  23.763  1.00  0.00    -0.246 OA
BRANCH  36  38
ATOM     38  C   UNL A   1      44.918  20.884  24.557  1.00  0.00     0.060 A 
ATOM     39  C   UNL A   1      45.598  21.190  25.732  1.00  0.00     0.016 A 
ATOM     40  C   UNL A   1      44.559  21.900  23.675  1.00  0.00     0.016 A 
ATOM     41  C   UNL A   1      45.803  22.513  26.104  1.00  0.00     0.010 A 
ATOM     42  C   UNL A   1      44.859  23.226  23.998  1.00  0.00     0.010 A 
ATOM     43  C   UNL A   1      45.431  23.550  25.243  1.00  0.00    -0.014 A 
BRANCH  43  44
ATOM     44  C   UNL A   1      45.551  24.965  25.680  1.00  0.00     0.031 A 
ATOM     45  C   UNL A   1      46.864  25.682  25.515  1.00  0.00     0.074 A 
ATOM     46  C   UNL A   1      44.490  25.625  26.185  1.00  0.00     0.049 A 
ATOM     47  N   UNL A   1      47.260  26.819  26.028  1.00  0.00    -0.248 NA
ATOM     48  C   UNL A   1      47.873  25.022  24.669  1.00  0.00     0.031 C 
ATOM     49  C   UNL A   1      43.139  25.082  26.321  1.00  0.00     0.029 A 
ATOM     50  N   UNL A   1      44.384  26.904  26.670  1.00  0.00    -0.354 N 
ATOM     51  C   UNL A   1      48.584  26.970  25.632  1.00  0.00     0.074 A 
ATOM     52  C   UNL A   1      48.921  25.820  24.822  1.00  0.00     0.031 C 
ATOM     53  C   UNL A   1      42.332  26.031  26.821  1.00  0.00     0.029 A 
ATOM     54  C   UNL A   1      43.128  27.212  27.132  1.00  0.00     0.049 A 
ATOM     55  H   UNL A   1      45.136  27.540  26.687  1.00  0.00     0.167 HD
ATOM     56  C   UNL A   1      49.439  27.975  25.934  1.00  0.00     0.037 A 
ATOM     57  C   UNL A   1      42.679  28.303  27.780  1.00  0.00     0.037 A 
ATOM     58  C   UNL A   1      49.070  29.150  26.678  1.00  0.00     0.049 A 
ATOM     59  C   UNL A   1      43.647  29.404  28.109  1.00  0.00     0.074 A 
ATOM     60  C   UNL A   1      49.858  30.229  27.042  1.00  0.00     0.029 A 
ATOM     61  N   UNL A   1      47.791  29.412  27.147  1.00  0.00    -0.354 N 
ATOM     62  N   UNL A   1      44.923  29.492  27.828  1.00  0.00    -0.248 NA
ATOM     63  C   UNL A   1      43.118  30.545  28.869  1.00  0.00     0.031 C 
ATOM     64  C   UNL A   1      49.059  31.134  27.750  1.00  0.00     0.029 A 
ATOM     65  C   UNL A   1      47.768  30.634  27.799  1.00  0.00     0.049 A 
ATOM     66  H   UNL A   1      47.015  28.817  27.034  1.00  0.00     0.167 HD
ATOM     67  C   UNL A   1      45.354  30.690  28.378  1.00  0.00     0.074 A 
ATOM     68  C   UNL A   1      44.192  31.312  28.984  1.00  0.00     0.031 C 
ATOM     69  C   UNL A   1      46.598  31.224  28.395  1.00  0.00     0.037 A 
BRANCH  56  70
ATOM     70  C   UNL A   1      50.867  27.827  25.502  1.00  0.00     0.064 A 
ATOM     71  C   UNL A   1      51.864  27.354  26.366  1.00  0.00     0.173 A 
ATOM     72  C   UNL A   1      51.234  28.139  24.183  1.00  0.00     0.173 A 
ATOM     73  F   UNL A   1      51.567  27.061  27.641  1.00  0.00    -0.203 F 
ATOM     74  C   UNL A   1      53.180  27.215  25.931  1.00  0.00     0.198 A 
ATOM     75  C   UNL A   1      52.546  27.976  23.745  1.00  0.00     0.198 A 
ATOM     76  F   UNL A   1      50.318  28.595  23.316  1.00  0.00    -0.203 F 
ATOM     77  F   UNL A   1      54.125  26.796  26.784  1.00  0.00    -0.200 F 
ATOM     78  C   UNL A   1      53.518  27.519  24.621  1.00  0.00     0.200 A 
ATOM     79  F   UNL A   1      52.868  28.263  22.476  1.00  0.00    -0.200 F 
ATOM     80  F   UNL A   1      54.784  27.377  24.203  1.00  0.00    -0.200 F 
ENDBRANCH  56  70
BRANCH  57  81
ATOM     81  C   UNL A   1      41.259  28.372  28.213  1.00  0.00     0.064 A 
ATOM     82  C   UNL A   1      40.859  27.878  29.460  1.00  0.00     0.173 A 
ATOM     83  C   UNL A   1      40.276  28.947  27.392  1.00  0.00     0.173 A 
ATOM     84  F   UNL A   1      41.755  27.292  30.268  1.00  0.00    -0.203 F 
ATOM     85  C   UNL A   1      39.528  27.951  29.869  1.00  0.00     0.198 A 
ATOM     86  C   UNL A   1      38.954  29.049  27.814  1.00  0.00     0.198 A 
ATOM     87  F   UNL A   1      40.608  29.431  26.185  1.00  0.00    -0.203 F 
ATOM     88  F   UNL A   1      39.164  27.437  31.052  1.00  0.00    -0.200 F 
ATOM     89  C   UNL A   1      38.579  28.546  29.050  1.00  0.00     0.200 A 
ATOM     90  F   UNL A   1      38.044  29.636  27.025  1.00  0.00    -0.200 F 
ATOM     91  F   UNL A   1      37.303  28.628  29.450  1.00  0.00    -0.200 F 
ENDBRANCH  57  81
BRANCH  69  92
ATOM     92  C   UNL A   1      46.758  32.546  29.081  1.00  0.00     0.064 A 
ATOM     93  C   UNL A   1      47.076  32.624  30.445  1.00  0.00     0.173 A 
ATOM     94  C   UNL A   1      46.616  33.743  28.364  1.00  0.00     0.173 A 
ATOM     95  F   UNL A   1      47.204  31.504  31.173  1.00  0.00    -0.203 F 
ATOM     96  C   UNL A   1      47.224  33.857  31.073  1.00  0.00     0.198 A 
ATOM     97  C   UNL A   1      46.785  34.973  28.991  1.00  0.00     0.198 A 
ATOM     98  F   UNL A   1      46.315  33.716  27.057  1.00  0.00    -0.203 F 
ATOM     99  F   UNL A   1      47.486  33.910  32.385  1.00  0.00    -0.200 F 
ATOM    100  C   UNL A   1      47.083  35.029  30.345  1.00  0.00     0.200 A 
ATOM    101  F   UNL A   1      46.656  36.105  28.286  1.00  0.00    -0.200 F 
ATOM    102  F   UNL A   1      47.226  36.216  30.951  1.00  0.00    -0.200 F 
ENDBRANCH  69  92
ENDBRANCH  43  44
ENDBRANCH  36  38
ENDBRANCH  35  36
ENDBRANCH  34  35
ENDBRANCH  33  34
ENDBRANCH   1  33
TORSDOF 17
ENDMDL
