MODEL 1
REMARK VINA RESULT:     -14.8      0.000      0.000
REMARK SMILES Cc1c(NC(=O)[C@@H]2CC=CC[C@@H]2C(=O)OCCOC(=O)c2ccc(-c3c4nc(c(-c5c(F)c(F)c(F)c(F)c5F)c5ccc([nH]5)c(-c5c(F)c(F)c(F)c(F)c5F)c5nc(c(-c6c(F)c(F)c(F)c(F)c6F)c6ccc3[nH]6)C=C5)C=C4)cc2)cccc1C(=O)N1CCOCC1
REMARK SMILES IDX 16 1 15 2 13 3 14 4 12 5 7 6 8 7 9 8 11 9 10 10 5 11 4 12
REMARK SMILES IDX 6 14 3 15 1 16 2 17 87 18 84 19 86 20 85 21 88 22 89 23
REMARK SMILES IDX 90 24 91 25 95 26 92 27 94 28 93 29 17 30 18 31 19 32 20 33
REMARK SMILES IDX 21 34 22 35 83 36 23 37 82 38 24 39 25 40 26 41 76 42 27 43
REMARK SMILES IDX 81 44 75 45 77 46 28 47 80 48 74 49 73 50 29 52 61 53 41 54
REMARK SMILES IDX 60 55 42 56 45 57 59 58 78 59 43 60 44 61 58 63 79 64 46 65
REMARK SMILES IDX 30 66 31 67 39 68 32 69 33 70 37 71 40 72 34 73 35 74 38 75
REMARK SMILES IDX 36 76 62 77 63 78 71 79 64 80 65 81 69 82 72 83 66 84 67 85
REMARK SMILES IDX 70 86 68 87 47 88 48 89 56 90 49 91 50 92 54 93 57 94 51 95
REMARK SMILES IDX 52 96 55 97 53 98
REMARK H PARENT 4 13 77 51 45 62
REMARK Flexibility Score: inf
ROOT
ATOM      1  C   UNL A   1      33.897  29.083  25.729  1.00  0.00     0.274 C 
ENDROOT
BRANCH   1   2
ATOM      2  O   UNL A   1      34.233  27.973  24.903  1.00  0.00    -0.462 OA
BRANCH   2   3
ATOM      3  C   UNL A   1      33.335  27.665  23.941  1.00  0.00     0.310 C 
ATOM      4  O   UNL A   1      33.241  28.256  22.874  1.00  0.00    -0.252 OA
BRANCH   3   5
ATOM      5  C   UNL A   1      32.376  26.566  24.349  1.00  0.00     0.116 C 
ATOM      6  C   UNL A   1      31.949  25.834  23.079  1.00  0.00     0.097 C 
ATOM      7  C   UNL A   1      31.179  26.751  22.129  1.00  0.00     0.041 C 
ATOM      8  C   UNL A   1      30.087  27.475  22.876  1.00  0.00    -0.030 C 
ATOM      9  C   UNL A   1      31.125  27.016  25.110  1.00  0.00     0.043 C 
ATOM     10  C   UNL A   1      30.047  27.563  24.217  1.00  0.00    -0.030 C 
BRANCH   6  11
ATOM     11  C   UNL A   1      33.169  25.198  22.463  1.00  0.00     0.228 C 
ATOM     12  N   UNL A   1      33.801  24.242  23.234  1.00  0.00    -0.326 N 
ATOM     13  H   UNL A   1      34.619  24.446  23.741  1.00  0.00     0.169 HD
ATOM     14  O   UNL A   1      33.669  25.569  21.403  1.00  0.00    -0.274 OA
BRANCH  12  15
ATOM     15  C   UNL A   1      33.212  22.950  23.258  1.00  0.00     0.044 A 
ATOM     16  C   UNL A   1      34.417  22.607  25.429  1.00  0.00     0.047 C 
ATOM     17  C   UNL A   1      33.480  22.106  24.360  1.00  0.00    -0.015 A 
ATOM     18  C   UNL A   1      32.927  20.807  24.358  1.00  0.00     0.045 A 
ATOM     19  C   UNL A   1      32.478  22.494  22.161  1.00  0.00     0.026 A 
ATOM     20  C   UNL A   1      32.264  20.348  23.200  1.00  0.00     0.014 A 
ATOM     21  C   UNL A   1      32.055  21.177  22.103  1.00  0.00     0.003 A 
BRANCH  18  22
ATOM     22  C   UNL A   1      33.153  19.766  25.409  1.00  0.00     0.254 C 
ATOM     23  O   UNL A   1      33.004  20.093  26.586  1.00  0.00    -0.269 OA
ATOM     24  N   UNL A   1      33.403  18.449  25.062  1.00  0.00    -0.334 N 
ATOM     25  C   UNL A   1      34.430  17.988  24.120  1.00  0.00     0.148 C 
ATOM     26  C   UNL A   1      32.891  17.416  25.953  1.00  0.00     0.148 C 
ATOM     27  C   UNL A   1      34.036  16.659  23.442  1.00  0.00     0.181 C 
ATOM     28  C   UNL A   1      32.435  16.213  25.131  1.00  0.00     0.181 C 
ATOM     29  O   UNL A   1      33.538  15.688  24.376  1.00  0.00    -0.378 OA
ENDBRANCH  18  22
ENDBRANCH  12  15
ENDBRANCH   6  11
ENDBRANCH   3   5
ENDBRANCH   2   3
ENDBRANCH   1   2
BRANCH   1  30
ATOM     30  C   UNL A   1      34.402  28.838  27.152  1.00  0.00     0.275 C 
BRANCH  30  31
ATOM     31  O   UNL A   1      34.856  29.986  27.948  1.00  0.00    -0.458 OA
BRANCH  31  32
ATOM     32  C   UNL A   1      36.050  30.631  28.014  1.00  0.00     0.338 C 
ATOM     33  O   UNL A   1      36.136  31.849  27.881  1.00  0.00    -0.246 OA
BRANCH  32  34
ATOM     34  C   UNL A   1      37.266  29.847  28.297  1.00  0.00     0.060 A 
ATOM     35  C   UNL A   1      37.384  29.068  29.470  1.00  0.00     0.016 A 
ATOM     36  C   UNL A   1      38.239  29.793  27.321  1.00  0.00     0.016 A 
ATOM     37  C   UNL A   1      38.411  28.128  29.587  1.00  0.00     0.010 A 
ATOM     38  C   UNL A   1      39.101  28.732  27.331  1.00  0.00     0.010 A 
ATOM     39  C   UNL A   1      39.242  27.939  28.484  1.00  0.00    -0.014 A 
BRANCH  39  40
ATOM     40  C   UNL A   1      40.498  27.202  28.501  1.00  0.00     0.031 A 
ATOM     41  C   UNL A   1      40.618  25.756  28.243  1.00  0.00     0.074 A 
ATOM     42  C   UNL A   1      41.539  28.054  28.668  1.00  0.00     0.049 A 
ATOM     43  N   UNL A   1      41.573  25.038  28.727  1.00  0.00    -0.248 NA
ATOM     44  C   UNL A   1      39.697  24.961  27.431  1.00  0.00     0.031 C 
ATOM     45  C   UNL A   1      42.972  27.897  28.554  1.00  0.00     0.029 A 
ATOM     46  N   UNL A   1      41.401  29.379  29.142  1.00  0.00    -0.354 N 
ATOM     47  C   UNL A   1      41.601  23.851  28.020  1.00  0.00     0.074 A 
ATOM     48  C   UNL A   1      40.340  23.786  27.333  1.00  0.00     0.031 C 
ATOM     49  C   UNL A   1      43.559  28.881  29.270  1.00  0.00     0.029 A 
ATOM     50  C   UNL A   1      42.500  29.623  29.953  1.00  0.00     0.049 A 
ATOM     51  H   UNL A   1      40.669  30.004  28.938  1.00  0.00     0.167 HD
ATOM     52  C   UNL A   1      42.780  23.168  27.941  1.00  0.00     0.037 A 
ATOM     53  C   UNL A   1      42.269  29.702  31.294  1.00  0.00     0.037 A 
ATOM     54  C   UNL A   1      43.804  23.881  28.696  1.00  0.00     0.049 A 
ATOM     55  C   UNL A   1      42.975  28.569  31.986  1.00  0.00     0.074 A 
ATOM     56  C   UNL A   1      44.739  24.821  28.298  1.00  0.00     0.029 A 
ATOM     57  N   UNL A   1      43.665  24.015  30.072  1.00  0.00    -0.354 N 
ATOM     58  N   UNL A   1      43.114  27.374  31.480  1.00  0.00    -0.248 NA
ATOM     59  C   UNL A   1      43.668  28.747  33.252  1.00  0.00     0.031 C 
ATOM     60  C   UNL A   1      45.120  25.568  29.439  1.00  0.00     0.029 A 
ATOM     61  C   UNL A   1      44.412  25.085  30.526  1.00  0.00     0.049 A 
ATOM     62  H   UNL A   1      43.114  23.431  30.642  1.00  0.00     0.167 HD
ATOM     63  C   UNL A   1      43.983  26.664  32.267  1.00  0.00     0.074 A 
ATOM     64  C   UNL A   1      44.277  27.557  33.375  1.00  0.00     0.031 C 
ATOM     65  C   UNL A   1      44.450  25.423  31.936  1.00  0.00     0.037 A 
BRANCH  52  66
ATOM     66  C   UNL A   1      43.100  22.073  26.949  1.00  0.00     0.064 A 
ATOM     67  C   UNL A   1      42.431  20.827  27.010  1.00  0.00     0.173 A 
ATOM     68  C   UNL A   1      44.041  22.190  25.910  1.00  0.00     0.173 A 
ATOM     69  F   UNL A   1      41.485  20.579  27.924  1.00  0.00    -0.203 F 
ATOM     70  C   UNL A   1      42.711  19.771  26.140  1.00  0.00     0.198 A 
ATOM     71  C   UNL A   1      44.336  21.120  25.048  1.00  0.00     0.198 A 
ATOM     72  F   UNL A   1      44.677  23.348  25.682  1.00  0.00    -0.203 F 
ATOM     73  F   UNL A   1      42.041  18.615  26.262  1.00  0.00    -0.200 F 
ATOM     74  C   UNL A   1      43.673  19.912  25.165  1.00  0.00     0.200 A 
ATOM     75  F   UNL A   1      45.268  21.271  24.096  1.00  0.00    -0.200 F 
ATOM     76  F   UNL A   1      43.949  18.895  24.338  1.00  0.00    -0.200 F 
ENDBRANCH  52  66
BRANCH  53  77
ATOM     77  C   UNL A   1      40.920  30.262  31.676  1.00  0.00     0.064 A 
ATOM     78  C   UNL A   1      39.946  29.393  32.229  1.00  0.00     0.173 A 
ATOM     79  C   UNL A   1      40.637  31.632  31.748  1.00  0.00     0.173 A 
ATOM     80  F   UNL A   1      40.136  28.062  32.199  1.00  0.00    -0.203 F 
ATOM     81  C   UNL A   1      38.817  29.867  32.901  1.00  0.00     0.198 A 
ATOM     82  C   UNL A   1      39.485  32.105  32.397  1.00  0.00     0.198 A 
ATOM     83  F   UNL A   1      41.496  32.531  31.251  1.00  0.00    -0.203 F 
ATOM     84  F   UNL A   1      37.992  29.005  33.515  1.00  0.00    -0.200 F 
ATOM     85  C   UNL A   1      38.591  31.226  32.989  1.00  0.00     0.200 A 
ATOM     86  F   UNL A   1      39.279  33.425  32.514  1.00  0.00    -0.200 F 
ATOM     87  F   UNL A   1      37.540  31.692  33.680  1.00  0.00    -0.200 F 
ENDBRANCH  53  77
BRANCH  65  88
ATOM     88  C   UNL A   1      45.122  24.457  32.877  1.00  0.00     0.064 A 
ATOM     89  C   UNL A   1      46.397  24.669  33.422  1.00  0.00     0.173 A 
ATOM     90  C   UNL A   1      44.417  23.342  33.397  1.00  0.00     0.173 A 
ATOM     91  F   UNL A   1      47.108  25.768  33.139  1.00  0.00    -0.203 F 
ATOM     92  C   UNL A   1      46.963  23.783  34.338  1.00  0.00     0.198 A 
ATOM     93  C   UNL A   1      44.952  22.511  34.377  1.00  0.00     0.198 A 
ATOM     94  F   UNL A   1      43.172  23.038  33.005  1.00  0.00    -0.203 F 
ATOM     95  F   UNL A   1      48.213  23.996  34.772  1.00  0.00    -0.200 F 
ATOM     96  C   UNL A   1      46.237  22.715  34.827  1.00  0.00     0.200 A 
ATOM     97  F   UNL A   1      44.202  21.529  34.896  1.00  0.00    -0.200 F 
ATOM     98  F   UNL A   1      46.765  21.902  35.749  1.00  0.00    -0.200 F 
ENDBRANCH  65  88
ENDBRANCH  39  40
ENDBRANCH  32  34
ENDBRANCH  31  32
ENDBRANCH  30  31
ENDBRANCH   1  30
TORSDOF 14
ENDMDL
MODEL 2
REMARK VINA RESULT:     -14.3      3.907     10.518
REMARK SMILES Cc1c(NC(=O)[C@@H]2CC=CC[C@@H]2C(=O)OCCOC(=O)c2ccc(-c3c4nc(c(-c5c(F)c(F)c(F)c(F)c5F)c5ccc([nH]5)c(-c5c(F)c(F)c(F)c(F)c5F)c5nc(c(-c6c(F)c(F)c(F)c(F)c6F)c6ccc3[nH]6)C=C5)C=C4)cc2)cccc1C(=O)N1CCOCC1
REMARK SMILES IDX 16 1 15 2 13 3 14 4 12 5 7 6 8 7 9 8 11 9 10 10 5 11 4 12
REMARK SMILES IDX 6 14 3 15 1 16 2 17 87 18 84 19 86 20 85 21 88 22 89 23
REMARK SMILES IDX 90 24 91 25 95 26 92 27 94 28 93 29 17 30 18 31 19 32 20 33
REMARK SMILES IDX 21 34 22 35 83 36 23 37 82 38 24 39 25 40 26 41 76 42 27 43
REMARK SMILES IDX 81 44 75 45 77 46 28 47 80 48 74 49 73 50 29 52 61 53 41 54
REMARK SMILES IDX 60 55 42 56 45 57 59 58 78 59 43 60 44 61 58 63 79 64 46 65
REMARK SMILES IDX 30 66 31 67 39 68 32 69 33 70 37 71 40 72 34 73 35 74 38 75
REMARK SMILES IDX 36 76 62 77 63 78 71 79 64 80 65 81 69 82 72 83 66 84 67 85
REMARK SMILES IDX 70 86 68 87 47 88 48 89 56 90 49 91 50 92 54 93 57 94 51 95
REMARK SMILES IDX 52 96 55 97 53 98
REMARK H PARENT 4 13 77 51 45 62
REMARK Flexibility Score: inf
ROOT
ATOM      1  C   UNL A   1      36.503  23.518  24.852  1.00  0.00     0.274 C 
ENDROOT
BRANCH   1   2
ATOM      2  O   UNL A   1      35.307  22.802  25.144  1.00  0.00    -0.462 OA
BRANCH   2   3
ATOM      3  C   UNL A   1      34.238  23.556  25.481  1.00  0.00     0.310 C 
ATOM      4  O   UNL A   1      34.095  24.099  26.567  1.00  0.00    -0.252 OA
BRANCH   3   5
ATOM      5  C   UNL A   1      33.169  23.591  24.407  1.00  0.00     0.116 C 
ATOM      6  C   UNL A   1      31.834  23.281  25.079  1.00  0.00     0.097 C 
ATOM      7  C   UNL A   1      31.810  21.872  25.669  1.00  0.00     0.041 C 
ATOM      8  C   UNL A   1      32.285  20.871  24.645  1.00  0.00    -0.030 C 
ATOM      9  C   UNL A   1      33.370  22.631  23.230  1.00  0.00     0.043 C 
ATOM     10  C   UNL A   1      32.956  21.219  23.533  1.00  0.00    -0.030 C 
BRANCH   6  11
ATOM     11  C   UNL A   1      31.540  24.370  26.080  1.00  0.00     0.228 C 
ATOM     12  N   UNL A   1      31.798  25.659  25.656  1.00  0.00    -0.326 N 
ATOM     13  H   UNL A   1      32.613  26.139  25.929  1.00  0.00     0.169 HD
ATOM     14  O   UNL A   1      31.213  24.154  27.244  1.00  0.00    -0.274 OA
BRANCH  12  15
ATOM     15  C   UNL A   1      30.829  26.258  24.808  1.00  0.00     0.044 A 
ATOM     16  C   UNL A   1      32.588  27.951  24.245  1.00  0.00     0.047 C 
ATOM     17  C   UNL A   1      31.198  27.401  24.063  1.00  0.00    -0.015 A 
ATOM     18  C   UNL A   1      30.218  28.018  23.255  1.00  0.00     0.045 A 
ATOM     19  C   UNL A   1      29.514  25.787  24.805  1.00  0.00     0.026 A 
ATOM     20  C   UNL A   1      28.882  27.571  23.339  1.00  0.00     0.014 A 
ATOM     21  C   UNL A   1      28.528  26.476  24.120  1.00  0.00     0.003 A 
BRANCH  18  22
ATOM     22  C   UNL A   1      30.416  29.263  22.449  1.00  0.00     0.254 C 
ATOM     23  O   UNL A   1      31.325  29.273  21.618  1.00  0.00    -0.269 OA
ATOM     24  N   UNL A   1      29.530  30.322  22.548  1.00  0.00    -0.334 N 
ATOM     25  C   UNL A   1      29.104  30.974  23.793  1.00  0.00     0.148 C 
ATOM     26  C   UNL A   1      29.286  31.102  21.342  1.00  0.00     0.148 C 
ATOM     27  C   UNL A   1      27.693  31.586  23.670  1.00  0.00     0.181 C 
ATOM     28  C   UNL A   1      27.824  31.540  21.304  1.00  0.00     0.181 C 
ATOM     29  O   UNL A   1      27.521  32.339  22.459  1.00  0.00    -0.378 OA
ENDBRANCH  18  22
ENDBRANCH  12  15
ENDBRANCH   6  11
ENDBRANCH   3   5
ENDBRANCH   2   3
ENDBRANCH   1   2
BRANCH   1  30
ATOM     30  C   UNL A   1      37.428  23.493  26.071  1.00  0.00     0.275 C 
BRANCH  30  31
ATOM     31  O   UNL A   1      38.749  24.127  25.967  1.00  0.00    -0.458 OA
BRANCH  31  32
ATOM     32  C   UNL A   1      39.656  24.497  26.908  1.00  0.00     0.338 C 
ATOM     33  O   UNL A   1      40.683  23.854  27.105  1.00  0.00    -0.246 OA
BRANCH  32  34
ATOM     34  C   UNL A   1      39.415  25.729  27.681  1.00  0.00     0.060 A 
ATOM     35  C   UNL A   1      39.041  25.684  29.043  1.00  0.00     0.016 A 
ATOM     36  C   UNL A   1      39.690  26.935  27.071  1.00  0.00     0.016 A 
ATOM     37  C   UNL A   1      39.087  26.844  29.820  1.00  0.00     0.010 A 
ATOM     38  C   UNL A   1      39.951  28.015  27.868  1.00  0.00     0.010 A 
ATOM     39  C   UNL A   1      39.589  28.001  29.227  1.00  0.00    -0.014 A 
BRANCH  39  40
ATOM     40  C   UNL A   1      39.483  29.341  29.787  1.00  0.00     0.031 A 
ATOM     41  C   UNL A   1      38.451  30.322  29.406  1.00  0.00     0.074 A 
ATOM     42  C   UNL A   1      40.389  29.507  30.781  1.00  0.00     0.049 A 
ATOM     43  N   UNL A   1      38.632  31.595  29.495  1.00  0.00    -0.248 NA
ATOM     44  C   UNL A   1      37.121  29.996  28.890  1.00  0.00     0.031 C 
ATOM     45  C   UNL A   1      40.577  30.531  31.785  1.00  0.00     0.029 A 
ATOM     46  N   UNL A   1      41.507  28.664  30.973  1.00  0.00    -0.354 N 
ATOM     47  C   UNL A   1      37.392  32.199  29.418  1.00  0.00     0.074 A 
ATOM     48  C   UNL A   1      36.508  31.190  28.899  1.00  0.00     0.031 C 
ATOM     49  C   UNL A   1      41.861  30.477  32.202  1.00  0.00     0.029 A 
ATOM     50  C   UNL A   1      42.550  29.482  31.382  1.00  0.00     0.049 A 
ATOM     51  H   UNL A   1      41.540  27.689  30.842  1.00  0.00     0.167 HD
ATOM     52  C   UNL A   1      37.226  33.422  30.001  1.00  0.00     0.037 A 
ATOM     53  C   UNL A   1      43.555  29.693  30.484  1.00  0.00     0.037 A 
ATOM     54  C   UNL A   1      38.488  33.854  30.587  1.00  0.00     0.049 A 
ATOM     55  C   UNL A   1      43.580  31.147  30.103  1.00  0.00     0.074 A 
ATOM     56  C   UNL A   1      38.991  33.713  31.869  1.00  0.00     0.029 A 
ATOM     57  N   UNL A   1      39.575  34.100  29.758  1.00  0.00    -0.354 N 
ATOM     58  N   UNL A   1      42.515  31.893  29.985  1.00  0.00    -0.248 NA
ATOM     59  C   UNL A   1      44.824  31.882  29.938  1.00  0.00     0.031 C 
ATOM     60  C   UNL A   1      40.402  33.815  31.798  1.00  0.00     0.029 A 
ATOM     61  C   UNL A   1      40.753  34.012  30.473  1.00  0.00     0.049 A 
ATOM     62  H   UNL A   1      39.514  34.307  28.797  1.00  0.00     0.167 HD
ATOM     63  C   UNL A   1      42.909  33.198  29.842  1.00  0.00     0.074 A 
ATOM     64  C   UNL A   1      44.360  33.133  29.791  1.00  0.00     0.031 C 
ATOM     65  C   UNL A   1      42.034  34.247  29.834  1.00  0.00     0.037 A 
BRANCH  52  66
ATOM     66  C   UNL A   1      35.899  34.068  30.331  1.00  0.00     0.064 A 
ATOM     67  C   UNL A   1      35.045  34.528  29.300  1.00  0.00     0.173 A 
ATOM     68  C   UNL A   1      35.406  34.252  31.635  1.00  0.00     0.173 A 
ATOM     69  F   UNL A   1      35.364  34.392  28.007  1.00  0.00    -0.203 F 
ATOM     70  C   UNL A   1      33.826  35.162  29.550  1.00  0.00     0.198 A 
ATOM     71  C   UNL A   1      34.188  34.907  31.886  1.00  0.00     0.198 A 
ATOM     72  F   UNL A   1      36.071  33.778  32.698  1.00  0.00    -0.203 F 
ATOM     73  F   UNL A   1      33.071  35.578  28.521  1.00  0.00    -0.200 F 
ATOM     74  C   UNL A   1      33.401  35.363  30.844  1.00  0.00     0.200 A 
ATOM     75  F   UNL A   1      33.779  35.089  33.150  1.00  0.00    -0.200 F 
ATOM     76  F   UNL A   1      32.237  35.980  31.083  1.00  0.00    -0.200 F 
ENDBRANCH  52  66
BRANCH  53  77
ATOM     77  C   UNL A   1      43.832  28.535  29.556  1.00  0.00     0.064 A 
ATOM     78  C   UNL A   1      44.328  27.322  30.099  1.00  0.00     0.173 A 
ATOM     79  C   UNL A   1      43.407  28.486  28.222  1.00  0.00     0.173 A 
ATOM     80  F   UNL A   1      44.760  27.281  31.371  1.00  0.00    -0.203 F 
ATOM     81  C   UNL A   1      44.303  26.120  29.388  1.00  0.00     0.198 A 
ATOM     82  C   UNL A   1      43.413  27.283  27.499  1.00  0.00     0.198 A 
ATOM     83  F   UNL A   1      42.925  29.582  27.621  1.00  0.00    -0.203 F 
ATOM     84  F   UNL A   1      44.667  24.978  29.990  1.00  0.00    -0.200 F 
ATOM     85  C   UNL A   1      43.839  26.101  28.087  1.00  0.00     0.200 A 
ATOM     86  F   UNL A   1      42.931  27.253  26.247  1.00  0.00    -0.200 F 
ATOM     87  F   UNL A   1      43.759  24.943  27.416  1.00  0.00    -0.200 F 
ENDBRANCH  53  77
BRANCH  65  88
ATOM     88  C   UNL A   1      42.340  35.644  29.357  1.00  0.00     0.064 A 
ATOM     89  C   UNL A   1      43.204  36.519  30.031  1.00  0.00     0.173 A 
ATOM     90  C   UNL A   1      41.888  36.092  28.090  1.00  0.00     0.173 A 
ATOM     91  F   UNL A   1      43.828  36.160  31.160  1.00  0.00    -0.203 F 
ATOM     92  C   UNL A   1      43.512  37.782  29.528  1.00  0.00     0.198 A 
ATOM     93  C   UNL A   1      42.270  37.317  27.552  1.00  0.00     0.198 A 
ATOM     94  F   UNL A   1      41.092  35.346  27.310  1.00  0.00    -0.203 F 
ATOM     95  F   UNL A   1      44.286  38.606  30.248  1.00  0.00    -0.200 F 
ATOM     96  C   UNL A   1      43.059  38.175  28.283  1.00  0.00     0.200 A 
ATOM     97  F   UNL A   1      41.885  37.645  26.310  1.00  0.00    -0.200 F 
ATOM     98  F   UNL A   1      43.405  39.366  27.781  1.00  0.00    -0.200 F 
ENDBRANCH  65  88
ENDBRANCH  39  40
ENDBRANCH  32  34
ENDBRANCH  31  32
ENDBRANCH  30  31
ENDBRANCH   1  30
TORSDOF 14
ENDMDL
MODEL 3
REMARK VINA RESULT:     -14.2      3.798     10.411
REMARK SMILES Cc1c(NC(=O)[C@@H]2CC=CC[C@@H]2C(=O)OCCOC(=O)c2ccc(-c3c4nc(c(-c5c(F)c(F)c(F)c(F)c5F)c5ccc([nH]5)c(-c5c(F)c(F)c(F)c(F)c5F)c5nc(c(-c6c(F)c(F)c(F)c(F)c6F)c6ccc3[nH]6)C=C5)C=C4)cc2)cccc1C(=O)N1CCOCC1
REMARK SMILES IDX 16 1 15 2 13 3 14 4 12 5 7 6 8 7 9 8 11 9 10 10 5 11 4 12
REMARK SMILES IDX 6 14 3 15 1 16 2 17 87 18 84 19 86 20 85 21 88 22 89 23
REMARK SMILES IDX 90 24 91 25 95 26 92 27 94 28 93 29 17 30 18 31 19 32 20 33
REMARK SMILES IDX 21 34 22 35 83 36 23 37 82 38 24 39 25 40 26 41 76 42 27 43
REMARK SMILES IDX 81 44 75 45 77 46 28 47 80 48 74 49 73 50 29 52 61 53 41 54
REMARK SMILES IDX 60 55 42 56 45 57 59 58 78 59 43 60 44 61 58 63 79 64 46 65
REMARK SMILES IDX 30 66 31 67 39 68 32 69 33 70 37 71 40 72 34 73 35 74 38 75
REMARK SMILES IDX 36 76 62 77 63 78 71 79 64 80 65 81 69 82 72 83 66 84 67 85
REMARK SMILES IDX 70 86 68 87 47 88 48 89 56 90 49 91 50 92 54 93 57 94 51 95
REMARK SMILES IDX 52 96 55 97 53 98
REMARK H PARENT 4 13 77 51 45 62
REMARK Flexibility Score: inf
ROOT
ATOM      1  C   UNL A   1      37.766  21.794  25.426  1.00  0.00     0.274 C 
ENDROOT
BRANCH   1   2
ATOM      2  O   UNL A   1      36.363  21.650  25.233  1.00  0.00    -0.462 OA
BRANCH   2   3
ATOM      3  C   UNL A   1      35.866  22.204  24.105  1.00  0.00     0.310 C 
ATOM      4  O   UNL A   1      36.552  22.593  23.171  1.00  0.00    -0.252 OA
BRANCH   3   5
ATOM      5  C   UNL A   1      34.363  22.393  24.145  1.00  0.00     0.116 C 
ATOM      6  C   UNL A   1      34.049  23.339  25.300  1.00  0.00     0.097 C 
ATOM      7  C   UNL A   1      34.445  22.738  26.648  1.00  0.00     0.041 C 
ATOM      8  C   UNL A   1      33.902  21.336  26.773  1.00  0.00    -0.030 C 
ATOM      9  C   UNL A   1      33.531  21.116  24.304  1.00  0.00     0.043 C 
ATOM     10  C   UNL A   1      33.460  20.623  25.722  1.00  0.00    -0.030 C 
BRANCH   6  11
ATOM     11  C   UNL A   1      34.689  24.673  25.011  1.00  0.00     0.228 C 
ATOM     12  N   UNL A   1      34.006  25.488  24.131  1.00  0.00    -0.326 N 
ATOM     13  H   UNL A   1      34.275  25.571  23.189  1.00  0.00     0.169 HD
ATOM     14  O   UNL A   1      35.805  24.994  25.414  1.00  0.00    -0.274 OA
BRANCH  12  15
ATOM     15  C   UNL A   1      32.894  26.201  24.654  1.00  0.00     0.044 A 
ATOM     16  C   UNL A   1      31.662  25.496  22.589  1.00  0.00     0.047 C 
ATOM     17  C   UNL A   1      31.688  26.208  23.916  1.00  0.00    -0.015 A 
ATOM     18  C   UNL A   1      30.601  26.955  24.420  1.00  0.00     0.045 A 
ATOM     19  C   UNL A   1      33.036  26.966  25.814  1.00  0.00     0.026 A 
ATOM     20  C   UNL A   1      30.801  27.782  25.544  1.00  0.00     0.014 A 
ATOM     21  C   UNL A   1      32.013  27.803  26.227  1.00  0.00     0.003 A 
BRANCH  18  22
ATOM     22  C   UNL A   1      29.276  27.119  23.744  1.00  0.00     0.254 C 
ATOM     23  O   UNL A   1      28.428  26.243  23.914  1.00  0.00    -0.269 OA
ATOM     24  N   UNL A   1      28.972  28.279  23.051  1.00  0.00    -0.334 N 
ATOM     25  C   UNL A   1      29.793  28.894  22.000  1.00  0.00     0.148 C 
ATOM     26  C   UNL A   1      27.585  28.725  23.074  1.00  0.00     0.148 C 
ATOM     27  C   UNL A   1      29.583  30.421  21.924  1.00  0.00     0.181 C 
ATOM     28  C   UNL A   1      27.539  30.250  23.112  1.00  0.00     0.181 C 
ATOM     29  O   UNL A   1      28.195  30.790  21.954  1.00  0.00    -0.378 OA
ENDBRANCH  18  22
ENDBRANCH  12  15
ENDBRANCH   6  11
ENDBRANCH   3   5
ENDBRANCH   2   3
ENDBRANCH   1   2
BRANCH   1  30
ATOM     30  C   UNL A   1      38.055  23.129  26.117  1.00  0.00     0.275 C 
BRANCH  30  31
ATOM     31  O   UNL A   1      39.363  23.323  26.757  1.00  0.00    -0.458 OA
BRANCH  31  32
ATOM     32  C   UNL A   1      40.249  24.353  26.721  1.00  0.00     0.338 C 
ATOM     33  O   UNL A   1      41.283  24.294  26.063  1.00  0.00    -0.246 OA
BRANCH  32  34
ATOM     34  C   UNL A   1      39.931  25.589  27.458  1.00  0.00     0.060 A 
ATOM     35  C   UNL A   1      39.298  25.552  28.721  1.00  0.00     0.016 A 
ATOM     36  C   UNL A   1      40.384  26.784  26.938  1.00  0.00     0.016 A 
ATOM     37  C   UNL A   1      39.256  26.699  29.517  1.00  0.00     0.010 A 
ATOM     38  C   UNL A   1      40.544  27.838  27.793  1.00  0.00     0.010 A 
ATOM     39  C   UNL A   1      39.926  27.831  29.056  1.00  0.00    -0.014 A 
BRANCH  39  40
ATOM     40  C   UNL A   1      39.786  29.170  29.613  1.00  0.00     0.031 A 
ATOM     41  C   UNL A   1      38.732  30.126  29.228  1.00  0.00     0.074 A 
ATOM     42  C   UNL A   1      40.686  29.359  30.609  1.00  0.00     0.049 A 
ATOM     43  N   UNL A   1      38.883  31.402  29.315  1.00  0.00    -0.248 NA
ATOM     44  C   UNL A   1      37.412  29.767  28.709  1.00  0.00     0.031 C 
ATOM     45  C   UNL A   1      40.847  30.389  31.612  1.00  0.00     0.029 A 
ATOM     46  N   UNL A   1      41.824  28.543  30.806  1.00  0.00    -0.354 N 
ATOM     47  C   UNL A   1      37.629  31.977  29.233  1.00  0.00     0.074 A 
ATOM     48  C   UNL A   1      36.770  30.946  28.715  1.00  0.00     0.031 C 
ATOM     49  C   UNL A   1      42.132  30.366  32.032  1.00  0.00     0.029 A 
ATOM     50  C   UNL A   1      42.846  29.386  31.215  1.00  0.00     0.049 A 
ATOM     51  H   UNL A   1      41.879  27.569  30.676  1.00  0.00     0.167 HD
ATOM     52  C   UNL A   1      37.433  33.197  29.814  1.00  0.00     0.037 A 
ATOM     53  C   UNL A   1      43.847  29.619  30.319  1.00  0.00     0.037 A 
ATOM     54  C   UNL A   1      38.683  33.660  30.402  1.00  0.00     0.049 A 
ATOM     55  C   UNL A   1      43.839  31.073  29.935  1.00  0.00     0.074 A 
ATOM     56  C   UNL A   1      39.187  33.534  31.686  1.00  0.00     0.029 A 
ATOM     57  N   UNL A   1      39.766  33.930  29.574  1.00  0.00    -0.354 N 
ATOM     58  N   UNL A   1      42.757  31.793  29.813  1.00  0.00    -0.248 NA
ATOM     59  C   UNL A   1      45.066  31.837  29.771  1.00  0.00     0.031 C 
ATOM     60  C   UNL A   1      40.595  33.669  31.618  1.00  0.00     0.029 A 
ATOM     61  C   UNL A   1      40.944  33.871  30.293  1.00  0.00     0.049 A 
ATOM     62  H   UNL A   1      39.703  34.134  28.613  1.00  0.00     0.167 HD
ATOM     63  C   UNL A   1      43.120  33.107  29.668  1.00  0.00     0.074 A 
ATOM     64  C   UNL A   1      44.573  33.076  29.621  1.00  0.00     0.031 C 
ATOM     65  C   UNL A   1      42.221  34.135  29.656  1.00  0.00     0.037 A 
BRANCH  52  66
ATOM     66  C   UNL A   1      36.090  33.812  30.139  1.00  0.00     0.064 A 
ATOM     67  C   UNL A   1      35.233  34.260  29.106  1.00  0.00     0.173 A 
ATOM     68  C   UNL A   1      35.585  33.976  31.442  1.00  0.00     0.173 A 
ATOM     69  F   UNL A   1      35.563  34.140  27.815  1.00  0.00    -0.203 F 
ATOM     70  C   UNL A   1      33.999  34.866  29.352  1.00  0.00     0.198 A 
ATOM     71  C   UNL A   1      34.352  34.603  31.689  1.00  0.00     0.198 A 
ATOM     72  F   UNL A   1      36.254  33.510  32.505  1.00  0.00    -0.203 F 
ATOM     73  F   UNL A   1      33.242  35.273  28.322  1.00  0.00    -0.200 F 
ATOM     74  C   UNL A   1      33.562  35.049  30.645  1.00  0.00     0.200 A 
ATOM     75  F   UNL A   1      33.931  34.769  32.951  1.00  0.00    -0.200 F 
ATOM     76  F   UNL A   1      32.383  35.640  30.881  1.00  0.00    -0.200 F 
ENDBRANCH  52  66
BRANCH  53  77
ATOM     77  C   UNL A   1      44.154  28.467  29.394  1.00  0.00     0.064 A 
ATOM     78  C   UNL A   1      43.867  28.599  28.012  1.00  0.00     0.173 A 
ATOM     79  C   UNL A   1      44.929  27.358  29.760  1.00  0.00     0.173 A 
ATOM     80  F   UNL A   1      43.127  29.631  27.573  1.00  0.00    -0.203 F 
ATOM     81  C   UNL A   1      44.405  27.739  27.052  1.00  0.00     0.198 A 
ATOM     82  C   UNL A   1      45.442  26.477  28.796  1.00  0.00     0.198 A 
ATOM     83  F   UNL A   1      45.251  27.148  31.044  1.00  0.00    -0.203 F 
ATOM     84  F   UNL A   1      44.205  27.981  25.747  1.00  0.00    -0.200 F 
ATOM     85  C   UNL A   1      45.199  26.679  27.446  1.00  0.00     0.200 A 
ATOM     86  F   UNL A   1      46.241  25.467  29.172  1.00  0.00    -0.200 F 
ATOM     87  F   UNL A   1      45.764  25.882  26.528  1.00  0.00    -0.200 F 
ENDBRANCH  53  77
BRANCH  65  88
ATOM     88  C   UNL A   1      42.494  35.538  29.177  1.00  0.00     0.064 A 
ATOM     89  C   UNL A   1      41.897  36.095  28.037  1.00  0.00     0.173 A 
ATOM     90  C   UNL A   1      43.260  36.436  29.963  1.00  0.00     0.173 A 
ATOM     91  F   UNL A   1      41.024  35.405  27.292  1.00  0.00    -0.203 F 
ATOM     92  C   UNL A   1      42.126  37.417  27.657  1.00  0.00     0.198 A 
ATOM     93  C   UNL A   1      43.412  37.778  29.627  1.00  0.00     0.198 A 
ATOM     94  F   UNL A   1      43.855  36.059  31.104  1.00  0.00    -0.203 F 
ATOM     95  F   UNL A   1      41.587  37.877  26.520  1.00  0.00    -0.200 F 
ATOM     96  C   UNL A   1      42.869  38.262  28.458  1.00  0.00     0.200 A 
ATOM     97  F   UNL A   1      44.070  38.599  30.458  1.00  0.00    -0.200 F 
ATOM     98  F   UNL A   1      43.038  39.545  28.117  1.00  0.00    -0.200 F 
ENDBRANCH  65  88
ENDBRANCH  39  40
ENDBRANCH  32  34
ENDBRANCH  31  32
ENDBRANCH  30  31
ENDBRANCH   1  30
TORSDOF 14
ENDMDL
