MODEL 1
REMARK VINA RESULT:     -13.1      0.000      0.000
REMARK SMILES COc1ccc(N2C(=O)/C(=C/c3c(C(=O)OCCOC(=O)c4ccc(-c5c6nc(c(-c7c(F)c(F)c(F)c(F)c7F)c7ccc([nH]7)c(-c7c(F)c(F)c(F)c(F)c7F)c7nc(c(-c8c(F)c(F)c(F)c(F)c8F)c8ccc5[nH]8)C=C7)C=C6)cc4)[nH]c4cc(OC)ccc34)SC2=S)cc1
REMARK SMILES IDX 17 1 16 2 14 3 15 4 13 5 12 6 93 7 85 8 86 9 92 10 87 12
REMARK SMILES IDX 91 13 88 14 11 15 7 16 8 17 95 18 9 19 10 20 94 21 96 22
REMARK SMILES IDX 6 23 3 24 4 25 98 26 5 27 97 28 2 29 1 30 89 31 90 32 18 33
REMARK SMILES IDX 19 34 20 35 21 36 22 37 23 38 84 39 24 40 83 41 25 42 26 43
REMARK SMILES IDX 27 44 77 45 28 46 82 47 76 48 78 49 29 50 81 51 75 52 74 53
REMARK SMILES IDX 30 55 62 56 42 57 61 58 43 59 46 60 60 61 79 62 44 63 45 64
REMARK SMILES IDX 59 66 80 67 47 68 31 69 32 70 40 71 33 72 34 73 38 74 41 75
REMARK SMILES IDX 35 76 36 77 39 78 37 79 63 80 64 81 72 82 65 83 66 84 70 85
REMARK SMILES IDX 73 86 67 87 68 88 71 89 69 90 48 91 49 92 57 93 50 94 51 95
REMARK SMILES IDX 55 96 58 97 52 98 53 99 56 100 54 101
REMARK H PARENT 85 11 78 54 46 65
REMARK Flexibility Score: inf
ROOT
ATOM      1  C   UNL A   1      33.829  28.083  24.871  1.00  0.00     0.275 C 
ENDROOT
BRANCH   1   2
ATOM      2  O   UNL A   1      34.257  28.908  23.767  1.00  0.00    -0.457 OA
BRANCH   2   3
ATOM      3  C   UNL A   1      33.824  28.480  22.550  1.00  0.00     0.355 C 
ATOM      4  O   UNL A   1      34.561  28.164  21.623  1.00  0.00    -0.244 OA
BRANCH   3   5
ATOM      5  C   UNL A   1      32.392  28.348  22.502  1.00  0.00     0.133 A 
ATOM      6  C   UNL A   1      31.527  27.260  22.534  1.00  0.00     0.016 A 
ATOM      7  C   UNL A   1      30.203  27.773  22.777  1.00  0.00     0.008 A 
ATOM      8  N   UNL A   1      31.593  29.455  22.396  1.00  0.00    -0.348 N 
ATOM      9  C   UNL A   1      30.299  29.161  22.704  1.00  0.00     0.050 A 
ATOM     10  C   UNL A   1      28.924  27.239  23.048  1.00  0.00     0.015 A 
ATOM     11  H   UNL A   1      31.913  30.347  22.132  1.00  0.00     0.167 HD
ATOM     12  C   UNL A   1      29.226  30.035  22.879  1.00  0.00     0.073 A 
ATOM     13  C   UNL A   1      27.830  28.111  23.270  1.00  0.00     0.047 A 
ATOM     14  C   UNL A   1      27.981  29.495  23.187  1.00  0.00     0.120 A 
BRANCH   6  15
ATOM     15  C   UNL A   1      31.945  25.921  22.246  1.00  0.00     0.032 C 
ATOM     16  N   UNL A   1      33.265  23.322  24.245  1.00  0.00    -0.261 N 
ATOM     17  C   UNL A   1      32.977  23.828  22.969  1.00  0.00     0.270 C 
ATOM     18  C   UNL A   1      32.363  23.696  25.242  1.00  0.00     0.152 C 
ATOM     19  O   UNL A   1      33.499  23.543  21.899  1.00  0.00    -0.268 OA
ATOM     20  C   UNL A   1      31.914  24.865  23.074  1.00  0.00     0.081 C 
ATOM     21  S   UNL A   1      31.060  24.662  24.538  1.00  0.00    -0.054 SA
ATOM     22  S   UNL A   1      32.401  23.505  26.906  1.00  0.00    -0.051 S 
BRANCH  16  23
ATOM     23  C   UNL A   1      34.453  22.527  24.452  1.00  0.00     0.051 A 
ATOM     24  C   UNL A   1      36.819  20.999  24.859  1.00  0.00     0.119 A 
ATOM     25  C   UNL A   1      36.896  22.358  24.579  1.00  0.00     0.048 A 
ATOM     26  C   UNL A   1      35.567  20.405  24.970  1.00  0.00     0.048 A 
ATOM     27  C   UNL A   1      35.730  23.110  24.372  1.00  0.00     0.030 A 
ATOM     28  C   UNL A   1      34.403  21.158  24.751  1.00  0.00     0.030 A 
BRANCH  24  29
ATOM     29  O   UNL A   1      38.014  20.355  25.019  1.00  0.00    -0.497 OA
ATOM     30  C   UNL A   1      39.024  21.105  25.690  1.00  0.00     0.278 C 
ENDBRANCH  24  29
ENDBRANCH  16  23
ENDBRANCH   6  15
BRANCH  14  31
ATOM     31  O   UNL A   1      27.011  30.444  23.361  1.00  0.00    -0.497 OA
ATOM     32  C   UNL A   1      27.432  31.768  23.651  1.00  0.00     0.278 C 
ENDBRANCH  14  31
ENDBRANCH   3   5
ENDBRANCH   2   3
ENDBRANCH   1   2
BRANCH   1  33
ATOM     33  C   UNL A   1      33.467  28.914  26.107  1.00  0.00     0.275 C 
BRANCH  33  34
ATOM     34  O   UNL A   1      34.461  28.815  27.149  1.00  0.00    -0.458 OA
BRANCH  34  35
ATOM     35  C   UNL A   1      34.832  29.991  27.694  1.00  0.00     0.338 C 
ATOM     36  O   UNL A   1      34.161  31.004  27.812  1.00  0.00    -0.246 OA
BRANCH  35  37
ATOM     37  C   UNL A   1      36.176  29.915  28.277  1.00  0.00     0.060 A 
ATOM     38  C   UNL A   1      37.271  30.147  27.441  1.00  0.00     0.016 A 
ATOM     39  C   UNL A   1      36.360  29.372  29.544  1.00  0.00     0.016 A 
ATOM     40  C   UNL A   1      38.535  29.719  27.809  1.00  0.00     0.010 A 
ATOM     41  C   UNL A   1      37.651  29.039  29.958  1.00  0.00     0.010 A 
ATOM     42  C   UNL A   1      38.742  29.175  29.078  1.00  0.00    -0.014 A 
BRANCH  42  43
ATOM     43  C   UNL A   1      40.092  28.716  29.473  1.00  0.00     0.031 A 
ATOM     44  C   UNL A   1      40.928  29.574  30.375  1.00  0.00     0.074 A 
ATOM     45  C   UNL A   1      40.560  27.536  29.028  1.00  0.00     0.049 A 
ATOM     46  N   UNL A   1      42.213  29.524  30.604  1.00  0.00    -0.248 NA
ATOM     47  C   UNL A   1      40.225  30.641  31.103  1.00  0.00     0.031 C 
ATOM     48  C   UNL A   1      39.807  26.574  28.220  1.00  0.00     0.029 A 
ATOM     49  N   UNL A   1      41.787  26.945  29.188  1.00  0.00    -0.354 N 
ATOM     50  C   UNL A   1      42.487  30.601  31.436  1.00  0.00     0.074 A 
ATOM     51  C   UNL A   1      41.229  31.268  31.701  1.00  0.00     0.031 C 
ATOM     52  C   UNL A   1      40.579  25.507  27.972  1.00  0.00     0.029 A 
ATOM     53  C   UNL A   1      41.909  25.758  28.512  1.00  0.00     0.049 A 
ATOM     54  H   UNL A   1      42.507  27.336  29.734  1.00  0.00     0.167 HD
ATOM     55  C   UNL A   1      43.690  30.999  31.910  1.00  0.00     0.037 A 
ATOM     56  C   UNL A   1      42.992  24.989  28.295  1.00  0.00     0.037 A 
ATOM     57  C   UNL A   1      44.915  30.280  31.678  1.00  0.00     0.049 A 
ATOM     58  C   UNL A   1      44.317  25.449  28.827  1.00  0.00     0.074 A 
ATOM     59  C   UNL A   1      46.199  30.595  32.086  1.00  0.00     0.029 A 
ATOM     60  N   UNL A   1      44.996  29.076  30.991  1.00  0.00    -0.354 N 
ATOM     61  N   UNL A   1      44.598  26.533  29.509  1.00  0.00    -0.248 NA
ATOM     62  C   UNL A   1      45.477  24.599  28.536  1.00  0.00     0.031 C 
ATOM     63  C   UNL A   1      47.059  29.588  31.632  1.00  0.00     0.029 A 
ATOM     64  C   UNL A   1      46.306  28.632  30.968  1.00  0.00     0.049 A 
ATOM     65  H   UNL A   1      44.233  28.608  30.582  1.00  0.00     0.167 HD
ATOM     66  C   UNL A   1      45.966  26.500  29.729  1.00  0.00     0.074 A 
ATOM     67  C   UNL A   1      46.455  25.275  29.126  1.00  0.00     0.031 C 
ATOM     68  C   UNL A   1      46.752  27.404  30.362  1.00  0.00     0.037 A 
BRANCH  55  69
ATOM     69  C   UNL A   1      43.746  32.293  32.665  1.00  0.00     0.064 A 
ATOM     70  C   UNL A   1      43.912  33.527  32.021  1.00  0.00     0.173 A 
ATOM     71  C   UNL A   1      43.618  32.293  34.062  1.00  0.00     0.173 A 
ATOM     72  F   UNL A   1      44.059  33.578  30.690  1.00  0.00    -0.203 F 
ATOM     73  C   UNL A   1      43.965  34.712  32.751  1.00  0.00     0.198 A 
ATOM     74  C   UNL A   1      43.651  33.481  34.788  1.00  0.00     0.198 A 
ATOM     75  F   UNL A   1      43.460  31.138  34.727  1.00  0.00    -0.203 F 
ATOM     76  F   UNL A   1      44.165  35.878  32.121  1.00  0.00    -0.200 F 
ATOM     77  C   UNL A   1      43.829  34.689  34.133  1.00  0.00     0.200 A 
ATOM     78  F   UNL A   1      43.513  33.457  36.121  1.00  0.00    -0.200 F 
ATOM     79  F   UNL A   1      43.882  35.832  34.832  1.00  0.00    -0.200 F 
ENDBRANCH  55  69
BRANCH  56  80
ATOM     80  C   UNL A   1      42.861  23.753  27.484  1.00  0.00     0.064 A 
ATOM     81  C   UNL A   1      43.185  23.749  26.122  1.00  0.00     0.173 A 
ATOM     82  C   UNL A   1      42.457  22.540  28.064  1.00  0.00     0.173 A 
ATOM     83  F   UNL A   1      43.556  24.887  25.519  1.00  0.00    -0.203 F 
ATOM     84  C   UNL A   1      43.109  22.578  25.370  1.00  0.00     0.198 A 
ATOM     85  C   UNL A   1      42.409  21.366  27.319  1.00  0.00     0.198 A 
ATOM     86  F   UNL A   1      42.140  22.492  29.367  1.00  0.00    -0.203 F 
ATOM     87  F   UNL A   1      43.400  22.605  24.062  1.00  0.00    -0.200 F 
ATOM     88  C   UNL A   1      42.732  21.386  25.971  1.00  0.00     0.200 A 
ATOM     89  F   UNL A   1      42.059  20.214  27.908  1.00  0.00    -0.200 F 
ATOM     90  F   UNL A   1      42.677  20.258  25.251  1.00  0.00    -0.200 F 
ENDBRANCH  56  80
BRANCH  68  91
ATOM     91  C   UNL A   1      48.210  27.085  30.447  1.00  0.00     0.064 A 
ATOM     92  C   UNL A   1      48.718  26.272  31.470  1.00  0.00     0.173 A 
ATOM     93  C   UNL A   1      49.097  27.564  29.474  1.00  0.00     0.173 A 
ATOM     94  F   UNL A   1      47.903  25.808  32.429  1.00  0.00    -0.203 F 
ATOM     95  C   UNL A   1      50.072  25.961  31.522  1.00  0.00     0.198 A 
ATOM     96  C   UNL A   1      50.448  27.236  29.520  1.00  0.00     0.198 A 
ATOM     97  F   UNL A   1      48.652  28.345  28.478  1.00  0.00    -0.203 F 
ATOM     98  F   UNL A   1      50.546  25.207  32.524  1.00  0.00    -0.200 F 
ATOM     99  C   UNL A   1      50.935  26.438  30.545  1.00  0.00     0.200 A 
ATOM    100  F   UNL A   1      51.281  27.693  28.575  1.00  0.00    -0.200 F 
ATOM    101  F   UNL A   1      52.239  26.134  30.596  1.00  0.00    -0.200 F 
ENDBRANCH  68  91
ENDBRANCH  42  43
ENDBRANCH  35  37
ENDBRANCH  34  35
ENDBRANCH  33  34
ENDBRANCH   1  33
TORSDOF 15
ENDMDL
MODEL 2
REMARK VINA RESULT:     -12.8      3.464      8.355
REMARK SMILES COc1ccc(N2C(=O)/C(=C/c3c(C(=O)OCCOC(=O)c4ccc(-c5c6nc(c(-c7c(F)c(F)c(F)c(F)c7F)c7ccc([nH]7)c(-c7c(F)c(F)c(F)c(F)c7F)c7nc(c(-c8c(F)c(F)c(F)c(F)c8F)c8ccc5[nH]8)C=C7)C=C6)cc4)[nH]c4cc(OC)ccc34)SC2=S)cc1
REMARK SMILES IDX 17 1 16 2 14 3 15 4 13 5 12 6 93 7 85 8 86 9 92 10 87 12
REMARK SMILES IDX 91 13 88 14 11 15 7 16 8 17 95 18 9 19 10 20 94 21 96 22
REMARK SMILES IDX 6 23 3 24 4 25 98 26 5 27 97 28 2 29 1 30 89 31 90 32 18 33
REMARK SMILES IDX 19 34 20 35 21 36 22 37 23 38 84 39 24 40 83 41 25 42 26 43
REMARK SMILES IDX 27 44 77 45 28 46 82 47 76 48 78 49 29 50 81 51 75 52 74 53
REMARK SMILES IDX 30 55 62 56 42 57 61 58 43 59 46 60 60 61 79 62 44 63 45 64
REMARK SMILES IDX 59 66 80 67 47 68 31 69 32 70 40 71 33 72 34 73 38 74 41 75
REMARK SMILES IDX 35 76 36 77 39 78 37 79 63 80 64 81 72 82 65 83 66 84 70 85
REMARK SMILES IDX 73 86 67 87 68 88 71 89 69 90 48 91 49 92 57 93 50 94 51 95
REMARK SMILES IDX 55 96 58 97 52 98 53 99 56 100 54 101
REMARK H PARENT 85 11 78 54 46 65
REMARK Flexibility Score: inf
ROOT
ATOM      1  C   UNL A   1      33.745  30.271  27.392  1.00  0.00     0.275 C 
ENDROOT
BRANCH   1   2
ATOM      2  O   UNL A   1      34.028  29.552  26.173  1.00  0.00    -0.457 OA
BRANCH   2   3
ATOM      3  C   UNL A   1      33.175  28.522  25.922  1.00  0.00     0.355 C 
ATOM      4  O   UNL A   1      33.161  27.466  26.544  1.00  0.00    -0.244 OA
BRANCH   3   5
ATOM      5  C   UNL A   1      32.219  28.850  24.898  1.00  0.00     0.133 A 
ATOM      6  C   UNL A   1      31.709  28.161  23.804  1.00  0.00     0.016 A 
ATOM      7  C   UNL A   1      30.554  28.885  23.342  1.00  0.00     0.008 A 
ATOM      8  N   UNL A   1      31.611  30.077  24.880  1.00  0.00    -0.348 N 
ATOM      9  C   UNL A   1      30.519  30.075  24.065  1.00  0.00     0.050 A 
ATOM     10  C   UNL A   1      29.524  28.689  22.395  1.00  0.00     0.015 A 
ATOM     11  H   UNL A   1      31.923  30.859  25.389  1.00  0.00     0.167 HD
ATOM     12  C   UNL A   1      29.547  31.063  23.911  1.00  0.00     0.073 A 
ATOM     13  C   UNL A   1      28.505  29.661  22.252  1.00  0.00     0.047 A 
ATOM     14  C   UNL A   1      28.516  30.836  23.003  1.00  0.00     0.120 A 
BRANCH   6  15
ATOM     15  C   UNL A   1      32.354  27.015  23.234  1.00  0.00     0.032 C 
ATOM     16  N   UNL A   1      33.531  23.977  24.605  1.00  0.00    -0.261 N 
ATOM     17  C   UNL A   1      33.467  24.859  23.517  1.00  0.00     0.270 C 
ATOM     18  C   UNL A   1      32.390  23.954  25.410  1.00  0.00     0.152 C 
ATOM     19  O   UNL A   1      34.244  24.969  22.577  1.00  0.00    -0.268 OA
ATOM     20  C   UNL A   1      32.280  25.745  23.664  1.00  0.00     0.081 C 
ATOM     21  S   UNL A   1      31.159  25.027  24.733  1.00  0.00    -0.054 SA
ATOM     22  S   UNL A   1      32.086  23.229  26.889  1.00  0.00    -0.051 S 
BRANCH  16  23
ATOM     23  C   UNL A   1      34.738  23.223  24.850  1.00  0.00     0.051 A 
ATOM     24  C   UNL A   1      37.135  21.773  25.352  1.00  0.00     0.119 A 
ATOM     25  C   UNL A   1      37.066  23.137  25.613  1.00  0.00     0.048 A 
ATOM     26  C   UNL A   1      36.004  21.123  24.874  1.00  0.00     0.048 A 
ATOM     27  C   UNL A   1      35.887  23.853  25.360  1.00  0.00     0.030 A 
ATOM     28  C   UNL A   1      34.829  21.844  24.611  1.00  0.00     0.030 A 
BRANCH  24  29
ATOM     29  O   UNL A   1      38.337  21.177  25.612  1.00  0.00    -0.497 OA
ATOM     30  C   UNL A   1      39.339  22.036  26.148  1.00  0.00     0.278 C 
ENDBRANCH  24  29
ENDBRANCH  16  23
ENDBRANCH   6  15
BRANCH  14  31
ATOM     31  O   UNL A   1      27.610  31.859  22.953  1.00  0.00    -0.497 OA
ATOM     32  C   UNL A   1      28.029  33.081  22.368  1.00  0.00     0.278 C 
ENDBRANCH  14  31
ENDBRANCH   3   5
ENDBRANCH   2   3
ENDBRANCH   1   2
BRANCH   1  33
ATOM     33  C   UNL A   1      34.030  31.771  27.258  1.00  0.00     0.275 C 
BRANCH  33  34
ATOM     34  O   UNL A   1      33.011  32.584  27.878  1.00  0.00    -0.458 OA
BRANCH  34  35
ATOM     35  C   UNL A   1      33.443  33.765  28.364  1.00  0.00     0.338 C 
ATOM     36  O   UNL A   1      32.976  34.873  28.155  1.00  0.00    -0.246 OA
BRANCH  35  37
ATOM     37  C   UNL A   1      34.538  33.586  29.324  1.00  0.00     0.060 A 
ATOM     38  C   UNL A   1      35.788  34.121  29.005  1.00  0.00     0.016 A 
ATOM     39  C   UNL A   1      34.403  32.691  30.380  1.00  0.00     0.016 A 
ATOM     40  C   UNL A   1      36.927  33.668  29.648  1.00  0.00     0.010 A 
ATOM     41  C   UNL A   1      35.539  32.317  31.100  1.00  0.00     0.010 A 
ATOM     42  C   UNL A   1      36.814  32.773  30.713  1.00  0.00    -0.014 A 
BRANCH  42  43
ATOM     43  C   UNL A   1      38.030  32.289  31.402  1.00  0.00     0.031 A 
ATOM     44  C   UNL A   1      38.839  31.187  30.785  1.00  0.00     0.074 A 
ATOM     45  C   UNL A   1      38.407  32.838  32.571  1.00  0.00     0.049 A 
ATOM     46  N   UNL A   1      39.742  30.419  31.333  1.00  0.00    -0.248 NA
ATOM     47  C   UNL A   1      38.584  30.902  29.364  1.00  0.00     0.031 C 
ATOM     48  C   UNL A   1      37.754  33.975  33.224  1.00  0.00     0.029 A 
ATOM     49  N   UNL A   1      39.431  32.511  33.421  1.00  0.00    -0.354 N 
ATOM     50  C   UNL A   1      40.103  29.506  30.351  1.00  0.00     0.074 A 
ATOM     51  C   UNL A   1      39.348  29.837  29.161  1.00  0.00     0.031 C 
ATOM     52  C   UNL A   1      38.403  34.262  34.361  1.00  0.00     0.029 A 
ATOM     53  C   UNL A   1      39.447  33.267  34.566  1.00  0.00     0.049 A 
ATOM     54  H   UNL A   1      40.088  31.804  33.229  1.00  0.00     0.167 HD
ATOM     55  C   UNL A   1      40.972  28.475  30.456  1.00  0.00     0.037 A 
ATOM     56  C   UNL A   1      40.179  33.131  35.687  1.00  0.00     0.037 A 
ATOM     57  C   UNL A   1      41.754  28.207  31.635  1.00  0.00     0.049 A 
ATOM     58  C   UNL A   1      41.136  31.979  35.783  1.00  0.00     0.074 A 
ATOM     59  C   UNL A   1      42.650  27.181  31.869  1.00  0.00     0.029 A 
ATOM     60  N   UNL A   1      41.745  29.002  32.773  1.00  0.00    -0.354 N 
ATOM     61  N   UNL A   1      41.388  31.043  34.902  1.00  0.00    -0.248 NA
ATOM     62  C   UNL A   1      41.887  31.848  37.037  1.00  0.00     0.031 C 
ATOM     63  C   UNL A   1      43.173  27.346  33.157  1.00  0.00     0.029 A 
ATOM     64  C   UNL A   1      42.624  28.492  33.712  1.00  0.00     0.049 A 
ATOM     65  H   UNL A   1      41.195  29.809  32.894  1.00  0.00     0.167 HD
ATOM     66  C   UNL A   1      42.324  30.207  35.491  1.00  0.00     0.074 A 
ATOM     67  C   UNL A   1      42.612  30.762  36.799  1.00  0.00     0.031 C 
ATOM     68  C   UNL A   1      42.887  29.076  35.001  1.00  0.00     0.037 A 
BRANCH  55  69
ATOM     69  C   UNL A   1      41.073  27.531  29.295  1.00  0.00     0.064 A 
ATOM     70  C   UNL A   1      42.160  27.550  28.410  1.00  0.00     0.173 A 
ATOM     71  C   UNL A   1      40.064  26.581  29.075  1.00  0.00     0.173 A 
ATOM     72  F   UNL A   1      43.140  28.452  28.566  1.00  0.00    -0.203 F 
ATOM     73  C   UNL A   1      42.224  26.664  27.337  1.00  0.00     0.198 A 
ATOM     74  C   UNL A   1      40.140  25.683  28.014  1.00  0.00     0.198 A 
ATOM     75  F   UNL A   1      39.001  26.523  29.892  1.00  0.00    -0.203 F 
ATOM     76  F   UNL A   1      43.251  26.725  26.479  1.00  0.00    -0.200 F 
ATOM     77  C   UNL A   1      41.217  25.728  27.143  1.00  0.00     0.200 A 
ATOM     78  F   UNL A   1      39.170  24.776  27.833  1.00  0.00    -0.200 F 
ATOM     79  F   UNL A   1      41.281  24.877  26.109  1.00  0.00    -0.200 F 
ENDBRANCH  55  69
BRANCH  56  80
ATOM     80  C   UNL A   1      39.974  34.074  36.815  1.00  0.00     0.064 A 
ATOM     81  C   UNL A   1      39.072  33.777  37.844  1.00  0.00     0.173 A 
ATOM     82  C   UNL A   1      40.708  35.266  36.912  1.00  0.00     0.173 A 
ATOM     83  F   UNL A   1      38.333  32.661  37.786  1.00  0.00    -0.203 F 
ATOM     84  C   UNL A   1      38.913  34.638  38.929  1.00  0.00     0.198 A 
ATOM     85  C   UNL A   1      40.569  36.111  38.008  1.00  0.00     0.198 A 
ATOM     86  F   UNL A   1      41.587  35.592  35.951  1.00  0.00    -0.203 F 
ATOM     87  F   UNL A   1      38.026  34.345  39.889  1.00  0.00    -0.200 F 
ATOM     88  C   UNL A   1      39.669  35.799  39.015  1.00  0.00     0.200 A 
ATOM     89  F   UNL A   1      41.313  37.222  38.094  1.00  0.00    -0.200 F 
ATOM     90  F   UNL A   1      39.528  36.616  40.067  1.00  0.00    -0.200 F 
ENDBRANCH  56  80
BRANCH  68  91
ATOM     91  C   UNL A   1      43.882  28.387  35.879  1.00  0.00     0.064 A 
ATOM     92  C   UNL A   1      43.487  27.390  36.782  1.00  0.00     0.173 A 
ATOM     93  C   UNL A   1      45.245  28.701  35.787  1.00  0.00     0.173 A 
ATOM     94  F   UNL A   1      42.190  27.073  36.911  1.00  0.00    -0.203 F 
ATOM     95  C   UNL A   1      44.425  26.738  37.574  1.00  0.00     0.198 A 
ATOM     96  C   UNL A   1      46.182  28.034  36.569  1.00  0.00     0.198 A 
ATOM     97  F   UNL A   1      45.665  29.648  34.936  1.00  0.00    -0.203 F 
ATOM     98  F   UNL A   1      44.026  25.808  38.453  1.00  0.00    -0.200 F 
ATOM     99  C   UNL A   1      45.772  27.056  37.464  1.00  0.00     0.200 A 
ATOM    100  F   UNL A   1      47.483  28.338  36.460  1.00  0.00    -0.200 F 
ATOM    101  F   UNL A   1      46.675  26.424  38.226  1.00  0.00    -0.200 F 
ENDBRANCH  68  91
ENDBRANCH  42  43
ENDBRANCH  35  37
ENDBRANCH  34  35
ENDBRANCH  33  34
ENDBRANCH   1  33
TORSDOF 15
ENDMDL
MODEL 3
REMARK VINA RESULT:     -12.8      2.979      7.706
REMARK SMILES COc1ccc(N2C(=O)/C(=C/c3c(C(=O)OCCOC(=O)c4ccc(-c5c6nc(c(-c7c(F)c(F)c(F)c(F)c7F)c7ccc([nH]7)c(-c7c(F)c(F)c(F)c(F)c7F)c7nc(c(-c8c(F)c(F)c(F)c(F)c8F)c8ccc5[nH]8)C=C7)C=C6)cc4)[nH]c4cc(OC)ccc34)SC2=S)cc1
REMARK SMILES IDX 17 1 16 2 14 3 15 4 13 5 12 6 93 7 85 8 86 9 92 10 87 12
REMARK SMILES IDX 91 13 88 14 11 15 7 16 8 17 95 18 9 19 10 20 94 21 96 22
REMARK SMILES IDX 6 23 3 24 4 25 98 26 5 27 97 28 2 29 1 30 89 31 90 32 18 33
REMARK SMILES IDX 19 34 20 35 21 36 22 37 23 38 84 39 24 40 83 41 25 42 26 43
REMARK SMILES IDX 27 44 77 45 28 46 82 47 76 48 78 49 29 50 81 51 75 52 74 53
REMARK SMILES IDX 30 55 62 56 42 57 61 58 43 59 46 60 60 61 79 62 44 63 45 64
REMARK SMILES IDX 59 66 80 67 47 68 31 69 32 70 40 71 33 72 34 73 38 74 41 75
REMARK SMILES IDX 35 76 36 77 39 78 37 79 63 80 64 81 72 82 65 83 66 84 70 85
REMARK SMILES IDX 73 86 67 87 68 88 71 89 69 90 48 91 49 92 57 93 50 94 51 95
REMARK SMILES IDX 55 96 58 97 52 98 53 99 56 100 54 101
REMARK H PARENT 85 11 78 54 46 65
REMARK Flexibility Score: inf
ROOT
ATOM      1  C   UNL A   1      34.046  27.686  24.684  1.00  0.00     0.275 C 
ENDROOT
BRANCH   1   2
ATOM      2  O   UNL A   1      33.362  26.788  23.786  1.00  0.00    -0.457 OA
BRANCH   2   3
ATOM      3  C   UNL A   1      33.071  27.328  22.571  1.00  0.00     0.355 C 
ATOM      4  O   UNL A   1      33.847  27.365  21.624  1.00  0.00    -0.244 OA
BRANCH   3   5
ATOM      5  C   UNL A   1      31.704  27.770  22.490  1.00  0.00     0.133 A 
ATOM      6  C   UNL A   1      30.481  27.163  22.753  1.00  0.00     0.016 A 
ATOM      7  C   UNL A   1      29.487  28.203  22.796  1.00  0.00     0.008 A 
ATOM      8  N   UNL A   1      31.406  29.039  22.073  1.00  0.00    -0.348 N 
ATOM      9  C   UNL A   1      30.121  29.372  22.382  1.00  0.00     0.050 A 
ATOM     10  C   UNL A   1      28.118  28.309  23.131  1.00  0.00     0.015 A 
ATOM     11  H   UNL A   1      32.037  29.634  21.608  1.00  0.00     0.167 HD
ATOM     12  C   UNL A   1      29.496  30.615  22.282  1.00  0.00     0.073 A 
ATOM     13  C   UNL A   1      27.476  29.570  23.076  1.00  0.00     0.047 A 
ATOM     14  C   UNL A   1      28.158  30.711  22.656  1.00  0.00     0.120 A 
BRANCH   6  15
ATOM     15  C   UNL A   1      30.316  25.742  22.830  1.00  0.00     0.032 C 
ATOM     16  N   UNL A   1      31.785  23.248  24.859  1.00  0.00    -0.261 N 
ATOM     17  C   UNL A   1      30.995  23.583  23.749  1.00  0.00     0.270 C 
ATOM     18  C   UNL A   1      31.698  24.137  25.932  1.00  0.00     0.152 C 
ATOM     19  O   UNL A   1      30.761  22.916  22.750  1.00  0.00    -0.268 OA
ATOM     20  C   UNL A   1      30.467  24.965  23.915  1.00  0.00     0.081 C 
ATOM     21  S   UNL A   1      30.522  25.406  25.563  1.00  0.00    -0.054 SA
ATOM     22  S   UNL A   1      32.578  24.258  27.351  1.00  0.00    -0.051 S 
BRANCH  16  23
ATOM     23  C   UNL A   1      32.644  22.088  24.806  1.00  0.00     0.051 A 
ATOM     24  C   UNL A   1      34.372  19.830  24.704  1.00  0.00     0.119 A 
ATOM     25  C   UNL A   1      34.888  21.118  24.622  1.00  0.00     0.048 A 
ATOM     26  C   UNL A   1      33.003  19.663  24.872  1.00  0.00     0.048 A 
ATOM     27  C   UNL A   1      34.035  22.231  24.666  1.00  0.00     0.030 A 
ATOM     28  C   UNL A   1      32.151  20.778  24.904  1.00  0.00     0.030 A 
BRANCH  24  29
ATOM     29  O   UNL A   1      35.287  18.817  24.628  1.00  0.00    -0.497 OA
ATOM     30  C   UNL A   1      34.742  17.522  24.385  1.00  0.00     0.278 C 
ENDBRANCH  24  29
ENDBRANCH  16  23
ENDBRANCH   6  15
BRANCH  14  31
ATOM     31  O   UNL A   1      27.658  31.978  22.539  1.00  0.00    -0.497 OA
ATOM     32  C   UNL A   1      28.554  33.060  22.739  1.00  0.00     0.278 C 
ENDBRANCH  14  31
ENDBRANCH   3   5
ENDBRANCH   2   3
ENDBRANCH   1   2
BRANCH   1  33
ATOM     33  C   UNL A   1      33.109  28.756  25.257  1.00  0.00     0.275 C 
BRANCH  33  34
ATOM     34  O   UNL A   1      33.780  30.015  25.480  1.00  0.00    -0.458 OA
BRANCH  34  35
ATOM     35  C   UNL A   1      33.393  30.677  26.589  1.00  0.00     0.338 C 
ATOM     36  O   UNL A   1      32.310  31.197  26.807  1.00  0.00    -0.246 OA
BRANCH  35  37
ATOM     37  C   UNL A   1      34.420  30.625  27.634  1.00  0.00     0.060 A 
ATOM     38  C   UNL A   1      35.342  31.671  27.705  1.00  0.00     0.016 A 
ATOM     39  C   UNL A   1      34.629  29.451  28.352  1.00  0.00     0.016 A 
ATOM     40  C   UNL A   1      36.538  31.505  28.383  1.00  0.00     0.010 A 
ATOM     41  C   UNL A   1      35.785  29.326  29.124  1.00  0.00     0.010 A 
ATOM     42  C   UNL A   1      36.766  30.337  29.113  1.00  0.00    -0.014 A 
BRANCH  42  43
ATOM     43  C   UNL A   1      38.043  30.158  29.838  1.00  0.00     0.031 A 
ATOM     44  C   UNL A   1      39.120  29.306  29.237  1.00  0.00     0.074 A 
ATOM     45  C   UNL A   1      38.234  30.762  31.025  1.00  0.00     0.049 A 
ATOM     46  N   UNL A   1      40.169  28.776  29.807  1.00  0.00    -0.248 NA
ATOM     47  C   UNL A   1      38.988  28.994  27.805  1.00  0.00     0.031 C 
ATOM     48  C   UNL A   1      37.298  31.687  31.668  1.00  0.00     0.029 A 
ATOM     49  N   UNL A   1      39.281  30.684  31.907  1.00  0.00    -0.354 N 
ATOM     50  C   UNL A   1      40.777  28.002  28.828  1.00  0.00     0.074 A 
ATOM     51  C   UNL A   1      40.000  28.158  27.616  1.00  0.00     0.031 C 
ATOM     52  C   UNL A   1      37.819  32.104  32.830  1.00  0.00     0.029 A 
ATOM     53  C   UNL A   1      39.072  31.398  33.060  1.00  0.00     0.049 A 
ATOM     54  H   UNL A   1      40.100  30.167  31.730  1.00  0.00     0.167 HD
ATOM     55  C   UNL A   1      41.873  27.218  28.951  1.00  0.00     0.037 A 
ATOM     56  C   UNL A   1      39.780  31.426  34.204  1.00  0.00     0.037 A 
ATOM     57  C   UNL A   1      42.660  27.132  30.153  1.00  0.00     0.049 A 
ATOM     58  C   UNL A   1      40.991  30.548  34.320  1.00  0.00     0.074 A 
ATOM     59  C   UNL A   1      43.777  26.356  30.408  1.00  0.00     0.029 A 
ATOM     60  N   UNL A   1      42.418  27.877  31.300  1.00  0.00    -0.354 N 
ATOM     61  N   UNL A   1      41.497  29.721  33.438  1.00  0.00    -0.248 NA
ATOM     62  C   UNL A   1      41.713  30.584  35.598  1.00  0.00     0.031 C 
ATOM     63  C   UNL A   1      44.202  26.622  31.715  1.00  0.00     0.029 A 
ATOM     64  C   UNL A   1      43.367  27.584  32.263  1.00  0.00     0.049 A 
ATOM     65  H   UNL A   1      41.680  28.519  31.411  1.00  0.00     0.167 HD
ATOM     66  C   UNL A   1      42.593  29.134  34.049  1.00  0.00     0.074 A 
ATOM     67  C   UNL A   1      42.693  29.718  35.373  1.00  0.00     0.031 C 
ATOM     68  C   UNL A   1      43.436  28.190  33.567  1.00  0.00     0.037 A 
BRANCH  55  69
ATOM     69  C   UNL A   1      42.243  26.353  27.785  1.00  0.00     0.064 A 
ATOM     70  C   UNL A   1      41.625  25.118  27.545  1.00  0.00     0.173 A 
ATOM     71  C   UNL A   1      43.229  26.779  26.882  1.00  0.00     0.173 A 
ATOM     72  F   UNL A   1      40.691  24.657  28.390  1.00  0.00    -0.203 F 
ATOM     73  C   UNL A   1      41.994  24.333  26.455  1.00  0.00     0.198 A 
ATOM     74  C   UNL A   1      43.581  26.003  25.781  1.00  0.00     0.198 A 
ATOM     75  F   UNL A   1      43.853  27.953  27.067  1.00  0.00    -0.203 F 
ATOM     76  F   UNL A   1      41.420  23.137  26.267  1.00  0.00    -0.200 F 
ATOM     77  C   UNL A   1      42.967  24.778  25.571  1.00  0.00     0.200 A 
ATOM     78  F   UNL A   1      44.517  26.438  24.926  1.00  0.00    -0.200 F 
ATOM     79  F   UNL A   1      43.321  24.020  24.523  1.00  0.00    -0.200 F 
ENDBRANCH  55  69
BRANCH  56  80
ATOM     80  C   UNL A   1      39.311  32.266  35.334  1.00  0.00     0.064 A 
ATOM     81  C   UNL A   1      38.502  31.727  36.342  1.00  0.00     0.173 A 
ATOM     82  C   UNL A   1      39.701  33.608  35.456  1.00  0.00     0.173 A 
ATOM     83  F   UNL A   1      38.086  30.455  36.259  1.00  0.00    -0.203 F 
ATOM     84  C   UNL A   1      38.099  32.500  37.429  1.00  0.00     0.198 A 
ATOM     85  C   UNL A   1      39.322  34.372  36.556  1.00  0.00     0.198 A 
ATOM     86  F   UNL A   1      40.480  34.169  34.518  1.00  0.00    -0.203 F 
ATOM     87  F   UNL A   1      37.305  31.970  38.368  1.00  0.00    -0.200 F 
ATOM     88  C   UNL A   1      38.519  33.819  37.542  1.00  0.00     0.200 A 
ATOM     89  F   UNL A   1      39.743  35.639  36.667  1.00  0.00    -0.200 F 
ATOM     90  F   UNL A   1      38.146  34.556  38.596  1.00  0.00    -0.200 F 
ENDBRANCH  56  80
BRANCH  68  91
ATOM     91  C   UNL A   1      44.544  27.753  34.471  1.00  0.00     0.064 A 
ATOM     92  C   UNL A   1      45.772  28.428  34.494  1.00  0.00     0.173 A 
ATOM     93  C   UNL A   1      44.358  26.676  35.349  1.00  0.00     0.173 A 
ATOM     94  F   UNL A   1      45.994  29.453  33.659  1.00  0.00    -0.203 F 
ATOM     95  C   UNL A   1      46.785  28.028  35.359  1.00  0.00     0.198 A 
ATOM     96  C   UNL A   1      45.368  26.290  36.224  1.00  0.00     0.198 A 
ATOM     97  F   UNL A   1      43.198  26.004  35.359  1.00  0.00    -0.203 F 
ATOM     98  F   UNL A   1      47.964  28.665  35.347  1.00  0.00    -0.200 F 
ATOM     99  C   UNL A   1      46.580  26.964  36.226  1.00  0.00     0.200 A 
ATOM    100  F   UNL A   1      45.169  25.266  37.065  1.00  0.00    -0.200 F 
ATOM    101  F   UNL A   1      47.557  26.583  37.062  1.00  0.00    -0.200 F 
ENDBRANCH  68  91
ENDBRANCH  42  43
ENDBRANCH  35  37
ENDBRANCH  34  35
ENDBRANCH  33  34
ENDBRANCH   1  33
TORSDOF 15
ENDMDL
