MODEL 1
REMARK VINA RESULT:     -11.4      0.000      0.000
REMARK SMILES C[C@H](C(=O)OCCOC(=O)c1ccc(-c2c3nc(c(-c4c(F)c(F)c(F)c(F)c4F)c4ccc([nH]4)c(-c4c(F)c(F)c(F)c(F)c4F)c4nc(c(-c5c(F)c(F)c(F)c(F)c5F)c5ccc2[nH]5)C=C4)C=C3)cc1)[C@@H](C)C(=O)[C@H]1CC[C@H](C)CC1
REMARK SMILES IDX 6 1 5 2 3 3 4 4 2 5 1 6 74 7 75 8 76 9 77 10 78 11 82 12
REMARK SMILES IDX 81 13 80 14 83 15 79 16 84 17 7 18 8 19 9 20 10 21 11 22
REMARK SMILES IDX 12 23 73 24 13 25 72 26 14 27 15 28 16 29 66 30 17 31 71 32
REMARK SMILES IDX 65 33 67 34 18 35 70 36 64 37 63 38 19 40 51 41 31 42 50 43
REMARK SMILES IDX 32 44 35 45 49 46 68 47 33 48 34 49 48 51 69 52 36 53 20 54
REMARK SMILES IDX 21 55 29 56 22 57 23 58 27 59 30 60 24 61 25 62 28 63 26 64
REMARK SMILES IDX 52 65 53 66 61 67 54 68 55 69 59 70 62 71 56 72 57 73 60 74
REMARK SMILES IDX 58 75 37 76 38 77 46 78 39 79 40 80 44 81 47 82 41 83 42 84
REMARK SMILES IDX 45 85 43 86
REMARK H PARENT 67 39 35 50
REMARK Flexibility Score: inf
ROOT
ATOM      1  C   UNL A   1      36.926  22.133  24.026  1.00  0.00     0.274 C 
ENDROOT
BRANCH   1   2
ATOM      2  O   UNL A   1      35.489  22.058  24.152  1.00  0.00    -0.462 OA
BRANCH   2   3
ATOM      3  C   UNL A   1      34.779  23.165  23.816  1.00  0.00     0.309 C 
ATOM      4  O   UNL A   1      34.666  23.602  22.676  1.00  0.00    -0.252 OA
BRANCH   3   5
ATOM      5  C   UNL A   1      34.191  23.894  25.009  1.00  0.00     0.106 C 
ATOM      6  C   UNL A   1      33.762  25.320  24.675  1.00  0.00     0.021 C 
BRANCH   5   7
ATOM      7  C   UNL A   1      33.169  23.006  25.765  1.00  0.00     0.067 C 
ATOM      8  C   UNL A   1      32.457  23.785  26.877  1.00  0.00     0.017 C 
BRANCH   7   9
ATOM      9  C   UNL A   1      32.104  22.349  24.877  1.00  0.00     0.139 C 
ATOM     10  O   UNL A   1      31.301  23.048  24.252  1.00  0.00    -0.299 OA
BRANCH   9  11
ATOM     11  C   UNL A   1      32.057  20.814  24.721  1.00  0.00     0.056 C 
ATOM     12  C   UNL A   1      33.407  16.774  23.563  1.00  0.00     0.007 C 
ATOM     13  C   UNL A   1      33.346  18.260  23.897  1.00  0.00    -0.014 C 
ATOM     14  C   UNL A   1      32.967  18.521  25.362  1.00  0.00     0.004 C 
ATOM     15  C   UNL A   1      32.347  18.962  22.978  1.00  0.00     0.004 C 
ATOM     16  C   UNL A   1      32.953  20.026  25.684  1.00  0.00     0.012 C 
ATOM     17  C   UNL A   1      32.333  20.450  23.268  1.00  0.00     0.012 C 
ENDBRANCH   9  11
ENDBRANCH   7   9
ENDBRANCH   5   7
ENDBRANCH   3   5
ENDBRANCH   2   3
ENDBRANCH   1   2
BRANCH   1  18
ATOM     18  C   UNL A   1      37.662  21.049  24.812  1.00  0.00     0.275 C 
BRANCH  18  19
ATOM     19  O   UNL A   1      38.076  21.533  26.101  1.00  0.00    -0.458 OA
BRANCH  19  20
ATOM     20  C   UNL A   1      39.389  21.356  26.373  1.00  0.00     0.338 C 
ATOM     21  O   UNL A   1      40.076  20.389  26.093  1.00  0.00    -0.246 OA
BRANCH  20  22
ATOM     22  C   UNL A   1      39.954  22.605  26.910  1.00  0.00     0.060 A 
ATOM     23  C   UNL A   1      39.437  23.808  26.414  1.00  0.00     0.016 A 
ATOM     24  C   UNL A   1      40.995  22.606  27.839  1.00  0.00     0.016 A 
ATOM     25  C   UNL A   1      39.964  25.022  26.831  1.00  0.00     0.010 A 
ATOM     26  C   UNL A   1      41.548  23.824  28.237  1.00  0.00     0.010 A 
ATOM     27  C   UNL A   1      41.048  25.031  27.713  1.00  0.00    -0.014 A 
BRANCH  27  28
ATOM     28  C   UNL A   1      41.773  26.296  27.936  1.00  0.00     0.031 A 
ATOM     29  C   UNL A   1      41.087  27.376  28.720  1.00  0.00     0.074 A 
ATOM     30  C   UNL A   1      43.027  26.453  27.486  1.00  0.00     0.049 A 
ATOM     31  N   UNL A   1      41.477  28.597  28.970  1.00  0.00    -0.248 NA
ATOM     32  C   UNL A   1      39.780  27.027  29.302  1.00  0.00     0.031 C 
ATOM     33  C   UNL A   1      43.806  25.436  26.785  1.00  0.00     0.029 A 
ATOM     34  N   UNL A   1      43.864  27.537  27.551  1.00  0.00    -0.354 N 
ATOM     35  C   UNL A   1      40.458  29.169  29.719  1.00  0.00     0.074 A 
ATOM     36  C   UNL A   1      39.425  28.167  29.875  1.00  0.00     0.031 C 
ATOM     37  C   UNL A   1      45.007  25.950  26.467  1.00  0.00     0.029 A 
ATOM     38  C   UNL A   1      45.059  27.342  26.906  1.00  0.00     0.049 A 
ATOM     39  H   UNL A   1      43.630  28.373  28.015  1.00  0.00     0.167 HD
ATOM     40  C   UNL A   1      40.395  30.421  30.228  1.00  0.00     0.037 A 
ATOM     41  C   UNL A   1      46.061  28.211  26.671  1.00  0.00     0.037 A 
ATOM     42  C   UNL A   1      41.433  31.401  30.067  1.00  0.00     0.049 A 
ATOM     43  C   UNL A   1      45.933  29.622  27.183  1.00  0.00     0.074 A 
ATOM     44  C   UNL A   1      41.477  32.701  30.537  1.00  0.00     0.029 A 
ATOM     45  N   UNL A   1      42.618  31.182  29.377  1.00  0.00    -0.354 N 
ATOM     46  N   UNL A   1      44.963  30.167  27.878  1.00  0.00    -0.248 NA
ATOM     47  C   UNL A   1      47.037  30.540  26.875  1.00  0.00     0.031 C 
ATOM     48  C   UNL A   1      42.669  33.283  30.092  1.00  0.00     0.029 A 
ATOM     49  C   UNL A   1      43.391  32.331  29.388  1.00  0.00     0.049 A 
ATOM     50  H   UNL A   1      42.871  30.336  28.943  1.00  0.00     0.167 HD
ATOM     51  C   UNL A   1      45.347  31.480  28.110  1.00  0.00     0.074 A 
ATOM     52  C   UNL A   1      46.647  31.646  27.493  1.00  0.00     0.031 C 
ATOM     53  C   UNL A   1      44.687  32.462  28.772  1.00  0.00     0.037 A 
BRANCH  40  54
ATOM     54  C   UNL A   1      39.144  30.806  30.960  1.00  0.00     0.064 A 
ATOM     55  C   UNL A   1      38.049  31.382  30.301  1.00  0.00     0.173 A 
ATOM     56  C   UNL A   1      39.038  30.585  32.341  1.00  0.00     0.173 A 
ATOM     57  F   UNL A   1      38.107  31.635  28.985  1.00  0.00    -0.203 F 
ATOM     58  C   UNL A   1      36.901  31.745  31.003  1.00  0.00     0.198 A 
ATOM     59  C   UNL A   1      37.880  30.924  33.035  1.00  0.00     0.198 A 
ATOM     60  F   UNL A   1      40.060  30.039  33.019  1.00  0.00    -0.203 F 
ATOM     61  F   UNL A   1      35.884  32.339  30.363  1.00  0.00    -0.200 F 
ATOM     62  C   UNL A   1      36.815  31.510  32.368  1.00  0.00     0.200 A 
ATOM     63  F   UNL A   1      37.796  30.688  34.352  1.00  0.00    -0.200 F 
ATOM     64  F   UNL A   1      35.709  31.856  33.041  1.00  0.00    -0.200 F 
ENDBRANCH  40  54
BRANCH  41  65
ATOM     65  C   UNL A   1      47.252  27.780  25.896  1.00  0.00     0.064 A 
ATOM     66  C   UNL A   1      47.244  27.783  24.495  1.00  0.00     0.173 A 
ATOM     67  C   UNL A   1      48.422  27.347  26.541  1.00  0.00     0.173 A 
ATOM     68  F   UNL A   1      46.141  28.164  23.833  1.00  0.00    -0.203 F 
ATOM     69  C   UNL A   1      48.354  27.357  23.767  1.00  0.00     0.198 A 
ATOM     70  C   UNL A   1      49.541  26.948  25.812  1.00  0.00     0.198 A 
ATOM     71  F   UNL A   1      48.480  27.321  27.880  1.00  0.00    -0.203 F 
ATOM     72  F   UNL A   1      48.305  27.329  22.429  1.00  0.00    -0.200 F 
ATOM     73  C   UNL A   1      49.503  26.946  24.427  1.00  0.00     0.200 A 
ATOM     74  F   UNL A   1      50.652  26.562  26.453  1.00  0.00    -0.200 F 
ATOM     75  F   UNL A   1      50.571  26.540  23.726  1.00  0.00    -0.200 F 
ENDBRANCH  41  65
BRANCH  53  76
ATOM     76  C   UNL A   1      45.377  33.788  28.894  1.00  0.00     0.064 A 
ATOM     77  C   UNL A   1      46.264  34.061  29.946  1.00  0.00     0.173 A 
ATOM     78  C   UNL A   1      45.181  34.780  27.921  1.00  0.00     0.173 A 
ATOM     79  F   UNL A   1      46.472  33.149  30.907  1.00  0.00    -0.203 F 
ATOM     80  C   UNL A   1      46.912  35.289  30.031  1.00  0.00     0.198 A 
ATOM     81  C   UNL A   1      45.854  35.996  27.994  1.00  0.00     0.198 A 
ATOM     82  F   UNL A   1      44.349  34.563  26.892  1.00  0.00    -0.203 F 
ATOM     83  F   UNL A   1      47.723  35.546  31.067  1.00  0.00    -0.200 F 
ATOM     84  C   UNL A   1      46.713  36.252  29.052  1.00  0.00     0.200 A 
ATOM     85  F   UNL A   1      45.671  36.920  27.041  1.00  0.00    -0.200 F 
ATOM     86  F   UNL A   1      47.345  37.431  29.132  1.00  0.00    -0.200 F 
ENDBRANCH  53  76
ENDBRANCH  27  28
ENDBRANCH  20  22
ENDBRANCH  19  20
ENDBRANCH  18  19
ENDBRANCH   1  18
TORSDOF 14
ENDMDL
MODEL 2
REMARK VINA RESULT:     -11.4      0.095      2.010
REMARK SMILES C[C@H](C(=O)OCCOC(=O)c1ccc(-c2c3nc(c(-c4c(F)c(F)c(F)c(F)c4F)c4ccc([nH]4)c(-c4c(F)c(F)c(F)c(F)c4F)c4nc(c(-c5c(F)c(F)c(F)c(F)c5F)c5ccc2[nH]5)C=C4)C=C3)cc1)[C@@H](C)C(=O)[C@H]1CC[C@H](C)CC1
REMARK SMILES IDX 6 1 5 2 3 3 4 4 2 5 1 6 74 7 75 8 76 9 77 10 78 11 82 12
REMARK SMILES IDX 81 13 80 14 83 15 79 16 84 17 7 18 8 19 9 20 10 21 11 22
REMARK SMILES IDX 12 23 73 24 13 25 72 26 14 27 15 28 16 29 66 30 17 31 71 32
REMARK SMILES IDX 65 33 67 34 18 35 70 36 64 37 63 38 19 40 51 41 31 42 50 43
REMARK SMILES IDX 32 44 35 45 49 46 68 47 33 48 34 49 48 51 69 52 36 53 20 54
REMARK SMILES IDX 21 55 29 56 22 57 23 58 27 59 30 60 24 61 25 62 28 63 26 64
REMARK SMILES IDX 52 65 53 66 61 67 54 68 55 69 59 70 62 71 56 72 57 73 60 74
REMARK SMILES IDX 58 75 37 76 38 77 46 78 39 79 40 80 44 81 47 82 41 83 42 84
REMARK SMILES IDX 45 85 43 86
REMARK H PARENT 67 39 35 50
REMARK Flexibility Score: inf
ROOT
ATOM      1  C   UNL A   1      36.990  22.050  24.058  1.00  0.00     0.274 C 
ENDROOT
BRANCH   1   2
ATOM      2  O   UNL A   1      35.553  21.938  24.150  1.00  0.00    -0.462 OA
BRANCH   2   3
ATOM      3  C   UNL A   1      34.825  23.045  23.854  1.00  0.00     0.309 C 
ATOM      4  O   UNL A   1      34.667  23.495  22.724  1.00  0.00    -0.252 OA
BRANCH   3   5
ATOM      5  C   UNL A   1      34.278  23.757  25.077  1.00  0.00     0.106 C 
ATOM      6  C   UNL A   1      33.967  25.227  24.812  1.00  0.00     0.021 C 
BRANCH   5   7
ATOM      7  C   UNL A   1      33.178  22.916  25.774  1.00  0.00     0.067 C 
ATOM      8  C   UNL A   1      32.398  23.744  26.801  1.00  0.00     0.017 C 
BRANCH   7   9
ATOM      9  C   UNL A   1      32.173  22.253  24.823  1.00  0.00     0.139 C 
ATOM     10  O   UNL A   1      31.425  22.948  24.130  1.00  0.00    -0.299 OA
BRANCH   9  11
ATOM     11  C   UNL A   1      32.119  20.716  24.692  1.00  0.00     0.056 C 
ATOM     12  C   UNL A   1      33.453  16.652  23.599  1.00  0.00     0.007 C 
ATOM     13  C   UNL A   1      33.398  18.144  23.909  1.00  0.00    -0.014 C 
ATOM     14  C   UNL A   1      33.019  18.430  25.370  1.00  0.00     0.004 C 
ATOM     15  C   UNL A   1      32.402  18.835  22.979  1.00  0.00     0.004 C 
ATOM     16  C   UNL A   1      33.011  19.939  25.667  1.00  0.00     0.012 C 
ATOM     17  C   UNL A   1      32.394  20.327  23.245  1.00  0.00     0.012 C 
ENDBRANCH   9  11
ENDBRANCH   7   9
ENDBRANCH   5   7
ENDBRANCH   3   5
ENDBRANCH   2   3
ENDBRANCH   1   2
BRANCH   1  18
ATOM     18  C   UNL A   1      37.734  20.974  24.849  1.00  0.00     0.275 C 
BRANCH  18  19
ATOM     19  O   UNL A   1      38.142  21.466  26.136  1.00  0.00    -0.458 OA
BRANCH  19  20
ATOM     20  C   UNL A   1      39.458  21.306  26.407  1.00  0.00     0.338 C 
ATOM     21  O   UNL A   1      40.156  20.344  26.133  1.00  0.00    -0.246 OA
BRANCH  20  22
ATOM     22  C   UNL A   1      40.010  22.564  26.935  1.00  0.00     0.060 A 
ATOM     23  C   UNL A   1      39.526  23.757  26.384  1.00  0.00     0.016 A 
ATOM     24  C   UNL A   1      41.009  22.582  27.909  1.00  0.00     0.016 A 
ATOM     25  C   UNL A   1      40.046  24.977  26.791  1.00  0.00     0.010 A 
ATOM     26  C   UNL A   1      41.555  23.807  28.298  1.00  0.00     0.010 A 
ATOM     27  C   UNL A   1      41.089  25.002  27.719  1.00  0.00    -0.014 A 
BRANCH  27  28
ATOM     28  C   UNL A   1      41.815  26.268  27.941  1.00  0.00     0.031 A 
ATOM     29  C   UNL A   1      41.131  27.348  28.725  1.00  0.00     0.074 A 
ATOM     30  C   UNL A   1      43.068  26.424  27.488  1.00  0.00     0.049 A 
ATOM     31  N   UNL A   1      41.522  28.569  28.974  1.00  0.00    -0.248 NA
ATOM     32  C   UNL A   1      39.825  27.000  29.311  1.00  0.00     0.031 C 
ATOM     33  C   UNL A   1      43.845  25.406  26.785  1.00  0.00     0.029 A 
ATOM     34  N   UNL A   1      43.905  27.508  27.550  1.00  0.00    -0.354 N 
ATOM     35  C   UNL A   1      40.505  29.141  29.725  1.00  0.00     0.074 A 
ATOM     36  C   UNL A   1      39.473  28.140  29.884  1.00  0.00     0.031 C 
ATOM     37  C   UNL A   1      45.045  25.920  26.464  1.00  0.00     0.029 A 
ATOM     38  C   UNL A   1      45.099  27.312  26.902  1.00  0.00     0.049 A 
ATOM     39  H   UNL A   1      43.673  28.344  28.014  1.00  0.00     0.167 HD
ATOM     40  C   UNL A   1      40.443  30.393  30.234  1.00  0.00     0.037 A 
ATOM     41  C   UNL A   1      46.101  28.181  26.665  1.00  0.00     0.037 A 
ATOM     42  C   UNL A   1      41.482  31.374  30.070  1.00  0.00     0.049 A 
ATOM     43  C   UNL A   1      45.974  29.592  27.176  1.00  0.00     0.074 A 
ATOM     44  C   UNL A   1      41.526  32.674  30.539  1.00  0.00     0.029 A 
ATOM     45  N   UNL A   1      42.664  31.154  29.377  1.00  0.00    -0.354 N 
ATOM     46  N   UNL A   1      45.006  30.138  27.873  1.00  0.00    -0.248 NA
ATOM     47  C   UNL A   1      47.078  30.510  26.865  1.00  0.00     0.031 C 
ATOM     48  C   UNL A   1      42.717  33.255  30.091  1.00  0.00     0.029 A 
ATOM     49  C   UNL A   1      43.438  32.303  29.386  1.00  0.00     0.049 A 
ATOM     50  H   UNL A   1      42.916  30.307  28.943  1.00  0.00     0.167 HD
ATOM     51  C   UNL A   1      45.390  31.451  28.103  1.00  0.00     0.074 A 
ATOM     52  C   UNL A   1      46.689  31.616  27.483  1.00  0.00     0.031 C 
ATOM     53  C   UNL A   1      44.732  32.433  28.766  1.00  0.00     0.037 A 
BRANCH  40  54
ATOM     54  C   UNL A   1      39.195  30.779  30.969  1.00  0.00     0.064 A 
ATOM     55  C   UNL A   1      39.067  30.604  32.355  1.00  0.00     0.173 A 
ATOM     56  C   UNL A   1      38.113  31.341  30.276  1.00  0.00     0.173 A 
ATOM     57  F   UNL A   1      40.064  30.051  33.061  1.00  0.00    -0.203 F 
ATOM     58  C   UNL A   1      37.893  30.957  33.016  1.00  0.00     0.198 A 
ATOM     59  C   UNL A   1      36.951  31.718  30.943  1.00  0.00     0.198 A 
ATOM     60  F   UNL A   1      38.182  31.526  28.948  1.00  0.00    -0.203 F 
ATOM     61  F   UNL A   1      37.774  30.738  34.333  1.00  0.00    -0.200 F 
ATOM     62  C   UNL A   1      36.838  31.519  32.310  1.00  0.00     0.200 A 
ATOM     63  F   UNL A   1      35.936  32.267  30.261  1.00  0.00    -0.200 F 
ATOM     64  F   UNL A   1      35.710  31.862  32.948  1.00  0.00    -0.200 F 
ENDBRANCH  40  54
BRANCH  41  65
ATOM     65  C   UNL A   1      47.290  27.749  25.887  1.00  0.00     0.064 A 
ATOM     66  C   UNL A   1      48.466  27.342  26.529  1.00  0.00     0.173 A 
ATOM     67  C   UNL A   1      47.278  27.744  24.483  1.00  0.00     0.173 A 
ATOM     68  F   UNL A   1      48.536  27.354  27.869  1.00  0.00    -0.203 F 
ATOM     69  C   UNL A   1      49.590  26.959  25.799  1.00  0.00     0.198 A 
ATOM     70  C   UNL A   1      48.392  27.333  23.754  1.00  0.00     0.198 A 
ATOM     71  F   UNL A   1      46.178  28.128  23.820  1.00  0.00    -0.203 F 
ATOM     72  F   UNL A   1      50.716  26.615  26.437  1.00  0.00    -0.200 F 
ATOM     73  C   UNL A   1      49.549  26.949  24.412  1.00  0.00     0.200 A 
ATOM     74  F   UNL A   1      48.344  27.315  22.416  1.00  0.00    -0.200 F 
ATOM     75  F   UNL A   1      50.629  26.576  23.711  1.00  0.00    -0.200 F 
ENDBRANCH  41  65
BRANCH  53  76
ATOM     76  C   UNL A   1      45.423  33.759  28.886  1.00  0.00     0.064 A 
ATOM     77  C   UNL A   1      45.228  34.778  27.942  1.00  0.00     0.173 A 
ATOM     78  C   UNL A   1      46.253  34.027  29.985  1.00  0.00     0.173 A 
ATOM     79  F   UNL A   1      44.454  34.563  26.867  1.00  0.00    -0.203 F 
ATOM     80  C   UNL A   1      45.860  36.010  28.082  1.00  0.00     0.198 A 
ATOM     81  C   UNL A   1      46.859  35.270  30.136  1.00  0.00     0.198 A 
ATOM     82  F   UNL A   1      46.463  33.088  30.919  1.00  0.00    -0.203 F 
ATOM     83  F   UNL A   1      45.695  36.955  27.146  1.00  0.00    -0.200 F 
ATOM     84  C   UNL A   1      46.668  36.258  29.182  1.00  0.00     0.200 A 
ATOM     85  F   UNL A   1      47.629  35.513  31.206  1.00  0.00    -0.200 F 
ATOM     86  F   UNL A   1      47.269  37.448  29.318  1.00  0.00    -0.200 F 
ENDBRANCH  53  76
ENDBRANCH  27  28
ENDBRANCH  20  22
ENDBRANCH  19  20
ENDBRANCH  18  19
ENDBRANCH   1  18
TORSDOF 14
ENDMDL
MODEL 3
REMARK VINA RESULT:     -11.3      4.872     10.200
REMARK SMILES C[C@H](C(=O)OCCOC(=O)c1ccc(-c2c3nc(c(-c4c(F)c(F)c(F)c(F)c4F)c4ccc([nH]4)c(-c4c(F)c(F)c(F)c(F)c4F)c4nc(c(-c5c(F)c(F)c(F)c(F)c5F)c5ccc2[nH]5)C=C4)C=C3)cc1)[C@@H](C)C(=O)[C@H]1CC[C@H](C)CC1
REMARK SMILES IDX 6 1 5 2 3 3 4 4 2 5 1 6 74 7 75 8 76 9 77 10 78 11 82 12
REMARK SMILES IDX 81 13 80 14 83 15 79 16 84 17 7 18 8 19 9 20 10 21 11 22
REMARK SMILES IDX 12 23 73 24 13 25 72 26 14 27 15 28 16 29 66 30 17 31 71 32
REMARK SMILES IDX 65 33 67 34 18 35 70 36 64 37 63 38 19 40 51 41 31 42 50 43
REMARK SMILES IDX 32 44 35 45 49 46 68 47 33 48 34 49 48 51 69 52 36 53 20 54
REMARK SMILES IDX 21 55 29 56 22 57 23 58 27 59 30 60 24 61 25 62 28 63 26 64
REMARK SMILES IDX 52 65 53 66 61 67 54 68 55 69 59 70 62 71 56 72 57 73 60 74
REMARK SMILES IDX 58 75 37 76 38 77 46 78 39 79 40 80 44 81 47 82 41 83 42 84
REMARK SMILES IDX 45 85 43 86
REMARK H PARENT 67 39 35 50
REMARK Flexibility Score: inf
ROOT
ATOM      1  C   UNL A   1      31.777  28.555  27.357  1.00  0.00     0.274 C 
ENDROOT
BRANCH   1   2
ATOM      2  O   UNL A   1      32.656  27.641  26.664  1.00  0.00    -0.462 OA
BRANCH   2   3
ATOM      3  C   UNL A   1      32.127  26.457  26.264  1.00  0.00     0.309 C 
ATOM      4  O   UNL A   1      31.093  25.969  26.708  1.00  0.00    -0.252 OA
BRANCH   3   5
ATOM      5  C   UNL A   1      32.988  25.717  25.258  1.00  0.00     0.106 C 
ATOM      6  C   UNL A   1      33.007  24.210  25.495  1.00  0.00     0.021 C 
BRANCH   5   7
ATOM      7  C   UNL A   1      32.709  26.202  23.812  1.00  0.00     0.067 C 
ATOM      8  C   UNL A   1      33.650  25.538  22.801  1.00  0.00     0.017 C 
BRANCH   7   9
ATOM      9  C   UNL A   1      31.265  26.003  23.332  1.00  0.00     0.139 C 
ATOM     10  O   UNL A   1      30.737  24.889  23.403  1.00  0.00    -0.299 OA
BRANCH   9  11
ATOM     11  C   UNL A   1      30.447  27.198  22.799  1.00  0.00     0.056 C 
ATOM     12  C   UNL A   1      28.037  30.893  22.935  1.00  0.00     0.007 C 
ATOM     13  C   UNL A   1      28.958  29.730  23.283  1.00  0.00    -0.014 C 
ATOM     14  C   UNL A   1      30.234  29.711  22.428  1.00  0.00     0.004 C 
ATOM     15  C   UNL A   1      28.213  28.406  23.119  1.00  0.00     0.004 C 
ATOM     16  C   UNL A   1      31.165  28.553  22.828  1.00  0.00     0.012 C 
ATOM     17  C   UNL A   1      29.110  27.253  23.526  1.00  0.00     0.012 C 
ENDBRANCH   9  11
ENDBRANCH   7   9
ENDBRANCH   5   7
ENDBRANCH   3   5
ENDBRANCH   2   3
ENDBRANCH   1   2
BRANCH   1  18
ATOM     18  C   UNL A   1      31.780  29.965  26.767  1.00  0.00     0.275 C 
BRANCH  18  19
ATOM     19  O   UNL A   1      33.117  30.401  26.474  1.00  0.00    -0.458 OA
BRANCH  19  20
ATOM     20  C   UNL A   1      33.557  31.423  27.245  1.00  0.00     0.338 C 
ATOM     21  O   UNL A   1      32.931  32.411  27.587  1.00  0.00    -0.246 OA
BRANCH  20  22
ATOM     22  C   UNL A   1      34.882  31.091  27.794  1.00  0.00     0.060 A 
ATOM     23  C   UNL A   1      35.113  29.757  28.152  1.00  0.00     0.016 A 
ATOM     24  C   UNL A   1      35.860  32.064  28.001  1.00  0.00     0.016 A 
ATOM     25  C   UNL A   1      36.317  29.386  28.730  1.00  0.00     0.010 A 
ATOM     26  C   UNL A   1      37.061  31.699  28.612  1.00  0.00     0.010 A 
ATOM     27  C   UNL A   1      37.278  30.364  28.999  1.00  0.00    -0.014 A 
BRANCH  27  28
ATOM     28  C   UNL A   1      38.430  30.015  29.854  1.00  0.00     0.031 A 
ATOM     29  C   UNL A   1      39.459  29.073  29.305  1.00  0.00     0.074 A 
ATOM     30  C   UNL A   1      38.568  30.563  31.071  1.00  0.00     0.049 A 
ATOM     31  N   UNL A   1      40.503  28.549  29.889  1.00  0.00    -0.248 NA
ATOM     32  C   UNL A   1      39.286  28.666  27.899  1.00  0.00     0.031 C 
ATOM     33  C   UNL A   1      37.664  31.548  31.661  1.00  0.00     0.029 A 
ATOM     34  N   UNL A   1      39.524  30.362  32.031  1.00  0.00    -0.354 N 
ATOM     35  C   UNL A   1      41.099  27.737  28.934  1.00  0.00     0.074 A 
ATOM     36  C   UNL A   1      40.296  27.826  27.733  1.00  0.00     0.031 C 
ATOM     37  C   UNL A   1      38.100  31.855  32.894  1.00  0.00     0.029 A 
ATOM     38  C   UNL A   1      39.287  31.056  33.191  1.00  0.00     0.049 A 
ATOM     39  H   UNL A   1      40.305  29.776  31.902  1.00  0.00     0.167 HD
ATOM     40  C   UNL A   1      42.217  26.985  29.054  1.00  0.00     0.037 A 
ATOM     41  C   UNL A   1      39.941  31.015  34.367  1.00  0.00     0.037 A 
ATOM     42  C   UNL A   1      43.004  26.912  30.254  1.00  0.00     0.049 A 
ATOM     43  C   UNL A   1      41.139  30.111  34.500  1.00  0.00     0.074 A 
ATOM     44  C   UNL A   1      44.154  26.182  30.492  1.00  0.00     0.029 A 
ATOM     45  N   UNL A   1      42.716  27.602  31.424  1.00  0.00    -0.354 N 
ATOM     46  N   UNL A   1      41.693  29.331  33.601  1.00  0.00    -0.248 NA
ATOM     47  C   UNL A   1      41.800  30.077  35.810  1.00  0.00     0.031 C 
ATOM     48  C   UNL A   1      44.536  26.395  31.820  1.00  0.00     0.029 A 
ATOM     49  C   UNL A   1      43.654  27.297  32.396  1.00  0.00     0.049 A 
ATOM     50  H   UNL A   1      41.956  28.216  31.545  1.00  0.00     0.167 HD
ATOM     51  C   UNL A   1      42.778  28.734  34.227  1.00  0.00     0.074 A 
ATOM     52  C   UNL A   1      42.812  29.252  35.580  1.00  0.00     0.031 C 
ATOM     53  C   UNL A   1      43.666  27.837  33.732  1.00  0.00     0.037 A 
BRANCH  40  54
ATOM     54  C   UNL A   1      42.617  26.150  27.875  1.00  0.00     0.064 A 
ATOM     55  C   UNL A   1      42.056  24.887  27.637  1.00  0.00     0.173 A 
ATOM     56  C   UNL A   1      43.571  26.627  26.964  1.00  0.00     0.173 A 
ATOM     57  F   UNL A   1      41.155  24.375  28.490  1.00  0.00    -0.203 F 
ATOM     58  C   UNL A   1      42.452  24.122  26.542  1.00  0.00     0.198 A 
ATOM     59  C   UNL A   1      43.945  25.872  25.856  1.00  0.00     0.198 A 
ATOM     60  F   UNL A   1      44.141  27.828  27.148  1.00  0.00    -0.203 F 
ATOM     61  F   UNL A   1      41.938  22.897  26.359  1.00  0.00    -0.200 F 
ATOM     62  C   UNL A   1      43.392  24.618  25.649  1.00  0.00     0.200 A 
ATOM     63  F   UNL A   1      44.847  26.356  24.990  1.00  0.00    -0.200 F 
ATOM     64  F   UNL A   1      43.770  23.883  24.594  1.00  0.00    -0.200 F 
ENDBRANCH  40  54
BRANCH  41  65
ATOM     65  C   UNL A   1      39.463  31.830  35.513  1.00  0.00     0.064 A 
ATOM     66  C   UNL A   1      39.943  33.128  35.728  1.00  0.00     0.173 A 
ATOM     67  C   UNL A   1      38.523  31.323  36.423  1.00  0.00     0.173 A 
ATOM     68  F   UNL A   1      40.862  33.648  34.901  1.00  0.00    -0.203 F 
ATOM     69  C   UNL A   1      39.512  33.885  36.816  1.00  0.00     0.198 A 
ATOM     70  C   UNL A   1      38.071  32.090  37.495  1.00  0.00     0.198 A 
ATOM     71  F   UNL A   1      38.034  30.084  36.264  1.00  0.00    -0.203 F 
ATOM     72  F   UNL A   1      40.018  35.107  37.023  1.00  0.00    -0.200 F 
ATOM     73  C   UNL A   1      38.571  33.367  37.695  1.00  0.00     0.200 A 
ATOM     74  F   UNL A   1      37.154  31.590  38.334  1.00  0.00    -0.200 F 
ATOM     75  F   UNL A   1      38.154  34.096  38.739  1.00  0.00    -0.200 F 
ENDBRANCH  41  65
BRANCH  53  76
ATOM     76  C   UNL A   1      44.769  27.391  34.645  1.00  0.00     0.064 A 
ATOM     77  C   UNL A   1      45.972  28.105  34.748  1.00  0.00     0.173 A 
ATOM     78  C   UNL A   1      44.600  26.260  35.459  1.00  0.00     0.173 A 
ATOM     79  F   UNL A   1      46.184  29.184  33.980  1.00  0.00    -0.203 F 
ATOM     80  C   UNL A   1      46.976  27.689  35.618  1.00  0.00     0.198 A 
ATOM     81  C   UNL A   1      45.594  25.865  36.348  1.00  0.00     0.198 A 
ATOM     82  F   UNL A   1      43.464  25.550  35.402  1.00  0.00    -0.203 F 
ATOM     83  F   UNL A   1      48.135  28.360  35.670  1.00  0.00    -0.200 F 
ATOM     84  C   UNL A   1      46.783  26.574  36.422  1.00  0.00     0.200 A 
ATOM     85  F   UNL A   1      45.402  24.796  37.134  1.00  0.00    -0.200 F 
ATOM     86  F   UNL A   1      47.748  26.180  37.264  1.00  0.00    -0.200 F 
ENDBRANCH  53  76
ENDBRANCH  27  28
ENDBRANCH  20  22
ENDBRANCH  19  20
ENDBRANCH  18  19
ENDBRANCH   1  18
TORSDOF 14
ENDMDL
