MODEL 1
REMARK VINA RESULT:     -11.4      0.000      0.000
REMARK SMILES CCc1c(C(=O)NCC(=O)OCCOC(=O)c2ccc(-c3c4nc(c(-c5c(F)c(F)c(F)c(F)c5F)c5ccc([nH]5)c(-c5c(F)c(F)c(F)c(F)c5F)c5nc(c(-c6c(F)c(F)c(F)c(F)c6F)c6ccc3[nH]6)C=C5)C=C4)cc2)nnn1-c1ccc(Cl)cc1
REMARK SMILES IDX 12 1 11 2 9 3 10 4 8 5 7 6 5 7 6 8 4 10 3 11 82 12 80 13
REMARK SMILES IDX 81 14 2 15 1 16 83 17 84 18 89 19 85 20 88 21 86 22 87 23
REMARK SMILES IDX 13 24 14 25 15 26 16 27 17 28 18 29 79 30 19 31 78 32 20 33
REMARK SMILES IDX 21 34 22 35 72 36 23 37 77 38 71 39 73 40 24 41 76 42 70 43
REMARK SMILES IDX 69 44 25 46 57 47 37 48 56 49 38 50 41 51 55 52 74 53 39 54
REMARK SMILES IDX 40 55 54 57 75 58 42 59 26 60 27 61 35 62 28 63 29 64 33 65
REMARK SMILES IDX 36 66 30 67 31 68 34 69 32 70 58 71 59 72 67 73 60 74 61 75
REMARK SMILES IDX 65 76 68 77 62 78 63 79 66 80 64 81 43 82 44 83 52 84 45 85
REMARK SMILES IDX 46 86 50 87 53 88 47 89 48 90 51 91 49 92
REMARK H PARENT 7 9 73 45 41 56
REMARK Flexibility Score: inf
ROOT
ATOM      1  C   UNL A   1      41.817  19.460  26.465  1.00  0.00     0.274 C 
ENDROOT
BRANCH   1   2
ATOM      2  O   UNL A   1      42.502  19.349  25.202  1.00  0.00    -0.461 OA
BRANCH   2   3
ATOM      3  C   UNL A   1      43.855  19.188  25.252  1.00  0.00     0.325 C 
ATOM      4  O   UNL A   1      44.432  18.106  25.243  1.00  0.00    -0.250 OA
BRANCH   3   5
ATOM      5  C   UNL A   1      44.605  20.522  25.184  1.00  0.00     0.239 C 
BRANCH   5   6
ATOM      6  N   UNL A   1      43.783  21.679  24.959  1.00  0.00    -0.340 N 
ATOM      7  C   UNL A   1      44.027  23.017  24.894  1.00  0.00     0.274 C 
ATOM      8  O   UNL A   1      43.028  23.684  24.604  1.00  0.00    -0.267 OA
ATOM      9  H   UNL A   1      42.835  21.455  24.823  1.00  0.00     0.164 HD
BRANCH   7  10
ATOM     10  C   UNL A   1      45.309  23.690  25.165  1.00  0.00     0.174 A 
ATOM     11  C   UNL A   1      45.978  24.306  26.235  1.00  0.00     0.077 A 
ATOM     12  N   UNL A   1      47.198  24.698  25.668  1.00  0.00    -0.217 N 
ATOM     13  N   UNL A   1      46.109  23.836  24.039  1.00  0.00    -0.124 NA
ATOM     14  N   UNL A   1      47.179  24.535  24.341  1.00  0.00    -0.061 NA
BRANCH  11  15
ATOM     15  C   UNL A   1      45.660  24.699  27.642  1.00  0.00     0.055 C 
ATOM     16  C   UNL A   1      45.357  26.187  27.782  1.00  0.00     0.011 C 
ENDBRANCH  11  15
BRANCH  12  17
ATOM     17  C   UNL A   1      48.304  25.335  26.280  1.00  0.00     0.067 A 
ATOM     18  C   UNL A   1      48.705  26.591  25.804  1.00  0.00     0.030 A 
ATOM     19  C   UNL A   1      48.959  24.753  27.372  1.00  0.00     0.030 A 
ATOM     20  C   UNL A   1      49.692  27.301  26.485  1.00  0.00     0.023 A 
ATOM     21  C   UNL A   1      49.953  25.465  28.042  1.00  0.00     0.023 A 
ATOM     22  C   UNL A   1      50.301  26.743  27.610  1.00  0.00     0.041 A 
ATOM     23  Cl  UNL A   1      51.488  27.638  28.472  1.00  0.00    -0.084 Cl
ENDBRANCH  12  17
ENDBRANCH   7  10
ENDBRANCH   5   6
ENDBRANCH   3   5
ENDBRANCH   2   3
ENDBRANCH   1   2
BRANCH   1  24
ATOM     24  C   UNL A   1      40.694  20.492  26.386  1.00  0.00     0.275 C 
BRANCH  24  25
ATOM     25  O   UNL A   1      41.130  21.761  26.877  1.00  0.00    -0.458 OA
BRANCH  25  26
ATOM     26  C   UNL A   1      40.201  22.739  26.801  1.00  0.00     0.338 C 
ATOM     27  O   UNL A   1      39.011  22.620  26.577  1.00  0.00    -0.246 OA
BRANCH  26  28
ATOM     28  C   UNL A   1      40.842  24.046  26.945  1.00  0.00     0.060 A 
ATOM     29  C   UNL A   1      41.803  24.175  27.954  1.00  0.00     0.016 A 
ATOM     30  C   UNL A   1      40.270  25.151  26.308  1.00  0.00     0.016 A 
ATOM     31  C   UNL A   1      42.041  25.424  28.475  1.00  0.00     0.010 A 
ATOM     32  C   UNL A   1      40.488  26.393  26.845  1.00  0.00     0.010 A 
ATOM     33  C   UNL A   1      41.301  26.495  27.974  1.00  0.00    -0.014 A 
BRANCH  33  34
ATOM     34  C   UNL A   1      41.373  27.754  28.677  1.00  0.00     0.031 A 
ATOM     35  C   UNL A   1      42.560  28.568  28.348  1.00  0.00     0.074 A 
ATOM     36  C   UNL A   1      40.347  28.169  29.443  1.00  0.00     0.049 A 
ATOM     37  N   UNL A   1      43.466  29.022  29.148  1.00  0.00    -0.248 NA
ATOM     38  C   UNL A   1      42.830  28.816  26.922  1.00  0.00     0.031 C 
ATOM     39  C   UNL A   1      39.023  27.550  29.576  1.00  0.00     0.029 A 
ATOM     40  N   UNL A   1      40.233  29.308  30.175  1.00  0.00    -0.354 N 
ATOM     41  C   UNL A   1      44.326  29.765  28.347  1.00  0.00     0.074 A 
ATOM     42  C   UNL A   1      43.988  29.469  26.981  1.00  0.00     0.031 C 
ATOM     43  C   UNL A   1      38.180  28.431  30.156  1.00  0.00     0.029 A 
ATOM     44  C   UNL A   1      38.932  29.613  30.539  1.00  0.00     0.049 A 
ATOM     45  H   UNL A   1      41.005  29.866  30.422  1.00  0.00     0.167 HD
ATOM     46  C   UNL A   1      45.076  30.771  28.866  1.00  0.00     0.037 A 
ATOM     47  C   UNL A   1      38.498  30.794  31.040  1.00  0.00     0.037 A 
ATOM     48  C   UNL A   1      45.240  30.627  30.288  1.00  0.00     0.049 A 
ATOM     49  C   UNL A   1      39.681  31.526  31.553  1.00  0.00     0.074 A 
ATOM     50  C   UNL A   1      45.827  29.685  31.109  1.00  0.00     0.029 A 
ATOM     51  N   UNL A   1      44.446  31.397  31.099  1.00  0.00    -0.354 N 
ATOM     52  N   UNL A   1      40.378  31.160  32.592  1.00  0.00    -0.248 NA
ATOM     53  C   UNL A   1      40.345  32.473  30.665  1.00  0.00     0.031 C 
ATOM     54  C   UNL A   1      45.036  29.672  32.295  1.00  0.00     0.029 A 
ATOM     55  C   UNL A   1      44.023  30.621  32.147  1.00  0.00     0.049 A 
ATOM     56  H   UNL A   1      44.220  32.344  30.953  1.00  0.00     0.167 HD
ATOM     57  C   UNL A   1      41.689  31.488  32.275  1.00  0.00     0.074 A 
ATOM     58  C   UNL A   1      41.587  32.409  31.150  1.00  0.00     0.031 C 
ATOM     59  C   UNL A   1      42.728  30.757  32.773  1.00  0.00     0.037 A 
BRANCH  46  60
ATOM     60  C   UNL A   1      45.316  32.075  28.147  1.00  0.00     0.064 A 
ATOM     61  C   UNL A   1      44.223  32.923  27.887  1.00  0.00     0.173 A 
ATOM     62  C   UNL A   1      46.505  32.379  27.445  1.00  0.00     0.173 A 
ATOM     63  F   UNL A   1      43.039  32.709  28.478  1.00  0.00    -0.203 F 
ATOM     64  C   UNL A   1      44.298  33.950  26.943  1.00  0.00     0.198 A 
ATOM     65  C   UNL A   1      46.592  33.441  26.549  1.00  0.00     0.198 A 
ATOM     66  F   UNL A   1      47.592  31.600  27.504  1.00  0.00    -0.203 F 
ATOM     67  F   UNL A   1      43.197  34.648  26.633  1.00  0.00    -0.200 F 
ATOM     68  C   UNL A   1      45.480  34.206  26.272  1.00  0.00     0.200 A 
ATOM     69  F   UNL A   1      47.742  33.657  25.895  1.00  0.00    -0.200 F 
ATOM     70  F   UNL A   1      45.536  35.148  25.323  1.00  0.00    -0.200 F 
ENDBRANCH  46  60
BRANCH  47  71
ATOM     71  C   UNL A   1      37.182  31.436  30.830  1.00  0.00     0.064 A 
ATOM     72  C   UNL A   1      36.307  31.669  31.901  1.00  0.00     0.173 A 
ATOM     73  C   UNL A   1      36.860  32.062  29.609  1.00  0.00     0.173 A 
ATOM     74  F   UNL A   1      36.569  31.152  33.111  1.00  0.00    -0.203 F 
ATOM     75  C   UNL A   1      35.183  32.490  31.763  1.00  0.00     0.198 A 
ATOM     76  C   UNL A   1      35.733  32.871  29.468  1.00  0.00     0.198 A 
ATOM     77  F   UNL A   1      37.683  31.977  28.553  1.00  0.00    -0.203 F 
ATOM     78  F   UNL A   1      34.400  32.737  32.822  1.00  0.00    -0.200 F 
ATOM     79  C   UNL A   1      34.900  33.095  30.548  1.00  0.00     0.200 A 
ATOM     80  F   UNL A   1      35.494  33.478  28.297  1.00  0.00    -0.200 F 
ATOM     81  F   UNL A   1      33.854  33.924  30.429  1.00  0.00    -0.200 F 
ENDBRANCH  47  71
BRANCH  59  82
ATOM     82  C   UNL A   1      42.427  29.828  33.913  1.00  0.00     0.064 A 
ATOM     83  C   UNL A   1      41.935  28.522  33.748  1.00  0.00     0.173 A 
ATOM     84  C   UNL A   1      42.771  30.228  35.211  1.00  0.00     0.173 A 
ATOM     85  F   UNL A   1      41.682  28.030  32.529  1.00  0.00    -0.203 F 
ATOM     86  C   UNL A   1      41.748  27.676  34.839  1.00  0.00     0.198 A 
ATOM     87  C   UNL A   1      42.620  29.368  36.295  1.00  0.00     0.198 A 
ATOM     88  F   UNL A   1      43.302  31.444  35.419  1.00  0.00    -0.203 F 
ATOM     89  F   UNL A   1      41.261  26.439  34.656  1.00  0.00    -0.200 F 
ATOM     90  C   UNL A   1      42.098  28.098  36.111  1.00  0.00     0.200 A 
ATOM     91  F   UNL A   1      43.007  29.763  37.516  1.00  0.00    -0.200 F 
ATOM     92  F   UNL A   1      41.958  27.271  37.157  1.00  0.00    -0.200 F 
ENDBRANCH  59  82
ENDBRANCH  33  34
ENDBRANCH  26  28
ENDBRANCH  25  26
ENDBRANCH  24  25
ENDBRANCH   1  24
TORSDOF 15
ENDMDL
MODEL 2
REMARK VINA RESULT:     -11.4      4.679      7.403
REMARK SMILES CCc1c(C(=O)NCC(=O)OCCOC(=O)c2ccc(-c3c4nc(c(-c5c(F)c(F)c(F)c(F)c5F)c5ccc([nH]5)c(-c5c(F)c(F)c(F)c(F)c5F)c5nc(c(-c6c(F)c(F)c(F)c(F)c6F)c6ccc3[nH]6)C=C5)C=C4)cc2)nnn1-c1ccc(Cl)cc1
REMARK SMILES IDX 12 1 11 2 9 3 10 4 8 5 7 6 5 7 6 8 4 10 3 11 82 12 80 13
REMARK SMILES IDX 81 14 2 15 1 16 83 17 84 18 89 19 85 20 88 21 86 22 87 23
REMARK SMILES IDX 13 24 14 25 15 26 16 27 17 28 18 29 79 30 19 31 78 32 20 33
REMARK SMILES IDX 21 34 22 35 72 36 23 37 77 38 71 39 73 40 24 41 76 42 70 43
REMARK SMILES IDX 69 44 25 46 57 47 37 48 56 49 38 50 41 51 55 52 74 53 39 54
REMARK SMILES IDX 40 55 54 57 75 58 42 59 26 60 27 61 35 62 28 63 29 64 33 65
REMARK SMILES IDX 36 66 30 67 31 68 34 69 32 70 58 71 59 72 67 73 60 74 61 75
REMARK SMILES IDX 65 76 68 77 62 78 63 79 66 80 64 81 43 82 44 83 52 84 45 85
REMARK SMILES IDX 46 86 50 87 53 88 47 89 48 90 51 91 49 92
REMARK H PARENT 7 9 73 45 41 56
REMARK Flexibility Score: inf
ROOT
ATOM      1  C   UNL A   1      37.218  21.569  24.764  1.00  0.00     0.274 C 
ENDROOT
BRANCH   1   2
ATOM      2  O   UNL A   1      36.312  20.450  24.820  1.00  0.00    -0.461 OA
BRANCH   2   3
ATOM      3  C   UNL A   1      34.981  20.742  24.885  1.00  0.00     0.325 C 
ATOM      4  O   UNL A   1      34.079  19.966  24.591  1.00  0.00    -0.250 OA
BRANCH   3   5
ATOM      5  C   UNL A   1      34.716  22.120  25.501  1.00  0.00     0.239 C 
BRANCH   5   6
ATOM      6  N   UNL A   1      34.044  22.106  26.771  1.00  0.00    -0.340 N 
ATOM      7  C   UNL A   1      32.979  22.779  27.288  1.00  0.00     0.274 C 
ATOM      8  O   UNL A   1      32.671  22.411  28.427  1.00  0.00    -0.267 OA
ATOM      9  H   UNL A   1      34.442  21.471  27.409  1.00  0.00     0.164 HD
BRANCH   7  10
ATOM     10  C   UNL A   1      32.234  23.873  26.641  1.00  0.00     0.174 A 
ATOM     11  C   UNL A   1      32.448  24.882  25.688  1.00  0.00     0.077 A 
ATOM     12  N   UNL A   1      31.204  25.523  25.614  1.00  0.00    -0.217 N 
ATOM     13  N   UNL A   1      30.945  24.033  27.130  1.00  0.00    -0.124 NA
ATOM     14  N   UNL A   1      30.388  25.089  26.581  1.00  0.00    -0.061 NA
BRANCH  11  15
ATOM     15  C   UNL A   1      33.608  25.435  24.922  1.00  0.00     0.055 C 
ATOM     16  C   UNL A   1      34.363  26.510  25.694  1.00  0.00     0.011 C 
ENDBRANCH  11  15
BRANCH  12  17
ATOM     17  C   UNL A   1      30.800  26.598  24.786  1.00  0.00     0.067 A 
ATOM     18  C   UNL A   1      31.140  27.903  25.167  1.00  0.00     0.030 A 
ATOM     19  C   UNL A   1      30.118  26.367  23.585  1.00  0.00     0.030 A 
ATOM     20  C   UNL A   1      30.885  28.961  24.295  1.00  0.00     0.023 A 
ATOM     21  C   UNL A   1      29.856  27.432  22.724  1.00  0.00     0.023 A 
ATOM     22  C   UNL A   1      30.258  28.720  23.072  1.00  0.00     0.041 A 
ATOM     23  Cl  UNL A   1      29.983  30.020  21.981  1.00  0.00    -0.084 Cl
ENDBRANCH  12  17
ENDBRANCH   7  10
ENDBRANCH   5   6
ENDBRANCH   3   5
ENDBRANCH   2   3
ENDBRANCH   1   2
BRANCH   1  24
ATOM     24  C   UNL A   1      38.352  21.401  25.773  1.00  0.00     0.275 C 
BRANCH  24  25
ATOM     25  O   UNL A   1      38.955  22.658  26.079  1.00  0.00    -0.458 OA
BRANCH  25  26
ATOM     26  C   UNL A   1      40.005  22.584  26.927  1.00  0.00     0.338 C 
ATOM     27  O   UNL A   1      40.362  21.626  27.587  1.00  0.00    -0.246 OA
BRANCH  26  28
ATOM     28  C   UNL A   1      40.655  23.890  27.029  1.00  0.00     0.060 A 
ATOM     29  C   UNL A   1      41.696  24.011  27.957  1.00  0.00     0.016 A 
ATOM     30  C   UNL A   1      40.031  25.000  26.452  1.00  0.00     0.016 A 
ATOM     31  C   UNL A   1      41.975  25.256  28.469  1.00  0.00     0.010 A 
ATOM     32  C   UNL A   1      40.292  26.237  26.981  1.00  0.00     0.010 A 
ATOM     33  C   UNL A   1      41.195  26.330  28.040  1.00  0.00    -0.014 A 
BRANCH  33  34
ATOM     34  C   UNL A   1      41.324  27.583  28.746  1.00  0.00     0.031 A 
ATOM     35  C   UNL A   1      42.526  28.363  28.388  1.00  0.00     0.074 A 
ATOM     36  C   UNL A   1      40.333  28.024  29.542  1.00  0.00     0.049 A 
ATOM     37  N   UNL A   1      43.466  28.786  29.165  1.00  0.00    -0.248 NA
ATOM     38  C   UNL A   1      42.764  28.610  26.957  1.00  0.00     0.031 C 
ATOM     39  C   UNL A   1      38.994  27.444  29.708  1.00  0.00     0.029 A 
ATOM     40  N   UNL A   1      40.272  29.163  30.281  1.00  0.00    -0.354 N 
ATOM     41  C   UNL A   1      44.326  29.506  28.345  1.00  0.00     0.074 A 
ATOM     42  C   UNL A   1      43.942  29.228  26.987  1.00  0.00     0.031 C 
ATOM     43  C   UNL A   1      38.194  28.347  30.315  1.00  0.00     0.029 A 
ATOM     44  C   UNL A   1      38.991  29.504  30.682  1.00  0.00     0.049 A 
ATOM     45  H   UNL A   1      41.067  29.696  30.510  1.00  0.00     0.167 HD
ATOM     46  C   UNL A   1      45.120  30.487  28.847  1.00  0.00     0.037 A 
ATOM     47  C   UNL A   1      38.607  30.694  31.200  1.00  0.00     0.037 A 
ATOM     48  C   UNL A   1      45.318  30.331  30.264  1.00  0.00     0.049 A 
ATOM     49  C   UNL A   1      39.825  31.389  31.684  1.00  0.00     0.074 A 
ATOM     50  C   UNL A   1      45.899  29.368  31.064  1.00  0.00     0.029 A 
ATOM     51  N   UNL A   1      44.570  31.120  31.099  1.00  0.00    -0.354 N 
ATOM     52  N   UNL A   1      40.539  30.996  32.701  1.00  0.00    -0.248 NA
ATOM     53  C   UNL A   1      40.492  32.320  30.782  1.00  0.00     0.031 C 
ATOM     54  C   UNL A   1      45.141  29.373  32.271  1.00  0.00     0.029 A 
ATOM     55  C   UNL A   1      44.153  30.352  32.154  1.00  0.00     0.049 A 
ATOM     56  H   UNL A   1      44.368  32.074  30.963  1.00  0.00     0.167 HD
ATOM     57  C   UNL A   1      41.849  31.287  32.350  1.00  0.00     0.074 A 
ATOM     58  C   UNL A   1      41.745  32.217  31.233  1.00  0.00     0.031 C 
ATOM     59  C   UNL A   1      42.880  30.523  32.816  1.00  0.00     0.037 A 
BRANCH  46  60
ATOM     60  C   UNL A   1      45.379  31.787  28.127  1.00  0.00     0.064 A 
ATOM     61  C   UNL A   1      44.291  32.626  27.819  1.00  0.00     0.173 A 
ATOM     62  C   UNL A   1      46.591  32.094  27.468  1.00  0.00     0.173 A 
ATOM     63  F   UNL A   1      43.087  32.409  28.366  1.00  0.00    -0.203 F 
ATOM     64  C   UNL A   1      44.396  33.646  26.871  1.00  0.00     0.198 A 
ATOM     65  C   UNL A   1      46.706  33.149  26.568  1.00  0.00     0.198 A 
ATOM     66  F   UNL A   1      47.681  31.322  27.575  1.00  0.00    -0.203 F 
ATOM     67  F   UNL A   1      43.304  34.335  26.514  1.00  0.00    -0.200 F 
ATOM     68  C   UNL A   1      45.601  33.905  26.243  1.00  0.00     0.200 A 
ATOM     69  F   UNL A   1      47.879  33.368  25.957  1.00  0.00    -0.200 F 
ATOM     70  F   UNL A   1      45.688  34.840  25.290  1.00  0.00    -0.200 F 
ENDBRANCH  46  60
BRANCH  47  71
ATOM     71  C   UNL A   1      37.306  31.377  31.029  1.00  0.00     0.064 A 
ATOM     72  C   UNL A   1      36.450  31.597  32.119  1.00  0.00     0.173 A 
ATOM     73  C   UNL A   1      36.984  32.051  29.833  1.00  0.00     0.173 A 
ATOM     74  F   UNL A   1      36.714  31.034  33.307  1.00  0.00    -0.203 F 
ATOM     75  C   UNL A   1      35.347  32.451  32.022  1.00  0.00     0.198 A 
ATOM     76  C   UNL A   1      35.877  32.892  29.734  1.00  0.00     0.198 A 
ATOM     77  F   UNL A   1      37.791  31.979  28.764  1.00  0.00    -0.203 F 
ATOM     78  F   UNL A   1      34.584  32.683  33.099  1.00  0.00    -0.200 F 
ATOM     79  C   UNL A   1      35.064  33.102  30.832  1.00  0.00     0.200 A 
ATOM     80  F   UNL A   1      35.639  33.543  28.587  1.00  0.00    -0.200 F 
ATOM     81  F   UNL A   1      34.039  33.961  30.754  1.00  0.00    -0.200 F 
ENDBRANCH  47  71
BRANCH  59  82
ATOM     82  C   UNL A   1      42.582  29.597  33.961  1.00  0.00     0.064 A 
ATOM     83  C   UNL A   1      42.006  28.325  33.807  1.00  0.00     0.173 A 
ATOM     84  C   UNL A   1      43.014  29.959  35.243  1.00  0.00     0.173 A 
ATOM     85  F   UNL A   1      41.662  27.866  32.597  1.00  0.00    -0.203 F 
ATOM     86  C   UNL A   1      41.824  27.477  34.897  1.00  0.00     0.198 A 
ATOM     87  C   UNL A   1      42.867  29.094  36.324  1.00  0.00     0.198 A 
ATOM     88  F   UNL A   1      43.626  31.138  35.437  1.00  0.00    -0.203 F 
ATOM     89  F   UNL A   1      41.256  26.273  34.726  1.00  0.00    -0.200 F 
ATOM     90  C   UNL A   1      42.262  27.860  36.154  1.00  0.00     0.200 A 
ATOM     91  F   UNL A   1      43.339  29.448  37.528  1.00  0.00    -0.200 F 
ATOM     92  F   UNL A   1      42.127  27.027  37.196  1.00  0.00    -0.200 F 
ENDBRANCH  59  82
ENDBRANCH  33  34
ENDBRANCH  26  28
ENDBRANCH  25  26
ENDBRANCH  24  25
ENDBRANCH   1  24
TORSDOF 15
ENDMDL
MODEL 3
REMARK VINA RESULT:     -11.2      5.483     10.864
REMARK SMILES CCc1c(C(=O)NCC(=O)OCCOC(=O)c2ccc(-c3c4nc(c(-c5c(F)c(F)c(F)c(F)c5F)c5ccc([nH]5)c(-c5c(F)c(F)c(F)c(F)c5F)c5nc(c(-c6c(F)c(F)c(F)c(F)c6F)c6ccc3[nH]6)C=C5)C=C4)cc2)nnn1-c1ccc(Cl)cc1
REMARK SMILES IDX 12 1 11 2 9 3 10 4 8 5 7 6 5 7 6 8 4 10 3 11 82 12 80 13
REMARK SMILES IDX 81 14 2 15 1 16 83 17 84 18 89 19 85 20 88 21 86 22 87 23
REMARK SMILES IDX 13 24 14 25 15 26 16 27 17 28 18 29 79 30 19 31 78 32 20 33
REMARK SMILES IDX 21 34 22 35 72 36 23 37 77 38 71 39 73 40 24 41 76 42 70 43
REMARK SMILES IDX 69 44 25 46 57 47 37 48 56 49 38 50 41 51 55 52 74 53 39 54
REMARK SMILES IDX 40 55 54 57 75 58 42 59 26 60 27 61 35 62 28 63 29 64 33 65
REMARK SMILES IDX 36 66 30 67 31 68 34 69 32 70 58 71 59 72 67 73 60 74 61 75
REMARK SMILES IDX 65 76 68 77 62 78 63 79 66 80 64 81 43 82 44 83 52 84 45 85
REMARK SMILES IDX 46 86 50 87 53 88 47 89 48 90 51 91 49 92
REMARK H PARENT 7 9 73 45 41 56
REMARK Flexibility Score: inf
ROOT
ATOM      1  C   UNL A   1      32.407  30.265  26.095  1.00  0.00     0.274 C 
ENDROOT
BRANCH   1   2
ATOM      2  O   UNL A   1      32.806  28.894  25.896  1.00  0.00    -0.461 OA
BRANCH   2   3
ATOM      3  C   UNL A   1      31.806  27.989  25.690  1.00  0.00     0.325 C 
ATOM      4  O   UNL A   1      31.204  27.397  26.580  1.00  0.00    -0.250 OA
BRANCH   3   5
ATOM      5  C   UNL A   1      31.409  27.883  24.214  1.00  0.00     0.239 C 
BRANCH   5   6
ATOM      6  N   UNL A   1      32.478  28.080  23.274  1.00  0.00    -0.340 N 
ATOM      7  C   UNL A   1      33.278  27.242  22.559  1.00  0.00     0.274 C 
ATOM      8  O   UNL A   1      34.045  27.833  21.791  1.00  0.00    -0.267 OA
ATOM      9  H   UNL A   1      32.676  29.030  23.112  1.00  0.00     0.164 HD
BRANCH   7  10
ATOM     10  C   UNL A   1      33.318  25.773  22.656  1.00  0.00     0.174 A 
ATOM     11  C   UNL A   1      33.324  24.775  23.643  1.00  0.00     0.077 A 
ATOM     12  N   UNL A   1      33.365  23.587  22.901  1.00  0.00    -0.217 N 
ATOM     13  N   UNL A   1      33.450  25.138  21.428  1.00  0.00    -0.124 NA
ATOM     14  N   UNL A   1      33.585  23.845  21.607  1.00  0.00    -0.061 NA
BRANCH  11  15
ATOM     15  C   UNL A   1      33.413  24.714  25.135  1.00  0.00     0.055 C 
ATOM     16  C   UNL A   1      34.451  25.676  25.702  1.00  0.00     0.011 C 
ENDBRANCH  11  15
BRANCH  12  17
ATOM     17  C   UNL A   1      33.348  22.247  23.357  1.00  0.00     0.067 A 
ATOM     18  C   UNL A   1      34.345  21.828  24.247  1.00  0.00     0.030 A 
ATOM     19  C   UNL A   1      32.331  21.366  22.970  1.00  0.00     0.030 A 
ATOM     20  C   UNL A   1      34.262  20.561  24.824  1.00  0.00     0.023 A 
ATOM     21  C   UNL A   1      32.261  20.097  23.541  1.00  0.00     0.023 A 
ATOM     22  C   UNL A   1      33.214  19.707  24.481  1.00  0.00     0.041 A 
ATOM     23  Cl  UNL A   1      33.091  18.162  25.225  1.00  0.00    -0.084 Cl
ENDBRANCH  12  17
ENDBRANCH   7  10
ENDBRANCH   5   6
ENDBRANCH   3   5
ENDBRANCH   2   3
ENDBRANCH   1   2
BRANCH   1  24
ATOM     24  C   UNL A   1      33.128  30.871  27.296  1.00  0.00     0.275 C 
BRANCH  24  25
ATOM     25  O   UNL A   1      34.539  30.671  27.202  1.00  0.00    -0.458 OA
BRANCH  25  26
ATOM     26  C   UNL A   1      35.282  31.637  27.787  1.00  0.00     0.338 C 
ATOM     27  O   UNL A   1      35.226  32.837  27.596  1.00  0.00    -0.246 OA
BRANCH  26  28
ATOM     28  C   UNL A   1      36.279  31.032  28.668  1.00  0.00     0.060 A 
ATOM     29  C   UNL A   1      37.284  31.871  29.163  1.00  0.00     0.016 A 
ATOM     30  C   UNL A   1      36.371  29.637  28.725  1.00  0.00     0.016 A 
ATOM     31  C   UNL A   1      38.484  31.310  29.530  1.00  0.00     0.010 A 
ATOM     32  C   UNL A   1      37.576  29.081  29.066  1.00  0.00     0.010 A 
ATOM     33  C   UNL A   1      38.637  29.932  29.377  1.00  0.00    -0.014 A 
BRANCH  33  34
ATOM     34  C   UNL A   1      39.961  29.377  29.532  1.00  0.00     0.031 A 
ATOM     35  C   UNL A   1      40.446  29.339  30.926  1.00  0.00     0.074 A 
ATOM     36  C   UNL A   1      40.596  28.823  28.483  1.00  0.00     0.049 A 
ATOM     37  N   UNL A   1      41.517  29.868  31.416  1.00  0.00    -0.248 NA
ATOM     38  C   UNL A   1      39.563  28.718  31.926  1.00  0.00     0.031 C 
ATOM     39  C   UNL A   1      40.053  28.563  27.144  1.00  0.00     0.029 A 
ATOM     40  N   UNL A   1      41.831  28.259  28.432  1.00  0.00    -0.354 N 
ATOM     41  C   UNL A   1      41.532  29.496  32.755  1.00  0.00     0.074 A 
ATOM     42  C   UNL A   1      40.240  28.939  33.051  1.00  0.00     0.031 C 
ATOM     43  C   UNL A   1      40.868  27.704  26.495  1.00  0.00     0.029 A 
ATOM     44  C   UNL A   1      42.037  27.456  27.322  1.00  0.00     0.049 A 
ATOM     45  H   UNL A   1      42.516  28.407  29.123  1.00  0.00     0.167 HD
ATOM     46  C   UNL A   1      42.696  29.429  33.451  1.00  0.00     0.037 A 
ATOM     47  C   UNL A   1      43.058  26.585  27.145  1.00  0.00     0.037 A 
ATOM     48  C   UNL A   1      43.727  30.221  32.835  1.00  0.00     0.049 A 
ATOM     49  C   UNL A   1      44.135  26.955  28.094  1.00  0.00     0.074 A 
ATOM     50  C   UNL A   1      43.893  31.566  32.571  1.00  0.00     0.029 A 
ATOM     51  N   UNL A   1      44.660  29.565  32.074  1.00  0.00    -0.354 N 
ATOM     52  N   UNL A   1      44.842  28.047  28.013  1.00  0.00    -0.248 NA
ATOM     53  C   UNL A   1      44.171  26.290  29.390  1.00  0.00     0.031 C 
ATOM     54  C   UNL A   1      44.633  31.623  31.354  1.00  0.00     0.029 A 
ATOM     55  C   UNL A   1      44.900  30.313  30.951  1.00  0.00     0.049 A 
ATOM     56  H   UNL A   1      45.085  28.706  32.296  1.00  0.00     0.167 HD
ATOM     57  C   UNL A   1      45.064  28.427  29.328  1.00  0.00     0.074 A 
ATOM     58  C   UNL A   1      44.750  27.245  30.122  1.00  0.00     0.031 C 
ATOM     59  C   UNL A   1      45.203  29.744  29.658  1.00  0.00     0.037 A 
BRANCH  46  60
ATOM     60  C   UNL A   1      42.995  28.341  34.452  1.00  0.00     0.064 A 
ATOM     61  C   UNL A   1      43.349  28.699  35.767  1.00  0.00     0.173 A 
ATOM     62  C   UNL A   1      43.242  26.994  34.100  1.00  0.00     0.173 A 
ATOM     63  F   UNL A   1      43.183  29.958  36.198  1.00  0.00    -0.203 F 
ATOM     64  C   UNL A   1      43.968  27.795  36.633  1.00  0.00     0.198 A 
ATOM     65  C   UNL A   1      43.805  26.081  34.988  1.00  0.00     0.198 A 
ATOM     66  F   UNL A   1      43.061  26.533  32.856  1.00  0.00    -0.203 F 
ATOM     67  F   UNL A   1      44.404  28.215  37.829  1.00  0.00    -0.200 F 
ATOM     68  C   UNL A   1      44.199  26.489  36.243  1.00  0.00     0.200 A 
ATOM     69  F   UNL A   1      44.039  24.825  34.580  1.00  0.00    -0.200 F 
ATOM     70  F   UNL A   1      44.847  25.639  37.049  1.00  0.00    -0.200 F 
ENDBRANCH  46  60
BRANCH  47  71
ATOM     71  C   UNL A   1      43.029  25.294  26.422  1.00  0.00     0.064 A 
ATOM     72  C   UNL A   1      43.916  25.030  25.368  1.00  0.00     0.173 A 
ATOM     73  C   UNL A   1      42.297  24.196  26.916  1.00  0.00     0.173 A 
ATOM     74  F   UNL A   1      44.687  26.010  24.875  1.00  0.00    -0.203 F 
ATOM     75  C   UNL A   1      44.070  23.742  24.847  1.00  0.00     0.198 A 
ATOM     76  C   UNL A   1      42.442  22.914  26.388  1.00  0.00     0.198 A 
ATOM     77  F   UNL A   1      41.493  24.327  27.982  1.00  0.00    -0.203 F 
ATOM     78  F   UNL A   1      44.968  23.515  23.878  1.00  0.00    -0.200 F 
ATOM     79  C   UNL A   1      43.337  22.684  25.361  1.00  0.00     0.200 A 
ATOM     80  F   UNL A   1      41.754  21.894  26.921  1.00  0.00    -0.200 F 
ATOM     81  F   UNL A   1      43.524  21.440  24.899  1.00  0.00    -0.200 F 
ENDBRANCH  47  71
BRANCH  59  82
ATOM     82  C   UNL A   1      45.443  30.709  28.533  1.00  0.00     0.064 A 
ATOM     83  C   UNL A   1      44.416  31.304  27.780  1.00  0.00     0.173 A 
ATOM     84  C   UNL A   1      46.753  31.145  28.294  1.00  0.00     0.173 A 
ATOM     85  F   UNL A   1      43.131  31.016  28.021  1.00  0.00    -0.203 F 
ATOM     86  C   UNL A   1      44.695  32.252  26.799  1.00  0.00     0.198 A 
ATOM     87  C   UNL A   1      47.026  32.121  27.340  1.00  0.00     0.198 A 
ATOM     88  F   UNL A   1      47.767  30.655  29.025  1.00  0.00    -0.203 F 
ATOM     89  F   UNL A   1      43.697  32.793  26.083  1.00  0.00    -0.200 F 
ATOM     90  C   UNL A   1      45.999  32.666  26.585  1.00  0.00     0.200 A 
ATOM     91  F   UNL A   1      48.283  32.555  27.172  1.00  0.00    -0.200 F 
ATOM     92  F   UNL A   1      46.265  33.609  25.671  1.00  0.00    -0.200 F 
ENDBRANCH  59  82
ENDBRANCH  33  34
ENDBRANCH  26  28
ENDBRANCH  25  26
ENDBRANCH  24  25
ENDBRANCH   1  24
TORSDOF 15
ENDMDL
