MODEL 1
REMARK VINA RESULT:     -11.8      0.000      0.000
REMARK SMILES C[C@@H](C(=O)OCCOC(=O)c1ccc(-c2c3nc(c(-c4c(F)c(F)c(F)c(F)c4F)c4ccc([nH]4)c(-c4c(F)c(F)c(F)c(F)c4F)c4nc(c(-c5c(F)c(F)c(F)c(F)c5F)c5ccc2[nH]5)C=C4)C=C3)cc1)c1ccn(C(F)F)c(=O)c1
REMARK SMILES IDX 6 1 5 2 3 3 4 4 2 5 1 6 74 7 75 8 83 9 76 10 81 11 77 12
REMARK SMILES IDX 82 13 78 14 79 15 80 16 7 17 8 18 9 19 10 20 11 21 12 22
REMARK SMILES IDX 73 23 13 24 72 25 14 26 15 27 16 28 66 29 17 30 71 31 65 32
REMARK SMILES IDX 67 33 18 34 70 35 64 36 63 37 19 39 51 40 31 41 50 42 32 43
REMARK SMILES IDX 35 44 49 45 68 46 33 47 34 48 48 50 69 51 36 52 20 53 21 54
REMARK SMILES IDX 29 55 22 56 23 57 27 58 30 59 24 60 25 61 28 62 26 63 52 64
REMARK SMILES IDX 53 65 61 66 54 67 55 68 59 69 62 70 56 71 57 72 60 73 58 74
REMARK SMILES IDX 37 75 38 76 46 77 39 78 40 79 44 80 47 81 41 82 42 83 45 84
REMARK SMILES IDX 43 85
REMARK H PARENT 67 38 35 49
REMARK Flexibility Score: inf
ROOT
ATOM      1  C   UNL A   1      32.627  29.324  25.098  1.00  0.00     0.274 C 
ENDROOT
BRANCH   1   2
ATOM      2  O   UNL A   1      31.817  28.155  24.848  1.00  0.00    -0.462 OA
BRANCH   2   3
ATOM      3  C   UNL A   1      32.251  27.305  23.876  1.00  0.00     0.313 C 
ATOM      4  O   UNL A   1      33.428  27.016  23.692  1.00  0.00    -0.252 OA
BRANCH   3   5
ATOM      5  C   UNL A   1      31.104  26.810  22.980  1.00  0.00     0.126 C 
ATOM      6  C   UNL A   1      31.571  26.124  21.693  1.00  0.00     0.025 C 
BRANCH   5   7
ATOM      7  C   UNL A   1      30.111  27.945  22.743  1.00  0.00    -0.027 A 
ATOM      8  C   UNL A   1      30.533  29.178  22.101  1.00  0.00     0.023 A 
ATOM      9  C   UNL A   1      28.828  27.838  23.138  1.00  0.00     0.076 A 
ATOM     10  C   UNL A   1      29.681  30.204  21.965  1.00  0.00     0.095 A 
ATOM     11  C   UNL A   1      27.867  28.969  22.993  1.00  0.00     0.255 A 
ATOM     12  N   UNL A   1      28.383  30.125  22.432  1.00  0.00    -0.258 N 
ATOM     13  O   UNL A   1      26.716  28.815  23.390  1.00  0.00    -0.269 OA
BRANCH  12  14
ATOM     14  C   UNL A   1      27.504  31.267  22.364  1.00  0.00     0.451 C 
ATOM     15  F   UNL A   1      27.309  31.803  23.591  1.00  0.00    -0.185 F 
ATOM     16  F   UNL A   1      28.028  32.227  21.561  1.00  0.00    -0.185 F 
ENDBRANCH  12  14
ENDBRANCH   5   7
ENDBRANCH   3   5
ENDBRANCH   2   3
ENDBRANCH   1   2
BRANCH   1  17
ATOM     17  C   UNL A   1      31.803  30.393  25.809  1.00  0.00     0.275 C 
BRANCH  17  18
ATOM     18  O   UNL A   1      32.324  30.577  27.136  1.00  0.00    -0.458 OA
BRANCH  18  19
ATOM     19  C   UNL A   1      33.060  31.692  27.343  1.00  0.00     0.338 C 
ATOM     20  O   UNL A   1      32.711  32.850  27.199  1.00  0.00    -0.246 OA
BRANCH  19  21
ATOM     21  C   UNL A   1      34.407  31.315  27.816  1.00  0.00     0.060 A 
ATOM     22  C   UNL A   1      34.720  29.980  28.060  1.00  0.00     0.016 A 
ATOM     23  C   UNL A   1      35.326  32.315  28.140  1.00  0.00     0.016 A 
ATOM     24  C   UNL A   1      35.903  29.655  28.722  1.00  0.00     0.010 A 
ATOM     25  C   UNL A   1      36.552  31.974  28.724  1.00  0.00     0.010 A 
ATOM     26  C   UNL A   1      36.836  30.643  29.075  1.00  0.00    -0.014 A 
BRANCH  26  27
ATOM     27  C   UNL A   1      38.052  30.297  29.874  1.00  0.00     0.031 A 
ATOM     28  C   UNL A   1      39.167  29.488  29.257  1.00  0.00     0.074 A 
ATOM     29  C   UNL A   1      38.207  30.743  31.138  1.00  0.00     0.049 A 
ATOM     30  N   UNL A   1      40.206  28.931  29.831  1.00  0.00    -0.248 NA
ATOM     31  C   UNL A   1      39.108  29.270  27.803  1.00  0.00     0.031 C 
ATOM     32  C   UNL A   1      37.259  31.588  31.864  1.00  0.00     0.029 A 
ATOM     33  N   UNL A   1      39.241  30.569  32.028  1.00  0.00    -0.354 N 
ATOM     34  C   UNL A   1      40.865  28.226  28.834  1.00  0.00     0.074 A 
ATOM     35  C   UNL A   1      40.132  28.450  27.606  1.00  0.00     0.031 C 
ATOM     36  C   UNL A   1      37.787  31.926  33.049  1.00  0.00     0.029 A 
ATOM     37  C   UNL A   1      39.061  31.235  33.216  1.00  0.00     0.049 A 
ATOM     38  H   UNL A   1      40.033  30.019  31.832  1.00  0.00     0.167 HD
ATOM     39  C   UNL A   1      41.971  27.449  28.934  1.00  0.00     0.037 A 
ATOM     40  C   UNL A   1      39.811  31.260  34.335  1.00  0.00     0.037 A 
ATOM     41  C   UNL A   1      42.751  27.286  30.133  1.00  0.00     0.049 A 
ATOM     42  C   UNL A   1      41.046  30.410  34.420  1.00  0.00     0.074 A 
ATOM     43  C   UNL A   1      43.880  26.507  30.331  1.00  0.00     0.029 A 
ATOM     44  N   UNL A   1      42.506  27.942  31.328  1.00  0.00    -0.354 N 
ATOM     45  N   UNL A   1      41.578  29.634  33.508  1.00  0.00    -0.248 NA
ATOM     46  C   UNL A   1      41.759  30.405  35.706  1.00  0.00     0.031 C 
ATOM     47  C   UNL A   1      44.310  26.683  31.653  1.00  0.00     0.029 A 
ATOM     48  C   UNL A   1      43.465  27.593  32.266  1.00  0.00     0.049 A 
ATOM     49  H   UNL A   1      41.761  28.565  31.489  1.00  0.00     0.167 HD
ATOM     50  C   UNL A   1      42.674  29.036  34.114  1.00  0.00     0.074 A 
ATOM     51  C   UNL A   1      42.756  29.566  35.458  1.00  0.00     0.031 C 
ATOM     52  C   UNL A   1      43.525  28.113  33.605  1.00  0.00     0.037 A 
BRANCH  39  53
ATOM     53  C   UNL A   1      42.391  26.673  27.721  1.00  0.00     0.064 A 
ATOM     54  C   UNL A   1      43.381  27.140  26.847  1.00  0.00     0.173 A 
ATOM     55  C   UNL A   1      41.825  25.415  27.465  1.00  0.00     0.173 A 
ATOM     56  F   UNL A   1      43.936  28.346  27.039  1.00  0.00    -0.203 F 
ATOM     57  C   UNL A   1      43.781  26.379  25.751  1.00  0.00     0.198 A 
ATOM     58  C   UNL A   1      42.244  24.647  26.382  1.00  0.00     0.198 A 
ATOM     59  F   UNL A   1      40.874  24.924  28.274  1.00  0.00    -0.203 F 
ATOM     60  F   UNL A   1      44.706  26.858  24.907  1.00  0.00    -0.200 F 
ATOM     61  C   UNL A   1      43.218  25.132  25.524  1.00  0.00     0.200 A 
ATOM     62  F   UNL A   1      41.703  23.439  26.170  1.00  0.00    -0.200 F 
ATOM     63  F   UNL A   1      43.612  24.397  24.473  1.00  0.00    -0.200 F 
ENDBRANCH  39  53
BRANCH  40  64
ATOM     64  C   UNL A   1      39.378  32.086  35.491  1.00  0.00     0.064 A 
ATOM     65  C   UNL A   1      38.524  31.560  36.469  1.00  0.00     0.173 A 
ATOM     66  C   UNL A   1      39.822  33.407  35.650  1.00  0.00     0.173 A 
ATOM     67  F   UNL A   1      38.043  30.316  36.338  1.00  0.00    -0.203 F 
ATOM     68  C   UNL A   1      38.132  32.325  37.566  1.00  0.00     0.198 A 
ATOM     69  C   UNL A   1      39.453  34.160  36.761  1.00  0.00     0.198 A 
ATOM     70  F   UNL A   1      40.632  33.957  34.734  1.00  0.00    -0.203 F 
ATOM     71  F   UNL A   1      37.287  31.812  38.471  1.00  0.00    -0.200 F 
ATOM     72  C   UNL A   1      38.606  33.620  37.717  1.00  0.00     0.200 A 
ATOM     73  F   UNL A   1      39.920  35.408  36.906  1.00  0.00    -0.200 F 
ATOM     74  F   UNL A   1      38.239  34.351  38.778  1.00  0.00    -0.200 F 
ENDBRANCH  40  64
BRANCH  52  75
ATOM     75  C   UNL A   1      44.605  27.608  34.511  1.00  0.00     0.064 A 
ATOM     76  C   UNL A   1      45.838  28.272  34.607  1.00  0.00     0.173 A 
ATOM     77  C   UNL A   1      44.401  26.473  35.308  1.00  0.00     0.173 A 
ATOM     78  F   UNL A   1      46.082  29.354  33.853  1.00  0.00    -0.203 F 
ATOM     79  C   UNL A   1      46.835  27.804  35.456  1.00  0.00     0.198 A 
ATOM     80  C   UNL A   1      45.395  26.019  36.170  1.00  0.00     0.198 A 
ATOM     81  F   UNL A   1      43.237  25.810  35.253  1.00  0.00    -0.203 F 
ATOM     82  F   UNL A   1      48.018  28.432  35.508  1.00  0.00    -0.200 F 
ATOM     83  C   UNL A   1      46.612  26.681  36.240  1.00  0.00     0.200 A 
ATOM     84  F   UNL A   1      45.177  24.937  36.931  1.00  0.00    -0.200 F 
ATOM     85  F   UNL A   1      47.574  26.232  37.058  1.00  0.00    -0.200 F 
ENDBRANCH  52  75
ENDBRANCH  26  27
ENDBRANCH  19  21
ENDBRANCH  18  19
ENDBRANCH  17  18
ENDBRANCH   1  17
TORSDOF 13
ENDMDL
MODEL 2
REMARK VINA RESULT:     -11.8      5.544     10.623
REMARK SMILES C[C@@H](C(=O)OCCOC(=O)c1ccc(-c2c3nc(c(-c4c(F)c(F)c(F)c(F)c4F)c4ccc([nH]4)c(-c4c(F)c(F)c(F)c(F)c4F)c4nc(c(-c5c(F)c(F)c(F)c(F)c5F)c5ccc2[nH]5)C=C4)C=C3)cc1)c1ccn(C(F)F)c(=O)c1
REMARK SMILES IDX 6 1 5 2 3 3 4 4 2 5 1 6 74 7 75 8 83 9 76 10 81 11 77 12
REMARK SMILES IDX 82 13 78 14 79 15 80 16 7 17 8 18 9 19 10 20 11 21 12 22
REMARK SMILES IDX 73 23 13 24 72 25 14 26 15 27 16 28 66 29 17 30 71 31 65 32
REMARK SMILES IDX 67 33 18 34 70 35 64 36 63 37 19 39 51 40 31 41 50 42 32 43
REMARK SMILES IDX 35 44 49 45 68 46 33 47 34 48 48 50 69 51 36 52 20 53 21 54
REMARK SMILES IDX 29 55 22 56 23 57 27 58 30 59 24 60 25 61 28 62 26 63 52 64
REMARK SMILES IDX 53 65 61 66 54 67 55 68 59 69 62 70 56 71 57 72 60 73 58 74
REMARK SMILES IDX 37 75 38 76 46 77 39 78 40 79 44 80 47 81 41 82 42 83 45 84
REMARK SMILES IDX 43 85
REMARK H PARENT 67 38 35 49
REMARK Flexibility Score: inf
ROOT
ATOM      1  C   UNL A   1      35.955  22.541  23.843  1.00  0.00     0.274 C 
ENDROOT
BRANCH   1   2
ATOM      2  O   UNL A   1      34.550  22.539  23.508  1.00  0.00    -0.462 OA
BRANCH   2   3
ATOM      3  C   UNL A   1      33.675  22.746  24.530  1.00  0.00     0.313 C 
ATOM      4  O   UNL A   1      33.956  23.343  25.564  1.00  0.00    -0.252 OA
BRANCH   3   5
ATOM      5  C   UNL A   1      32.315  22.077  24.279  1.00  0.00     0.126 C 
ATOM      6  C   UNL A   1      31.204  22.550  25.220  1.00  0.00     0.025 C 
BRANCH   5   7
ATOM      7  C   UNL A   1      32.487  20.561  24.249  1.00  0.00    -0.027 A 
ATOM      8  C   UNL A   1      32.943  19.842  25.426  1.00  0.00     0.023 A 
ATOM      9  C   UNL A   1      32.237  19.855  23.129  1.00  0.00     0.076 A 
ATOM     10  C   UNL A   1      33.171  18.522  25.376  1.00  0.00     0.095 A 
ATOM     11  C   UNL A   1      32.483  18.386  23.056  1.00  0.00     0.255 A 
ATOM     12  N   UNL A   1      32.984  17.806  24.209  1.00  0.00    -0.258 N 
ATOM     13  O   UNL A   1      32.254  17.805  22.000  1.00  0.00    -0.269 OA
BRANCH  12  14
ATOM     14  C   UNL A   1      33.320  16.404  24.142  1.00  0.00     0.451 C 
ATOM     15  F   UNL A   1      34.403  16.202  23.355  1.00  0.00    -0.185 F 
ATOM     16  F   UNL A   1      33.599  15.919  25.377  1.00  0.00    -0.185 F 
ENDBRANCH  12  14
ENDBRANCH   5   7
ENDBRANCH   3   5
ENDBRANCH   2   3
ENDBRANCH   1   2
BRANCH   1  17
ATOM     17  C   UNL A   1      36.345  21.212  24.483  1.00  0.00     0.275 C 
BRANCH  17  18
ATOM     18  O   UNL A   1      36.974  21.471  25.749  1.00  0.00    -0.458 OA
BRANCH  18  19
ATOM     19  C   UNL A   1      38.319  21.336  25.791  1.00  0.00     0.338 C 
ATOM     20  O   UNL A   1      38.985  20.404  25.376  1.00  0.00    -0.246 OA
BRANCH  19  21
ATOM     21  C   UNL A   1      38.917  22.536  26.410  1.00  0.00     0.060 A 
ATOM     22  C   UNL A   1      38.392  23.799  26.150  1.00  0.00     0.016 A 
ATOM     23  C   UNL A   1      40.089  22.410  27.157  1.00  0.00     0.016 A 
ATOM     24  C   UNL A   1      39.095  24.937  26.544  1.00  0.00     0.010 A 
ATOM     25  C   UNL A   1      40.743  23.555  27.628  1.00  0.00     0.010 A 
ATOM     26  C   UNL A   1      40.286  24.838  27.281  1.00  0.00    -0.014 A 
BRANCH  26  27
ATOM     27  C   UNL A   1      41.085  26.059  27.611  1.00  0.00     0.031 A 
ATOM     28  C   UNL A   1      40.518  27.119  28.525  1.00  0.00     0.074 A 
ATOM     29  C   UNL A   1      42.343  26.216  27.150  1.00  0.00     0.049 A 
ATOM     30  N   UNL A   1      40.969  28.322  28.781  1.00  0.00    -0.248 NA
ATOM     31  C   UNL A   1      39.278  26.787  29.244  1.00  0.00     0.031 C 
ATOM     32  C   UNL A   1      43.066  25.261  26.311  1.00  0.00     0.029 A 
ATOM     33  N   UNL A   1      43.249  27.230  27.350  1.00  0.00    -0.354 N 
ATOM     34  C   UNL A   1      40.027  28.919  29.609  1.00  0.00     0.074 A 
ATOM     35  C   UNL A   1      38.993  27.935  29.844  1.00  0.00     0.031 C 
ATOM     36  C   UNL A   1      44.324  25.691  26.137  1.00  0.00     0.029 A 
ATOM     37  C   UNL A   1      44.468  27.004  26.757  1.00  0.00     0.049 A 
ATOM     38  H   UNL A   1      43.044  28.042  27.868  1.00  0.00     0.167 HD
ATOM     39  C   UNL A   1      40.018  30.176  30.114  1.00  0.00     0.037 A 
ATOM     40  C   UNL A   1      45.569  27.776  26.681  1.00  0.00     0.037 A 
ATOM     41  C   UNL A   1      41.081  31.133  29.951  1.00  0.00     0.049 A 
ATOM     42  C   UNL A   1      45.547  29.159  27.266  1.00  0.00     0.074 A 
ATOM     43  C   UNL A   1      41.151  32.436  30.415  1.00  0.00     0.029 A 
ATOM     44  N   UNL A   1      42.278  30.878  29.301  1.00  0.00    -0.354 N 
ATOM     45  N   UNL A   1      44.588  29.761  27.926  1.00  0.00    -0.248 NA
ATOM     46  C   UNL A   1      46.745  29.985  27.057  1.00  0.00     0.031 C 
ATOM     47  C   UNL A   1      42.387  32.974  30.035  1.00  0.00     0.029 A 
ATOM     48  C   UNL A   1      43.096  31.995  29.359  1.00  0.00     0.049 A 
ATOM     49  H   UNL A   1      42.514  30.028  28.864  1.00  0.00     0.167 HD
ATOM     50  C   UNL A   1      45.058  31.040  28.193  1.00  0.00     0.074 A 
ATOM     51  C   UNL A   1      46.402  31.116  27.659  1.00  0.00     0.031 C 
ATOM     52  C   UNL A   1      44.423  32.064  28.809  1.00  0.00     0.037 A 
BRANCH  39  53
ATOM     53  C   UNL A   1      38.795  30.617  30.863  1.00  0.00     0.064 A 
ATOM     54  C   UNL A   1      38.702  30.516  32.257  1.00  0.00     0.173 A 
ATOM     55  C   UNL A   1      37.723  31.201  30.171  1.00  0.00     0.173 A 
ATOM     56  F   UNL A   1      39.692  29.946  32.960  1.00  0.00    -0.203 F 
ATOM     57  C   UNL A   1      37.571  30.972  32.931  1.00  0.00     0.198 A 
ATOM     58  C   UNL A   1      36.605  31.678  30.850  1.00  0.00     0.198 A 
ATOM     59  F   UNL A   1      37.767  31.323  28.835  1.00  0.00    -0.203 F 
ATOM     60  F   UNL A   1      37.487  30.835  34.261  1.00  0.00    -0.200 F 
ATOM     61  C   UNL A   1      36.529  31.559  32.228  1.00  0.00     0.200 A 
ATOM     62  F   UNL A   1      35.603  32.250  30.169  1.00  0.00    -0.200 F 
ATOM     63  F   UNL A   1      35.446  32.005  32.881  1.00  0.00    -0.200 F 
ENDBRANCH  39  53
BRANCH  40  64
ATOM     64  C   UNL A   1      46.772  27.271  25.972  1.00  0.00     0.064 A 
ATOM     65  C   UNL A   1      46.966  27.536  24.609  1.00  0.00     0.173 A 
ATOM     66  C   UNL A   1      47.758  26.534  26.643  1.00  0.00     0.173 A 
ATOM     67  F   UNL A   1      46.031  28.203  23.918  1.00  0.00    -0.203 F 
ATOM     68  C   UNL A   1      48.104  27.082  23.946  1.00  0.00     0.198 A 
ATOM     69  C   UNL A   1      48.908  26.107  25.986  1.00  0.00     0.198 A 
ATOM     70  F   UNL A   1      47.612  26.248  27.945  1.00  0.00    -0.203 F 
ATOM     71  F   UNL A   1      48.251  27.317  22.634  1.00  0.00    -0.200 F 
ATOM     72  C   UNL A   1      49.079  26.378  24.636  1.00  0.00     0.200 A 
ATOM     73  F   UNL A   1      49.851  25.434  26.660  1.00  0.00    -0.200 F 
ATOM     74  F   UNL A   1      50.179  25.953  24.001  1.00  0.00    -0.200 F 
ENDBRANCH  40  64
BRANCH  52  75
ATOM     75  C   UNL A   1      45.167  33.359  28.923  1.00  0.00     0.064 A 
ATOM     76  C   UNL A   1      46.011  33.614  30.014  1.00  0.00     0.173 A 
ATOM     77  C   UNL A   1      45.061  34.338  27.925  1.00  0.00     0.173 A 
ATOM     78  F   UNL A   1      46.132  32.712  30.999  1.00  0.00    -0.203 F 
ATOM     79  C   UNL A   1      46.708  34.815  30.112  1.00  0.00     0.198 A 
ATOM     80  C   UNL A   1      45.774  35.530  28.018  1.00  0.00     0.198 A 
ATOM     81  F   UNL A   1      44.270  34.135  26.861  1.00  0.00    -0.203 F 
ATOM     82  F   UNL A   1      47.481  35.054  31.180  1.00  0.00    -0.200 F 
ATOM     83  C   UNL A   1      46.592  35.770  29.111  1.00  0.00     0.200 A 
ATOM     84  F   UNL A   1      45.666  36.450  27.049  1.00  0.00    -0.200 F 
ATOM     85  F   UNL A   1      47.264  36.925  29.208  1.00  0.00    -0.200 F 
ENDBRANCH  52  75
ENDBRANCH  26  27
ENDBRANCH  19  21
ENDBRANCH  18  19
ENDBRANCH  17  18
ENDBRANCH   1  17
TORSDOF 13
ENDMDL
MODEL 3
REMARK VINA RESULT:     -11.8      0.695      1.834
REMARK SMILES C[C@@H](C(=O)OCCOC(=O)c1ccc(-c2c3nc(c(-c4c(F)c(F)c(F)c(F)c4F)c4ccc([nH]4)c(-c4c(F)c(F)c(F)c(F)c4F)c4nc(c(-c5c(F)c(F)c(F)c(F)c5F)c5ccc2[nH]5)C=C4)C=C3)cc1)c1ccn(C(F)F)c(=O)c1
REMARK SMILES IDX 6 1 5 2 3 3 4 4 2 5 1 6 74 7 75 8 83 9 76 10 81 11 77 12
REMARK SMILES IDX 82 13 78 14 79 15 80 16 7 17 8 18 9 19 10 20 11 21 12 22
REMARK SMILES IDX 73 23 13 24 72 25 14 26 15 27 16 28 66 29 17 30 71 31 65 32
REMARK SMILES IDX 67 33 18 34 70 35 64 36 63 37 19 39 51 40 31 41 50 42 32 43
REMARK SMILES IDX 35 44 49 45 68 46 33 47 34 48 48 50 69 51 36 52 20 53 21 54
REMARK SMILES IDX 29 55 22 56 23 57 27 58 30 59 24 60 25 61 28 62 26 63 52 64
REMARK SMILES IDX 53 65 61 66 54 67 55 68 59 69 62 70 56 71 57 72 60 73 58 74
REMARK SMILES IDX 37 75 38 76 46 77 39 78 40 79 44 80 47 81 41 82 42 83 45 84
REMARK SMILES IDX 43 85
REMARK H PARENT 67 38 35 49
REMARK Flexibility Score: inf
ROOT
ATOM      1  C   UNL A   1      31.693  28.690  27.028  1.00  0.00     0.274 C 
ENDROOT
BRANCH   1   2
ATOM      2  O   UNL A   1      32.148  27.618  26.175  1.00  0.00    -0.462 OA
BRANCH   2   3
ATOM      3  C   UNL A   1      31.210  26.722  25.763  1.00  0.00     0.313 C 
ATOM      4  O   UNL A   1      30.470  26.104  26.520  1.00  0.00    -0.252 OA
BRANCH   3   5
ATOM      5  C   UNL A   1      31.235  26.509  24.241  1.00  0.00     0.126 C 
ATOM      6  C   UNL A   1      32.644  26.403  23.650  1.00  0.00     0.025 C 
BRANCH   5   7
ATOM      7  C   UNL A   1      30.363  27.561  23.561  1.00  0.00    -0.027 A 
ATOM      8  C   UNL A   1      30.964  28.661  22.826  1.00  0.00     0.023 A 
ATOM      9  C   UNL A   1      29.020  27.506  23.639  1.00  0.00     0.076 A 
ATOM     10  C   UNL A   1      30.201  29.627  22.297  1.00  0.00     0.095 A 
ATOM     11  C   UNL A   1      28.156  28.572  23.055  1.00  0.00     0.255 A 
ATOM     12  N   UNL A   1      28.827  29.613  22.436  1.00  0.00    -0.258 N 
ATOM     13  O   UNL A   1      26.939  28.473  23.177  1.00  0.00    -0.269 OA
BRANCH  12  14
ATOM     14  C   UNL A   1      28.024  30.706  21.942  1.00  0.00     0.451 C 
ATOM     15  F   UNL A   1      27.512  31.431  22.964  1.00  0.00    -0.185 F 
ATOM     16  F   UNL A   1      28.767  31.534  21.167  1.00  0.00    -0.185 F 
ENDBRANCH  12  14
ENDBRANCH   5   7
ENDBRANCH   3   5
ENDBRANCH   2   3
ENDBRANCH   1   2
BRANCH   1  17
ATOM     17  C   UNL A   1      31.704  30.011  26.265  1.00  0.00     0.275 C 
BRANCH  17  18
ATOM     18  O   UNL A   1      33.060  30.479  26.161  1.00  0.00    -0.458 OA
BRANCH  18  19
ATOM     19  C   UNL A   1      33.452  31.390  27.079  1.00  0.00     0.338 C 
ATOM     20  O   UNL A   1      32.833  32.362  27.473  1.00  0.00    -0.246 OA
BRANCH  19  21
ATOM     21  C   UNL A   1      34.787  31.028  27.595  1.00  0.00     0.060 A 
ATOM     22  C   UNL A   1      35.109  29.697  27.847  1.00  0.00     0.016 A 
ATOM     23  C   UNL A   1      35.683  32.039  27.950  1.00  0.00     0.016 A 
ATOM     24  C   UNL A   1      36.273  29.385  28.547  1.00  0.00     0.010 A 
ATOM     25  C   UNL A   1      36.894  31.712  28.573  1.00  0.00     0.010 A 
ATOM     26  C   UNL A   1      37.182  30.384  28.931  1.00  0.00    -0.014 A 
BRANCH  26  27
ATOM     27  C   UNL A   1      38.376  30.052  29.769  1.00  0.00     0.031 A 
ATOM     28  C   UNL A   1      39.503  29.224  29.199  1.00  0.00     0.074 A 
ATOM     29  C   UNL A   1      38.501  30.525  31.026  1.00  0.00     0.049 A 
ATOM     30  N   UNL A   1      40.524  28.677  29.812  1.00  0.00    -0.248 NA
ATOM     31  C   UNL A   1      39.481  28.973  27.749  1.00  0.00     0.031 C 
ATOM     32  C   UNL A   1      37.538  31.389  31.708  1.00  0.00     0.029 A 
ATOM     33  N   UNL A   1      39.511  30.367  31.945  1.00  0.00    -0.354 N 
ATOM     34  C   UNL A   1      41.206  27.946  28.848  1.00  0.00     0.074 A 
ATOM     35  C   UNL A   1      40.505  28.146  27.597  1.00  0.00     0.031 C 
ATOM     36  C   UNL A   1      38.038  31.752  32.898  1.00  0.00     0.029 A 
ATOM     37  C   UNL A   1      39.304  31.060  33.113  1.00  0.00     0.049 A 
ATOM     38  H   UNL A   1      40.306  29.810  31.783  1.00  0.00     0.167 HD
ATOM     39  C   UNL A   1      42.305  27.168  28.994  1.00  0.00     0.037 A 
ATOM     40  C   UNL A   1      40.025  31.108  34.251  1.00  0.00     0.037 A 
ATOM     41  C   UNL A   1      43.054  27.028  30.215  1.00  0.00     0.049 A 
ATOM     42  C   UNL A   1      41.253  30.255  34.386  1.00  0.00     0.074 A 
ATOM     43  C   UNL A   1      44.173  26.250  30.460  1.00  0.00     0.029 A 
ATOM     44  N   UNL A   1      42.781  27.712  31.389  1.00  0.00    -0.354 N 
ATOM     45  N   UNL A   1      41.805  29.457  33.506  1.00  0.00    -0.248 NA
ATOM     46  C   UNL A   1      41.933  30.277  35.689  1.00  0.00     0.031 C 
ATOM     47  C   UNL A   1      44.570  26.454  31.788  1.00  0.00     0.029 A 
ATOM     48  C   UNL A   1      43.714  27.380  32.359  1.00  0.00     0.049 A 
ATOM     49  H   UNL A   1      42.035  28.341  31.516  1.00  0.00     0.167 HD
ATOM     50  C   UNL A   1      42.883  28.868  34.153  1.00  0.00     0.074 A 
ATOM     51  C   UNL A   1      42.932  29.428  35.487  1.00  0.00     0.031 C 
ATOM     52  C   UNL A   1      43.742  27.931  33.687  1.00  0.00     0.037 A 
BRANCH  39  53
ATOM     53  C   UNL A   1      42.752  26.363  27.810  1.00  0.00     0.064 A 
ATOM     54  C   UNL A   1      42.221  25.098  27.528  1.00  0.00     0.173 A 
ATOM     55  C   UNL A   1      43.691  26.899  26.914  1.00  0.00     0.173 A 
ATOM     56  F   UNL A   1      41.337  24.536  28.365  1.00  0.00    -0.203 F 
ATOM     57  C   UNL A   1      42.624  24.391  26.397  1.00  0.00     0.198 A 
ATOM     58  C   UNL A   1      44.075  26.199  25.773  1.00  0.00     0.198 A 
ATOM     59  F   UNL A   1      44.227  28.108  27.140  1.00  0.00    -0.203 F 
ATOM     60  F   UNL A   1      42.130  23.167  26.164  1.00  0.00    -0.200 F 
ATOM     61  C   UNL A   1      43.544  24.945  25.518  1.00  0.00     0.200 A 
ATOM     62  F   UNL A   1      44.957  26.740  24.922  1.00  0.00    -0.200 F 
ATOM     63  F   UNL A   1      43.923  24.265  24.426  1.00  0.00    -0.200 F 
ENDBRANCH  39  53
BRANCH  40  64
ATOM     64  C   UNL A   1      39.566  31.962  35.376  1.00  0.00     0.064 A 
ATOM     65  C   UNL A   1      40.031  33.276  35.515  1.00  0.00     0.173 A 
ATOM     66  C   UNL A   1      38.643  31.490  36.320  1.00  0.00     0.173 A 
ATOM     67  F   UNL A   1      40.944  33.757  34.659  1.00  0.00    -0.203 F 
ATOM     68  C   UNL A   1      39.587  34.088  36.557  1.00  0.00     0.198 A 
ATOM     69  C   UNL A   1      38.178  32.311  37.343  1.00  0.00     0.198 A 
ATOM     70  F   UNL A   1      38.176  30.235  36.234  1.00  0.00    -0.203 F 
ATOM     71  F   UNL A   1      40.073  35.330  36.689  1.00  0.00    -0.200 F 
ATOM     72  C   UNL A   1      38.653  33.609  37.463  1.00  0.00     0.200 A 
ATOM     73  F   UNL A   1      37.269  31.846  38.212  1.00  0.00    -0.200 F 
ATOM     74  F   UNL A   1      38.216  34.394  38.457  1.00  0.00    -0.200 F 
ENDBRANCH  40  64
BRANCH  52  75
ATOM     75  C   UNL A   1      44.797  27.442  34.631  1.00  0.00     0.064 A 
ATOM     76  C   UNL A   1      46.032  28.099  34.740  1.00  0.00     0.173 A 
ATOM     77  C   UNL A   1      44.565  26.330  35.453  1.00  0.00     0.173 A 
ATOM     78  F   UNL A   1      46.302  29.159  33.963  1.00  0.00    -0.203 F 
ATOM     79  C   UNL A   1      47.005  27.647  35.624  1.00  0.00     0.198 A 
ATOM     80  C   UNL A   1      45.534  25.893  36.350  1.00  0.00     0.198 A 
ATOM     81  F   UNL A   1      43.397  25.675  35.388  1.00  0.00    -0.203 F 
ATOM     82  F   UNL A   1      48.191  28.268  35.688  1.00  0.00    -0.200 F 
ATOM     83  C   UNL A   1      46.754  26.546  36.432  1.00  0.00     0.200 A 
ATOM     84  F   UNL A   1      45.290  24.833  37.134  1.00  0.00    -0.200 F 
ATOM     85  F   UNL A   1      47.694  26.113  37.284  1.00  0.00    -0.200 F 
ENDBRANCH  52  75
ENDBRANCH  26  27
ENDBRANCH  19  21
ENDBRANCH  18  19
ENDBRANCH  17  18
ENDBRANCH   1  17
TORSDOF 13
ENDMDL
