MODEL 1
REMARK VINA RESULT:     -11.5      0.000      0.000
REMARK SMILES C/C=C/C=C/C(=O)N[C@@](C)(C(=O)OCCOC(=O)c1ccc(-c2c3nc(c(-c4c(F)c(F)c(F)c(F)c4F)c4ccc([nH]4)c(-c4c(F)c(F)c(F)c(F)c4F)c4nc(c(-c5c(F)c(F)c(F)c(F)c5F)c5ccc2[nH]5)C=C4)C=C3)cc1)C(F)(F)F
REMARK SMILES IDX 14 1 13 2 11 3 12 4 9 5 10 6 8 7 6 8 7 9 5 11 4 12 3 13 1 14
REMARK SMILES IDX 2 15 82 16 83 17 84 18 85 19 15 20 16 21 17 22 18 23 19 24
REMARK SMILES IDX 20 25 81 26 21 27 80 28 22 29 23 30 24 31 74 32 25 33 79 34
REMARK SMILES IDX 73 35 75 36 26 37 78 38 72 39 71 40 27 42 59 43 39 44 58 45
REMARK SMILES IDX 40 46 43 47 57 48 76 49 41 50 42 51 56 53 77 54 44 55 28 56
REMARK SMILES IDX 29 57 37 58 30 59 31 60 35 61 38 62 32 63 33 64 36 65 34 66
REMARK SMILES IDX 60 67 61 68 69 69 62 70 63 71 67 72 70 73 64 74 65 75 68 76
REMARK SMILES IDX 66 77 45 78 46 79 54 80 47 81 48 82 52 83 55 84 49 85 50 86
REMARK SMILES IDX 53 87 51 88
REMARK H PARENT 8 10 75 41 43 52
REMARK Flexibility Score: inf
ROOT
ATOM      1  C   UNL A   1      32.145  28.898  24.657  1.00  0.00     0.274 C 
ENDROOT
BRANCH   1   2
ATOM      2  O   UNL A   1      31.003  28.013  24.651  1.00  0.00    -0.460 OA
BRANCH   2   3
ATOM      3  C   UNL A   1      31.114  26.894  25.430  1.00  0.00     0.341 C 
ATOM      4  O   UNL A   1      31.890  26.804  26.373  1.00  0.00    -0.249 OA
BRANCH   3   5
ATOM      5  C   UNL A   1      30.328  25.717  24.847  1.00  0.00     0.231 C 
ATOM      6  C   UNL A   1      28.993  26.318  24.345  1.00  0.00     0.058 C 
BRANCH   5   7
ATOM      7  N   UNL A   1      29.929  24.704  25.889  1.00  0.00    -0.329 N 
ATOM      8  C   UNL A   1      30.509  23.668  26.535  1.00  0.00     0.245 C 
ATOM      9  O   UNL A   1      29.906  23.165  27.483  1.00  0.00    -0.270 OA
ATOM     10  H   UNL A   1      28.996  24.833  26.177  1.00  0.00     0.165 HD
BRANCH   8  11
ATOM     11  C   UNL A   1      31.839  23.148  26.198  1.00  0.00     0.071 C 
ATOM     12  C   UNL A   1      32.972  23.755  26.577  1.00  0.00     0.005 C 
BRANCH  12  13
ATOM     13  C   UNL A   1      34.275  23.282  26.167  1.00  0.00    -0.004 C 
ATOM     14  C   UNL A   1      36.570  23.664  25.237  1.00  0.00     0.035 C 
ATOM     15  C   UNL A   1      35.203  24.102  25.651  1.00  0.00    -0.030 C 
ENDBRANCH  12  13
ENDBRANCH   8  11
ENDBRANCH   5   7
BRANCH   5  16
ATOM     16  C   UNL A   1      31.096  25.246  23.602  1.00  0.00     0.422 C 
ATOM     17  F   UNL A   1      32.433  25.274  23.760  1.00  0.00    -0.168 F 
ATOM     18  F   UNL A   1      30.746  23.977  23.273  1.00  0.00    -0.168 F 
ATOM     19  F   UNL A   1      30.815  25.997  22.509  1.00  0.00    -0.168 F 
ENDBRANCH   5  16
ENDBRANCH   3   5
ENDBRANCH   2   3
ENDBRANCH   1   2
BRANCH   1  20
ATOM     20  C   UNL A   1      31.858  30.181  25.428  1.00  0.00     0.275 C 
BRANCH  20  21
ATOM     21  O   UNL A   1      32.481  30.129  26.721  1.00  0.00    -0.458 OA
BRANCH  21  22
ATOM     22  C   UNL A   1      33.041  31.287  27.131  1.00  0.00     0.338 C 
ATOM     23  O   UNL A   1      32.548  32.405  27.123  1.00  0.00    -0.246 OA
BRANCH  22  24
ATOM     24  C   UNL A   1      34.393  31.030  27.636  1.00  0.00     0.060 A 
ATOM     25  C   UNL A   1      34.790  29.722  27.902  1.00  0.00     0.016 A 
ATOM     26  C   UNL A   1      35.211  32.102  27.984  1.00  0.00     0.016 A 
ATOM     27  C   UNL A   1      35.975  29.484  28.595  1.00  0.00     0.010 A 
ATOM     28  C   UNL A   1      36.439  31.855  28.601  1.00  0.00     0.010 A 
ATOM     29  C   UNL A   1      36.820  30.545  28.948  1.00  0.00    -0.014 A 
BRANCH  29  30
ATOM     30  C   UNL A   1      38.072  30.317  29.721  1.00  0.00     0.031 A 
ATOM     31  C   UNL A   1      39.174  29.481  29.127  1.00  0.00     0.074 A 
ATOM     32  C   UNL A   1      38.235  30.835  30.954  1.00  0.00     0.049 A 
ATOM     33  N   UNL A   1      40.201  28.920  29.715  1.00  0.00    -0.248 NA
ATOM     34  C   UNL A   1      39.103  29.234  27.679  1.00  0.00     0.031 C 
ATOM     35  C   UNL A   1      37.298  31.729  31.633  1.00  0.00     0.029 A 
ATOM     36  N   UNL A   1      39.258  30.677  31.859  1.00  0.00    -0.354 N 
ATOM     37  C   UNL A   1      40.850  28.191  28.727  1.00  0.00     0.074 A 
ATOM     38  C   UNL A   1      40.117  28.399  27.496  1.00  0.00     0.031 C 
ATOM     39  C   UNL A   1      37.802  32.067  32.830  1.00  0.00     0.029 A 
ATOM     40  C   UNL A   1      39.044  31.333  33.046  1.00  0.00     0.049 A 
ATOM     41  H   UNL A   1      40.066  30.145  31.673  1.00  0.00     0.167 HD
ATOM     42  C   UNL A   1      41.948  27.407  28.846  1.00  0.00     0.037 A 
ATOM     43  C   UNL A   1      39.737  31.304  34.201  1.00  0.00     0.037 A 
ATOM     44  C   UNL A   1      42.713  27.256  30.056  1.00  0.00     0.049 A 
ATOM     45  C   UNL A   1      40.936  30.406  34.321  1.00  0.00     0.074 A 
ATOM     46  C   UNL A   1      43.838  26.482  30.280  1.00  0.00     0.029 A 
ATOM     47  N   UNL A   1      42.442  27.920  31.245  1.00  0.00    -0.354 N 
ATOM     48  N   UNL A   1      41.481  29.630  33.417  1.00  0.00    -0.248 NA
ATOM     49  C   UNL A   1      41.595  30.354  35.635  1.00  0.00     0.031 C 
ATOM     50  C   UNL A   1      44.237  26.659  31.609  1.00  0.00     0.029 A 
ATOM     51  C   UNL A   1      43.379  27.570  32.204  1.00  0.00     0.049 A 
ATOM     52  H   UNL A   1      41.696  28.545  31.385  1.00  0.00     0.167 HD
ATOM     53  C   UNL A   1      42.546  29.002  34.048  1.00  0.00     0.074 A 
ATOM     54  C   UNL A   1      42.585  29.501  35.406  1.00  0.00     0.031 C 
ATOM     55  C   UNL A   1      43.407  28.083  33.548  1.00  0.00     0.037 A 
BRANCH  42  56
ATOM     56  C   UNL A   1      42.370  26.611  27.647  1.00  0.00     0.064 A 
ATOM     57  C   UNL A   1      43.368  27.058  26.772  1.00  0.00     0.173 A 
ATOM     58  C   UNL A   1      41.792  25.355  27.401  1.00  0.00     0.173 A 
ATOM     59  F   UNL A   1      43.940  28.257  26.956  1.00  0.00    -0.203 F 
ATOM     60  C   UNL A   1      43.762  26.283  25.682  1.00  0.00     0.198 A 
ATOM     61  C   UNL A   1      42.206  24.573  26.327  1.00  0.00     0.198 A 
ATOM     62  F   UNL A   1      40.836  24.880  28.214  1.00  0.00    -0.203 F 
ATOM     63  F   UNL A   1      44.694  26.743  24.837  1.00  0.00    -0.200 F 
ATOM     64  C   UNL A   1      43.186  25.039  25.466  1.00  0.00     0.200 A 
ATOM     65  F   UNL A   1      41.656  23.367  26.126  1.00  0.00    -0.200 F 
ATOM     66  F   UNL A   1      43.574  24.291  24.423  1.00  0.00    -0.200 F 
ENDBRANCH  42  56
BRANCH  43  67
ATOM     67  C   UNL A   1      39.276  32.116  35.356  1.00  0.00     0.064 A 
ATOM     68  C   UNL A   1      38.467  31.551  36.352  1.00  0.00     0.173 A 
ATOM     69  C   UNL A   1      39.644  33.462  35.498  1.00  0.00     0.173 A 
ATOM     70  F   UNL A   1      38.065  30.277  36.244  1.00  0.00    -0.203 F 
ATOM     71  C   UNL A   1      38.043  32.304  37.444  1.00  0.00     0.198 A 
ATOM     72  C   UNL A   1      39.243  34.205  36.606  1.00  0.00     0.198 A 
ATOM     73  F   UNL A   1      40.412  34.049  34.570  1.00  0.00    -0.203 F 
ATOM     74  F   UNL A   1      37.242  31.751  38.365  1.00  0.00    -0.200 F 
ATOM     75  C   UNL A   1      38.439  33.627  37.576  1.00  0.00     0.200 A 
ATOM     76  F   UNL A   1      39.639  35.478  36.734  1.00  0.00    -0.200 F 
ATOM     77  F   UNL A   1      38.041  34.346  38.633  1.00  0.00    -0.200 F 
ENDBRANCH  43  67
BRANCH  55  78
ATOM     78  C   UNL A   1      44.480  27.580  34.463  1.00  0.00     0.064 A 
ATOM     79  C   UNL A   1      44.307  26.412  35.220  1.00  0.00     0.173 A 
ATOM     80  C   UNL A   1      45.711  28.246  34.549  1.00  0.00     0.173 A 
ATOM     81  F   UNL A   1      43.141  25.750  35.182  1.00  0.00    -0.203 F 
ATOM     82  C   UNL A   1      45.325  25.936  36.041  1.00  0.00     0.198 A 
ATOM     83  C   UNL A   1      46.734  27.757  35.356  1.00  0.00     0.198 A 
ATOM     84  F   UNL A   1      45.925  29.366  33.841  1.00  0.00    -0.203 F 
ATOM     85  F   UNL A   1      45.129  24.837  36.781  1.00  0.00    -0.200 F 
ATOM     86  C   UNL A   1      46.539  26.605  36.104  1.00  0.00     0.200 A 
ATOM     87  F   UNL A   1      47.909  28.400  35.410  1.00  0.00    -0.200 F 
ATOM     88  F   UNL A   1      47.520  26.143  36.891  1.00  0.00    -0.200 F 
ENDBRANCH  55  78
ENDBRANCH  29  30
ENDBRANCH  22  24
ENDBRANCH  21  22
ENDBRANCH  20  21
ENDBRANCH   1  20
TORSDOF 15
ENDMDL
MODEL 2
REMARK VINA RESULT:     -11.5      1.006      2.044
REMARK SMILES C/C=C/C=C/C(=O)N[C@@](C)(C(=O)OCCOC(=O)c1ccc(-c2c3nc(c(-c4c(F)c(F)c(F)c(F)c4F)c4ccc([nH]4)c(-c4c(F)c(F)c(F)c(F)c4F)c4nc(c(-c5c(F)c(F)c(F)c(F)c5F)c5ccc2[nH]5)C=C4)C=C3)cc1)C(F)(F)F
REMARK SMILES IDX 14 1 13 2 11 3 12 4 9 5 10 6 8 7 6 8 7 9 5 11 4 12 3 13 1 14
REMARK SMILES IDX 2 15 82 16 83 17 84 18 85 19 15 20 16 21 17 22 18 23 19 24
REMARK SMILES IDX 20 25 81 26 21 27 80 28 22 29 23 30 24 31 74 32 25 33 79 34
REMARK SMILES IDX 73 35 75 36 26 37 78 38 72 39 71 40 27 42 59 43 39 44 58 45
REMARK SMILES IDX 40 46 43 47 57 48 76 49 41 50 42 51 56 53 77 54 44 55 28 56
REMARK SMILES IDX 29 57 37 58 30 59 31 60 35 61 38 62 32 63 33 64 36 65 34 66
REMARK SMILES IDX 60 67 61 68 69 69 62 70 63 71 67 72 70 73 64 74 65 75 68 76
REMARK SMILES IDX 66 77 45 78 46 79 54 80 47 81 48 82 52 83 55 84 49 85 50 86
REMARK SMILES IDX 53 87 51 88
REMARK H PARENT 8 10 75 41 43 52
REMARK Flexibility Score: inf
ROOT
ATOM      1  C   UNL A   1      31.260  29.225  24.451  1.00  0.00     0.274 C 
ENDROOT
BRANCH   1   2
ATOM      2  O   UNL A   1      31.306  27.856  24.910  1.00  0.00    -0.460 OA
BRANCH   2   3
ATOM      3  C   UNL A   1      31.592  26.917  23.956  1.00  0.00     0.341 C 
ATOM      4  O   UNL A   1      31.082  26.913  22.843  1.00  0.00    -0.249 OA
BRANCH   3   5
ATOM      5  C   UNL A   1      32.435  25.771  24.522  1.00  0.00     0.231 C 
ATOM      6  C   UNL A   1      32.551  24.738  23.376  1.00  0.00     0.058 C 
BRANCH   5   7
ATOM      7  N   UNL A   1      31.747  25.034  25.641  1.00  0.00    -0.329 N 
ATOM      8  C   UNL A   1      32.065  24.068  26.532  1.00  0.00     0.245 C 
ATOM      9  O   UNL A   1      31.271  23.837  27.443  1.00  0.00    -0.270 OA
ATOM     10  H   UNL A   1      30.817  25.337  25.753  1.00  0.00     0.165 HD
BRANCH   8  11
ATOM     11  C   UNL A   1      33.328  23.322  26.500  1.00  0.00     0.071 C 
ATOM     12  C   UNL A   1      33.457  22.139  25.884  1.00  0.00     0.005 C 
BRANCH  12  13
ATOM     13  C   UNL A   1      34.682  21.373  25.932  1.00  0.00    -0.004 C 
ATOM     14  C   UNL A   1      36.914  20.718  25.001  1.00  0.00     0.035 C 
ATOM     15  C   UNL A   1      35.623  21.471  24.981  1.00  0.00    -0.030 C 
ENDBRANCH  12  13
ENDBRANCH   8  11
ENDBRANCH   5   7
BRANCH   5  16
ATOM     16  C   UNL A   1      33.847  26.334  24.753  1.00  0.00     0.422 C 
ATOM     17  F   UNL A   1      34.038  26.795  26.005  1.00  0.00    -0.168 F 
ATOM     18  F   UNL A   1      34.787  25.385  24.515  1.00  0.00    -0.168 F 
ATOM     19  F   UNL A   1      34.139  27.356  23.911  1.00  0.00    -0.168 F 
ENDBRANCH   5  16
ENDBRANCH   3   5
ENDBRANCH   2   3
ENDBRANCH   1   2
BRANCH   1  20
ATOM     20  C   UNL A   1      31.463  30.209  25.596  1.00  0.00     0.275 C 
BRANCH  20  21
ATOM     21  O   UNL A   1      32.833  30.187  26.028  1.00  0.00    -0.458 OA
BRANCH  21  22
ATOM     22  C   UNL A   1      33.171  31.158  26.902  1.00  0.00     0.338 C 
ATOM     23  O   UNL A   1      32.503  32.119  27.253  1.00  0.00    -0.246 OA
BRANCH  22  24
ATOM     24  C   UNL A   1      34.514  30.903  27.430  1.00  0.00     0.060 A 
ATOM     25  C   UNL A   1      34.902  29.597  27.718  1.00  0.00     0.016 A 
ATOM     26  C   UNL A   1      35.331  31.976  27.778  1.00  0.00     0.016 A 
ATOM     27  C   UNL A   1      36.076  29.363  28.433  1.00  0.00     0.010 A 
ATOM     28  C   UNL A   1      36.549  31.732  28.416  1.00  0.00     0.010 A 
ATOM     29  C   UNL A   1      36.919  30.425  28.785  1.00  0.00    -0.014 A 
BRANCH  29  30
ATOM     30  C   UNL A   1      38.158  30.202  29.580  1.00  0.00     0.031 A 
ATOM     31  C   UNL A   1      39.270  29.364  29.009  1.00  0.00     0.074 A 
ATOM     32  C   UNL A   1      38.301  30.728  30.812  1.00  0.00     0.049 A 
ATOM     33  N   UNL A   1      40.288  28.806  29.616  1.00  0.00    -0.248 NA
ATOM     34  C   UNL A   1      39.223  29.107  27.561  1.00  0.00     0.031 C 
ATOM     35  C   UNL A   1      37.353  31.625  31.470  1.00  0.00     0.029 A 
ATOM     36  N   UNL A   1      39.310  30.575  31.734  1.00  0.00    -0.354 N 
ATOM     37  C   UNL A   1      40.953  28.071  28.644  1.00  0.00     0.074 A 
ATOM     38  C   UNL A   1      40.240  28.272  27.400  1.00  0.00     0.031 C 
ATOM     39  C   UNL A   1      37.837  31.970  32.673  1.00  0.00     0.029 A 
ATOM     40  C   UNL A   1      39.076  31.239  32.914  1.00  0.00     0.049 A 
ATOM     41  H   UNL A   1      40.120  30.042  31.565  1.00  0.00     0.167 HD
ATOM     42  C   UNL A   1      42.049  27.289  28.785  1.00  0.00     0.037 A 
ATOM     43  C   UNL A   1      39.749  31.217  34.081  1.00  0.00     0.037 A 
ATOM     44  C   UNL A   1      42.794  27.146  30.009  1.00  0.00     0.049 A 
ATOM     45  C   UNL A   1      40.947  30.320  34.225  1.00  0.00     0.074 A 
ATOM     46  C   UNL A   1      43.916  26.373  30.255  1.00  0.00     0.029 A 
ATOM     47  N   UNL A   1      42.504  27.816  31.189  1.00  0.00    -0.354 N 
ATOM     48  N   UNL A   1      41.507  29.538  33.335  1.00  0.00    -0.248 NA
ATOM     49  C   UNL A   1      41.584  30.276  35.550  1.00  0.00     0.031 C 
ATOM     50  C   UNL A   1      44.293  26.558  31.589  1.00  0.00     0.029 A 
ATOM     51  C   UNL A   1      43.425  27.472  32.165  1.00  0.00     0.049 A 
ATOM     52  H   UNL A   1      41.755  28.441  31.313  1.00  0.00     0.167 HD
ATOM     53  C   UNL A   1      42.562  28.914  33.986  1.00  0.00     0.074 A 
ATOM     54  C   UNL A   1      42.578  29.421  35.343  1.00  0.00     0.031 C 
ATOM     55  C   UNL A   1      43.431  27.993  33.506  1.00  0.00     0.037 A 
BRANCH  42  56
ATOM     56  C   UNL A   1      42.491  26.486  27.598  1.00  0.00     0.064 A 
ATOM     57  C   UNL A   1      43.489  26.937  26.725  1.00  0.00     0.173 A 
ATOM     58  C   UNL A   1      41.932  25.220  27.361  1.00  0.00     0.173 A 
ATOM     59  F   UNL A   1      44.044  28.146  26.901  1.00  0.00    -0.203 F 
ATOM     60  C   UNL A   1      43.902  26.156  25.647  1.00  0.00     0.198 A 
ATOM     61  C   UNL A   1      42.364  24.432  26.298  1.00  0.00     0.198 A 
ATOM     62  F   UNL A   1      40.976  24.741  28.172  1.00  0.00    -0.203 F 
ATOM     63  F   UNL A   1      44.835  26.620  24.804  1.00  0.00    -0.200 F 
ATOM     64  C   UNL A   1      43.344  24.902  25.440  1.00  0.00     0.200 A 
ATOM     65  F   UNL A   1      41.832  23.217  26.107  1.00  0.00    -0.200 F 
ATOM     66  F   UNL A   1      43.750  24.149  24.408  1.00  0.00    -0.200 F 
ENDBRANCH  42  56
BRANCH  43  67
ATOM     67  C   UNL A   1      39.269  32.034  35.223  1.00  0.00     0.064 A 
ATOM     68  C   UNL A   1      39.575  33.399  35.306  1.00  0.00     0.173 A 
ATOM     69  C   UNL A   1      38.486  31.476  36.244  1.00  0.00     0.173 A 
ATOM     70  F   UNL A   1      40.346  33.971  34.370  1.00  0.00    -0.203 F 
ATOM     71  C   UNL A   1      39.117  34.174  36.369  1.00  0.00     0.198 A 
ATOM     72  C   UNL A   1      38.004  32.259  37.291  1.00  0.00     0.198 A 
ATOM     73  F   UNL A   1      38.171  30.173  36.213  1.00  0.00    -0.203 F 
ATOM     74  F   UNL A   1      39.451  35.470  36.444  1.00  0.00    -0.200 F 
ATOM     75  C   UNL A   1      38.323  33.606  37.355  1.00  0.00     0.200 A 
ATOM     76  F   UNL A   1      37.228  31.708  38.233  1.00  0.00    -0.200 F 
ATOM     77  F   UNL A   1      37.872  34.355  38.370  1.00  0.00    -0.200 F 
ENDBRANCH  43  67
BRANCH  55  78
ATOM     78  C   UNL A   1      44.489  27.496  34.442  1.00  0.00     0.064 A 
ATOM     79  C   UNL A   1      45.709  28.172  34.591  1.00  0.00     0.173 A 
ATOM     80  C   UNL A   1      44.263  26.360  35.233  1.00  0.00     0.173 A 
ATOM     81  F   UNL A   1      45.976  29.253  33.844  1.00  0.00    -0.203 F 
ATOM     82  C   UNL A   1      46.671  27.718  35.489  1.00  0.00     0.198 A 
ATOM     83  C   UNL A   1      45.218  25.922  36.144  1.00  0.00     0.198 A 
ATOM     84  F   UNL A   1      43.109  25.683  35.128  1.00  0.00    -0.203 F 
ATOM     85  F   UNL A   1      47.843  28.359  35.593  1.00  0.00    -0.200 F 
ATOM     86  C   UNL A   1      46.422  26.598  36.269  1.00  0.00     0.200 A 
ATOM     87  F   UNL A   1      44.974  24.844  36.903  1.00  0.00    -0.200 F 
ATOM     88  F   UNL A   1      47.347  26.166  37.138  1.00  0.00    -0.200 F 
ENDBRANCH  55  78
ENDBRANCH  29  30
ENDBRANCH  22  24
ENDBRANCH  21  22
ENDBRANCH  20  21
ENDBRANCH   1  20
TORSDOF 15
ENDMDL
MODEL 3
REMARK VINA RESULT:     -11.4      1.598      2.349
REMARK SMILES C/C=C/C=C/C(=O)N[C@@](C)(C(=O)OCCOC(=O)c1ccc(-c2c3nc(c(-c4c(F)c(F)c(F)c(F)c4F)c4ccc([nH]4)c(-c4c(F)c(F)c(F)c(F)c4F)c4nc(c(-c5c(F)c(F)c(F)c(F)c5F)c5ccc2[nH]5)C=C4)C=C3)cc1)C(F)(F)F
REMARK SMILES IDX 14 1 13 2 11 3 12 4 9 5 10 6 8 7 6 8 7 9 5 11 4 12 3 13 1 14
REMARK SMILES IDX 2 15 82 16 83 17 84 18 85 19 15 20 16 21 17 22 18 23 19 24
REMARK SMILES IDX 20 25 81 26 21 27 80 28 22 29 23 30 24 31 74 32 25 33 79 34
REMARK SMILES IDX 73 35 75 36 26 37 78 38 72 39 71 40 27 42 59 43 39 44 58 45
REMARK SMILES IDX 40 46 43 47 57 48 76 49 41 50 42 51 56 53 77 54 44 55 28 56
REMARK SMILES IDX 29 57 37 58 30 59 31 60 35 61 38 62 32 63 33 64 36 65 34 66
REMARK SMILES IDX 60 67 61 68 69 69 62 70 63 71 67 72 70 73 64 74 65 75 68 76
REMARK SMILES IDX 66 77 45 78 46 79 54 80 47 81 48 82 52 83 55 84 49 85 50 86
REMARK SMILES IDX 53 87 51 88
REMARK H PARENT 8 10 75 41 43 52
REMARK Flexibility Score: inf
ROOT
ATOM      1  C   UNL A   1      31.197  29.241  25.093  1.00  0.00     0.274 C 
ENDROOT
BRANCH   1   2
ATOM      2  O   UNL A   1      31.758  29.179  23.763  1.00  0.00    -0.460 OA
BRANCH   2   3
ATOM      3  C   UNL A   1      31.725  27.951  23.161  1.00  0.00     0.341 C 
ATOM      4  O   UNL A   1      30.696  27.305  23.005  1.00  0.00    -0.249 OA
BRANCH   3   5
ATOM      5  C   UNL A   1      33.133  27.400  22.919  1.00  0.00     0.231 C 
ATOM      6  C   UNL A   1      34.040  28.642  22.746  1.00  0.00     0.058 C 
BRANCH   5   7
ATOM      7  N   UNL A   1      33.253  26.648  21.618  1.00  0.00    -0.329 N 
ATOM      8  C   UNL A   1      32.907  25.431  21.143  1.00  0.00     0.245 C 
ATOM      9  O   UNL A   1      33.013  25.229  19.935  1.00  0.00    -0.270 OA
ATOM     10  H   UNL A   1      33.702  27.190  20.929  1.00  0.00     0.165 HD
BRANCH   8  11
ATOM     11  C   UNL A   1      32.364  24.359  21.986  1.00  0.00     0.071 C 
ATOM     12  C   UNL A   1      33.074  23.277  22.332  1.00  0.00     0.005 C 
BRANCH  12  13
ATOM     13  C   UNL A   1      32.501  22.187  23.090  1.00  0.00    -0.004 C 
ATOM     14  C   UNL A   1      32.612  20.461  24.903  1.00  0.00     0.035 C 
ATOM     15  C   UNL A   1      33.172  21.574  24.077  1.00  0.00    -0.030 C 
ENDBRANCH  12  13
ENDBRANCH   8  11
ENDBRANCH   5   7
BRANCH   5  16
ATOM     16  C   UNL A   1      33.569  26.713  24.222  1.00  0.00     0.422 C 
ATOM     17  F   UNL A   1      34.513  25.770  24.038  1.00  0.00    -0.168 F 
ATOM     18  F   UNL A   1      34.059  27.621  25.103  1.00  0.00    -0.168 F 
ATOM     19  F   UNL A   1      32.534  26.111  24.859  1.00  0.00    -0.168 F 
ENDBRANCH   5  16
ENDBRANCH   3   5
ENDBRANCH   2   3
ENDBRANCH   1   2
BRANCH   1  20
ATOM     20  C   UNL A   1      31.557  30.545  25.795  1.00  0.00     0.275 C 
BRANCH  20  21
ATOM     21  O   UNL A   1      32.679  30.342  26.668  1.00  0.00    -0.458 OA
BRANCH  21  22
ATOM     22  C   UNL A   1      33.234  31.472  27.156  1.00  0.00     0.338 C 
ATOM     23  O   UNL A   1      32.742  32.589  27.207  1.00  0.00    -0.246 OA
BRANCH  22  24
ATOM     24  C   UNL A   1      34.576  31.183  27.667  1.00  0.00     0.060 A 
ATOM     25  C   UNL A   1      34.944  29.864  27.926  1.00  0.00     0.016 A 
ATOM     26  C   UNL A   1      35.415  32.235  28.028  1.00  0.00     0.016 A 
ATOM     27  C   UNL A   1      36.119  29.597  28.625  1.00  0.00     0.010 A 
ATOM     28  C   UNL A   1      36.634  31.957  28.651  1.00  0.00     0.010 A 
ATOM     29  C   UNL A   1      36.984  30.637  28.991  1.00  0.00    -0.014 A 
BRANCH  29  30
ATOM     30  C   UNL A   1      38.226  30.377  29.770  1.00  0.00     0.031 A 
ATOM     31  C   UNL A   1      39.317  29.528  29.175  1.00  0.00     0.074 A 
ATOM     32  C   UNL A   1      38.390  30.877  31.011  1.00  0.00     0.049 A 
ATOM     33  N   UNL A   1      40.329  28.941  29.763  1.00  0.00    -0.248 NA
ATOM     34  C   UNL A   1      39.252  29.299  27.723  1.00  0.00     0.031 C 
ATOM     35  C   UNL A   1      37.464  31.780  31.694  1.00  0.00     0.029 A 
ATOM     36  N   UNL A   1      39.403  30.689  31.921  1.00  0.00    -0.354 N 
ATOM     37  C   UNL A   1      40.972  28.211  28.771  1.00  0.00     0.074 A 
ATOM     38  C   UNL A   1      40.252  28.448  27.538  1.00  0.00     0.031 C 
ATOM     39  C   UNL A   1      37.965  32.094  32.898  1.00  0.00     0.029 A 
ATOM     40  C   UNL A   1      39.192  31.335  33.114  1.00  0.00     0.049 A 
ATOM     41  H   UNL A   1      40.202  30.145  31.735  1.00  0.00     0.167 HD
ATOM     42  C   UNL A   1      42.055  27.406  28.889  1.00  0.00     0.037 A 
ATOM     43  C   UNL A   1      39.875  31.280  34.274  1.00  0.00     0.037 A 
ATOM     44  C   UNL A   1      42.807  27.227  30.102  1.00  0.00     0.049 A 
ATOM     45  C   UNL A   1      41.057  30.358  34.392  1.00  0.00     0.074 A 
ATOM     46  C   UNL A   1      43.917  26.430  30.325  1.00  0.00     0.029 A 
ATOM     47  N   UNL A   1      42.540  27.881  31.297  1.00  0.00    -0.354 N 
ATOM     48  N   UNL A   1      41.594  29.583  33.483  1.00  0.00    -0.248 NA
ATOM     49  C   UNL A   1      41.705  30.279  35.709  1.00  0.00     0.031 C 
ATOM     50  C   UNL A   1      44.309  26.583  31.659  1.00  0.00     0.029 A 
ATOM     51  C   UNL A   1      43.464  27.503  32.258  1.00  0.00     0.049 A 
ATOM     52  H   UNL A   1      41.805  28.518  31.440  1.00  0.00     0.167 HD
ATOM     53  C   UNL A   1      42.643  28.928  34.113  1.00  0.00     0.074 A 
ATOM     54  C   UNL A   1      42.681  29.410  35.478  1.00  0.00     0.031 C 
ATOM     55  C   UNL A   1      43.491  27.999  33.608  1.00  0.00     0.037 A 
BRANCH  42  56
ATOM     56  C   UNL A   1      42.471  26.617  27.683  1.00  0.00     0.064 A 
ATOM     57  C   UNL A   1      43.452  27.077  26.796  1.00  0.00     0.173 A 
ATOM     58  C   UNL A   1      41.905  25.355  27.443  1.00  0.00     0.173 A 
ATOM     59  F   UNL A   1      44.012  28.283  26.975  1.00  0.00    -0.203 F 
ATOM     60  C   UNL A   1      43.841  26.308  25.700  1.00  0.00     0.198 A 
ATOM     61  C   UNL A   1      42.314  24.579  26.362  1.00  0.00     0.198 A 
ATOM     62  F   UNL A   1      40.965  24.867  28.267  1.00  0.00    -0.203 F 
ATOM     63  F   UNL A   1      44.758  26.781  24.844  1.00  0.00    -0.200 F 
ATOM     64  C   UNL A   1      43.278  25.057  25.489  1.00  0.00     0.200 A 
ATOM     65  F   UNL A   1      41.776  23.366  26.167  1.00  0.00    -0.200 F 
ATOM     66  F   UNL A   1      43.661  24.316  24.441  1.00  0.00    -0.200 F 
ENDBRANCH  42  56
BRANCH  43  67
ATOM     67  C   UNL A   1      39.421  32.086  35.436  1.00  0.00     0.064 A 
ATOM     68  C   UNL A   1      38.497  31.565  36.352  1.00  0.00     0.173 A 
ATOM     69  C   UNL A   1      39.909  33.381  35.663  1.00  0.00     0.173 A 
ATOM     70  F   UNL A   1      37.980  30.343  36.160  1.00  0.00    -0.203 F 
ATOM     71  C   UNL A   1      38.077  32.312  37.450  1.00  0.00     0.198 A 
ATOM     72  C   UNL A   1      39.510  34.115  36.777  1.00  0.00     0.198 A 
ATOM     73  F   UNL A   1      40.790  33.926  34.812  1.00  0.00    -0.203 F 
ATOM     74  F   UNL A   1      37.167  31.805  38.293  1.00  0.00    -0.200 F 
ATOM     75  C   UNL A   1      38.591  33.582  37.668  1.00  0.00     0.200 A 
ATOM     76  F   UNL A   1      40.019  35.336  36.990  1.00  0.00    -0.200 F 
ATOM     77  F   UNL A   1      38.197  34.293  38.732  1.00  0.00    -0.200 F 
ENDBRANCH  43  67
BRANCH  55  78
ATOM     78  C   UNL A   1      44.548  27.466  34.526  1.00  0.00     0.064 A 
ATOM     79  C   UNL A   1      45.783  28.114  34.672  1.00  0.00     0.173 A 
ATOM     80  C   UNL A   1      44.305  26.323  35.301  1.00  0.00     0.173 A 
ATOM     81  F   UNL A   1      46.065  29.201  33.939  1.00  0.00    -0.203 F 
ATOM     82  C   UNL A   1      46.744  27.627  35.553  1.00  0.00     0.198 A 
ATOM     83  C   UNL A   1      45.261  25.851  36.196  1.00  0.00     0.198 A 
ATOM     84  F   UNL A   1      43.137  25.672  35.198  1.00  0.00    -0.203 F 
ATOM     85  F   UNL A   1      47.930  28.242  35.655  1.00  0.00    -0.200 F 
ATOM     86  C   UNL A   1      46.480  26.500  36.319  1.00  0.00     0.200 A 
ATOM     87  F   UNL A   1      45.001  24.767  36.941  1.00  0.00    -0.200 F 
ATOM     88  F   UNL A   1      47.404  26.036  37.171  1.00  0.00    -0.200 F 
ENDBRANCH  55  78
ENDBRANCH  29  30
ENDBRANCH  22  24
ENDBRANCH  21  22
ENDBRANCH  20  21
ENDBRANCH   1  20
TORSDOF 15
ENDMDL
