MODEL 1
REMARK VINA RESULT:     -10.2      0.000      0.000
REMARK SMILES CCC[N@@H+](C)CC[C@@H]1CCC[C@]1([NH2+]C)C(=O)OCCOC(=O)c1ccc(-c2c3nc(c(-c4c(F)c(F)c(F)c(F)c4F)c4ccc([nH]4)c(-c4c(F)c(F)c(F)c(F)c4F)c4nc(c(-c5c(F)c(F)c(F)c(F)c5F)c5ccc2[nH]5)C=C4)C=C3)cc1
REMARK SMILES IDX 17 1 15 2 16 3 12 4 8 5 9 6 10 7 11 8 7 9 6 10 4 11 5 12
REMARK SMILES IDX 3 14 2 15 1 16 13 17 14 18 18 21 19 22 20 23 21 24 22 25
REMARK SMILES IDX 23 26 24 27 85 28 25 29 84 30 26 31 27 32 28 33 78 34 29 35
REMARK SMILES IDX 83 36 77 37 79 38 30 39 82 40 76 41 75 42 31 44 63 45 43 46
REMARK SMILES IDX 62 47 44 48 47 49 61 50 80 51 45 52 46 53 60 55 81 56 48 57
REMARK SMILES IDX 32 58 33 59 41 60 34 61 35 62 39 63 42 64 36 65 37 66 40 67
REMARK SMILES IDX 38 68 64 69 65 70 73 71 66 72 67 73 71 74 74 75 68 76 69 77
REMARK SMILES IDX 72 78 70 79 49 80 50 81 58 82 51 83 52 84 56 85 59 86 53 87
REMARK SMILES IDX 54 88 57 89 55 90
REMARK H PARENT 4 13 13 19 13 20 79 43 47 54
REMARK Flexibility Score: inf
ROOT
ATOM      1  O   UNL A   1      32.108  27.673  25.950  1.00  0.00    -0.457 OA
ENDROOT
BRANCH   1   2
ATOM      2  C   UNL A   1      31.298  26.587  25.866  1.00  0.00     0.368 C 
ATOM      3  O   UNL A   1      30.719  26.105  26.836  1.00  0.00    -0.245 OA
BRANCH   2   4
ATOM      4  C   UNL A   1      31.280  25.929  24.435  1.00  0.00     0.197 C 
ATOM      5  C   UNL A   1      31.758  24.434  24.339  1.00  0.00     0.068 C 
ATOM      6  C   UNL A   1      33.268  24.579  24.401  1.00  0.00     0.011 C 
ATOM      7  C   UNL A   1      33.562  25.735  23.465  1.00  0.00     0.008 C 
ATOM      8  C   UNL A   1      32.344  26.650  23.543  1.00  0.00     0.081 C 
BRANCH   5   9
ATOM      9  C   UNL A   1      31.104  23.392  25.265  1.00  0.00     0.072 C 
BRANCH   9  10
ATOM     10  C   UNL A   1      31.983  22.690  26.329  1.00  0.00     0.262 C 
BRANCH  10  11
ATOM     11  N   UNL A   1      32.503  21.323  26.129  1.00  0.00    -0.337 N 
ATOM     12  C   UNL A   1      33.951  21.249  26.358  1.00  0.00     0.332 C 
ATOM     13  H   UNL A   1      31.984  20.815  26.844  1.00  0.00     0.347 HD
BRANCH  11  14
ATOM     14  C   UNL A   1      32.157  20.613  24.897  1.00  0.00     0.261 C 
BRANCH  14  15
ATOM     15  C   UNL A   1      32.534  19.126  24.756  1.00  0.00     0.058 C 
ATOM     16  C   UNL A   1      32.558  18.498  23.374  1.00  0.00     0.010 C 
ENDBRANCH  14  15
ENDBRANCH  11  14
ENDBRANCH  10  11
ENDBRANCH   9  10
ENDBRANCH   5   9
BRANCH   4  17
ATOM     17  N   UNL A   1      29.915  26.068  23.857  1.00  0.00    -0.334 N 
ATOM     18  C   UNL A   1      29.589  27.436  23.455  1.00  0.00     0.331 C 
ATOM     19  H   UNL A   1      29.236  25.766  24.556  1.00  0.00     0.347 HD
ATOM     20  H   UNL A   1      29.885  25.492  23.016  1.00  0.00     0.347 HD
ENDBRANCH   4  17
ENDBRANCH   2   4
ENDBRANCH   1   2
BRANCH   1  21
ATOM     21  C   UNL A   1      31.747  28.710  26.884  1.00  0.00     0.274 C 
BRANCH  21  22
ATOM     22  C   UNL A   1      31.791  30.085  26.221  1.00  0.00     0.275 C 
BRANCH  22  23
ATOM     23  O   UNL A   1      33.147  30.556  26.223  1.00  0.00    -0.458 OA
BRANCH  23  24
ATOM     24  C   UNL A   1      33.439  31.553  27.083  1.00  0.00     0.338 C 
ATOM     25  O   UNL A   1      32.787  32.566  27.300  1.00  0.00    -0.246 OA
BRANCH  24  26
ATOM     26  C   UNL A   1      34.708  31.239  27.765  1.00  0.00     0.060 A 
ATOM     27  C   UNL A   1      34.964  29.941  28.208  1.00  0.00     0.016 A 
ATOM     28  C   UNL A   1      35.623  32.258  28.031  1.00  0.00     0.016 A 
ATOM     29  C   UNL A   1      36.098  29.666  28.965  1.00  0.00     0.010 A 
ATOM     30  C   UNL A   1      36.805  31.960  28.716  1.00  0.00     0.010 A 
ATOM     31  C   UNL A   1      37.045  30.665  29.208  1.00  0.00    -0.014 A 
BRANCH  31  32
ATOM     32  C   UNL A   1      38.272  30.365  29.993  1.00  0.00     0.031 A 
ATOM     33  C   UNL A   1      39.354  29.511  29.396  1.00  0.00     0.074 A 
ATOM     34  C   UNL A   1      38.418  30.858  31.239  1.00  0.00     0.049 A 
ATOM     35  N   UNL A   1      40.380  28.947  29.979  1.00  0.00    -0.248 NA
ATOM     36  C   UNL A   1      39.262  29.246  27.952  1.00  0.00     0.031 C 
ATOM     37  C   UNL A   1      37.473  31.747  31.916  1.00  0.00     0.029 A 
ATOM     38  N   UNL A   1      39.422  30.680  32.159  1.00  0.00    -0.354 N 
ATOM     39  C   UNL A   1      41.014  28.204  28.992  1.00  0.00     0.074 A 
ATOM     40  C   UNL A   1      40.267  28.401  27.768  1.00  0.00     0.031 C 
ATOM     41  C   UNL A   1      37.957  32.064  33.127  1.00  0.00     0.029 A 
ATOM     42  C   UNL A   1      39.194  31.326  33.349  1.00  0.00     0.049 A 
ATOM     43  H   UNL A   1      40.227  30.141  31.982  1.00  0.00     0.167 HD
ATOM     44  C   UNL A   1      42.112  27.419  29.107  1.00  0.00     0.037 A 
ATOM     45  C   UNL A   1      39.875  31.289  34.509  1.00  0.00     0.037 A 
ATOM     46  C   UNL A   1      42.880  27.277  30.317  1.00  0.00     0.049 A 
ATOM     47  C   UNL A   1      41.084  30.404  34.615  1.00  0.00     0.074 A 
ATOM     48  C   UNL A   1      44.011  26.509  30.540  1.00  0.00     0.029 A 
ATOM     49  N   UNL A   1      42.604  27.936  31.506  1.00  0.00    -0.354 N 
ATOM     50  N   UNL A   1      41.627  29.635  33.704  1.00  0.00    -0.248 NA
ATOM     51  C   UNL A   1      41.758  30.361  35.919  1.00  0.00     0.031 C 
ATOM     52  C   UNL A   1      44.404  26.686  31.871  1.00  0.00     0.029 A 
ATOM     53  C   UNL A   1      43.541  27.591  32.467  1.00  0.00     0.049 A 
ATOM     54  H   UNL A   1      41.854  28.558  31.647  1.00  0.00     0.167 HD
ATOM     55  C   UNL A   1      42.704  29.017  34.320  1.00  0.00     0.074 A 
ATOM     56  C   UNL A   1      42.756  29.522  35.677  1.00  0.00     0.031 C 
ATOM     57  C   UNL A   1      43.568  28.104  33.812  1.00  0.00     0.037 A 
BRANCH  44  58
ATOM     58  C   UNL A   1      42.525  26.619  27.907  1.00  0.00     0.064 A 
ATOM     59  C   UNL A   1      42.025  25.332  27.662  1.00  0.00     0.173 A 
ATOM     60  C   UNL A   1      43.411  27.169  26.967  1.00  0.00     0.173 A 
ATOM     61  F   UNL A   1      41.190  24.754  28.538  1.00  0.00    -0.203 F 
ATOM     62  C   UNL A   1      42.413  24.618  26.531  1.00  0.00     0.198 A 
ATOM     63  C   UNL A   1      43.776  26.463  25.825  1.00  0.00     0.198 A 
ATOM     64  F   UNL A   1      43.916  28.398  27.154  1.00  0.00    -0.203 F 
ATOM     65  F   UNL A   1      41.955  23.373  26.335  1.00  0.00    -0.200 F 
ATOM     66  C   UNL A   1      43.283  25.186  25.610  1.00  0.00     0.200 A 
ATOM     67  F   UNL A   1      44.609  27.018  24.933  1.00  0.00    -0.200 F 
ATOM     68  F   UNL A   1      43.648  24.500  24.518  1.00  0.00    -0.200 F 
ENDBRANCH  44  58
BRANCH  45  69
ATOM     69  C   UNL A   1      39.395  32.080  35.672  1.00  0.00     0.064 A 
ATOM     70  C   UNL A   1      38.479  31.537  36.582  1.00  0.00     0.173 A 
ATOM     71  C   UNL A   1      39.861  33.381  35.911  1.00  0.00     0.173 A 
ATOM     72  F   UNL A   1      37.985  30.306  36.381  1.00  0.00    -0.203 F 
ATOM     73  C   UNL A   1      38.046  32.267  37.687  1.00  0.00     0.198 A 
ATOM     74  C   UNL A   1      39.451  34.098  37.032  1.00  0.00     0.198 A 
ATOM     75  F   UNL A   1      40.738  33.947  35.068  1.00  0.00    -0.203 F 
ATOM     76  F   UNL A   1      37.144  31.737  38.525  1.00  0.00    -0.200 F 
ATOM     77  C   UNL A   1      38.539  33.542  37.916  1.00  0.00     0.200 A 
ATOM     78  F   UNL A   1      39.942  35.325  37.257  1.00  0.00    -0.200 F 
ATOM     79  F   UNL A   1      38.135  34.237  38.987  1.00  0.00    -0.200 F 
ENDBRANCH  45  69
BRANCH  57  80
ATOM     80  C   UNL A   1      44.648  27.613  34.728  1.00  0.00     0.064 A 
ATOM     81  C   UNL A   1      44.472  26.465  35.512  1.00  0.00     0.173 A 
ATOM     82  C   UNL A   1      45.875  28.288  34.804  1.00  0.00     0.173 A 
ATOM     83  F   UNL A   1      43.308  25.799  35.484  1.00  0.00    -0.203 F 
ATOM     84  C   UNL A   1      45.481  26.022  36.364  1.00  0.00     0.198 A 
ATOM     85  C   UNL A   1      46.890  27.829  35.639  1.00  0.00     0.198 A 
ATOM     86  F   UNL A   1      46.089  29.388  34.069  1.00  0.00    -0.203 F 
ATOM     87  F   UNL A   1      45.278  24.950  37.140  1.00  0.00    -0.200 F 
ATOM     88  C   UNL A   1      46.690  26.701  36.423  1.00  0.00     0.200 A 
ATOM     89  F   UNL A   1      48.059  28.481  35.690  1.00  0.00    -0.200 F 
ATOM     90  F   UNL A   1      47.660  26.274  37.243  1.00  0.00    -0.200 F 
ENDBRANCH  57  80
ENDBRANCH  31  32
ENDBRANCH  24  26
ENDBRANCH  23  24
ENDBRANCH  22  23
ENDBRANCH  21  22
ENDBRANCH   1  21
TORSDOF 17
ENDMDL
MODEL 2
REMARK VINA RESULT:     -10.2      1.693      3.628
REMARK SMILES CCC[N@@H+](C)CC[C@@H]1CCC[C@]1([NH2+]C)C(=O)OCCOC(=O)c1ccc(-c2c3nc(c(-c4c(F)c(F)c(F)c(F)c4F)c4ccc([nH]4)c(-c4c(F)c(F)c(F)c(F)c4F)c4nc(c(-c5c(F)c(F)c(F)c(F)c5F)c5ccc2[nH]5)C=C4)C=C3)cc1
REMARK SMILES IDX 17 1 15 2 16 3 12 4 8 5 9 6 10 7 11 8 7 9 6 10 4 11 5 12
REMARK SMILES IDX 3 14 2 15 1 16 13 17 14 18 18 21 19 22 20 23 21 24 22 25
REMARK SMILES IDX 23 26 24 27 85 28 25 29 84 30 26 31 27 32 28 33 78 34 29 35
REMARK SMILES IDX 83 36 77 37 79 38 30 39 82 40 76 41 75 42 31 44 63 45 43 46
REMARK SMILES IDX 62 47 44 48 47 49 61 50 80 51 45 52 46 53 60 55 81 56 48 57
REMARK SMILES IDX 32 58 33 59 41 60 34 61 35 62 39 63 42 64 36 65 37 66 40 67
REMARK SMILES IDX 38 68 64 69 65 70 73 71 66 72 67 73 71 74 74 75 68 76 69 77
REMARK SMILES IDX 72 78 70 79 49 80 50 81 58 82 51 83 52 84 56 85 59 86 53 87
REMARK SMILES IDX 54 88 57 89 55 90
REMARK H PARENT 4 13 13 19 13 20 79 43 47 54
REMARK Flexibility Score: inf
ROOT
ATOM      1  O   UNL A   1      32.562  27.368  26.015  1.00  0.00    -0.457 OA
ENDROOT
BRANCH   1   2
ATOM      2  C   UNL A   1      32.231  26.470  25.053  1.00  0.00     0.368 C 
ATOM      3  O   UNL A   1      31.492  25.510  25.256  1.00  0.00    -0.245 OA
BRANCH   2   4
ATOM      4  C   UNL A   1      32.989  26.702  23.692  1.00  0.00     0.197 C 
ATOM      5  C   UNL A   1      32.108  27.096  22.451  1.00  0.00     0.068 C 
ATOM      6  C   UNL A   1      31.515  25.758  22.046  1.00  0.00     0.011 C 
ATOM      7  C   UNL A   1      32.689  24.802  22.116  1.00  0.00     0.008 C 
ATOM      8  C   UNL A   1      33.594  25.339  23.221  1.00  0.00     0.081 C 
BRANCH   5   9
ATOM      9  C   UNL A   1      31.147  28.292  22.581  1.00  0.00     0.072 C 
BRANCH   9  10
ATOM     10  C   UNL A   1      29.703  28.032  23.078  1.00  0.00     0.262 C 
BRANCH  10  11
ATOM     11  N   UNL A   1      28.761  29.137  23.341  1.00  0.00    -0.337 N 
ATOM     12  C   UNL A   1      27.367  28.728  23.131  1.00  0.00     0.332 C 
ATOM     13  H   UNL A   1      28.953  29.321  24.325  1.00  0.00     0.347 HD
BRANCH  11  14
ATOM     14  C   UNL A   1      29.001  30.432  22.705  1.00  0.00     0.261 C 
BRANCH  14  15
ATOM     15  C   UNL A   1      28.743  31.722  23.506  1.00  0.00     0.058 C 
ATOM     16  C   UNL A   1      28.778  33.058  22.787  1.00  0.00     0.010 C 
ENDBRANCH  14  15
ENDBRANCH  11  14
ENDBRANCH  10  11
ENDBRANCH   9  10
ENDBRANCH   5   9
BRANCH   4  17
ATOM     17  N   UNL A   1      34.058  27.718  23.903  1.00  0.00    -0.334 N 
ATOM     18  C   UNL A   1      34.260  28.599  22.753  1.00  0.00     0.331 C 
ATOM     19  H   UNL A   1      34.934  27.231  24.095  1.00  0.00     0.347 HD
ATOM     20  H   UNL A   1      33.764  28.305  24.684  1.00  0.00     0.347 HD
ENDBRANCH   4  17
ENDBRANCH   2   4
ENDBRANCH   1   2
BRANCH   1  21
ATOM     21  C   UNL A   1      31.543  28.288  26.454  1.00  0.00     0.274 C 
BRANCH  21  22
ATOM     22  C   UNL A   1      31.726  29.658  25.804  1.00  0.00     0.275 C 
BRANCH  22  23
ATOM     23  O   UNL A   1      33.087  30.077  25.982  1.00  0.00    -0.458 OA
BRANCH  23  24
ATOM     24  C   UNL A   1      33.292  31.139  26.787  1.00  0.00     0.338 C 
ATOM     25  O   UNL A   1      32.633  32.170  26.845  1.00  0.00    -0.246 OA
BRANCH  24  26
ATOM     26  C   UNL A   1      34.471  30.878  27.633  1.00  0.00     0.060 A 
ATOM     27  C   UNL A   1      35.317  31.925  28.000  1.00  0.00     0.016 A 
ATOM     28  C   UNL A   1      34.780  29.571  28.008  1.00  0.00     0.016 A 
ATOM     29  C   UNL A   1      36.498  31.668  28.687  1.00  0.00     0.010 A 
ATOM     30  C   UNL A   1      35.923  29.326  28.775  1.00  0.00     0.010 A 
ATOM     31  C   UNL A   1      36.806  30.370  29.105  1.00  0.00    -0.014 A 
BRANCH  31  32
ATOM     32  C   UNL A   1      38.055  30.099  29.864  1.00  0.00     0.031 A 
ATOM     33  C   UNL A   1      39.132  29.247  29.256  1.00  0.00     0.074 A 
ATOM     34  C   UNL A   1      38.226  30.617  31.097  1.00  0.00     0.049 A 
ATOM     35  N   UNL A   1      40.180  28.706  29.824  1.00  0.00    -0.248 NA
ATOM     36  C   UNL A   1      39.008  28.953  27.820  1.00  0.00     0.031 C 
ATOM     37  C   UNL A   1      37.286  31.507  31.781  1.00  0.00     0.029 A 
ATOM     38  N   UNL A   1      39.254  30.468  31.994  1.00  0.00    -0.354 N 
ATOM     39  C   UNL A   1      40.798  27.952  28.835  1.00  0.00     0.074 A 
ATOM     40  C   UNL A   1      40.019  28.117  27.626  1.00  0.00     0.031 C 
ATOM     41  C   UNL A   1      37.796  31.853  32.973  1.00  0.00     0.029 A 
ATOM     42  C   UNL A   1      39.048  31.134  33.178  1.00  0.00     0.049 A 
ATOM     43  H   UNL A   1      40.061  29.936  31.807  1.00  0.00     0.167 HD
ATOM     44  C   UNL A   1      41.909  27.183  28.937  1.00  0.00     0.037 A 
ATOM     45  C   UNL A   1      39.758  31.127  34.321  1.00  0.00     0.037 A 
ATOM     46  C   UNL A   1      42.708  27.073  30.130  1.00  0.00     0.049 A 
ATOM     47  C   UNL A   1      40.980  30.258  34.413  1.00  0.00     0.074 A 
ATOM     48  C   UNL A   1      43.853  26.323  30.339  1.00  0.00     0.029 A 
ATOM     49  N   UNL A   1      42.453  27.751  31.313  1.00  0.00    -0.354 N 
ATOM     50  N   UNL A   1      41.510  29.479  33.503  1.00  0.00    -0.248 NA
ATOM     51  C   UNL A   1      41.686  30.248  35.701  1.00  0.00     0.031 C 
ATOM     52  C   UNL A   1      44.277  26.529  31.656  1.00  0.00     0.029 A 
ATOM     53  C   UNL A   1      43.417  27.435  32.257  1.00  0.00     0.049 A 
ATOM     54  H   UNL A   1      41.699  28.366  31.461  1.00  0.00     0.167 HD
ATOM     55  C   UNL A   1      42.609  28.885  34.103  1.00  0.00     0.074 A 
ATOM     56  C   UNL A   1      42.688  29.416  35.449  1.00  0.00     0.031 C 
ATOM     57  C   UNL A   1      43.472  27.974  33.591  1.00  0.00     0.037 A 
BRANCH  44  58
ATOM     58  C   UNL A   1      42.301  26.366  27.743  1.00  0.00     0.064 A 
ATOM     59  C   UNL A   1      43.277  26.797  26.832  1.00  0.00     0.173 A 
ATOM     60  C   UNL A   1      41.714  25.109  27.527  1.00  0.00     0.173 A 
ATOM     61  F   UNL A   1      43.856  27.998  26.982  1.00  0.00    -0.203 F 
ATOM     62  C   UNL A   1      43.634  26.010  25.740  1.00  0.00     0.198 A 
ATOM     63  C   UNL A   1      42.091  24.314  26.449  1.00  0.00     0.198 A 
ATOM     64  F   UNL A   1      40.776  24.649  28.370  1.00  0.00    -0.203 F 
ATOM     65  F   UNL A   1      44.539  26.459  24.859  1.00  0.00    -0.200 F 
ATOM     66  C   UNL A   1      43.046  24.767  25.553  1.00  0.00     0.200 A 
ATOM     67  F   UNL A   1      41.529  23.109  26.277  1.00  0.00    -0.200 F 
ATOM     68  F   UNL A   1      43.398  24.008  24.506  1.00  0.00    -0.200 F 
ENDBRANCH  44  58
BRANCH  45  69
ATOM     69  C   UNL A   1      39.297  31.933  35.480  1.00  0.00     0.064 A 
ATOM     70  C   UNL A   1      39.730  33.254  35.655  1.00  0.00     0.173 A 
ATOM     71  C   UNL A   1      38.395  31.411  36.419  1.00  0.00     0.173 A 
ATOM     72  F   UNL A   1      40.612  33.789  34.798  1.00  0.00    -0.203 F 
ATOM     73  C   UNL A   1      39.279  34.022  36.728  1.00  0.00     0.198 A 
ATOM     74  C   UNL A   1      37.922  32.189  37.474  1.00  0.00     0.198 A 
ATOM     75  F   UNL A   1      37.951  30.151  36.297  1.00  0.00    -0.203 F 
ATOM     76  F   UNL A   1      39.734  35.271  36.891  1.00  0.00    -0.200 F 
ATOM     77  C   UNL A   1      38.369  33.492  37.630  1.00  0.00     0.200 A 
ATOM     78  F   UNL A   1      37.030  31.678  38.334  1.00  0.00    -0.200 F 
ATOM     79  F   UNL A   1      37.924  34.236  38.651  1.00  0.00    -0.200 F 
ENDBRANCH  45  69
BRANCH  57  80
ATOM     80  C   UNL A   1      44.580  27.513  34.488  1.00  0.00     0.064 A 
ATOM     81  C   UNL A   1      44.452  26.357  35.271  1.00  0.00     0.173 A 
ATOM     82  C   UNL A   1      45.787  28.225  34.549  1.00  0.00     0.173 A 
ATOM     83  F   UNL A   1      43.308  25.656  35.258  1.00  0.00    -0.203 F 
ATOM     84  C   UNL A   1      45.486  25.943  36.105  1.00  0.00     0.198 A 
ATOM     85  C   UNL A   1      46.827  27.794  35.367  1.00  0.00     0.198 A 
ATOM     86  F   UNL A   1      45.956  29.334  33.815  1.00  0.00    -0.203 F 
ATOM     87  F   UNL A   1      45.328  24.862  36.880  1.00  0.00    -0.200 F 
ATOM     88  C   UNL A   1      46.674  26.659  36.149  1.00  0.00     0.200 A 
ATOM     89  F   UNL A   1      47.977  28.482  35.403  1.00  0.00    -0.200 F 
ATOM     90  F   UNL A   1      47.669  26.259  36.953  1.00  0.00    -0.200 F 
ENDBRANCH  57  80
ENDBRANCH  31  32
ENDBRANCH  24  26
ENDBRANCH  23  24
ENDBRANCH  22  23
ENDBRANCH  21  22
ENDBRANCH   1  21
TORSDOF 17
ENDMDL
MODEL 3
REMARK VINA RESULT:     -10.2      1.017      1.858
REMARK SMILES CCC[N@@H+](C)CC[C@@H]1CCC[C@]1([NH2+]C)C(=O)OCCOC(=O)c1ccc(-c2c3nc(c(-c4c(F)c(F)c(F)c(F)c4F)c4ccc([nH]4)c(-c4c(F)c(F)c(F)c(F)c4F)c4nc(c(-c5c(F)c(F)c(F)c(F)c5F)c5ccc2[nH]5)C=C4)C=C3)cc1
REMARK SMILES IDX 17 1 15 2 16 3 12 4 8 5 9 6 10 7 11 8 7 9 6 10 4 11 5 12
REMARK SMILES IDX 3 14 2 15 1 16 13 17 14 18 18 21 19 22 20 23 21 24 22 25
REMARK SMILES IDX 23 26 24 27 85 28 25 29 84 30 26 31 27 32 28 33 78 34 29 35
REMARK SMILES IDX 83 36 77 37 79 38 30 39 82 40 76 41 75 42 31 44 63 45 43 46
REMARK SMILES IDX 62 47 44 48 47 49 61 50 80 51 45 52 46 53 60 55 81 56 48 57
REMARK SMILES IDX 32 58 33 59 41 60 34 61 35 62 39 63 42 64 36 65 37 66 40 67
REMARK SMILES IDX 38 68 64 69 65 70 73 71 66 72 67 73 71 74 74 75 68 76 69 77
REMARK SMILES IDX 72 78 70 79 49 80 50 81 58 82 51 83 52 84 56 85 59 86 53 87
REMARK SMILES IDX 54 88 57 89 55 90
REMARK H PARENT 4 13 13 19 13 20 79 43 47 54
REMARK Flexibility Score: inf
ROOT
ATOM      1  O   UNL A   1      32.260  28.059  25.761  1.00  0.00    -0.457 OA
ENDROOT
BRANCH   1   2
ATOM      2  C   UNL A   1      31.361  27.313  25.070  1.00  0.00     0.368 C 
ATOM      3  O   UNL A   1      30.702  26.411  25.583  1.00  0.00    -0.245 OA
BRANCH   2   4
ATOM      4  C   UNL A   1      31.342  27.626  23.527  1.00  0.00     0.197 C 
ATOM      5  C   UNL A   1      31.904  26.509  22.573  1.00  0.00     0.068 C 
ATOM      6  C   UNL A   1      33.404  26.686  22.727  1.00  0.00     0.011 C 
ATOM      7  C   UNL A   1      33.604  28.187  22.658  1.00  0.00     0.008 C 
ATOM      8  C   UNL A   1      32.337  28.800  23.245  1.00  0.00     0.081 C 
BRANCH   5   9
ATOM      9  C   UNL A   1      31.338  25.083  22.697  1.00  0.00     0.072 C 
BRANCH   9  10
ATOM     10  C   UNL A   1      32.331  23.897  22.797  1.00  0.00     0.262 C 
BRANCH  10  11
ATOM     11  N   UNL A   1      32.325  22.974  23.948  1.00  0.00    -0.337 N 
ATOM     12  C   UNL A   1      31.047  23.007  24.669  1.00  0.00     0.332 C 
ATOM     13  H   UNL A   1      32.467  22.081  23.478  1.00  0.00     0.347 HD
BRANCH  11  14
ATOM     14  C   UNL A   1      33.435  23.030  24.900  1.00  0.00     0.261 C 
BRANCH  14  15
ATOM     15  C   UNL A   1      33.479  24.169  25.937  1.00  0.00     0.058 C 
ATOM     16  C   UNL A   1      34.472  25.302  25.749  1.00  0.00     0.010 C 
ENDBRANCH  14  15
ENDBRANCH  11  14
ENDBRANCH  10  11
ENDBRANCH   9  10
ENDBRANCH   5   9
BRANCH   4  17
ATOM     17  N   UNL A   1      29.956  27.991  23.126  1.00  0.00    -0.334 N 
ATOM     18  C   UNL A   1      29.809  29.397  22.751  1.00  0.00     0.331 C 
ATOM     19  H   UNL A   1      29.330  27.798  23.909  1.00  0.00     0.347 HD
ATOM     20  H   UNL A   1      29.725  27.434  22.302  1.00  0.00     0.347 HD
ENDBRANCH   4  17
ENDBRANCH   2   4
ENDBRANCH   1   2
BRANCH   1  21
ATOM     21  C   UNL A   1      31.778  28.818  26.888  1.00  0.00     0.274 C 
BRANCH  21  22
ATOM     22  C   UNL A   1      31.772  30.313  26.578  1.00  0.00     0.275 C 
BRANCH  22  23
ATOM     23  O   UNL A   1      33.128  30.763  26.441  1.00  0.00    -0.458 OA
BRANCH  23  24
ATOM     24  C   UNL A   1      33.511  31.780  27.240  1.00  0.00     0.338 C 
ATOM     25  O   UNL A   1      32.937  32.846  27.418  1.00  0.00    -0.246 OA
BRANCH  24  26
ATOM     26  C   UNL A   1      34.773  31.414  27.907  1.00  0.00     0.060 A 
ATOM     27  C   UNL A   1      34.964  30.116  28.385  1.00  0.00     0.016 A 
ATOM     28  C   UNL A   1      35.750  32.385  28.126  1.00  0.00     0.016 A 
ATOM     29  C   UNL A   1      36.095  29.798  29.128  1.00  0.00     0.010 A 
ATOM     30  C   UNL A   1      36.927  32.040  28.798  1.00  0.00     0.010 A 
ATOM     31  C   UNL A   1      37.102  30.748  29.324  1.00  0.00    -0.014 A 
BRANCH  31  32
ATOM     32  C   UNL A   1      38.325  30.400  30.095  1.00  0.00     0.031 A 
ATOM     33  C   UNL A   1      39.367  29.507  29.486  1.00  0.00     0.074 A 
ATOM     34  C   UNL A   1      38.504  30.886  31.340  1.00  0.00     0.049 A 
ATOM     35  N   UNL A   1      40.378  28.903  30.057  1.00  0.00    -0.248 NA
ATOM     36  C   UNL A   1      39.249  29.247  28.043  1.00  0.00     0.031 C 
ATOM     37  C   UNL A   1      37.600  31.809  32.029  1.00  0.00     0.029 A 
ATOM     38  N   UNL A   1      39.510  30.668  32.249  1.00  0.00    -0.354 N 
ATOM     39  C   UNL A   1      40.972  28.137  29.062  1.00  0.00     0.074 A 
ATOM     40  C   UNL A   1      40.220  28.364  27.847  1.00  0.00     0.031 C 
ATOM     41  C   UNL A   1      38.109  32.106  33.234  1.00  0.00     0.029 A 
ATOM     42  C   UNL A   1      39.320  31.322  33.442  1.00  0.00     0.049 A 
ATOM     43  H   UNL A   1      40.292  30.100  32.062  1.00  0.00     0.167 HD
ATOM     44  C   UNL A   1      42.041  27.311  29.165  1.00  0.00     0.037 A 
ATOM     45  C   UNL A   1      40.012  31.257  34.595  1.00  0.00     0.037 A 
ATOM     46  C   UNL A   1      42.816  27.138  30.366  1.00  0.00     0.049 A 
ATOM     47  C   UNL A   1      41.188  30.326  34.687  1.00  0.00     0.074 A 
ATOM     48  C   UNL A   1      43.919  26.328  30.576  1.00  0.00     0.029 A 
ATOM     49  N   UNL A   1      42.578  27.806  31.558  1.00  0.00    -0.354 N 
ATOM     50  N   UNL A   1      41.691  29.538  33.768  1.00  0.00    -0.248 NA
ATOM     51  C   UNL A   1      41.874  30.256  35.983  1.00  0.00     0.031 C 
ATOM     52  C   UNL A   1      44.333  26.488  31.903  1.00  0.00     0.029 A 
ATOM     53  C   UNL A   1      43.511  27.425  32.509  1.00  0.00     0.049 A 
ATOM     54  H   UNL A   1      41.854  28.456  31.708  1.00  0.00     0.167 HD
ATOM     55  C   UNL A   1      42.750  28.879  34.372  1.00  0.00     0.074 A 
ATOM     56  C   UNL A   1      42.836  29.380  35.729  1.00  0.00     0.031 C 
ATOM     57  C   UNL A   1      43.573  27.935  33.854  1.00  0.00     0.037 A 
BRANCH  44  58
ATOM     58  C   UNL A   1      42.409  26.498  27.960  1.00  0.00     0.064 A 
ATOM     59  C   UNL A   1      41.835  25.244  27.703  1.00  0.00     0.173 A 
ATOM     60  C   UNL A   1      43.330  27.002  27.027  1.00  0.00     0.173 A 
ATOM     61  F   UNL A   1      40.963  24.710  28.571  1.00  0.00    -0.203 F 
ATOM     62  C   UNL A   1      42.184  24.518  26.567  1.00  0.00     0.198 A 
ATOM     63  C   UNL A   1      43.657  26.284  25.880  1.00  0.00     0.198 A 
ATOM     64  F   UNL A   1      43.906  28.197  27.226  1.00  0.00    -0.203 F 
ATOM     65  F   UNL A   1      41.653  23.304  26.360  1.00  0.00    -0.200 F 
ATOM     66  C   UNL A   1      43.089  25.040  25.653  1.00  0.00     0.200 A 
ATOM     67  F   UNL A   1      44.524  26.796  24.995  1.00  0.00    -0.200 F 
ATOM     68  F   UNL A   1      43.417  24.342  24.557  1.00  0.00    -0.200 F 
ENDBRANCH  44  58
BRANCH  45  69
ATOM     69  C   UNL A   1      39.575  32.064  35.763  1.00  0.00     0.064 A 
ATOM     70  C   UNL A   1      40.132  33.324  36.015  1.00  0.00     0.173 A 
ATOM     71  C   UNL A   1      38.575  31.605  36.633  1.00  0.00     0.173 A 
ATOM     72  F   UNL A   1      41.110  33.794  35.227  1.00  0.00    -0.203 F 
ATOM     73  C   UNL A   1      39.707  34.095  37.096  1.00  0.00     0.198 A 
ATOM     74  C   UNL A   1      38.129  32.388  37.695  1.00  0.00     0.198 A 
ATOM     75  F   UNL A   1      38.011  30.404  36.435  1.00  0.00    -0.203 F 
ATOM     76  F   UNL A   1      40.279  35.282  37.335  1.00  0.00    -0.200 F 
ATOM     77  C   UNL A   1      38.699  33.630  37.928  1.00  0.00     0.200 A 
ATOM     78  F   UNL A   1      37.145  31.942  38.487  1.00  0.00    -0.200 F 
ATOM     79  F   UNL A   1      38.280  34.378  38.957  1.00  0.00    -0.200 F 
ENDBRANCH  45  69
BRANCH  57  80
ATOM     80  C   UNL A   1      44.643  27.402  34.757  1.00  0.00     0.064 A 
ATOM     81  C   UNL A   1      44.435  26.257  35.539  1.00  0.00     0.173 A 
ATOM     82  C   UNL A   1      45.894  28.032  34.825  1.00  0.00     0.173 A 
ATOM     83  F   UNL A   1      43.248  25.632  35.519  1.00  0.00    -0.203 F 
ATOM     84  C   UNL A   1      45.435  25.775  36.378  1.00  0.00     0.198 A 
ATOM     85  C   UNL A   1      46.900  27.534  35.648  1.00  0.00     0.198 A 
ATOM     86  F   UNL A   1      46.140  29.128  34.092  1.00  0.00    -0.203 F 
ATOM     87  F   UNL A   1      45.202  24.707  37.152  1.00  0.00    -0.200 F 
ATOM     88  C   UNL A   1      46.668  26.411  36.429  1.00  0.00     0.200 A 
ATOM     89  F   UNL A   1      48.092  28.144  35.691  1.00  0.00    -0.200 F 
ATOM     90  F   UNL A   1      47.630  25.946  37.238  1.00  0.00    -0.200 F 
ENDBRANCH  57  80
ENDBRANCH  31  32
ENDBRANCH  24  26
ENDBRANCH  23  24
ENDBRANCH  22  23
ENDBRANCH  21  22
ENDBRANCH   1  21
TORSDOF 17
ENDMDL
