MODEL 1
REMARK VINA RESULT:     -12.5      0.000      0.000
REMARK SMILES COc1cccc([C@@H]2C[N@@H+](Cc3nccn3C)C[C@H]2C(=O)OCCOC(=O)c2ccc(-c3c4nc(c(-c5c(F)c(F)c(F)c(F)c5F)c5ccc([nH]5)c(-c5c(F)c(F)c(F)c(F)c5F)c5nc(c(-c6c(F)c(F)c(F)c(F)c6F)c6ccc3[nH]6)C=C5)C=C4)cc2)c1
REMARK SMILES IDX 23 1 22 2 20 3 21 4 19 5 8 6 9 7 10 8 18 9 7 11 3 12 4 13
REMARK SMILES IDX 91 14 5 15 6 16 2 17 1 18 11 19 12 20 13 21 16 22 14 23
REMARK SMILES IDX 15 24 17 25 24 26 25 27 26 28 27 29 28 30 29 31 90 32 30 33
REMARK SMILES IDX 89 34 31 35 32 36 33 37 83 38 34 39 88 40 82 41 84 42 35 43
REMARK SMILES IDX 87 44 81 45 80 46 36 48 68 49 48 50 67 51 49 52 52 53 66 54
REMARK SMILES IDX 85 55 50 56 51 57 65 59 86 60 53 61 37 62 38 63 46 64 39 65
REMARK SMILES IDX 40 66 44 67 47 68 41 69 42 70 45 71 43 72 69 73 70 74 78 75
REMARK SMILES IDX 71 76 72 77 76 78 79 79 73 80 74 81 77 82 75 83 54 84 55 85
REMARK SMILES IDX 63 86 56 87 57 88 61 89 64 90 58 91 59 92 62 93 60 94
REMARK H PARENT 10 10 84 47 52 58
REMARK Flexibility Score: inf
ROOT
ATOM      1  C   UNL A   1      31.938  28.075  26.749  1.00  0.00     0.274 C 
ENDROOT
BRANCH   1   2
ATOM      2  O   UNL A   1      30.659  27.439  26.536  1.00  0.00    -0.462 OA
BRANCH   2   3
ATOM      3  C   UNL A   1      30.669  26.219  25.948  1.00  0.00     0.315 C 
ATOM      4  O   UNL A   1      31.009  25.184  26.513  1.00  0.00    -0.252 OA
BRANCH   3   5
ATOM      5  C   UNL A   1      30.247  26.216  24.492  1.00  0.00     0.167 C 
ATOM      6  C   UNL A   1      30.662  27.398  23.608  1.00  0.00     0.094 C 
ATOM      7  C   UNL A   1      31.028  26.726  22.275  1.00  0.00     0.272 C 
ATOM      8  N   UNL A   1      31.572  25.407  22.625  1.00  0.00    -0.327 N 
ATOM      9  C   UNL A   1      30.874  24.980  23.836  1.00  0.00     0.278 C 
ATOM     10  H   UNL A   1      31.396  24.741  21.872  1.00  0.00     0.348 HD
BRANCH   6  11
ATOM     11  C   UNL A   1      29.657  28.524  23.422  1.00  0.00    -0.035 A 
ATOM     12  C   UNL A   1      28.972  30.866  23.522  1.00  0.00     0.119 A 
ATOM     13  C   UNL A   1      27.657  30.491  23.245  1.00  0.00     0.046 A 
ATOM     14  C   UNL A   1      29.969  29.885  23.618  1.00  0.00     0.050 A 
ATOM     15  C   UNL A   1      27.335  29.155  23.036  1.00  0.00     0.004 A 
ATOM     16  C   UNL A   1      28.327  28.180  23.124  1.00  0.00     0.004 A 
BRANCH  12  17
ATOM     17  O   UNL A   1      29.139  32.205  23.746  1.00  0.00    -0.497 OA
ATOM     18  C   UNL A   1      28.729  33.078  22.704  1.00  0.00     0.278 C 
ENDBRANCH  12  17
ENDBRANCH   6  11
BRANCH   8  19
ATOM     19  C   UNL A   1      33.045  25.351  22.700  1.00  0.00     0.339 C 
BRANCH  19  20
ATOM     20  C   UNL A   1      33.651  24.179  23.422  1.00  0.00     0.164 A 
ATOM     21  N   UNL A   1      33.701  22.947  22.940  1.00  0.00    -0.236 NA
ATOM     22  N   UNL A   1      34.220  24.215  24.676  1.00  0.00    -0.333 N 
ATOM     23  C   UNL A   1      34.349  22.191  23.877  1.00  0.00     0.131 A 
ATOM     24  C   UNL A   1      34.686  22.957  24.962  1.00  0.00     0.107 A 
ATOM     25  C   UNL A   1      34.330  25.346  25.562  1.00  0.00     0.151 C 
ENDBRANCH  19  20
ENDBRANCH   8  19
ENDBRANCH   3   5
ENDBRANCH   2   3
ENDBRANCH   1   2
BRANCH   1  26
ATOM     26  C   UNL A   1      31.779  29.589  26.694  1.00  0.00     0.275 C 
BRANCH  26  27
ATOM     27  O   UNL A   1      33.054  30.150  26.352  1.00  0.00    -0.458 OA
BRANCH  27  28
ATOM     28  C   UNL A   1      33.426  31.233  27.071  1.00  0.00     0.338 C 
ATOM     29  O   UNL A   1      32.792  32.244  27.297  1.00  0.00    -0.246 OA
BRANCH  28  30
ATOM     30  C   UNL A   1      34.752  30.948  27.631  1.00  0.00     0.060 A 
ATOM     31  C   UNL A   1      35.105  29.620  27.856  1.00  0.00     0.016 A 
ATOM     32  C   UNL A   1      35.608  31.983  27.997  1.00  0.00     0.016 A 
ATOM     33  C   UNL A   1      36.297  29.313  28.498  1.00  0.00     0.010 A 
ATOM     34  C   UNL A   1      36.824  31.672  28.612  1.00  0.00     0.010 A 
ATOM     35  C   UNL A   1      37.159  30.337  28.904  1.00  0.00    -0.014 A 
BRANCH  35  36
ATOM     36  C   UNL A   1      38.344  30.014  29.739  1.00  0.00     0.031 A 
ATOM     37  C   UNL A   1      39.426  29.134  29.174  1.00  0.00     0.074 A 
ATOM     38  C   UNL A   1      38.490  30.552  30.965  1.00  0.00     0.049 A 
ATOM     39  N   UNL A   1      40.469  28.616  29.770  1.00  0.00    -0.248 NA
ATOM     40  C   UNL A   1      39.318  28.793  27.746  1.00  0.00     0.031 C 
ATOM     41  C   UNL A   1      37.559  31.488  31.595  1.00  0.00     0.029 A 
ATOM     42  N   UNL A   1      39.483  30.391  31.898  1.00  0.00    -0.354 N 
ATOM     43  C   UNL A   1      41.111  27.848  28.806  1.00  0.00     0.074 A 
ATOM     44  C   UNL A   1      40.342  27.970  27.586  1.00  0.00     0.031 C 
ATOM     45  C   UNL A   1      38.035  31.835  32.801  1.00  0.00     0.029 A 
ATOM     46  C   UNL A   1      39.263  31.088  33.059  1.00  0.00     0.049 A 
ATOM     47  H   UNL A   1      40.279  29.830  31.748  1.00  0.00     0.167 HD
ATOM     48  C   UNL A   1      42.239  27.111  28.931  1.00  0.00     0.037 A 
ATOM     49  C   UNL A   1      39.949  31.093  34.218  1.00  0.00     0.037 A 
ATOM     50  C   UNL A   1      43.026  27.029  30.133  1.00  0.00     0.049 A 
ATOM     51  C   UNL A   1      41.171  30.224  34.349  1.00  0.00     0.074 A 
ATOM     52  C   UNL A   1      44.182  26.305  30.365  1.00  0.00     0.029 A 
ATOM     53  N   UNL A   1      42.742  27.716  31.306  1.00  0.00    -0.354 N 
ATOM     54  N   UNL A   1      41.731  29.445  33.457  1.00  0.00    -0.248 NA
ATOM     55  C   UNL A   1      41.845  30.225  35.654  1.00  0.00     0.031 C 
ATOM     56  C   UNL A   1      44.580  26.525  31.689  1.00  0.00     0.029 A 
ATOM     57  C   UNL A   1      43.696  27.423  32.268  1.00  0.00     0.049 A 
ATOM     58  H   UNL A   1      41.977  28.321  31.435  1.00  0.00     0.167 HD
ATOM     59  C   UNL A   1      42.827  28.870  34.086  1.00  0.00     0.074 A 
ATOM     60  C   UNL A   1      42.867  29.411  35.430  1.00  0.00     0.031 C 
ATOM     61  C   UNL A   1      43.717  27.971  33.599  1.00  0.00     0.037 A 
BRANCH  48  62
ATOM     62  C   UNL A   1      42.667  26.296  27.746  1.00  0.00     0.064 A 
ATOM     63  C   UNL A   1      43.625  26.759  26.833  1.00  0.00     0.173 A 
ATOM     64  C   UNL A   1      42.126  25.018  27.539  1.00  0.00     0.173 A 
ATOM     65  F   UNL A   1      44.162  27.980  26.979  1.00  0.00    -0.203 F 
ATOM     66  C   UNL A   1      44.008  25.981  25.742  1.00  0.00     0.198 A 
ATOM     67  C   UNL A   1      42.531  24.233  26.462  1.00  0.00     0.198 A 
ATOM     68  F   UNL A   1      41.208  24.527  28.385  1.00  0.00    -0.203 F 
ATOM     69  F   UNL A   1      44.895  26.460  24.857  1.00  0.00    -0.200 F 
ATOM     70  C   UNL A   1      43.465  24.718  25.561  1.00  0.00     0.200 A 
ATOM     71  F   UNL A   1      42.013  23.007  26.296  1.00  0.00    -0.200 F 
ATOM     72  F   UNL A   1      43.840  23.969  24.515  1.00  0.00    -0.200 F 
ENDBRANCH  48  62
BRANCH  49  73
ATOM     73  C   UNL A   1      39.472  31.917  35.359  1.00  0.00     0.064 A 
ATOM     74  C   UNL A   1      38.594  31.389  36.316  1.00  0.00     0.173 A 
ATOM     75  C   UNL A   1      39.882  33.250  35.516  1.00  0.00     0.173 A 
ATOM     76  F   UNL A   1      38.152  30.129  36.194  1.00  0.00    -0.203 F 
ATOM     77  C   UNL A   1      38.142  32.164  37.381  1.00  0.00     0.198 A 
ATOM     78  C   UNL A   1      39.452  34.013  36.597  1.00  0.00     0.198 A 
ATOM     79  F   UNL A   1      40.717  33.804  34.624  1.00  0.00    -0.203 F 
ATOM     80  F   UNL A   1      37.272  31.648  38.261  1.00  0.00    -0.200 F 
ATOM     81  C   UNL A   1      38.577  33.473  37.526  1.00  0.00     0.200 A 
ATOM     82  F   UNL A   1      39.888  35.274  36.740  1.00  0.00    -0.200 F 
ATOM     83  F   UNL A   1      38.148  34.215  38.556  1.00  0.00    -0.200 F 
ENDBRANCH  49  73
BRANCH  61  84
ATOM     84  C   UNL A   1      44.819  27.537  34.519  1.00  0.00     0.064 A 
ATOM     85  C   UNL A   1      44.666  26.440  35.380  1.00  0.00     0.173 A 
ATOM     86  C   UNL A   1      46.047  28.214  34.525  1.00  0.00     0.173 A 
ATOM     87  F   UNL A   1      43.503  25.772  35.421  1.00  0.00    -0.203 F 
ATOM     88  C   UNL A   1      45.696  26.053  36.233  1.00  0.00     0.198 A 
ATOM     89  C   UNL A   1      47.083  27.808  35.361  1.00  0.00     0.198 A 
ATOM     90  F   UNL A   1      46.244  29.265  33.716  1.00  0.00    -0.203 F 
ATOM     91  F   UNL A   1      45.511  25.034  37.083  1.00  0.00    -0.200 F 
ATOM     92  C   UNL A   1      46.904  26.733  36.220  1.00  0.00     0.200 A 
ATOM     93  F   UNL A   1      48.254  28.460  35.341  1.00  0.00    -0.200 F 
ATOM     94  F   UNL A   1      47.893  26.361  37.043  1.00  0.00    -0.200 F 
ENDBRANCH  61  84
ENDBRANCH  35  36
ENDBRANCH  28  30
ENDBRANCH  27  28
ENDBRANCH  26  27
ENDBRANCH   1  26
TORSDOF 15
ENDMDL
MODEL 2
REMARK VINA RESULT:     -12.5      0.264      1.703
REMARK SMILES COc1cccc([C@@H]2C[N@@H+](Cc3nccn3C)C[C@H]2C(=O)OCCOC(=O)c2ccc(-c3c4nc(c(-c5c(F)c(F)c(F)c(F)c5F)c5ccc([nH]5)c(-c5c(F)c(F)c(F)c(F)c5F)c5nc(c(-c6c(F)c(F)c(F)c(F)c6F)c6ccc3[nH]6)C=C5)C=C4)cc2)c1
REMARK SMILES IDX 23 1 22 2 20 3 21 4 19 5 8 6 9 7 10 8 18 9 7 11 3 12 4 13
REMARK SMILES IDX 91 14 5 15 6 16 2 17 1 18 11 19 12 20 13 21 16 22 14 23
REMARK SMILES IDX 15 24 17 25 24 26 25 27 26 28 27 29 28 30 29 31 90 32 30 33
REMARK SMILES IDX 89 34 31 35 32 36 33 37 83 38 34 39 88 40 82 41 84 42 35 43
REMARK SMILES IDX 87 44 81 45 80 46 36 48 68 49 48 50 67 51 49 52 52 53 66 54
REMARK SMILES IDX 85 55 50 56 51 57 65 59 86 60 53 61 37 62 38 63 46 64 39 65
REMARK SMILES IDX 40 66 44 67 47 68 41 69 42 70 45 71 43 72 69 73 70 74 78 75
REMARK SMILES IDX 71 76 72 77 76 78 79 79 73 80 74 81 77 82 75 83 54 84 55 85
REMARK SMILES IDX 63 86 56 87 57 88 61 89 64 90 58 91 59 92 62 93 60 94
REMARK H PARENT 10 10 84 47 52 58
REMARK Flexibility Score: inf
ROOT
ATOM      1  C   UNL A   1      31.873  28.016  27.021  1.00  0.00     0.274 C 
ENDROOT
BRANCH   1   2
ATOM      2  O   UNL A   1      30.650  27.431  26.522  1.00  0.00    -0.462 OA
BRANCH   2   3
ATOM      3  C   UNL A   1      30.749  26.227  25.912  1.00  0.00     0.315 C 
ATOM      4  O   UNL A   1      31.221  25.223  26.439  1.00  0.00    -0.252 OA
BRANCH   3   5
ATOM      5  C   UNL A   1      30.250  26.200  24.481  1.00  0.00     0.167 C 
ATOM      6  C   UNL A   1      30.634  27.356  23.551  1.00  0.00     0.094 C 
ATOM      7  C   UNL A   1      30.918  26.651  22.215  1.00  0.00     0.272 C 
ATOM      8  N   UNL A   1      31.461  25.331  22.564  1.00  0.00    -0.327 N 
ATOM      9  C   UNL A   1      30.823  24.941  23.819  1.00  0.00     0.278 C 
ATOM     10  H   UNL A   1      31.236  24.653  21.836  1.00  0.00     0.348 HD
BRANCH   6  11
ATOM     11  C   UNL A   1      29.636  28.494  23.394  1.00  0.00    -0.035 A 
ATOM     12  C   UNL A   1      28.977  30.841  23.525  1.00  0.00     0.119 A 
ATOM     13  C   UNL A   1      27.653  30.482  23.274  1.00  0.00     0.046 A 
ATOM     14  C   UNL A   1      29.966  29.850  23.593  1.00  0.00     0.050 A 
ATOM     15  C   UNL A   1      27.313  29.150  23.064  1.00  0.00     0.004 A 
ATOM     16  C   UNL A   1      28.297  28.165  23.123  1.00  0.00     0.004 A 
BRANCH  12  17
ATOM     17  O   UNL A   1      29.163  32.177  23.755  1.00  0.00    -0.497 OA
ATOM     18  C   UNL A   1      28.704  33.064  22.745  1.00  0.00     0.278 C 
ENDBRANCH  12  17
ENDBRANCH   6  11
BRANCH   8  19
ATOM     19  C   UNL A   1      32.934  25.254  22.561  1.00  0.00     0.339 C 
BRANCH  19  20
ATOM     20  C   UNL A   1      33.600  24.802  23.832  1.00  0.00     0.164 A 
ATOM     21  N   UNL A   1      34.113  25.616  24.740  1.00  0.00    -0.236 NA
ATOM     22  N   UNL A   1      33.783  23.493  24.221  1.00  0.00    -0.333 N 
ATOM     23  C   UNL A   1      34.593  24.824  25.745  1.00  0.00     0.131 A 
ATOM     24  C   UNL A   1      34.395  23.501  25.448  1.00  0.00     0.107 A 
ATOM     25  C   UNL A   1      33.415  22.299  23.501  1.00  0.00     0.151 C 
ENDBRANCH  19  20
ENDBRANCH   8  19
ENDBRANCH   3   5
ENDBRANCH   2   3
ENDBRANCH   1   2
BRANCH   1  26
ATOM     26  C   UNL A   1      31.762  29.536  27.011  1.00  0.00     0.275 C 
BRANCH  26  27
ATOM     27  O   UNL A   1      33.001  30.061  26.513  1.00  0.00    -0.458 OA
BRANCH  27  28
ATOM     28  C   UNL A   1      33.436  31.192  27.113  1.00  0.00     0.338 C 
ATOM     29  O   UNL A   1      32.853  32.249  27.247  1.00  0.00    -0.246 OA
BRANCH  28  30
ATOM     30  C   UNL A   1      34.761  30.904  27.674  1.00  0.00     0.060 A 
ATOM     31  C   UNL A   1      35.109  29.575  27.905  1.00  0.00     0.016 A 
ATOM     32  C   UNL A   1      35.621  31.936  28.036  1.00  0.00     0.016 A 
ATOM     33  C   UNL A   1      36.299  29.265  28.548  1.00  0.00     0.010 A 
ATOM     34  C   UNL A   1      36.836  31.623  28.652  1.00  0.00     0.010 A 
ATOM     35  C   UNL A   1      37.165  30.288  28.950  1.00  0.00    -0.014 A 
BRANCH  35  36
ATOM     36  C   UNL A   1      38.348  29.962  29.786  1.00  0.00     0.031 A 
ATOM     37  C   UNL A   1      39.425  29.074  29.225  1.00  0.00     0.074 A 
ATOM     38  C   UNL A   1      38.498  30.506  31.009  1.00  0.00     0.049 A 
ATOM     39  N   UNL A   1      40.466  28.553  29.824  1.00  0.00    -0.248 NA
ATOM     40  C   UNL A   1      39.315  28.726  27.800  1.00  0.00     0.031 C 
ATOM     41  C   UNL A   1      37.573  31.450  31.634  1.00  0.00     0.029 A 
ATOM     42  N   UNL A   1      39.491  30.345  31.942  1.00  0.00    -0.354 N 
ATOM     43  C   UNL A   1      41.104  27.777  28.864  1.00  0.00     0.074 A 
ATOM     44  C   UNL A   1      40.335  27.896  27.643  1.00  0.00     0.031 C 
ATOM     45  C   UNL A   1      38.051  31.801  32.838  1.00  0.00     0.029 A 
ATOM     46  C   UNL A   1      39.275  31.049  33.100  1.00  0.00     0.049 A 
ATOM     47  H   UNL A   1      40.283  29.779  31.796  1.00  0.00     0.167 HD
ATOM     48  C   UNL A   1      42.228  27.034  28.992  1.00  0.00     0.037 A 
ATOM     49  C   UNL A   1      39.961  31.057  34.259  1.00  0.00     0.037 A 
ATOM     50  C   UNL A   1      43.015  26.955  30.195  1.00  0.00     0.049 A 
ATOM     51  C   UNL A   1      41.178  30.182  34.394  1.00  0.00     0.074 A 
ATOM     52  C   UNL A   1      44.167  26.225  30.430  1.00  0.00     0.029 A 
ATOM     53  N   UNL A   1      42.735  27.649  31.364  1.00  0.00    -0.354 N 
ATOM     54  N   UNL A   1      41.734  29.395  33.506  1.00  0.00    -0.248 NA
ATOM     55  C   UNL A   1      41.853  30.187  35.699  1.00  0.00     0.031 C 
ATOM     56  C   UNL A   1      44.566  26.451  31.753  1.00  0.00     0.029 A 
ATOM     57  C   UNL A   1      43.687  27.356  32.327  1.00  0.00     0.049 A 
ATOM     58  H   UNL A   1      41.973  28.260  31.490  1.00  0.00     0.167 HD
ATOM     59  C   UNL A   1      42.827  28.818  34.138  1.00  0.00     0.074 A 
ATOM     60  C   UNL A   1      42.870  29.366  35.478  1.00  0.00     0.031 C 
ATOM     61  C   UNL A   1      43.712  27.911  33.655  1.00  0.00     0.037 A 
BRANCH  48  62
ATOM     62  C   UNL A   1      42.651  26.211  27.812  1.00  0.00     0.064 A 
ATOM     63  C   UNL A   1      42.090  24.955  27.542  1.00  0.00     0.173 A 
ATOM     64  C   UNL A   1      43.618  26.703  26.921  1.00  0.00     0.173 A 
ATOM     65  F   UNL A   1      41.173  24.434  28.371  1.00  0.00    -0.203 F 
ATOM     66  C   UNL A   1      42.498  24.211  26.436  1.00  0.00     0.198 A 
ATOM     67  C   UNL A   1      44.003  25.969  25.802  1.00  0.00     0.198 A 
ATOM     68  F   UNL A   1      44.184  27.901  27.132  1.00  0.00    -0.203 F 
ATOM     69  F   UNL A   1      41.979  22.994  26.219  1.00  0.00    -0.200 F 
ATOM     70  C   UNL A   1      43.449  24.722  25.565  1.00  0.00     0.200 A 
ATOM     71  F   UNL A   1      44.915  26.470  24.956  1.00  0.00    -0.200 F 
ATOM     72  F   UNL A   1      43.835  24.008  24.498  1.00  0.00    -0.200 F 
ENDBRANCH  48  62
BRANCH  49  73
ATOM     73  C   UNL A   1      39.488  31.889  35.396  1.00  0.00     0.064 A 
ATOM     74  C   UNL A   1      39.926  33.211  35.556  1.00  0.00     0.173 A 
ATOM     75  C   UNL A   1      38.590  31.380  36.346  1.00  0.00     0.173 A 
ATOM     76  F   UNL A   1      40.806  33.734  34.690  1.00  0.00    -0.203 F 
ATOM     77  C   UNL A   1      39.488  33.988  36.627  1.00  0.00     0.198 A 
ATOM     78  C   UNL A   1      38.131  32.167  37.398  1.00  0.00     0.198 A 
ATOM     79  F   UNL A   1      38.145  30.119  36.240  1.00  0.00    -0.203 F 
ATOM     80  F   UNL A   1      39.952  35.236  36.779  1.00  0.00    -0.200 F 
ATOM     81  C   UNL A   1      38.584  33.469  37.542  1.00  0.00     0.200 A 
ATOM     82  F   UNL A   1      37.246  31.664  38.271  1.00  0.00    -0.200 F 
ATOM     83  F   UNL A   1      38.157  34.220  38.566  1.00  0.00    -0.200 F 
ENDBRANCH  49  73
BRANCH  61  84
ATOM     84  C   UNL A   1      44.812  27.476  34.578  1.00  0.00     0.064 A 
ATOM     85  C   UNL A   1      44.677  26.347  35.398  1.00  0.00     0.173 A 
ATOM     86  C   UNL A   1      46.021  28.187  34.626  1.00  0.00     0.173 A 
ATOM     87  F   UNL A   1      43.533  25.646  35.397  1.00  0.00    -0.203 F 
ATOM     88  C   UNL A   1      45.705  25.959  36.253  1.00  0.00     0.198 A 
ATOM     89  C   UNL A   1      47.055  27.781  35.464  1.00  0.00     0.198 A 
ATOM     90  F   UNL A   1      46.199  29.270  33.857  1.00  0.00    -0.203 F 
ATOM     91  F   UNL A   1      45.536  24.906  37.065  1.00  0.00    -0.200 F 
ATOM     92  C   UNL A   1      46.893  26.673  36.282  1.00  0.00     0.200 A 
ATOM     93  F   UNL A   1      48.207  28.465  35.484  1.00  0.00    -0.200 F 
ATOM     94  F   UNL A   1      47.880  26.299  37.108  1.00  0.00    -0.200 F 
ENDBRANCH  61  84
ENDBRANCH  35  36
ENDBRANCH  28  30
ENDBRANCH  27  28
ENDBRANCH  26  27
ENDBRANCH   1  26
TORSDOF 15
ENDMDL
MODEL 3
REMARK VINA RESULT:     -12.5      4.573     10.156
REMARK SMILES COc1cccc([C@@H]2C[N@@H+](Cc3nccn3C)C[C@H]2C(=O)OCCOC(=O)c2ccc(-c3c4nc(c(-c5c(F)c(F)c(F)c(F)c5F)c5ccc([nH]5)c(-c5c(F)c(F)c(F)c(F)c5F)c5nc(c(-c6c(F)c(F)c(F)c(F)c6F)c6ccc3[nH]6)C=C5)C=C4)cc2)c1
REMARK SMILES IDX 23 1 22 2 20 3 21 4 19 5 8 6 9 7 10 8 18 9 7 11 3 12 4 13
REMARK SMILES IDX 91 14 5 15 6 16 2 17 1 18 11 19 12 20 13 21 16 22 14 23
REMARK SMILES IDX 15 24 17 25 24 26 25 27 26 28 27 29 28 30 29 31 90 32 30 33
REMARK SMILES IDX 89 34 31 35 32 36 33 37 83 38 34 39 88 40 82 41 84 42 35 43
REMARK SMILES IDX 87 44 81 45 80 46 36 48 68 49 48 50 67 51 49 52 52 53 66 54
REMARK SMILES IDX 85 55 50 56 51 57 65 59 86 60 53 61 37 62 38 63 46 64 39 65
REMARK SMILES IDX 40 66 44 67 47 68 41 69 42 70 45 71 43 72 69 73 70 74 78 75
REMARK SMILES IDX 71 76 72 77 76 78 79 79 73 80 74 81 77 82 75 83 54 84 55 85
REMARK SMILES IDX 63 86 56 87 57 88 61 89 64 90 58 91 59 92 62 93 60 94
REMARK H PARENT 10 10 84 47 52 58
REMARK Flexibility Score: inf
ROOT
ATOM      1  C   UNL A   1      36.673  22.191  23.925  1.00  0.00     0.274 C 
ENDROOT
BRANCH   1   2
ATOM      2  O   UNL A   1      35.996  23.014  24.901  1.00  0.00    -0.462 OA
BRANCH   2   3
ATOM      3  C   UNL A   1      34.653  22.878  24.993  1.00  0.00     0.315 C 
ATOM      4  O   UNL A   1      34.001  23.133  26.002  1.00  0.00    -0.252 OA
BRANCH   3   5
ATOM      5  C   UNL A   1      33.984  22.347  23.741  1.00  0.00     0.167 C 
ATOM      6  C   UNL A   1      32.785  21.404  23.896  1.00  0.00     0.094 C 
ATOM      7  C   UNL A   1      31.832  21.864  22.782  1.00  0.00     0.272 C 
ATOM      8  N   UNL A   1      32.046  23.311  22.640  1.00  0.00    -0.327 N 
ATOM      9  C   UNL A   1      33.452  23.553  22.959  1.00  0.00     0.278 C 
ATOM     10  H   UNL A   1      31.853  23.605  21.682  1.00  0.00     0.348 HD
BRANCH   6  11
ATOM     11  C   UNL A   1      33.054  19.908  23.836  1.00  0.00    -0.035 A 
ATOM     12  C   UNL A   1      34.338  17.906  24.386  1.00  0.00     0.119 A 
ATOM     13  C   UNL A   1      33.575  17.169  23.479  1.00  0.00     0.046 A 
ATOM     14  C   UNL A   1      34.084  19.273  24.558  1.00  0.00     0.050 A 
ATOM     15  C   UNL A   1      32.547  17.777  22.767  1.00  0.00     0.004 A 
ATOM     16  C   UNL A   1      32.289  19.136  22.945  1.00  0.00     0.004 A 
BRANCH  12  17
ATOM     17  O   UNL A   1      35.341  17.194  24.984  1.00  0.00    -0.497 OA
ATOM     18  C   UNL A   1      35.118  15.801  25.149  1.00  0.00     0.278 C 
ENDBRANCH  12  17
ENDBRANCH   6  11
BRANCH   8  19
ATOM     19  C   UNL A   1      31.084  24.149  23.381  1.00  0.00     0.339 C 
BRANCH  19  20
ATOM     20  C   UNL A   1      31.380  25.621  23.467  1.00  0.00     0.164 A 
ATOM     21  N   UNL A   1      31.439  26.435  22.425  1.00  0.00    -0.236 NA
ATOM     22  N   UNL A   1      31.643  26.321  24.624  1.00  0.00    -0.333 N 
ATOM     23  C   UNL A   1      31.700  27.681  22.921  1.00  0.00     0.131 A 
ATOM     24  C   UNL A   1      31.826  27.637  24.285  1.00  0.00     0.107 A 
ATOM     25  C   UNL A   1      31.721  25.806  25.968  1.00  0.00     0.151 C 
ENDBRANCH  19  20
ENDBRANCH   8  19
ENDBRANCH   3   5
ENDBRANCH   2   3
ENDBRANCH   1   2
BRANCH   1  26
ATOM     26  C   UNL A   1      37.409  21.056  24.626  1.00  0.00     0.275 C 
BRANCH  26  27
ATOM     27  O   UNL A   1      37.841  21.539  25.906  1.00  0.00    -0.458 OA
BRANCH  27  28
ATOM     28  C   UNL A   1      39.131  21.285  26.218  1.00  0.00     0.338 C 
ATOM     29  O   UNL A   1      39.760  20.258  26.058  1.00  0.00    -0.246 OA
BRANCH  28  30
ATOM     30  C   UNL A   1      39.706  22.531  26.736  1.00  0.00     0.060 A 
ATOM     31  C   UNL A   1      39.171  23.741  26.300  1.00  0.00     0.016 A 
ATOM     32  C   UNL A   1      40.808  22.508  27.587  1.00  0.00     0.016 A 
ATOM     33  C   UNL A   1      39.763  24.941  26.668  1.00  0.00     0.010 A 
ATOM     34  C   UNL A   1      41.384  23.718  27.985  1.00  0.00     0.010 A 
ATOM     35  C   UNL A   1      40.891  24.941  27.495  1.00  0.00    -0.014 A 
BRANCH  35  36
ATOM     36  C   UNL A   1      41.620  26.211  27.744  1.00  0.00     0.031 A 
ATOM     37  C   UNL A   1      40.963  27.291  28.561  1.00  0.00     0.074 A 
ATOM     38  C   UNL A   1      42.882  26.378  27.304  1.00  0.00     0.049 A 
ATOM     39  N   UNL A   1      41.356  28.519  28.782  1.00  0.00    -0.248 NA
ATOM     40  C   UNL A   1      39.693  26.939  29.216  1.00  0.00     0.031 C 
ATOM     41  C   UNL A   1      43.664  25.379  26.578  1.00  0.00     0.029 A 
ATOM     42  N   UNL A   1      43.730  27.452  27.413  1.00  0.00    -0.354 N 
ATOM     43  C   UNL A   1      40.360  29.100  29.557  1.00  0.00     0.074 A 
ATOM     44  C   UNL A   1      39.345  28.090  29.770  1.00  0.00     0.031 C 
ATOM     45  C   UNL A   1      44.884  25.877  26.324  1.00  0.00     0.029 A 
ATOM     46  C   UNL A   1      44.943  27.256  26.801  1.00  0.00     0.049 A 
ATOM     47  H   UNL A   1      43.492  28.283  27.884  1.00  0.00     0.167 HD
ATOM     48  C   UNL A   1      40.300  30.362  30.045  1.00  0.00     0.037 A 
ATOM     49  C   UNL A   1      45.971  28.104  26.608  1.00  0.00     0.037 A 
ATOM     50  C   UNL A   1      41.333  31.348  29.870  1.00  0.00     0.049 A 
ATOM     51  C   UNL A   1      45.858  29.516  27.115  1.00  0.00     0.074 A 
ATOM     52  C   UNL A   1      41.366  32.657  30.319  1.00  0.00     0.029 A 
ATOM     53  N   UNL A   1      42.529  31.124  29.202  1.00  0.00    -0.354 N 
ATOM     54  N   UNL A   1      44.883  30.080  27.784  1.00  0.00    -0.248 NA
ATOM     55  C   UNL A   1      46.986  30.414  26.826  1.00  0.00     0.031 C 
ATOM     56  C   UNL A   1      42.568  33.236  29.893  1.00  0.00     0.029 A 
ATOM     57  C   UNL A   1      43.302  32.273  29.218  1.00  0.00     0.049 A 
ATOM     58  H   UNL A   1      42.790  30.274  28.780  1.00  0.00     0.167 HD
ATOM     59  C   UNL A   1      45.279  31.393  28.004  1.00  0.00     0.074 A 
ATOM     60  C   UNL A   1      46.597  31.534  27.418  1.00  0.00     0.031 C 
ATOM     61  C   UNL A   1      44.610  32.393  28.628  1.00  0.00     0.037 A 
BRANCH  48  62
ATOM     62  C   UNL A   1      39.055  30.760  30.780  1.00  0.00     0.064 A 
ATOM     63  C   UNL A   1      37.946  31.309  30.121  1.00  0.00     0.173 A 
ATOM     64  C   UNL A   1      38.963  30.562  32.167  1.00  0.00     0.173 A 
ATOM     65  F   UNL A   1      37.990  31.532  28.799  1.00  0.00    -0.203 F 
ATOM     66  C   UNL A   1      36.800  31.668  30.827  1.00  0.00     0.198 A 
ATOM     67  C   UNL A   1      37.805  30.897  32.865  1.00  0.00     0.198 A 
ATOM     68  F   UNL A   1      39.995  30.037  32.845  1.00  0.00    -0.203 F 
ATOM     69  F   UNL A   1      35.767  32.231  30.184  1.00  0.00    -0.200 F 
ATOM     70  C   UNL A   1      36.729  31.456  32.195  1.00  0.00     0.200 A 
ATOM     71  F   UNL A   1      37.735  30.681  34.186  1.00  0.00    -0.200 F 
ATOM     72  F   UNL A   1      35.622  31.795  32.872  1.00  0.00    -0.200 F 
ENDBRANCH  48  62
BRANCH  49  73
ATOM     73  C   UNL A   1      47.177  27.652  25.866  1.00  0.00     0.064 A 
ATOM     74  C   UNL A   1      47.230  27.712  24.467  1.00  0.00     0.173 A 
ATOM     75  C   UNL A   1      48.300  27.150  26.542  1.00  0.00     0.173 A 
ATOM     76  F   UNL A   1      46.171  28.158  23.776  1.00  0.00    -0.203 F 
ATOM     77  C   UNL A   1      48.358  27.281  23.773  1.00  0.00     0.198 A 
ATOM     78  C   UNL A   1      49.437  26.748  25.847  1.00  0.00     0.198 A 
ATOM     79  F   UNL A   1      48.297  27.067  27.880  1.00  0.00    -0.203 F 
ATOM     80  F   UNL A   1      48.369  27.311  22.433  1.00  0.00    -0.200 F 
ATOM     81  C   UNL A   1      49.464  26.807  24.463  1.00  0.00     0.200 A 
ATOM     82  F   UNL A   1      50.509  26.304  26.521  1.00  0.00    -0.200 F 
ATOM     83  F   UNL A   1      50.552  26.401  23.794  1.00  0.00    -0.200 F 
ENDBRANCH  49  73
BRANCH  61  84
ATOM     84  C   UNL A   1      45.307  33.718  28.728  1.00  0.00     0.064 A 
ATOM     85  C   UNL A   1      46.167  34.016  29.794  1.00  0.00     0.173 A 
ATOM     86  C   UNL A   1      45.126  34.692  27.734  1.00  0.00     0.173 A 
ATOM     87  F   UNL A   1      46.358  33.123  30.777  1.00  0.00    -0.203 F 
ATOM     88  C   UNL A   1      46.801  35.253  29.876  1.00  0.00     0.198 A 
ATOM     89  C   UNL A   1      45.781  35.917  27.806  1.00  0.00     0.198 A 
ATOM     90  F   UNL A   1      44.317  34.452  26.692  1.00  0.00    -0.203 F 
ATOM     91  F   UNL A   1      47.580  35.535  30.930  1.00  0.00    -0.200 F 
ATOM     92  C   UNL A   1      46.612  36.199  28.881  1.00  0.00     0.200 A 
ATOM     93  F   UNL A   1      45.605  36.828  26.839  1.00  0.00    -0.200 F 
ATOM     94  F   UNL A   1      47.221  37.390  28.962  1.00  0.00    -0.200 F 
ENDBRANCH  61  84
ENDBRANCH  35  36
ENDBRANCH  28  30
ENDBRANCH  27  28
ENDBRANCH  26  27
ENDBRANCH   1  26
TORSDOF 15
ENDMDL
