MODEL 1
REMARK VINA RESULT:     -11.7      0.000      0.000
REMARK SMILES C[C@H]1CN([C@@H](C(=O)OCCOC(=O)c2ccc(-c3c4nc(c(-c5c(F)c(F)c(F)c(F)c5F)c5ccc([nH]5)c(-c5c(F)c(F)c(F)c(F)c5F)c5nc(c(-c6c(F)c(F)c(F)c(F)c6F)c6ccc3[nH]6)C=C5)C=C4)cc2)C(C)(C)C)S(=O)(=O)C1
REMARK SMILES IDX 10 1 9 2 8 3 6 4 7 5 5 6 4 7 1 8 2 9 3 10 84 11 81 12 82 13
REMARK SMILES IDX 83 14 77 15 78 16 79 17 80 18 11 19 12 20 13 21 14 22 15 23
REMARK SMILES IDX 76 24 16 25 75 26 17 27 18 28 19 29 69 30 20 31 74 32 68 33
REMARK SMILES IDX 70 34 21 35 73 36 67 37 66 38 22 40 54 41 34 42 53 43 35 44
REMARK SMILES IDX 38 45 52 46 71 47 36 48 37 49 51 51 72 52 39 53 23 54 24 55
REMARK SMILES IDX 32 56 25 57 26 58 30 59 33 60 27 61 28 62 31 63 29 64 55 65
REMARK SMILES IDX 56 66 64 67 57 68 58 69 62 70 65 71 59 72 60 73 63 74 61 75
REMARK SMILES IDX 40 76 41 77 49 78 42 79 43 80 47 81 50 82 44 83 45 84 48 85
REMARK SMILES IDX 46 86
REMARK H PARENT 70 39 38 50
REMARK Flexibility Score: inf
ROOT
ATOM      1  C   UNL A   1      31.396  30.069  25.405  1.00  0.00     0.275 C 
ENDROOT
BRANCH   1   2
ATOM      2  C   UNL A   1      31.316  28.943  24.380  1.00  0.00     0.274 C 
BRANCH   2   3
ATOM      3  O   UNL A   1      31.348  27.651  25.033  1.00  0.00    -0.461 OA
BRANCH   3   4
ATOM      4  C   UNL A   1      30.596  26.662  24.474  1.00  0.00     0.325 C 
ATOM      5  O   UNL A   1      29.390  26.786  24.287  1.00  0.00    -0.250 OA
BRANCH   4   6
ATOM      6  C   UNL A   1      31.359  25.327  24.323  1.00  0.00     0.188 C 
BRANCH   6   7
ATOM      7  N   UNL A   1      31.875  24.699  25.586  1.00  0.00    -0.187 NA
ATOM      8  C   UNL A   1      34.468  22.704  25.480  1.00  0.00     0.010 C 
ATOM      9  C   UNL A   1      33.854  23.621  26.536  1.00  0.00     0.017 C 
ATOM     10  C   UNL A   1      33.284  24.936  25.968  1.00  0.00     0.107 C 
ATOM     11  C   UNL A   1      32.706  22.920  27.250  1.00  0.00     0.159 C 
ATOM     12  S   UNL A   1      31.245  23.323  26.316  1.00  0.00     0.215 S 
ATOM     13  O   UNL A   1      30.225  23.723  27.253  1.00  0.00    -0.212 OA
ATOM     14  O   UNL A   1      31.028  22.319  25.298  1.00  0.00    -0.212 OA
ENDBRANCH   6   7
BRANCH   6  15
ATOM     15  C   UNL A   1      32.348  25.229  23.081  1.00  0.00    -0.011 C 
ATOM     16  C   UNL A   1      32.510  23.745  22.678  1.00  0.00     0.013 C 
ATOM     17  C   UNL A   1      31.778  25.944  21.826  1.00  0.00     0.013 C 
ATOM     18  C   UNL A   1      33.749  25.823  23.305  1.00  0.00     0.013 C 
ENDBRANCH   6  15
ENDBRANCH   4   6
ENDBRANCH   3   4
ENDBRANCH   2   3
ENDBRANCH   1   2
BRANCH   1  19
ATOM     19  O   UNL A   1      32.741  30.131  25.899  1.00  0.00    -0.458 OA
BRANCH  19  20
ATOM     20  C   UNL A   1      33.010  31.109  26.796  1.00  0.00     0.338 C 
ATOM     21  O   UNL A   1      32.299  32.061  27.070  1.00  0.00    -0.246 OA
BRANCH  20  22
ATOM     22  C   UNL A   1      34.335  30.853  27.416  1.00  0.00     0.060 A 
ATOM     23  C   UNL A   1      34.780  29.554  27.651  1.00  0.00     0.016 A 
ATOM     24  C   UNL A   1      35.115  31.924  27.849  1.00  0.00     0.016 A 
ATOM     25  C   UNL A   1      35.931  29.326  28.407  1.00  0.00     0.010 A 
ATOM     26  C   UNL A   1      36.332  31.689  28.507  1.00  0.00     0.010 A 
ATOM     27  C   UNL A   1      36.743  30.384  28.834  1.00  0.00    -0.014 A 
BRANCH  27  28
ATOM     28  C   UNL A   1      37.974  30.131  29.648  1.00  0.00     0.031 A 
ATOM     29  C   UNL A   1      39.117  29.324  29.079  1.00  0.00     0.074 A 
ATOM     30  C   UNL A   1      38.109  30.628  30.898  1.00  0.00     0.049 A 
ATOM     31  N   UNL A   1      40.125  28.758  29.699  1.00  0.00    -0.248 NA
ATOM     32  C   UNL A   1      39.116  29.104  27.624  1.00  0.00     0.031 C 
ATOM     33  C   UNL A   1      37.136  31.471  31.591  1.00  0.00     0.029 A 
ATOM     34  N   UNL A   1      39.135  30.501  31.806  1.00  0.00    -0.354 N 
ATOM     35  C   UNL A   1      40.818  28.043  28.729  1.00  0.00     0.074 A 
ATOM     36  C   UNL A   1      40.129  28.262  27.474  1.00  0.00     0.031 C 
ATOM     37  C   UNL A   1      37.636  31.844  32.777  1.00  0.00     0.029 A 
ATOM     38  C   UNL A   1      38.908  31.163  32.989  1.00  0.00     0.049 A 
ATOM     39  H   UNL A   1      39.954  29.986  31.627  1.00  0.00     0.167 HD
ATOM     40  C   UNL A   1      41.921  27.268  28.877  1.00  0.00     0.037 A 
ATOM     41  C   UNL A   1      39.604  31.183  34.142  1.00  0.00     0.037 A 
ATOM     42  C   UNL A   1      42.666  27.130  30.104  1.00  0.00     0.049 A 
ATOM     43  C   UNL A   1      40.839  30.341  34.276  1.00  0.00     0.074 A 
ATOM     44  C   UNL A   1      43.786  26.354  30.354  1.00  0.00     0.029 A 
ATOM     45  N   UNL A   1      42.391  27.817  31.276  1.00  0.00    -0.354 N 
ATOM     46  N   UNL A   1      41.399  29.548  33.397  1.00  0.00    -0.248 NA
ATOM     47  C   UNL A   1      41.522  30.373  35.578  1.00  0.00     0.031 C 
ATOM     48  C   UNL A   1      44.182  26.562  31.680  1.00  0.00     0.029 A 
ATOM     49  C   UNL A   1      43.329  27.494  32.246  1.00  0.00     0.049 A 
ATOM     50  H   UNL A   1      41.641  28.441  31.402  1.00  0.00     0.167 HD
ATOM     51  C   UNL A   1      42.492  28.983  34.036  1.00  0.00     0.074 A 
ATOM     52  C   UNL A   1      42.540  29.551  35.367  1.00  0.00     0.031 C 
ATOM     53  C   UNL A   1      43.367  28.061  33.568  1.00  0.00     0.037 A 
BRANCH  40  54
ATOM     54  C   UNL A   1      42.382  26.472  27.690  1.00  0.00     0.064 A 
ATOM     55  C   UNL A   1      43.396  26.925  26.835  1.00  0.00     0.173 A 
ATOM     56  C   UNL A   1      41.839  25.200  27.447  1.00  0.00     0.173 A 
ATOM     57  F   UNL A   1      43.941  28.137  27.017  1.00  0.00    -0.203 F 
ATOM     58  C   UNL A   1      43.838  26.141  25.771  1.00  0.00     0.198 A 
ATOM     59  C   UNL A   1      42.302  24.408  26.401  1.00  0.00     0.198 A 
ATOM     60  F   UNL A   1      40.873  24.714  28.242  1.00  0.00    -0.203 F 
ATOM     61  F   UNL A   1      44.785  26.608  24.945  1.00  0.00    -0.200 F 
ATOM     62  C   UNL A   1      43.298  24.881  25.560  1.00  0.00     0.200 A 
ATOM     63  F   UNL A   1      41.791  23.183  26.210  1.00  0.00    -0.200 F 
ATOM     64  F   UNL A   1      43.736  24.122  24.546  1.00  0.00    -0.200 F 
ENDBRANCH  40  54
BRANCH  41  65
ATOM     65  C   UNL A   1      39.102  31.985  35.289  1.00  0.00     0.064 A 
ATOM     66  C   UNL A   1      38.358  31.389  36.316  1.00  0.00     0.173 A 
ATOM     67  C   UNL A   1      39.370  33.359  35.388  1.00  0.00     0.173 A 
ATOM     68  F   UNL A   1      38.046  30.086  36.249  1.00  0.00    -0.203 F 
ATOM     69  C   UNL A   1      37.900  32.138  37.399  1.00  0.00     0.198 A 
ATOM     70  C   UNL A   1      38.943  34.099  36.488  1.00  0.00     0.198 A 
ATOM     71  F   UNL A   1      40.075  33.977  34.430  1.00  0.00    -0.203 F 
ATOM     72  F   UNL A   1      37.156  31.554  38.347  1.00  0.00    -0.200 F 
ATOM     73  C   UNL A   1      38.203  33.489  37.489  1.00  0.00     0.200 A 
ATOM     74  F   UNL A   1      39.254  35.398  36.580  1.00  0.00    -0.200 F 
ATOM     75  F   UNL A   1      37.778  34.204  38.539  1.00  0.00    -0.200 F 
ENDBRANCH  41  65
BRANCH  53  76
ATOM     76  C   UNL A   1      44.462  27.631  34.498  1.00  0.00     0.064 A 
ATOM     77  C   UNL A   1      44.306  26.529  35.351  1.00  0.00     0.173 A 
ATOM     78  C   UNL A   1      45.676  28.332  34.540  1.00  0.00     0.173 A 
ATOM     79  F   UNL A   1      43.157  25.839  35.359  1.00  0.00    -0.203 F 
ATOM     80  C   UNL A   1      45.315  26.166  36.240  1.00  0.00     0.198 A 
ATOM     81  C   UNL A   1      46.692  27.951  35.413  1.00  0.00     0.198 A 
ATOM     82  F   UNL A   1      45.874  29.390  33.740  1.00  0.00    -0.203 F 
ATOM     83  F   UNL A   1      45.125  25.145  37.087  1.00  0.00    -0.200 F 
ATOM     84  C   UNL A   1      46.507  26.876  36.269  1.00  0.00     0.200 A 
ATOM     85  F   UNL A   1      47.845  28.634  35.436  1.00  0.00    -0.200 F 
ATOM     86  F   UNL A   1      47.473  26.531  37.132  1.00  0.00    -0.200 F 
ENDBRANCH  53  76
ENDBRANCH  27  28
ENDBRANCH  20  22
ENDBRANCH  19  20
ENDBRANCH   1  19
TORSDOF 13
ENDMDL
MODEL 2
REMARK VINA RESULT:     -11.7      0.124      2.063
REMARK SMILES C[C@H]1CN([C@@H](C(=O)OCCOC(=O)c2ccc(-c3c4nc(c(-c5c(F)c(F)c(F)c(F)c5F)c5ccc([nH]5)c(-c5c(F)c(F)c(F)c(F)c5F)c5nc(c(-c6c(F)c(F)c(F)c(F)c6F)c6ccc3[nH]6)C=C5)C=C4)cc2)C(C)(C)C)S(=O)(=O)C1
REMARK SMILES IDX 10 1 9 2 8 3 6 4 7 5 5 6 4 7 1 8 2 9 3 10 84 11 81 12 82 13
REMARK SMILES IDX 83 14 77 15 78 16 79 17 80 18 11 19 12 20 13 21 14 22 15 23
REMARK SMILES IDX 76 24 16 25 75 26 17 27 18 28 19 29 69 30 20 31 74 32 68 33
REMARK SMILES IDX 70 34 21 35 73 36 67 37 66 38 22 40 54 41 34 42 53 43 35 44
REMARK SMILES IDX 38 45 52 46 71 47 36 48 37 49 51 51 72 52 39 53 23 54 24 55
REMARK SMILES IDX 32 56 25 57 26 58 30 59 33 60 27 61 28 62 31 63 29 64 55 65
REMARK SMILES IDX 56 66 64 67 57 68 58 69 62 70 65 71 59 72 60 73 63 74 61 75
REMARK SMILES IDX 40 76 41 77 49 78 42 79 43 80 47 81 50 82 44 83 45 84 48 85
REMARK SMILES IDX 46 86
REMARK H PARENT 70 39 38 50
REMARK Flexibility Score: inf
ROOT
ATOM      1  C   UNL A   1      31.529  30.038  25.369  1.00  0.00     0.275 C 
ENDROOT
BRANCH   1   2
ATOM      2  C   UNL A   1      31.498  28.859  24.403  1.00  0.00     0.274 C 
BRANCH   2   3
ATOM      3  O   UNL A   1      31.288  27.617  25.118  1.00  0.00    -0.461 OA
BRANCH   3   4
ATOM      4  C   UNL A   1      30.572  26.652  24.474  1.00  0.00     0.325 C 
ATOM      5  O   UNL A   1      29.382  26.789  24.212  1.00  0.00    -0.250 OA
BRANCH   4   6
ATOM      6  C   UNL A   1      31.341  25.319  24.326  1.00  0.00     0.188 C 
BRANCH   6   7
ATOM      7  N   UNL A   1      31.855  24.694  25.590  1.00  0.00    -0.187 NA
ATOM      8  C   UNL A   1      34.466  22.722  25.496  1.00  0.00     0.010 C 
ATOM      9  C   UNL A   1      33.838  23.632  26.550  1.00  0.00     0.017 C 
ATOM     10  C   UNL A   1      33.260  24.943  25.981  1.00  0.00     0.107 C 
ATOM     11  C   UNL A   1      32.693  22.920  27.257  1.00  0.00     0.159 C 
ATOM     12  S   UNL A   1      31.233  23.311  26.316  1.00  0.00     0.215 S 
ATOM     13  O   UNL A   1      30.205  23.702  27.247  1.00  0.00    -0.212 OA
ATOM     14  O   UNL A   1      31.030  22.307  25.294  1.00  0.00    -0.212 OA
ENDBRANCH   6   7
BRANCH   6  15
ATOM     15  C   UNL A   1      32.333  25.225  23.087  1.00  0.00    -0.011 C 
ATOM     16  C   UNL A   1      31.706  25.958  21.878  1.00  0.00     0.013 C 
ATOM     17  C   UNL A   1      33.679  25.949  23.362  1.00  0.00     0.013 C 
ATOM     18  C   UNL A   1      32.703  23.799  22.645  1.00  0.00     0.013 C 
ENDBRANCH   6  15
ENDBRANCH   4   6
ENDBRANCH   3   4
ENDBRANCH   2   3
ENDBRANCH   1   2
BRANCH   1  19
ATOM     19  O   UNL A   1      32.882  30.226  25.805  1.00  0.00    -0.458 OA
BRANCH  19  20
ATOM     20  C   UNL A   1      33.071  31.092  26.829  1.00  0.00     0.338 C 
ATOM     21  O   UNL A   1      32.297  31.957  27.204  1.00  0.00    -0.246 OA
BRANCH  20  22
ATOM     22  C   UNL A   1      34.395  30.833  27.450  1.00  0.00     0.060 A 
ATOM     23  C   UNL A   1      34.828  29.533  27.705  1.00  0.00     0.016 A 
ATOM     24  C   UNL A   1      35.186  31.904  27.864  1.00  0.00     0.016 A 
ATOM     25  C   UNL A   1      35.979  29.306  28.461  1.00  0.00     0.010 A 
ATOM     26  C   UNL A   1      36.403  31.667  28.522  1.00  0.00     0.010 A 
ATOM     27  C   UNL A   1      36.802  30.364  28.869  1.00  0.00    -0.014 A 
BRANCH  27  28
ATOM     28  C   UNL A   1      38.033  30.112  29.684  1.00  0.00     0.031 A 
ATOM     29  C   UNL A   1      39.163  29.277  29.128  1.00  0.00     0.074 A 
ATOM     30  C   UNL A   1      38.180  30.634  30.921  1.00  0.00     0.049 A 
ATOM     31  N   UNL A   1      40.166  28.712  29.757  1.00  0.00    -0.248 NA
ATOM     32  C   UNL A   1      39.153  29.025  27.679  1.00  0.00     0.031 C 
ATOM     33  C   UNL A   1      37.221  31.506  31.600  1.00  0.00     0.029 A 
ATOM     34  N   UNL A   1      39.208  30.514  31.829  1.00  0.00    -0.354 N 
ATOM     35  C   UNL A   1      40.845  27.966  28.800  1.00  0.00     0.074 A 
ATOM     36  C   UNL A   1      40.154  28.166  27.544  1.00  0.00     0.031 C 
ATOM     37  C   UNL A   1      37.731  31.898  32.775  1.00  0.00     0.029 A 
ATOM     38  C   UNL A   1      38.995  31.205  32.997  1.00  0.00     0.049 A 
ATOM     39  H   UNL A   1      40.019  29.984  31.657  1.00  0.00     0.167 HD
ATOM     40  C   UNL A   1      41.937  27.180  28.961  1.00  0.00     0.037 A 
ATOM     41  C   UNL A   1      39.695  31.241  34.147  1.00  0.00     0.037 A 
ATOM     42  C   UNL A   1      42.686  27.058  30.188  1.00  0.00     0.049 A 
ATOM     43  C   UNL A   1      40.919  30.385  34.295  1.00  0.00     0.074 A 
ATOM     44  C   UNL A   1      43.796  26.273  30.451  1.00  0.00     0.029 A 
ATOM     45  N   UNL A   1      42.425  27.774  31.346  1.00  0.00    -0.354 N 
ATOM     46  N   UNL A   1      41.465  29.566  33.431  1.00  0.00    -0.248 NA
ATOM     47  C   UNL A   1      41.608  30.437  35.593  1.00  0.00     0.031 C 
ATOM     48  C   UNL A   1      44.200  26.504  31.771  1.00  0.00     0.029 A 
ATOM     49  C   UNL A   1      43.363  27.460  32.319  1.00  0.00     0.049 A 
ATOM     50  H   UNL A   1      41.684  28.411  31.460  1.00  0.00     0.167 HD
ATOM     51  C   UNL A   1      42.553  29.000  34.079  1.00  0.00     0.074 A 
ATOM     52  C   UNL A   1      42.614  29.596  35.397  1.00  0.00     0.031 C 
ATOM     53  C   UNL A   1      43.413  28.056  33.628  1.00  0.00     0.037 A 
BRANCH  40  54
ATOM     54  C   UNL A   1      42.383  26.351  27.790  1.00  0.00     0.064 A 
ATOM     55  C   UNL A   1      41.798  25.115  27.484  1.00  0.00     0.173 A 
ATOM     56  C   UNL A   1      43.372  26.842  26.922  1.00  0.00     0.173 A 
ATOM     57  F   UNL A   1      40.856  24.597  28.286  1.00  0.00    -0.203 F 
ATOM     58  C   UNL A   1      42.199  24.393  26.361  1.00  0.00     0.198 A 
ATOM     59  C   UNL A   1      43.750  26.132  25.787  1.00  0.00     0.198 A 
ATOM     60  F   UNL A   1      43.957  28.025  27.164  1.00  0.00    -0.203 F 
ATOM     61  F   UNL A   1      41.650  23.197  26.106  1.00  0.00    -0.200 F 
ATOM     62  C   UNL A   1      43.166  24.905  25.510  1.00  0.00     0.200 A 
ATOM     63  F   UNL A   1      44.672  26.637  24.956  1.00  0.00    -0.200 F 
ATOM     64  F   UNL A   1      43.538  24.216  24.421  1.00  0.00    -0.200 F 
ENDBRANCH  40  54
BRANCH  41  65
ATOM     65  C   UNL A   1      39.210  32.075  35.278  1.00  0.00     0.064 A 
ATOM     66  C   UNL A   1      39.490  33.446  35.336  1.00  0.00     0.173 A 
ATOM     67  C   UNL A   1      38.443  31.519  36.315  1.00  0.00     0.173 A 
ATOM     68  F   UNL A   1      40.248  34.016  34.387  1.00  0.00    -0.203 F 
ATOM     69  C   UNL A   1      39.023  34.231  36.389  1.00  0.00     0.198 A 
ATOM     70  C   UNL A   1      37.947  32.311  37.347  1.00  0.00     0.198 A 
ATOM     71  F   UNL A   1      38.151  30.211  36.308  1.00  0.00    -0.203 F 
ATOM     72  F   UNL A   1      39.338  35.532  36.443  1.00  0.00    -0.200 F 
ATOM     73  C   UNL A   1      38.242  33.665  37.386  1.00  0.00     0.200 A 
ATOM     74  F   UNL A   1      37.179  31.764  38.298  1.00  0.00    -0.200 F 
ATOM     75  F   UNL A   1      37.779  34.424  38.388  1.00  0.00    -0.200 F 
ENDBRANCH  41  65
BRANCH  53  76
ATOM     76  C   UNL A   1      44.506  27.632  34.563  1.00  0.00     0.064 A 
ATOM     77  C   UNL A   1      45.743  28.294  34.591  1.00  0.00     0.173 A 
ATOM     78  C   UNL A   1      44.318  26.548  35.433  1.00  0.00     0.173 A 
ATOM     79  F   UNL A   1      45.976  29.324  33.765  1.00  0.00    -0.203 F 
ATOM     80  C   UNL A   1      46.764  27.863  35.435  1.00  0.00     0.198 A 
ATOM     81  C   UNL A   1      45.333  26.136  36.292  1.00  0.00     0.198 A 
ATOM     82  F   UNL A   1      43.152  25.886  35.446  1.00  0.00    -0.203 F 
ATOM     83  F   UNL A   1      47.956  28.474  35.406  1.00  0.00    -0.200 F 
ATOM     84  C   UNL A   1      46.558  26.787  36.285  1.00  0.00     0.200 A 
ATOM     85  F   UNL A   1      45.131  25.099  37.117  1.00  0.00    -0.200 F 
ATOM     86  F   UNL A   1      47.546  26.367  37.088  1.00  0.00    -0.200 F 
ENDBRANCH  53  76
ENDBRANCH  27  28
ENDBRANCH  20  22
ENDBRANCH  19  20
ENDBRANCH   1  19
TORSDOF 13
ENDMDL
MODEL 3
REMARK VINA RESULT:     -11.5      1.157      2.043
REMARK SMILES C[C@H]1CN([C@@H](C(=O)OCCOC(=O)c2ccc(-c3c4nc(c(-c5c(F)c(F)c(F)c(F)c5F)c5ccc([nH]5)c(-c5c(F)c(F)c(F)c(F)c5F)c5nc(c(-c6c(F)c(F)c(F)c(F)c6F)c6ccc3[nH]6)C=C5)C=C4)cc2)C(C)(C)C)S(=O)(=O)C1
REMARK SMILES IDX 10 1 9 2 8 3 6 4 7 5 5 6 4 7 1 8 2 9 3 10 84 11 81 12 82 13
REMARK SMILES IDX 83 14 77 15 78 16 79 17 80 18 11 19 12 20 13 21 14 22 15 23
REMARK SMILES IDX 76 24 16 25 75 26 17 27 18 28 19 29 69 30 20 31 74 32 68 33
REMARK SMILES IDX 70 34 21 35 73 36 67 37 66 38 22 40 54 41 34 42 53 43 35 44
REMARK SMILES IDX 38 45 52 46 71 47 36 48 37 49 51 51 72 52 39 53 23 54 24 55
REMARK SMILES IDX 32 56 25 57 26 58 30 59 33 60 27 61 28 62 31 63 29 64 55 65
REMARK SMILES IDX 56 66 64 67 57 68 58 69 62 70 65 71 59 72 60 73 63 74 61 75
REMARK SMILES IDX 40 76 41 77 49 78 42 79 43 80 47 81 50 82 44 83 45 84 48 85
REMARK SMILES IDX 46 86
REMARK H PARENT 70 39 38 50
REMARK Flexibility Score: inf
ROOT
ATOM      1  C   UNL A   1      31.642  30.024  25.030  1.00  0.00     0.275 C 
ENDROOT
BRANCH   1   2
ATOM      2  C   UNL A   1      31.767  28.822  24.100  1.00  0.00     0.274 C 
BRANCH   2   3
ATOM      3  O   UNL A   1      30.460  28.369  23.670  1.00  0.00    -0.461 OA
BRANCH   3   4
ATOM      4  C   UNL A   1      30.162  27.057  23.889  1.00  0.00     0.325 C 
ATOM      5  O   UNL A   1      29.006  26.655  23.969  1.00  0.00    -0.250 OA
BRANCH   4   6
ATOM      6  C   UNL A   1      31.399  26.203  24.247  1.00  0.00     0.188 C 
BRANCH   6   7
ATOM      7  N   UNL A   1      31.840  25.195  23.224  1.00  0.00    -0.187 NA
ATOM      8  C   UNL A   1      32.940  22.264  24.185  1.00  0.00     0.010 C 
ATOM      9  C   UNL A   1      32.257  22.803  22.929  1.00  0.00     0.017 C 
ATOM     10  C   UNL A   1      31.181  23.870  23.210  1.00  0.00     0.107 C 
ATOM     11  C   UNL A   1      33.279  23.446  22.001  1.00  0.00     0.159 C 
ATOM     12  S   UNL A   1      33.344  25.160  22.476  1.00  0.00     0.215 S 
ATOM     13  O   UNL A   1      33.278  25.950  21.272  1.00  0.00    -0.212 OA
ATOM     14  O   UNL A   1      34.365  25.346  23.484  1.00  0.00    -0.212 OA
ENDBRANCH   6   7
BRANCH   6  15
ATOM     15  C   UNL A   1      31.485  25.702  25.754  1.00  0.00    -0.011 C 
ATOM     16  C   UNL A   1      32.961  25.404  26.105  1.00  0.00     0.013 C 
ATOM     17  C   UNL A   1      31.029  26.795  26.757  1.00  0.00     0.013 C 
ATOM     18  C   UNL A   1      30.651  24.452  26.082  1.00  0.00     0.013 C 
ENDBRANCH   6  15
ENDBRANCH   4   6
ENDBRANCH   3   4
ENDBRANCH   2   3
ENDBRANCH   1   2
BRANCH   1  19
ATOM     19  O   UNL A   1      32.532  29.830  26.137  1.00  0.00    -0.458 OA
BRANCH  19  20
ATOM     20  C   UNL A   1      32.917  30.944  26.804  1.00  0.00     0.338 C 
ATOM     21  O   UNL A   1      32.289  31.984  26.907  1.00  0.00    -0.246 OA
BRANCH  20  22
ATOM     22  C   UNL A   1      34.252  30.714  27.411  1.00  0.00     0.060 A 
ATOM     23  C   UNL A   1      34.732  29.423  27.626  1.00  0.00     0.016 A 
ATOM     24  C   UNL A   1      35.008  31.799  27.852  1.00  0.00     0.016 A 
ATOM     25  C   UNL A   1      35.895  29.215  28.369  1.00  0.00     0.010 A 
ATOM     26  C   UNL A   1      36.237  31.587  28.496  1.00  0.00     0.010 A 
ATOM     27  C   UNL A   1      36.683  30.288  28.803  1.00  0.00    -0.014 A 
BRANCH  27  28
ATOM     28  C   UNL A   1      37.927  30.056  29.604  1.00  0.00     0.031 A 
ATOM     29  C   UNL A   1      39.072  29.257  29.028  1.00  0.00     0.074 A 
ATOM     30  C   UNL A   1      38.072  30.566  30.847  1.00  0.00     0.049 A 
ATOM     31  N   UNL A   1      40.094  28.708  29.641  1.00  0.00    -0.248 NA
ATOM     32  C   UNL A   1      39.055  29.022  27.576  1.00  0.00     0.031 C 
ATOM     33  C   UNL A   1      37.098  31.406  31.545  1.00  0.00     0.029 A 
ATOM     34  N   UNL A   1      39.111  30.460  31.744  1.00  0.00    -0.354 N 
ATOM     35  C   UNL A   1      40.782  27.991  28.669  1.00  0.00     0.074 A 
ATOM     36  C   UNL A   1      40.075  28.191  27.421  1.00  0.00     0.031 C 
ATOM     37  C   UNL A   1      37.609  31.795  32.721  1.00  0.00     0.029 A 
ATOM     38  C   UNL A   1      38.891  31.131  32.923  1.00  0.00     0.049 A 
ATOM     39  H   UNL A   1      39.933  29.952  31.559  1.00  0.00     0.167 HD
ATOM     40  C   UNL A   1      41.895  27.230  28.810  1.00  0.00     0.037 A 
ATOM     41  C   UNL A   1      39.601  31.169  34.068  1.00  0.00     0.037 A 
ATOM     42  C   UNL A   1      42.657  27.111  30.029  1.00  0.00     0.049 A 
ATOM     43  C   UNL A   1      40.847  30.342  34.194  1.00  0.00     0.074 A 
ATOM     44  C   UNL A   1      43.789  26.350  30.273  1.00  0.00     0.029 A 
ATOM     45  N   UNL A   1      42.389  27.806  31.198  1.00  0.00    -0.354 N 
ATOM     46  N   UNL A   1      41.405  29.547  33.315  1.00  0.00    -0.248 NA
ATOM     47  C   UNL A   1      41.546  30.394  35.486  1.00  0.00     0.031 C 
ATOM     48  C   UNL A   1      44.199  26.575  31.592  1.00  0.00     0.029 A 
ATOM     49  C   UNL A   1      43.343  27.503  32.159  1.00  0.00     0.049 A 
ATOM     50  H   UNL A   1      41.634  28.423  31.328  1.00  0.00     0.167 HD
ATOM     51  C   UNL A   1      42.512  29.000  33.946  1.00  0.00     0.074 A 
ATOM     52  C   UNL A   1      42.570  29.581  35.271  1.00  0.00     0.031 C 
ATOM     53  C   UNL A   1      43.391  28.083  33.475  1.00  0.00     0.037 A 
BRANCH  40  54
ATOM     54  C   UNL A   1      42.350  26.428  27.625  1.00  0.00     0.064 A 
ATOM     55  C   UNL A   1      43.354  26.880  26.759  1.00  0.00     0.173 A 
ATOM     56  C   UNL A   1      41.813  25.151  27.397  1.00  0.00     0.173 A 
ATOM     57  F   UNL A   1      43.893  28.096  26.926  1.00  0.00    -0.203 F 
ATOM     58  C   UNL A   1      43.791  26.090  25.696  1.00  0.00     0.198 A 
ATOM     59  C   UNL A   1      42.271  24.353  26.353  1.00  0.00     0.198 A 
ATOM     60  F   UNL A   1      40.857  24.665  28.204  1.00  0.00    -0.203 F 
ATOM     61  F   UNL A   1      44.727  26.556  24.858  1.00  0.00    -0.200 F 
ATOM     62  C   UNL A   1      43.256  24.826  25.499  1.00  0.00     0.200 A 
ATOM     63  F   UNL A   1      41.765  23.124  26.176  1.00  0.00    -0.200 F 
ATOM     64  F   UNL A   1      43.690  24.061  24.487  1.00  0.00    -0.200 F 
ENDBRANCH  40  54
BRANCH  41  65
ATOM     65  C   UNL A   1      39.105  31.976  35.213  1.00  0.00     0.064 A 
ATOM     66  C   UNL A   1      38.373  31.384  36.251  1.00  0.00     0.173 A 
ATOM     67  C   UNL A   1      39.366  33.352  35.300  1.00  0.00     0.173 A 
ATOM     68  F   UNL A   1      38.068  30.078  36.196  1.00  0.00    -0.203 F 
ATOM     69  C   UNL A   1      37.920  32.138  37.332  1.00  0.00     0.198 A 
ATOM     70  C   UNL A   1      38.944  34.098  36.399  1.00  0.00     0.198 A 
ATOM     71  F   UNL A   1      40.058  33.968  34.331  1.00  0.00    -0.203 F 
ATOM     72  F   UNL A   1      37.188  31.557  38.291  1.00  0.00    -0.200 F 
ATOM     73  C   UNL A   1      38.217  33.491  37.410  1.00  0.00     0.200 A 
ATOM     74  F   UNL A   1      39.248  35.399  36.478  1.00  0.00    -0.200 F 
ATOM     75  F   UNL A   1      37.796  34.211  38.459  1.00  0.00    -0.200 F 
ENDBRANCH  41  65
BRANCH  53  76
ATOM     76  C   UNL A   1      44.502  27.674  34.395  1.00  0.00     0.064 A 
ATOM     77  C   UNL A   1      45.721  28.367  34.424  1.00  0.00     0.173 A 
ATOM     78  C   UNL A   1      44.349  26.574  35.252  1.00  0.00     0.173 A 
ATOM     79  F   UNL A   1      45.921  29.415  33.611  1.00  0.00    -0.203 F 
ATOM     80  C   UNL A   1      46.760  27.951  35.253  1.00  0.00     0.198 A 
ATOM     81  C   UNL A   1      45.381  26.176  36.096  1.00  0.00     0.198 A 
ATOM     82  F   UNL A   1      43.200  25.881  35.263  1.00  0.00    -0.203 F 
ATOM     83  F   UNL A   1      47.936  28.593  35.224  1.00  0.00    -0.200 F 
ATOM     84  C   UNL A   1      46.589  26.858  36.089  1.00  0.00     0.200 A 
ATOM     85  F   UNL A   1      45.213  25.122  36.907  1.00  0.00    -0.200 F 
ATOM     86  F   UNL A   1      47.594  26.452  36.878  1.00  0.00    -0.200 F 
ENDBRANCH  53  76
ENDBRANCH  27  28
ENDBRANCH  20  22
ENDBRANCH  19  20
ENDBRANCH   1  19
TORSDOF 13
ENDMDL
