MODEL 1
REMARK VINA RESULT:     -11.9      0.000      0.000
REMARK SMILES COc1cc(/C=C/C(=O)OCCOC(=O)c2ccc(-c3c4nc(c(-c5c(F)c(F)c(F)c(F)c5F)c5ccc([nH]5)c(-c5c(F)c(F)c(F)c(F)c5F)c5nc(c(-c6c(F)c(F)c(F)c(F)c6F)c6ccc3[nH]6)C=C5)C=C4)cc2)cc(S(=O)(=O)Nc2ccc3c(c2)OCCO3)c1OC
REMARK SMILES IDX 11 1 10 2 8 3 9 4 7 5 6 6 5 7 3 8 4 9 95 10 80 11 79 12 2 13
REMARK SMILES IDX 1 14 96 15 97 16 81 17 82 18 83 19 84 20 85 22 86 23 90 24
REMARK SMILES IDX 87 25 89 26 88 27 91 28 94 29 92 30 93 31 12 32 13 33 14 34
REMARK SMILES IDX 15 35 16 36 17 37 78 38 18 39 77 40 19 41 20 42 21 43 71 44
REMARK SMILES IDX 22 45 76 46 70 47 72 48 23 49 75 50 69 51 68 52 24 54 56 55
REMARK SMILES IDX 36 56 55 57 37 58 40 59 54 60 73 61 38 62 39 63 53 65 74 66
REMARK SMILES IDX 41 67 25 68 26 69 34 70 27 71 28 72 32 73 35 74 29 75 30 76
REMARK SMILES IDX 33 77 31 78 57 79 58 80 66 81 59 82 60 83 64 84 67 85 61 86
REMARK SMILES IDX 62 87 65 88 63 89 42 90 43 91 51 92 44 93 45 94 49 95 52 96
REMARK SMILES IDX 46 97 47 98 50 99 48 100
REMARK H PARENT 84 21 72 53 40 64
REMARK Flexibility Score: inf
ROOT
ATOM      1  C   UNL A   1      39.226  21.646  26.153  1.00  0.00     0.275 C 
ENDROOT
BRANCH   1   2
ATOM      2  O   UNL A   1      37.998  22.167  25.601  1.00  0.00    -0.459 OA
BRANCH   2   3
ATOM      3  C   UNL A   1      37.775  23.480  25.833  1.00  0.00     0.330 C 
ATOM      4  O   UNL A   1      38.614  24.370  25.788  1.00  0.00    -0.247 OA
BRANCH   3   5
ATOM      5  C   UNL A   1      36.361  23.808  26.112  1.00  0.00     0.094 C 
ATOM      6  C   UNL A   1      35.489  24.478  25.337  1.00  0.00     0.016 C 
BRANCH   6   7
ATOM      7  C   UNL A   1      34.091  24.748  25.751  1.00  0.00    -0.020 A 
ATOM      8  C   UNL A   1      31.710  24.160  25.786  1.00  0.00     0.162 A 
ATOM      9  C   UNL A   1      33.061  23.809  25.594  1.00  0.00     0.058 A 
ATOM     10  C   UNL A   1      31.351  25.461  26.189  1.00  0.00     0.181 A 
ATOM     11  C   UNL A   1      32.392  26.356  26.493  1.00  0.00     0.134 A 
ATOM     12  C   UNL A   1      33.745  26.001  26.268  1.00  0.00     0.034 A 
BRANCH   8  13
ATOM     13  O   UNL A   1      30.795  23.256  25.303  1.00  0.00    -0.493 OA
ATOM     14  C   UNL A   1      30.123  22.513  26.318  1.00  0.00     0.278 C 
ENDBRANCH   8  13
BRANCH  10  15
ATOM     15  O   UNL A   1      30.089  25.982  26.216  1.00  0.00    -0.492 OA
ATOM     16  C   UNL A   1      29.334  26.086  25.018  1.00  0.00     0.278 C 
ENDBRANCH  10  15
BRANCH  11  17
ATOM     17  S   UNL A   1      32.110  28.040  27.048  1.00  0.00     0.265 S 
ATOM     18  O   UNL A   1      31.030  27.973  28.019  1.00  0.00    -0.201 OA
ATOM     19  O   UNL A   1      33.400  28.568  27.434  1.00  0.00    -0.201 OA
BRANCH  17  20
ATOM     20  N   UNL A   1      31.561  29.017  25.769  1.00  0.00    -0.279 N 
ATOM     21  H   UNL A   1      30.901  29.726  25.945  1.00  0.00     0.180 HD
BRANCH  20  22
ATOM     22  C   UNL A   1      32.049  28.818  24.448  1.00  0.00     0.053 A 
ATOM     23  C   UNL A   1      33.411  29.050  24.211  1.00  0.00     0.031 A 
ATOM     24  C   UNL A   1      31.248  28.273  23.452  1.00  0.00     0.077 A 
ATOM     25  C   UNL A   1      34.029  28.462  23.110  1.00  0.00     0.052 A 
ATOM     26  C   UNL A   1      31.868  27.623  22.399  1.00  0.00     0.163 A 
ATOM     27  C   UNL A   1      33.263  27.648  22.287  1.00  0.00     0.161 A 
ATOM     28  O   UNL A   1      31.063  26.838  21.618  1.00  0.00    -0.486 OA
ATOM     29  O   UNL A   1      33.922  26.746  21.487  1.00  0.00    -0.486 OA
ATOM     30  C   UNL A   1      31.772  25.799  20.929  1.00  0.00     0.271 C 
ATOM     31  C   UNL A   1      33.148  25.537  21.516  1.00  0.00     0.271 C 
ENDBRANCH  20  22
ENDBRANCH  17  20
ENDBRANCH  11  17
ENDBRANCH   6   7
ENDBRANCH   3   5
ENDBRANCH   2   3
ENDBRANCH   1   2
BRANCH   1  32
ATOM     32  C   UNL A   1      39.522  20.232  25.640  1.00  0.00     0.275 C 
BRANCH  32  33
ATOM     33  O   UNL A   1      40.429  19.515  26.501  1.00  0.00    -0.458 OA
BRANCH  33  34
ATOM     34  C   UNL A   1      41.718  19.515  26.098  1.00  0.00     0.338 C 
ATOM     35  O   UNL A   1      42.290  18.656  25.441  1.00  0.00    -0.246 OA
BRANCH  34  36
ATOM     36  C   UNL A   1      42.378  20.776  26.473  1.00  0.00     0.060 A 
ATOM     37  C   UNL A   1      42.367  21.147  27.821  1.00  0.00     0.016 A 
ATOM     38  C   UNL A   1      42.896  21.640  25.505  1.00  0.00     0.016 A 
ATOM     39  C   UNL A   1      42.847  22.397  28.205  1.00  0.00     0.010 A 
ATOM     40  C   UNL A   1      43.382  22.894  25.893  1.00  0.00     0.010 A 
ATOM     41  C   UNL A   1      43.338  23.290  27.243  1.00  0.00    -0.014 A 
BRANCH  41  42
ATOM     42  C   UNL A   1      43.732  24.666  27.644  1.00  0.00     0.031 A 
ATOM     43  C   UNL A   1      42.672  25.680  27.976  1.00  0.00     0.074 A 
ATOM     44  C   UNL A   1      45.034  24.995  27.746  1.00  0.00     0.049 A 
ATOM     45  N   UNL A   1      42.802  26.942  28.301  1.00  0.00    -0.248 NA
ATOM     46  C   UNL A   1      41.278  25.210  27.944  1.00  0.00     0.031 C 
ATOM     47  C   UNL A   1      46.154  24.090  27.493  1.00  0.00     0.029 A 
ATOM     48  N   UNL A   1      45.631  26.183  28.089  1.00  0.00    -0.354 N 
ATOM     49  C   UNL A   1      41.512  27.417  28.503  1.00  0.00     0.074 A 
ATOM     50  C   UNL A   1      40.610  26.317  28.235  1.00  0.00     0.031 C 
ATOM     51  C   UNL A   1      47.305  24.755  27.692  1.00  0.00     0.029 A 
ATOM     52  C   UNL A   1      47.004  26.141  28.041  1.00  0.00     0.049 A 
ATOM     53  H   UNL A   1      45.125  26.987  28.346  1.00  0.00     0.167 HD
ATOM     54  C   UNL A   1      41.117  28.654  28.890  1.00  0.00     0.037 A 
ATOM     55  C   UNL A   1      47.911  27.118  28.231  1.00  0.00     0.037 A 
ATOM     56  C   UNL A   1      42.015  29.749  29.157  1.00  0.00     0.049 A 
ATOM     57  C   UNL A   1      47.437  28.506  28.580  1.00  0.00     0.074 A 
ATOM     58  C   UNL A   1      41.710  31.044  29.538  1.00  0.00     0.029 A 
ATOM     59  N   UNL A   1      43.397  29.675  29.069  1.00  0.00    -0.354 N 
ATOM     60  N   UNL A   1      46.217  28.943  28.774  1.00  0.00    -0.248 NA
ATOM     61  C   UNL A   1      48.472  29.539  28.737  1.00  0.00     0.031 C 
ATOM     62  C   UNL A   1      42.903  31.764  29.643  1.00  0.00     0.029 A 
ATOM     63  C   UNL A   1      43.957  30.904  29.380  1.00  0.00     0.049 A 
ATOM     64  H   UNL A   1      43.906  28.870  28.822  1.00  0.00     0.167 HD
ATOM     65  C   UNL A   1      46.340  30.283  29.119  1.00  0.00     0.074 A 
ATOM     66  C   UNL A   1      47.756  30.586  29.118  1.00  0.00     0.031 C 
ATOM     67  C   UNL A   1      45.369  31.183  29.408  1.00  0.00     0.037 A 
BRANCH  54  68
ATOM     68  C   UNL A   1      39.643  28.902  29.043  1.00  0.00     0.064 A 
ATOM     69  C   UNL A   1      39.005  28.781  30.285  1.00  0.00     0.173 A 
ATOM     70  C   UNL A   1      38.873  29.323  27.947  1.00  0.00     0.173 A 
ATOM     71  F   UNL A   1      39.693  28.370  31.361  1.00  0.00    -0.203 F 
ATOM     72  C   UNL A   1      37.646  29.058  30.423  1.00  0.00     0.198 A 
ATOM     73  C   UNL A   1      37.523  29.626  28.094  1.00  0.00     0.198 A 
ATOM     74  F   UNL A   1      39.437  29.462  26.737  1.00  0.00    -0.203 F 
ATOM     75  F   UNL A   1      37.050  28.900  31.613  1.00  0.00    -0.200 F 
ATOM     76  C   UNL A   1      36.909  29.488  29.330  1.00  0.00     0.200 A 
ATOM     77  F   UNL A   1      36.815  30.056  27.040  1.00  0.00    -0.200 F 
ATOM     78  F   UNL A   1      35.605  29.767  29.467  1.00  0.00    -0.200 F 
ENDBRANCH  54  68
BRANCH  55  79
ATOM     79  C   UNL A   1      49.365  26.837  28.082  1.00  0.00     0.064 A 
ATOM     80  C   UNL A   1      49.974  26.827  26.818  1.00  0.00     0.173 A 
ATOM     81  C   UNL A   1      50.162  26.516  29.191  1.00  0.00     0.173 A 
ATOM     82  F   UNL A   1      49.250  27.102  25.724  1.00  0.00    -0.203 F 
ATOM     83  C   UNL A   1      51.313  26.472  26.667  1.00  0.00     0.198 A 
ATOM     84  C   UNL A   1      51.509  26.195  29.041  1.00  0.00     0.198 A 
ATOM     85  F   UNL A   1      49.630  26.508  30.422  1.00  0.00    -0.203 F 
ATOM     86  F   UNL A   1      51.850  26.402  25.442  1.00  0.00    -0.200 F 
ATOM     87  C   UNL A   1      52.081  26.159  27.779  1.00  0.00     0.200 A 
ATOM     88  F   UNL A   1      52.250  25.906  30.120  1.00  0.00    -0.200 F 
ATOM     89  F   UNL A   1      53.366  25.809  27.632  1.00  0.00    -0.200 F 
ENDBRANCH  55  79
BRANCH  67  90
ATOM     90  C   UNL A   1      45.804  32.561  29.821  1.00  0.00     0.064 A 
ATOM     91  C   UNL A   1      45.960  33.600  28.893  1.00  0.00     0.173 A 
ATOM     92  C   UNL A   1      46.036  32.850  31.176  1.00  0.00     0.173 A 
ATOM     93  F   UNL A   1      45.764  33.373  27.586  1.00  0.00    -0.203 F 
ATOM     94  C   UNL A   1      46.364  34.870  29.301  1.00  0.00     0.198 A 
ATOM     95  C   UNL A   1      46.407  34.128  31.584  1.00  0.00     0.198 A 
ATOM     96  F   UNL A   1      45.892  31.894  32.105  1.00  0.00    -0.203 F 
ATOM     97  F   UNL A   1      46.561  35.833  28.390  1.00  0.00    -0.200 F 
ATOM     98  C   UNL A   1      46.579  35.134  30.645  1.00  0.00     0.200 A 
ATOM     99  F   UNL A   1      46.600  34.385  32.884  1.00  0.00    -0.200 F 
ATOM    100  F   UNL A   1      46.963  36.358  31.036  1.00  0.00    -0.200 F 
ENDBRANCH  67  90
ENDBRANCH  41  42
ENDBRANCH  34  36
ENDBRANCH  33  34
ENDBRANCH  32  33
ENDBRANCH   1  32
TORSDOF 17
ENDMDL
MODEL 2
REMARK VINA RESULT:     -11.7      2.276      7.686
REMARK SMILES COc1cc(/C=C/C(=O)OCCOC(=O)c2ccc(-c3c4nc(c(-c5c(F)c(F)c(F)c(F)c5F)c5ccc([nH]5)c(-c5c(F)c(F)c(F)c(F)c5F)c5nc(c(-c6c(F)c(F)c(F)c(F)c6F)c6ccc3[nH]6)C=C5)C=C4)cc2)cc(S(=O)(=O)Nc2ccc3c(c2)OCCO3)c1OC
REMARK SMILES IDX 11 1 10 2 8 3 9 4 7 5 6 6 5 7 3 8 4 9 95 10 80 11 79 12 2 13
REMARK SMILES IDX 1 14 96 15 97 16 81 17 82 18 83 19 84 20 85 22 86 23 90 24
REMARK SMILES IDX 87 25 89 26 88 27 91 28 94 29 92 30 93 31 12 32 13 33 14 34
REMARK SMILES IDX 15 35 16 36 17 37 78 38 18 39 77 40 19 41 20 42 21 43 71 44
REMARK SMILES IDX 22 45 76 46 70 47 72 48 23 49 75 50 69 51 68 52 24 54 56 55
REMARK SMILES IDX 36 56 55 57 37 58 40 59 54 60 73 61 38 62 39 63 53 65 74 66
REMARK SMILES IDX 41 67 25 68 26 69 34 70 27 71 28 72 32 73 35 74 29 75 30 76
REMARK SMILES IDX 33 77 31 78 57 79 58 80 66 81 59 82 60 83 64 84 67 85 61 86
REMARK SMILES IDX 62 87 65 88 63 89 42 90 43 91 51 92 44 93 45 94 49 95 52 96
REMARK SMILES IDX 46 97 47 98 50 99 48 100
REMARK H PARENT 84 21 72 53 40 64
REMARK Flexibility Score: inf
ROOT
ATOM      1  C   UNL A   1      41.658  19.901  26.373  1.00  0.00     0.275 C 
ENDROOT
BRANCH   1   2
ATOM      2  O   UNL A   1      40.254  19.951  26.042  1.00  0.00    -0.459 OA
BRANCH   2   3
ATOM      3  C   UNL A   1      39.705  21.186  26.050  1.00  0.00     0.330 C 
ATOM      4  O   UNL A   1      40.304  22.238  26.235  1.00  0.00    -0.247 OA
BRANCH   3   5
ATOM      5  C   UNL A   1      38.256  21.202  25.755  1.00  0.00     0.094 C 
ATOM      6  C   UNL A   1      37.602  21.903  24.812  1.00  0.00     0.016 C 
BRANCH   6   7
ATOM      7  C   UNL A   1      36.131  21.829  24.634  1.00  0.00    -0.020 A 
ATOM      8  C   UNL A   1      34.012  20.603  24.765  1.00  0.00     0.162 A 
ATOM      9  C   UNL A   1      35.361  20.768  25.131  1.00  0.00     0.058 A 
ATOM     10  C   UNL A   1      33.375  21.530  23.916  1.00  0.00     0.181 A 
ATOM     11  C   UNL A   1      34.102  22.673  23.542  1.00  0.00     0.134 A 
ATOM     12  C   UNL A   1      35.468  22.813  23.893  1.00  0.00     0.034 A 
BRANCH   8  13
ATOM     13  O   UNL A   1      33.470  19.375  25.059  1.00  0.00    -0.493 OA
ATOM     14  C   UNL A   1      34.023  18.302  24.301  1.00  0.00     0.278 C 
ENDBRANCH   8  13
BRANCH  10  15
ATOM     15  O   UNL A   1      32.149  21.384  23.330  1.00  0.00    -0.492 OA
ATOM     16  C   UNL A   1      32.003  20.568  22.177  1.00  0.00     0.278 C 
ENDBRANCH  10  15
BRANCH  11  17
ATOM     17  S   UNL A   1      33.431  23.966  22.492  1.00  0.00     0.265 S 
ATOM     18  O   UNL A   1      33.999  25.215  22.972  1.00  0.00    -0.201 OA
ATOM     19  O   UNL A   1      33.655  23.545  21.126  1.00  0.00    -0.201 OA
BRANCH  17  20
ATOM     20  N   UNL A   1      31.746  24.087  22.680  1.00  0.00    -0.279 N 
ATOM     21  H   UNL A   1      31.150  23.629  22.045  1.00  0.00     0.180 HD
BRANCH  20  22
ATOM     22  C   UNL A   1      31.191  24.844  23.750  1.00  0.00     0.053 A 
ATOM     23  C   UNL A   1      31.020  24.203  24.985  1.00  0.00     0.031 A 
ATOM     24  C   UNL A   1      30.961  26.208  23.631  1.00  0.00     0.077 A 
ATOM     25  C   UNL A   1      30.922  24.963  26.148  1.00  0.00     0.052 A 
ATOM     26  C   UNL A   1      30.941  26.969  24.787  1.00  0.00     0.163 A 
ATOM     27  C   UNL A   1      31.011  26.344  26.037  1.00  0.00     0.161 A 
ATOM     28  O   UNL A   1      31.028  28.325  24.617  1.00  0.00    -0.486 OA
ATOM     29  O   UNL A   1      31.346  27.055  27.163  1.00  0.00    -0.486 OA
ATOM     30  C   UNL A   1      31.542  29.014  25.765  1.00  0.00     0.271 C 
ATOM     31  C   UNL A   1      32.250  28.087  26.738  1.00  0.00     0.271 C 
ENDBRANCH  20  22
ENDBRANCH  17  20
ENDBRANCH  11  17
ENDBRANCH   6   7
ENDBRANCH   3   5
ENDBRANCH   2   3
ENDBRANCH   1   2
BRANCH   1  32
ATOM     32  C   UNL A   1      42.385  18.801  25.592  1.00  0.00     0.275 C 
BRANCH  32  33
ATOM     33  O   UNL A   1      43.819  18.938  25.658  1.00  0.00    -0.458 OA
BRANCH  33  34
ATOM     34  C   UNL A   1      44.388  19.502  24.570  1.00  0.00     0.338 C 
ATOM     35  O   UNL A   1      44.523  19.005  23.460  1.00  0.00    -0.246 OA
BRANCH  34  36
ATOM     36  C   UNL A   1      44.765  20.897  24.848  1.00  0.00     0.060 A 
ATOM     37  C   UNL A   1      45.250  21.203  26.124  1.00  0.00     0.016 A 
ATOM     38  C   UNL A   1      44.536  21.911  23.916  1.00  0.00     0.016 A 
ATOM     39  C   UNL A   1      45.482  22.530  26.483  1.00  0.00     0.010 A 
ATOM     40  C   UNL A   1      44.774  23.243  24.277  1.00  0.00     0.010 A 
ATOM     41  C   UNL A   1      45.225  23.563  25.571  1.00  0.00    -0.014 A 
BRANCH  41  42
ATOM     42  C   UNL A   1      45.356  24.979  26.002  1.00  0.00     0.031 A 
ATOM     43  C   UNL A   1      46.688  25.670  25.905  1.00  0.00     0.074 A 
ATOM     44  C   UNL A   1      44.278  25.655  26.443  1.00  0.00     0.049 A 
ATOM     45  N   UNL A   1      47.025  26.881  26.271  1.00  0.00    -0.248 NA
ATOM     46  C   UNL A   1      47.790  24.895  25.313  1.00  0.00     0.031 C 
ATOM     47  C   UNL A   1      42.924  25.110  26.542  1.00  0.00     0.029 A 
ATOM     48  N   UNL A   1      44.154  26.947  26.891  1.00  0.00    -0.354 N 
ATOM     49  C   UNL A   1      48.373  27.012  25.961  1.00  0.00     0.074 A 
ATOM     50  C   UNL A   1      48.802  25.746  25.406  1.00  0.00     0.031 C 
ATOM     51  C   UNL A   1      42.105  26.063  27.020  1.00  0.00     0.029 A 
ATOM     52  C   UNL A   1      42.882  27.266  27.301  1.00  0.00     0.049 A 
ATOM     53  H   UNL A   1      44.905  27.583  26.914  1.00  0.00     0.167 HD
ATOM     54  C   UNL A   1      49.175  28.092  26.113  1.00  0.00     0.037 A 
ATOM     55  C   UNL A   1      42.408  28.394  27.864  1.00  0.00     0.037 A 
ATOM     56  C   UNL A   1      48.748  29.352  26.667  1.00  0.00     0.049 A 
ATOM     57  C   UNL A   1      43.344  29.552  28.098  1.00  0.00     0.074 A 
ATOM     58  C   UNL A   1      49.490  30.501  26.877  1.00  0.00     0.029 A 
ATOM     59  N   UNL A   1      47.458  29.628  27.097  1.00  0.00    -0.354 N 
ATOM     60  N   UNL A   1      44.615  29.667  27.796  1.00  0.00    -0.248 NA
ATOM     61  C   UNL A   1      42.777  30.741  28.751  1.00  0.00     0.031 C 
ATOM     62  C   UNL A   1      48.662  31.458  27.471  1.00  0.00     0.029 A 
ATOM     63  C   UNL A   1      47.388  30.925  27.580  1.00  0.00     0.049 A 
ATOM     64  H   UNL A   1      46.704  28.996  27.065  1.00  0.00     0.167 HD
ATOM     65  C   UNL A   1      44.986  30.949  28.180  1.00  0.00     0.074 A 
ATOM     66  C   UNL A   1      43.802  31.579  28.727  1.00  0.00     0.031 C 
ATOM     67  C   UNL A   1      46.197  31.551  28.090  1.00  0.00     0.037 A 
BRANCH  54  68
ATOM     68  C   UNL A   1      50.610  27.965  25.686  1.00  0.00     0.064 A 
ATOM     69  C   UNL A   1      51.637  27.762  26.619  1.00  0.00     0.173 A 
ATOM     70  C   UNL A   1      50.953  27.986  24.325  1.00  0.00     0.173 A 
ATOM     71  F   UNL A   1      51.362  27.746  27.932  1.00  0.00    -0.203 F 
ATOM     72  C   UNL A   1      52.958  27.600  26.207  1.00  0.00     0.198 A 
ATOM     73  C   UNL A   1      52.270  27.796  23.915  1.00  0.00     0.198 A 
ATOM     74  F   UNL A   1      50.008  28.171  23.391  1.00  0.00    -0.203 F 
ATOM     75  F   UNL A   1      53.927  27.444  27.119  1.00  0.00    -0.200 F 
ATOM     76  C   UNL A   1      53.271  27.608  24.856  1.00  0.00     0.200 A 
ATOM     77  F   UNL A   1      52.569  27.789  22.609  1.00  0.00    -0.200 F 
ATOM     78  F   UNL A   1      54.541  27.438  24.461  1.00  0.00    -0.200 F 
ENDBRANCH  54  68
BRANCH  55  79
ATOM     79  C   UNL A   1      40.978  28.492  28.268  1.00  0.00     0.064 A 
ATOM     80  C   UNL A   1      40.007  28.974  27.379  1.00  0.00     0.173 A 
ATOM     81  C   UNL A   1      40.566  28.162  29.568  1.00  0.00     0.173 A 
ATOM     82  F   UNL A   1      40.356  29.327  26.134  1.00  0.00    -0.203 F 
ATOM     83  C   UNL A   1      38.686  29.155  27.785  1.00  0.00     0.198 A 
ATOM     84  C   UNL A   1      39.237  28.311  29.961  1.00  0.00     0.198 A 
ATOM     85  F   UNL A   1      41.454  27.699  30.459  1.00  0.00    -0.203 F 
ATOM     86  F   UNL A   1      37.794  29.683  26.936  1.00  0.00    -0.200 F 
ATOM     87  C   UNL A   1      38.301  28.820  29.074  1.00  0.00     0.200 A 
ATOM     88  F   UNL A   1      38.868  27.975  31.205  1.00  0.00    -0.200 F 
ATOM     89  F   UNL A   1      37.033  29.004  29.467  1.00  0.00    -0.200 F 
ENDBRANCH  55  79
BRANCH  67  90
ATOM     90  C   UNL A   1      46.289  32.987  28.524  1.00  0.00     0.064 A 
ATOM     91  C   UNL A   1      46.589  33.346  29.846  1.00  0.00     0.173 A 
ATOM     92  C   UNL A   1      46.105  34.019  27.589  1.00  0.00     0.173 A 
ATOM     93  F   UNL A   1      46.760  32.400  30.781  1.00  0.00    -0.203 F 
ATOM     94  C   UNL A   1      46.669  34.685  30.223  1.00  0.00     0.198 A 
ATOM     95  C   UNL A   1      46.219  35.354  27.962  1.00  0.00     0.198 A 
ATOM     96  F   UNL A   1      45.825  33.730  26.310  1.00  0.00    -0.203 F 
ATOM     97  F   UNL A   1      46.902  35.005  31.503  1.00  0.00    -0.200 F 
ATOM     98  C   UNL A   1      46.493  35.687  29.280  1.00  0.00     0.200 A 
ATOM     99  F   UNL A   1      46.064  36.320  27.047  1.00  0.00    -0.200 F 
ATOM    100  F   UNL A   1      46.576  36.974  29.645  1.00  0.00    -0.200 F 
ENDBRANCH  67  90
ENDBRANCH  41  42
ENDBRANCH  34  36
ENDBRANCH  33  34
ENDBRANCH  32  33
ENDBRANCH   1  32
TORSDOF 17
ENDMDL
MODEL 3
REMARK VINA RESULT:     -11.6      5.040      9.501
REMARK SMILES COc1cc(/C=C/C(=O)OCCOC(=O)c2ccc(-c3c4nc(c(-c5c(F)c(F)c(F)c(F)c5F)c5ccc([nH]5)c(-c5c(F)c(F)c(F)c(F)c5F)c5nc(c(-c6c(F)c(F)c(F)c(F)c6F)c6ccc3[nH]6)C=C5)C=C4)cc2)cc(S(=O)(=O)Nc2ccc3c(c2)OCCO3)c1OC
REMARK SMILES IDX 11 1 10 2 8 3 9 4 7 5 6 6 5 7 3 8 4 9 95 10 80 11 79 12 2 13
REMARK SMILES IDX 1 14 96 15 97 16 81 17 82 18 83 19 84 20 85 22 86 23 90 24
REMARK SMILES IDX 87 25 89 26 88 27 91 28 94 29 92 30 93 31 12 32 13 33 14 34
REMARK SMILES IDX 15 35 16 36 17 37 78 38 18 39 77 40 19 41 20 42 21 43 71 44
REMARK SMILES IDX 22 45 76 46 70 47 72 48 23 49 75 50 69 51 68 52 24 54 56 55
REMARK SMILES IDX 36 56 55 57 37 58 40 59 54 60 73 61 38 62 39 63 53 65 74 66
REMARK SMILES IDX 41 67 25 68 26 69 34 70 27 71 28 72 32 73 35 74 29 75 30 76
REMARK SMILES IDX 33 77 31 78 57 79 58 80 66 81 59 82 60 83 64 84 67 85 61 86
REMARK SMILES IDX 62 87 65 88 63 89 42 90 43 91 51 92 44 93 45 94 49 95 52 96
REMARK SMILES IDX 46 97 47 98 50 99 48 100
REMARK H PARENT 84 21 72 53 40 64
REMARK Flexibility Score: inf
ROOT
ATOM      1  C   UNL A   1      33.665  31.815  27.263  1.00  0.00     0.275 C 
ENDROOT
BRANCH   1   2
ATOM      2  O   UNL A   1      33.134  30.489  27.056  1.00  0.00    -0.459 OA
BRANCH   2   3
ATOM      3  C   UNL A   1      34.022  29.482  27.217  1.00  0.00     0.330 C 
ATOM      4  O   UNL A   1      34.763  29.325  28.179  1.00  0.00    -0.247 OA
BRANCH   3   5
ATOM      5  C   UNL A   1      34.012  28.491  26.119  1.00  0.00     0.094 C 
ATOM      6  C   UNL A   1      33.803  27.165  26.192  1.00  0.00     0.016 C 
BRANCH   6   7
ATOM      7  C   UNL A   1      33.833  26.282  25.001  1.00  0.00    -0.020 A 
ATOM      8  C   UNL A   1      32.754  25.294  23.033  1.00  0.00     0.162 A 
ATOM      9  C   UNL A   1      32.819  26.284  24.031  1.00  0.00     0.058 A 
ATOM     10  C   UNL A   1      33.735  24.286  22.948  1.00  0.00     0.181 A 
ATOM     11  C   UNL A   1      34.831  24.373  23.824  1.00  0.00     0.134 A 
ATOM     12  C   UNL A   1      34.871  25.358  24.843  1.00  0.00     0.034 A 
BRANCH   8  13
ATOM     13  O   UNL A   1      31.561  25.224  22.353  1.00  0.00    -0.493 OA
ATOM     14  C   UNL A   1      30.422  25.078  23.197  1.00  0.00     0.278 C 
ENDBRANCH   8  13
BRANCH  10  15
ATOM     15  O   UNL A   1      33.682  23.166  22.167  1.00  0.00    -0.492 OA
ATOM     16  C   UNL A   1      32.629  22.229  22.335  1.00  0.00     0.278 C 
ENDBRANCH  10  15
BRANCH  11  17
ATOM     17  S   UNL A   1      36.182  23.192  23.829  1.00  0.00     0.265 S 
ATOM     18  O   UNL A   1      36.487  22.917  22.434  1.00  0.00    -0.201 OA
ATOM     19  O   UNL A   1      37.201  23.734  24.701  1.00  0.00    -0.201 OA
BRANCH  17  20
ATOM     20  N   UNL A   1      35.698  21.718  24.526  1.00  0.00    -0.279 N 
ATOM     21  H   UNL A   1      36.115  20.878  24.228  1.00  0.00     0.180 HD
BRANCH  20  22
ATOM     22  C   UNL A   1      34.695  21.692  25.535  1.00  0.00     0.053 A 
ATOM     23  C   UNL A   1      35.006  22.255  26.780  1.00  0.00     0.031 A 
ATOM     24  C   UNL A   1      33.404  21.259  25.265  1.00  0.00     0.077 A 
ATOM     25  C   UNL A   1      33.979  22.664  27.628  1.00  0.00     0.052 A 
ATOM     26  C   UNL A   1      32.377  21.732  26.064  1.00  0.00     0.163 A 
ATOM     27  C   UNL A   1      32.670  22.507  27.192  1.00  0.00     0.161 A 
ATOM     28  O   UNL A   1      31.107  21.545  25.587  1.00  0.00    -0.486 OA
ATOM     29  O   UNL A   1      31.701  23.272  27.792  1.00  0.00    -0.486 OA
ATOM     30  C   UNL A   1      30.155  22.478  26.116  1.00  0.00     0.271 C 
ATOM     31  C   UNL A   1      30.811  23.694  26.747  1.00  0.00     0.271 C 
ENDBRANCH  20  22
ENDBRANCH  17  20
ENDBRANCH  11  17
ENDBRANCH   6   7
ENDBRANCH   3   5
ENDBRANCH   2   3
ENDBRANCH   1   2
BRANCH   1  32
ATOM     32  C   UNL A   1      32.578  32.796  27.715  1.00  0.00     0.275 C 
BRANCH  32  33
ATOM     33  O   UNL A   1      32.968  34.171  27.528  1.00  0.00    -0.458 OA
BRANCH  33  34
ATOM     34  C   UNL A   1      33.126  34.878  28.669  1.00  0.00     0.338 C 
ATOM     35  O   UNL A   1      32.408  35.774  29.092  1.00  0.00    -0.246 OA
BRANCH  34  36
ATOM     36  C   UNL A   1      34.267  34.364  29.443  1.00  0.00     0.060 A 
ATOM     37  C   UNL A   1      35.544  34.484  28.886  1.00  0.00     0.016 A 
ATOM     38  C   UNL A   1      34.079  33.669  30.639  1.00  0.00     0.016 A 
ATOM     39  C   UNL A   1      36.637  33.884  29.509  1.00  0.00     0.010 A 
ATOM     40  C   UNL A   1      35.178  33.071  31.267  1.00  0.00     0.010 A 
ATOM     41  C   UNL A   1      36.460  33.154  30.693  1.00  0.00    -0.014 A 
BRANCH  41  42
ATOM     42  C   UNL A   1      37.606  32.414  31.283  1.00  0.00     0.031 A 
ATOM     43  C   UNL A   1      38.113  32.788  32.649  1.00  0.00     0.074 A 
ATOM     44  C   UNL A   1      38.166  31.388  30.615  1.00  0.00     0.049 A 
ATOM     45  N   UNL A   1      39.127  32.302  33.321  1.00  0.00    -0.248 NA
ATOM     46  C   UNL A   1      37.378  33.848  33.357  1.00  0.00     0.031 C 
ATOM     47  C   UNL A   1      37.738  30.901  29.304  1.00  0.00     0.029 A 
ATOM     48  N   UNL A   1      39.218  30.571  30.949  1.00  0.00    -0.354 N 
ATOM     49  C   UNL A   1      39.156  32.999  34.522  1.00  0.00     0.074 A 
ATOM     50  C   UNL A   1      38.078  33.964  34.476  1.00  0.00     0.031 C 
ATOM     51  C   UNL A   1      38.519  29.869  28.945  1.00  0.00     0.029 A 
ATOM     52  C   UNL A   1      39.529  29.650  29.977  1.00  0.00     0.049 A 
ATOM     53  H   UNL A   1      39.703  30.639  31.803  1.00  0.00     0.167 HD
ATOM     54  C   UNL A   1      39.996  32.839  35.573  1.00  0.00     0.037 A 
ATOM     55  C   UNL A   1      40.531  28.752  29.918  1.00  0.00     0.037 A 
ATOM     56  C   UNL A   1      41.069  31.879  35.618  1.00  0.00     0.049 A 
ATOM     57  C   UNL A   1      41.502  28.655  31.068  1.00  0.00     0.074 A 
ATOM     58  C   UNL A   1      41.985  31.652  36.631  1.00  0.00     0.029 A 
ATOM     59  N   UNL A   1      41.370  30.983  34.603  1.00  0.00    -0.354 N 
ATOM     60  N   UNL A   1      41.516  29.314  32.201  1.00  0.00    -0.248 NA
ATOM     61  C   UNL A   1      42.596  27.683  30.929  1.00  0.00     0.031 C 
ATOM     62  C   UNL A   1      42.863  30.648  36.213  1.00  0.00     0.029 A 
ATOM     63  C   UNL A   1      42.462  30.209  34.962  1.00  0.00     0.049 A 
ATOM     64  H   UNL A   1      40.880  30.907  33.752  1.00  0.00     0.167 HD
ATOM     65  C   UNL A   1      42.589  28.808  32.924  1.00  0.00     0.074 A 
ATOM     66  C   UNL A   1      43.195  27.778  32.107  1.00  0.00     0.031 C 
ATOM     67  C   UNL A   1      43.034  29.165  34.154  1.00  0.00     0.037 A 
BRANCH  54  68
ATOM     68  C   UNL A   1      39.802  33.730  36.766  1.00  0.00     0.064 A 
ATOM     69  C   UNL A   1      40.408  34.992  36.844  1.00  0.00     0.173 A 
ATOM     70  C   UNL A   1      38.953  33.343  37.815  1.00  0.00     0.173 A 
ATOM     71  F   UNL A   1      41.238  35.404  35.874  1.00  0.00    -0.203 F 
ATOM     72  C   UNL A   1      40.184  35.829  37.936  1.00  0.00     0.198 A 
ATOM     73  C   UNL A   1      38.709  34.193  38.891  1.00  0.00     0.198 A 
ATOM     74  F   UNL A   1      38.343  32.149  37.786  1.00  0.00    -0.203 F 
ATOM     75  F   UNL A   1      40.804  37.015  38.006  1.00  0.00    -0.200 F 
ATOM     76  C   UNL A   1      39.329  35.432  38.953  1.00  0.00     0.200 A 
ATOM     77  F   UNL A   1      37.871  33.815  39.865  1.00  0.00    -0.200 F 
ATOM     78  F   UNL A   1      39.104  36.244  39.996  1.00  0.00    -0.200 F 
ENDBRANCH  54  68
BRANCH  55  79
ATOM     79  C   UNL A   1      40.690  27.877  28.725  1.00  0.00     0.064 A 
ATOM     80  C   UNL A   1      41.493  28.268  27.644  1.00  0.00     0.173 A 
ATOM     81  C   UNL A   1      39.999  26.661  28.617  1.00  0.00     0.173 A 
ATOM     82  F   UNL A   1      42.154  29.433  27.688  1.00  0.00    -0.203 F 
ATOM     83  C   UNL A   1      41.569  27.495  26.487  1.00  0.00     0.198 A 
ATOM     84  C   UNL A   1      40.104  25.873  27.473  1.00  0.00     0.198 A 
ATOM     85  F   UNL A   1      39.215  26.241  29.621  1.00  0.00    -0.203 F 
ATOM     86  F   UNL A   1      42.288  27.927  25.442  1.00  0.00    -0.200 F 
ATOM     87  C   UNL A   1      40.877  26.296  26.403  1.00  0.00     0.200 A 
ATOM     88  F   UNL A   1      39.442  24.709  27.402  1.00  0.00    -0.200 F 
ATOM     89  F   UNL A   1      40.943  25.557  25.287  1.00  0.00    -0.200 F 
ENDBRANCH  55  79
BRANCH  67  90
ATOM     90  C   UNL A   1      44.187  28.388  34.724  1.00  0.00     0.064 A 
ATOM     91  C   UNL A   1      44.002  27.176  35.405  1.00  0.00     0.173 A 
ATOM     92  C   UNL A   1      45.501  28.852  34.557  1.00  0.00     0.173 A 
ATOM     93  F   UNL A   1      42.766  26.695  35.605  1.00  0.00    -0.203 F 
ATOM     94  C   UNL A   1      45.088  26.474  35.925  1.00  0.00     0.198 A 
ATOM     95  C   UNL A   1      46.586  28.132  35.048  1.00  0.00     0.198 A 
ATOM     96  F   UNL A   1      45.734  30.002  33.906  1.00  0.00    -0.203 F 
ATOM     97  F   UNL A   1      44.883  25.347  36.620  1.00  0.00    -0.200 F 
ATOM     98  C   UNL A   1      46.378  26.948  35.740  1.00  0.00     0.200 A 
ATOM     99  F   UNL A   1      47.832  28.584  34.854  1.00  0.00    -0.200 F 
ATOM    100  F   UNL A   1      47.421  26.269  36.236  1.00  0.00    -0.200 F 
ENDBRANCH  67  90
ENDBRANCH  41  42
ENDBRANCH  34  36
ENDBRANCH  33  34
ENDBRANCH  32  33
ENDBRANCH   1  32
TORSDOF 17
ENDMDL
