MODEL 1
REMARK VINA RESULT:     -12.9      0.000      0.000
REMARK SMILES COc1ccc(-n2ccnc2C[N@@H+]2CCn3nc(C(=O)OCCOC(=O)c4ccc(-c5c6nc(c(-c7c(F)c(F)c(F)c(F)c7F)c7ccc([nH]7)c(-c7c(F)c(F)c(F)c(F)c7F)c7nc(c(-c8c(F)c(F)c(F)c(F)c8F)c8ccc5[nH]8)C=C7)C=C6)cc4)cc3C2)cc1
REMARK SMILES IDX 22 1 21 2 19 3 20 4 18 5 13 6 14 7 92 8 15 10 91 11 16 12
REMARK SMILES IDX 90 13 17 14 12 15 11 16 7 17 8 18 9 19 10 20 6 21 3 22 4 23
REMARK SMILES IDX 94 24 5 25 93 26 2 27 1 28 23 29 24 30 25 31 26 32 27 33
REMARK SMILES IDX 28 34 89 35 29 36 88 37 30 38 31 39 32 40 82 41 33 42 87 43
REMARK SMILES IDX 81 44 83 45 34 46 86 47 80 48 79 49 35 51 67 52 47 53 66 54
REMARK SMILES IDX 48 55 51 56 65 57 84 58 49 59 50 60 64 62 85 63 52 64 36 65
REMARK SMILES IDX 37 66 45 67 38 68 39 69 43 70 46 71 40 72 41 73 44 74 42 75
REMARK SMILES IDX 68 76 69 77 77 78 70 79 71 80 75 81 78 82 72 83 73 84 76 85
REMARK SMILES IDX 74 86 53 87 54 88 62 89 55 90 56 91 60 92 63 93 57 94 58 95
REMARK SMILES IDX 61 96 59 97
REMARK H PARENT 13 9 83 50 51 61
REMARK Flexibility Score: inf
ROOT
ATOM      1  C   UNL A   1      39.904  31.073  32.761  1.00  0.00     0.275 C 
ENDROOT
BRANCH   1   2
ATOM      2  O   UNL A   1      40.449  32.333  32.237  1.00  0.00    -0.457 OA
BRANCH   2   3
ATOM      3  C   UNL A   1      39.671  33.605  32.608  1.00  0.00     0.358 C 
ATOM      4  O   UNL A   1      40.571  34.493  32.387  1.00  0.00    -0.244 OA
BRANCH   3   5
ATOM      5  C   UNL A   1      37.759  33.793  33.392  1.00  0.00     0.170 A 
ATOM      6  N   UNL A   1      34.054  33.365  31.867  1.00  0.00    -0.322 N 
ATOM      7  C   UNL A   1      34.384  34.788  31.560  1.00  0.00     0.286 C 
ATOM      8  C   UNL A   1      34.056  33.103  33.322  1.00  0.00     0.319 C 
ATOM      9  H   UNL A   1      33.119  33.293  31.463  1.00  0.00     0.348 HD
ATOM     10  C   UNL A   1      35.008  35.632  32.702  1.00  0.00     0.206 C 
ATOM     11  C   UNL A   1      35.406  33.480  33.777  1.00  0.00     0.094 A 
ATOM     12  N   UNL A   1      35.778  34.751  33.558  1.00  0.00    -0.257 N 
ATOM     13  C   UNL A   1      36.595  32.797  33.906  1.00  0.00     0.067 A 
ATOM     14  N   UNL A   1      37.049  34.976  33.805  1.00  0.00    -0.165 NA
BRANCH   6  15
ATOM     15  C   UNL A   1      34.841  32.294  31.188  1.00  0.00     0.339 C 
BRANCH  15  16
ATOM     16  C   UNL A   1      35.754  32.600  30.040  1.00  0.00     0.168 A 
ATOM     17  N   UNL A   1      35.540  32.321  28.680  1.00  0.00    -0.299 N 
ATOM     18  C   UNL A   1      36.673  32.788  28.042  1.00  0.00     0.113 A 
ATOM     19  C   UNL A   1      37.445  33.411  28.988  1.00  0.00     0.132 A 
ATOM     20  N   UNL A   1      36.875  33.285  30.214  1.00  0.00    -0.236 NA
BRANCH  17  21
ATOM     21  C   UNL A   1      34.660  31.374  28.076  1.00  0.00     0.047 A 
ATOM     22  C   UNL A   1      32.343  29.404  26.026  1.00  0.00     0.119 A 
ATOM     23  C   UNL A   1      33.944  28.684  26.561  1.00  0.00     0.048 A 
ATOM     24  C   UNL A   1      31.861  31.090  26.608  1.00  0.00     0.048 A 
ATOM     25  C   UNL A   1      35.122  29.681  27.577  1.00  0.00     0.030 A 
ATOM     26  C   UNL A   1      33.047  32.037  27.629  1.00  0.00     0.030 A 
BRANCH  22  27
ATOM     27  O   UNL A   1      31.486  28.589  25.338  1.00  0.00    -0.497 OA
ATOM     28  C   UNL A   1      30.863  29.276  24.258  1.00  0.00     0.278 C 
ENDBRANCH  22  27
ENDBRANCH  17  21
ENDBRANCH  15  16
ENDBRANCH   6  15
ENDBRANCH   3   5
ENDBRANCH   2   3
ENDBRANCH   1   2
BRANCH   1  29
ATOM     29  C   UNL A   1      38.867  30.367  31.882  1.00  0.00     0.275 C 
BRANCH  29  30
ATOM     30  O   UNL A   1      39.017  30.703  30.512  1.00  0.00    -0.458 OA
BRANCH  30  31
ATOM     31  C   UNL A   1      38.416  29.828  29.680  1.00  0.00     0.338 C 
ATOM     32  O   UNL A   1      37.384  29.206  29.866  1.00  0.00    -0.246 OA
BRANCH  31  33
ATOM     33  C   UNL A   1      39.273  29.624  28.514  1.00  0.00     0.060 A 
ATOM     34  C   UNL A   1      39.099  28.453  27.776  1.00  0.00     0.016 A 
ATOM     35  C   UNL A   1      40.508  30.226  28.584  1.00  0.00     0.016 A 
ATOM     36  C   UNL A   1      40.140  27.582  27.716  1.00  0.00     0.010 A 
ATOM     37  C   UNL A   1      41.545  29.460  28.173  1.00  0.00     0.010 A 
ATOM     38  C   UNL A   1      41.349  28.086  28.124  1.00  0.00    -0.014 A 
BRANCH  38  39
ATOM     39  C   UNL A   1      42.475  27.207  28.264  1.00  0.00     0.031 A 
ATOM     40  C   UNL A   1      43.026  27.362  29.631  1.00  0.00     0.074 A 
ATOM     41  C   UNL A   1      42.793  26.372  27.250  1.00  0.00     0.049 A 
ATOM     42  N   UNL A   1      44.099  27.997  29.974  1.00  0.00    -0.248 NA
ATOM     43  C   UNL A   1      42.112  27.117  30.769  1.00  0.00     0.031 C 
ATOM     44  C   UNL A   1      42.135  26.148  25.951  1.00  0.00     0.029 A 
ATOM     45  N   UNL A   1      43.763  25.418  27.238  1.00  0.00    -0.354 N 
ATOM     46  C   UNL A   1      44.085  27.973  31.367  1.00  0.00     0.074 A 
ATOM     47  C   UNL A   1      42.724  27.780  31.747  1.00  0.00     0.031 C 
ATOM     48  C   UNL A   1      42.524  24.951  25.442  1.00  0.00     0.029 A 
ATOM     49  C   UNL A   1      43.540  24.393  26.308  1.00  0.00     0.049 A 
ATOM     50  H   UNL A   1      44.551  25.447  27.828  1.00  0.00     0.167 HD
ATOM     51  C   UNL A   1      45.215  27.682  32.067  1.00  0.00     0.037 A 
ATOM     52  C   UNL A   1      44.110  23.162  26.424  1.00  0.00     0.037 A 
ATOM     53  C   UNL A   1      46.368  27.855  31.221  1.00  0.00     0.049 A 
ATOM     54  C   UNL A   1      45.269  23.346  27.363  1.00  0.00     0.074 A 
ATOM     55  C   UNL A   1      46.919  28.947  30.581  1.00  0.00     0.029 A 
ATOM     56  N   UNL A   1      46.819  26.740  30.554  1.00  0.00    -0.354 N 
ATOM     57  N   UNL A   1      46.289  24.118  27.072  1.00  0.00    -0.248 NA
ATOM     58  C   UNL A   1      44.973  23.207  28.791  1.00  0.00     0.031 C 
ATOM     59  C   UNL A   1      47.268  28.467  29.286  1.00  0.00     0.029 A 
ATOM     60  C   UNL A   1      47.053  27.089  29.247  1.00  0.00     0.049 A 
ATOM     61  H   UNL A   1      46.950  25.847  30.946  1.00  0.00     0.167 HD
ATOM     62  C   UNL A   1      46.489  24.886  28.215  1.00  0.00     0.074 A 
ATOM     63  C   UNL A   1      45.650  24.269  29.247  1.00  0.00     0.031 C 
ATOM     64  C   UNL A   1      47.042  26.135  28.161  1.00  0.00     0.037 A 
BRANCH  51  65
ATOM     65  C   UNL A   1      45.258  26.830  33.316  1.00  0.00     0.064 A 
ATOM     66  C   UNL A   1      44.752  25.519  33.234  1.00  0.00     0.173 A 
ATOM     67  C   UNL A   1      45.486  27.304  34.629  1.00  0.00     0.173 A 
ATOM     68  F   UNL A   1      44.513  24.955  32.041  1.00  0.00    -0.203 F 
ATOM     69  C   UNL A   1      44.398  24.790  34.371  1.00  0.00     0.198 A 
ATOM     70  C   UNL A   1      45.176  26.557  35.762  1.00  0.00     0.198 A 
ATOM     71  F   UNL A   1      45.922  28.538  34.899  1.00  0.00    -0.203 F 
ATOM     72  F   UNL A   1      43.800  23.600  34.236  1.00  0.00    -0.200 F 
ATOM     73  C   UNL A   1      44.598  25.314  35.635  1.00  0.00     0.200 A 
ATOM     74  F   UNL A   1      45.372  27.091  36.976  1.00  0.00    -0.200 F 
ATOM     75  F   UNL A   1      44.199  24.648  36.724  1.00  0.00    -0.200 F 
ENDBRANCH  51  65
BRANCH  52  76
ATOM     76  C   UNL A   1      43.460  21.846  26.175  1.00  0.00     0.064 A 
ATOM     77  C   UNL A   1      44.042  20.856  25.363  1.00  0.00     0.173 A 
ATOM     78  C   UNL A   1      42.352  21.438  26.945  1.00  0.00     0.173 A 
ATOM     79  F   UNL A   1      45.136  21.134  24.639  1.00  0.00    -0.203 F 
ATOM     80  C   UNL A   1      43.539  19.544  25.325  1.00  0.00     0.198 A 
ATOM     81  C   UNL A   1      41.854  20.134  26.906  1.00  0.00     0.198 A 
ATOM     82  F   UNL A   1      41.785  22.275  27.824  1.00  0.00    -0.203 F 
ATOM     83  F   UNL A   1      44.141  18.615  24.567  1.00  0.00    -0.200 F 
ATOM     84  C   UNL A   1      42.449  19.185  26.101  1.00  0.00     0.200 A 
ATOM     85  F   UNL A   1      40.827  19.793  27.699  1.00  0.00    -0.200 F 
ATOM     86  F   UNL A   1      42.000  17.921  26.106  1.00  0.00    -0.200 F 
ENDBRANCH  52  76
BRANCH  64  87
ATOM     87  C   UNL A   1      47.565  26.644  26.843  1.00  0.00     0.064 A 
ATOM     88  C   UNL A   1      48.813  26.300  26.288  1.00  0.00     0.173 A 
ATOM     89  C   UNL A   1      46.663  27.314  26.010  1.00  0.00     0.173 A 
ATOM     90  F   UNL A   1      49.692  25.562  26.976  1.00  0.00    -0.203 F 
ATOM     91  C   UNL A   1      49.146  26.638  24.976  1.00  0.00     0.198 A 
ATOM     92  C   UNL A   1      46.981  27.618  24.691  1.00  0.00     0.198 A 
ATOM     93  F   UNL A   1      45.431  27.602  26.458  1.00  0.00    -0.203 F 
ATOM     94  F   UNL A   1      50.339  26.287  24.469  1.00  0.00    -0.200 F 
ATOM     95  C   UNL A   1      48.225  27.290  24.175  1.00  0.00     0.200 A 
ATOM     96  F   UNL A   1      46.060  28.188  23.903  1.00  0.00    -0.200 F 
ATOM     97  F   UNL A   1      48.519  27.573  22.898  1.00  0.00    -0.200 F 
ENDBRANCH  64  87
ENDBRANCH  38  39
ENDBRANCH  31  33
ENDBRANCH  30  31
ENDBRANCH  29  30
ENDBRANCH   1  29
TORSDOF 15
ENDMDL
MODEL 2
REMARK VINA RESULT:     -12.8      4.519      7.438
REMARK SMILES COc1ccc(-n2ccnc2C[N@@H+]2CCn3nc(C(=O)OCCOC(=O)c4ccc(-c5c6nc(c(-c7c(F)c(F)c(F)c(F)c7F)c7ccc([nH]7)c(-c7c(F)c(F)c(F)c(F)c7F)c7nc(c(-c8c(F)c(F)c(F)c(F)c8F)c8ccc5[nH]8)C=C7)C=C6)cc4)cc3C2)cc1
REMARK SMILES IDX 22 1 21 2 19 3 20 4 18 5 13 6 14 7 92 8 15 10 91 11 16 12
REMARK SMILES IDX 90 13 17 14 12 15 11 16 7 17 8 18 9 19 10 20 6 21 3 22 4 23
REMARK SMILES IDX 94 24 5 25 93 26 2 27 1 28 23 29 24 30 25 31 26 32 27 33
REMARK SMILES IDX 28 34 89 35 29 36 88 37 30 38 31 39 32 40 82 41 33 42 87 43
REMARK SMILES IDX 81 44 83 45 34 46 86 47 80 48 79 49 35 51 67 52 47 53 66 54
REMARK SMILES IDX 48 55 51 56 65 57 84 58 49 59 50 60 64 62 85 63 52 64 36 65
REMARK SMILES IDX 37 66 45 67 38 68 39 69 43 70 46 71 40 72 41 73 44 74 42 75
REMARK SMILES IDX 68 76 69 77 77 78 70 79 71 80 75 81 78 82 72 83 73 84 76 85
REMARK SMILES IDX 74 86 53 87 54 88 62 89 55 90 56 91 60 92 63 93 57 94 58 95
REMARK SMILES IDX 61 96 59 97
REMARK H PARENT 13 9 83 50 51 61
REMARK Flexibility Score: inf
ROOT
ATOM      1  C   UNL A   1      33.395  29.800  26.947  1.00  0.00     0.275 C 
ENDROOT
BRANCH   1   2
ATOM      2  O   UNL A   1      34.230  29.015  26.029  1.00  0.00    -0.457 OA
BRANCH   2   3
ATOM      3  C   UNL A   1      33.473  28.147  25.011  1.00  0.00     0.358 C 
ATOM      4  O   UNL A   1      34.079  28.486  23.931  1.00  0.00    -0.244 OA
BRANCH   3   5
ATOM      5  C   UNL A   1      31.835  26.908  25.303  1.00  0.00     0.170 A 
ATOM      6  N   UNL A   1      31.318  22.911  25.322  1.00  0.00    -0.322 N 
ATOM      7  C   UNL A   1      31.162  23.265  23.881  1.00  0.00     0.286 C 
ATOM      8  C   UNL A   1      30.301  23.576  26.164  1.00  0.00     0.319 C 
ATOM      9  H   UNL A   1      31.188  21.900  25.287  1.00  0.00     0.348 HD
ATOM     10  C   UNL A   1      30.264  24.485  23.546  1.00  0.00     0.206 C 
ATOM     11  C   UNL A   1      30.480  25.018  25.915  1.00  0.00     0.094 A 
ATOM     12  N   UNL A   1      30.337  25.427  24.645  1.00  0.00    -0.257 N 
ATOM     13  C   UNL A   1      31.246  25.999  26.503  1.00  0.00     0.067 A 
ATOM     14  N   UNL A   1      30.696  26.677  24.452  1.00  0.00    -0.165 NA
BRANCH   6  15
ATOM     15  C   UNL A   1      32.657  23.097  25.956  1.00  0.00     0.339 C 
BRANCH  15  16
ATOM     16  C   UNL A   1      33.908  23.184  25.135  1.00  0.00     0.168 A 
ATOM     17  N   UNL A   1      34.503  22.165  24.374  1.00  0.00    -0.299 N 
ATOM     18  C   UNL A   1      35.629  22.746  23.825  1.00  0.00     0.113 A 
ATOM     19  C   UNL A   1      35.609  24.073  24.167  1.00  0.00     0.132 A 
ATOM     20  N   UNL A   1      34.551  24.332  24.977  1.00  0.00    -0.236 NA
BRANCH  17  21
ATOM     21  C   UNL A   1      34.347  20.749  24.473  1.00  0.00     0.047 A 
ATOM     22  C   UNL A   1      33.791  17.147  24.065  1.00  0.00     0.119 A 
ATOM     23  C   UNL A   1      35.370  17.764  24.766  1.00  0.00     0.048 A 
ATOM     24  C   UNL A   1      32.443  18.344  23.660  1.00  0.00     0.048 A 
ATOM     25  C   UNL A   1      35.661  19.579  24.954  1.00  0.00     0.030 A 
ATOM     26  C   UNL A   1      32.763  20.132  23.878  1.00  0.00     0.030 A 
BRANCH  22  27
ATOM     27  O   UNL A   1      33.610  15.792  24.021  1.00  0.00    -0.497 OA
ATOM     28  C   UNL A   1      33.036  15.300  25.227  1.00  0.00     0.278 C 
ENDBRANCH  22  27
ENDBRANCH  17  21
ENDBRANCH  15  16
ENDBRANCH   6  15
ENDBRANCH   3   5
ENDBRANCH   2   3
ENDBRANCH   1   2
BRANCH   1  29
ATOM     29  C   UNL A   1      34.076  30.987  27.635  1.00  0.00     0.275 C 
BRANCH  29  30
ATOM     30  O   UNL A   1      35.480  30.812  27.724  1.00  0.00    -0.458 OA
BRANCH  30  31
ATOM     31  C   UNL A   1      36.088  31.752  28.479  1.00  0.00     0.338 C 
ATOM     32  O   UNL A   1      36.283  32.923  28.200  1.00  0.00    -0.246 OA
BRANCH  31  33
ATOM     33  C   UNL A   1      36.613  31.119  29.686  1.00  0.00     0.060 A 
ATOM     34  C   UNL A   1      37.563  31.822  30.428  1.00  0.00     0.016 A 
ATOM     35  C   UNL A   1      36.622  29.743  29.668  1.00  0.00     0.016 A 
ATOM     36  C   UNL A   1      38.801  31.278  30.548  1.00  0.00     0.010 A 
ATOM     37  C   UNL A   1      37.754  29.169  30.137  1.00  0.00     0.010 A 
ATOM     38  C   UNL A   1      38.898  29.956  30.193  1.00  0.00    -0.014 A 
BRANCH  38  39
ATOM     39  C   UNL A   1      40.188  29.332  30.116  1.00  0.00     0.031 A 
ATOM     40  C   UNL A   1      40.761  29.264  31.481  1.00  0.00     0.074 A 
ATOM     41  C   UNL A   1      40.624  28.857  28.928  1.00  0.00     0.049 A 
ATOM     42  N   UNL A   1      41.692  30.012  31.976  1.00  0.00    -0.248 NA
ATOM     43  C   UNL A   1      39.975  28.560  32.518  1.00  0.00     0.031 C 
ATOM     44  C   UNL A   1      39.964  28.821  27.610  1.00  0.00     0.029 A 
ATOM     45  N   UNL A   1      41.771  28.168  28.684  1.00  0.00    -0.354 N 
ATOM     46  C   UNL A   1      41.752  29.649  33.319  1.00  0.00     0.074 A 
ATOM     47  C   UNL A   1      40.481  29.080  33.633  1.00  0.00     0.031 C 
ATOM     48  C   UNL A   1      40.570  27.896  26.822  1.00  0.00     0.029 A 
ATOM     49  C   UNL A   1      41.722  27.376  27.527  1.00  0.00     0.049 A 
ATOM     50  H   UNL A   1      42.563  28.220  29.266  1.00  0.00     0.167 HD
ATOM     51  C   UNL A   1      42.951  29.446  33.930  1.00  0.00     0.037 A 
ATOM     52  C   UNL A   1      42.543  26.306  27.336  1.00  0.00     0.037 A 
ATOM     53  C   UNL A   1      43.999  30.064  33.159  1.00  0.00     0.049 A 
ATOM     54  C   UNL A   1      43.682  26.502  28.297  1.00  0.00     0.074 A 
ATOM     55  C   UNL A   1      44.276  31.371  32.813  1.00  0.00     0.029 A 
ATOM     56  N   UNL A   1      44.640  29.269  32.238  1.00  0.00    -0.354 N 
ATOM     57  N   UNL A   1      44.502  27.522  28.212  1.00  0.00    -0.248 NA
ATOM     58  C   UNL A   1      43.491  25.959  29.644  1.00  0.00     0.031 C 
ATOM     59  C   UNL A   1      44.654  31.307  31.441  1.00  0.00     0.029 A 
ATOM     60  C   UNL A   1      44.731  29.967  31.060  1.00  0.00     0.049 A 
ATOM     61  H   UNL A   1      44.975  28.357  32.397  1.00  0.00     0.167 HD
ATOM     62  C   UNL A   1      44.592  28.013  29.511  1.00  0.00     0.074 A 
ATOM     63  C   UNL A   1      43.952  26.998  30.353  1.00  0.00     0.031 C 
ATOM     64  C   UNL A   1      44.868  29.327  29.771  1.00  0.00     0.037 A 
BRANCH  51  65
ATOM     65  C   UNL A   1      43.232  28.345  34.929  1.00  0.00     0.064 A 
ATOM     66  C   UNL A   1      43.716  28.717  36.197  1.00  0.00     0.173 A 
ATOM     67  C   UNL A   1      43.333  26.966  34.629  1.00  0.00     0.173 A 
ATOM     68  F   UNL A   1      43.657  29.995  36.601  1.00  0.00    -0.203 F 
ATOM     69  C   UNL A   1      44.351  27.806  37.043  1.00  0.00     0.198 A 
ATOM     70  C   UNL A   1      43.924  26.050  35.495  1.00  0.00     0.198 A 
ATOM     71  F   UNL A   1      42.964  26.441  33.457  1.00  0.00    -0.203 F 
ATOM     72  F   UNL A   1      44.911  28.236  38.181  1.00  0.00    -0.200 F 
ATOM     73  C   UNL A   1      44.468  26.475  36.686  1.00  0.00     0.200 A 
ATOM     74  F   UNL A   1      44.032  24.767  35.121  1.00  0.00    -0.200 F 
ATOM     75  F   UNL A   1      45.134  25.613  37.462  1.00  0.00    -0.200 F 
ENDBRANCH  51  65
BRANCH  52  76
ATOM     76  C   UNL A   1      42.172  24.983  26.765  1.00  0.00     0.064 A 
ATOM     77  C   UNL A   1      42.924  24.356  25.756  1.00  0.00     0.173 A 
ATOM     78  C   UNL A   1      41.192  24.183  27.389  1.00  0.00     0.173 A 
ATOM     79  F   UNL A   1      43.918  25.018  25.146  1.00  0.00    -0.203 F 
ATOM     80  C   UNL A   1      42.701  23.017  25.394  1.00  0.00     0.198 A 
ATOM     81  C   UNL A   1      40.972  22.853  27.029  1.00  0.00     0.198 A 
ATOM     82  F   UNL A   1      40.488  24.652  28.428  1.00  0.00    -0.203 F 
ATOM     83  F   UNL A   1      43.462  22.439  24.452  1.00  0.00    -0.200 F 
ATOM     84  C   UNL A   1      41.730  22.266  26.036  1.00  0.00     0.200 A 
ATOM     85  F   UNL A   1      40.059  22.128  27.693  1.00  0.00    -0.200 F 
ATOM     86  F   UNL A   1      41.551  20.973  25.729  1.00  0.00    -0.200 F 
ENDBRANCH  52  76
BRANCH  64  87
ATOM     87  C   UNL A   1      45.207  30.241  28.623  1.00  0.00     0.064 A 
ATOM     88  C   UNL A   1      44.277  31.047  27.938  1.00  0.00     0.173 A 
ATOM     89  C   UNL A   1      46.562  30.481  28.372  1.00  0.00     0.173 A 
ATOM     90  F   UNL A   1      42.967  30.961  28.200  1.00  0.00    -0.203 F 
ATOM     91  C   UNL A   1      44.688  32.022  27.029  1.00  0.00     0.198 A 
ATOM     92  C   UNL A   1      46.972  31.478  27.493  1.00  0.00     0.198 A 
ATOM     93  F   UNL A   1      47.496  29.797  29.050  1.00  0.00    -0.203 F 
ATOM     94  F   UNL A   1      43.779  32.784  26.398  1.00  0.00    -0.200 F 
ATOM     95  C   UNL A   1      46.037  32.242  26.813  1.00  0.00     0.200 A 
ATOM     96  F   UNL A   1      48.279  31.730  27.342  1.00  0.00    -0.200 F 
ATOM     97  F   UNL A   1      46.439  33.211  25.978  1.00  0.00    -0.200 F 
ENDBRANCH  64  87
ENDBRANCH  38  39
ENDBRANCH  31  33
ENDBRANCH  30  31
ENDBRANCH  29  30
ENDBRANCH   1  29
TORSDOF 15
ENDMDL
MODEL 3
REMARK VINA RESULT:     -12.7      2.847      5.727
REMARK SMILES COc1ccc(-n2ccnc2C[N@@H+]2CCn3nc(C(=O)OCCOC(=O)c4ccc(-c5c6nc(c(-c7c(F)c(F)c(F)c(F)c7F)c7ccc([nH]7)c(-c7c(F)c(F)c(F)c(F)c7F)c7nc(c(-c8c(F)c(F)c(F)c(F)c8F)c8ccc5[nH]8)C=C7)C=C6)cc4)cc3C2)cc1
REMARK SMILES IDX 22 1 21 2 19 3 20 4 18 5 13 6 14 7 92 8 15 10 91 11 16 12
REMARK SMILES IDX 90 13 17 14 12 15 11 16 7 17 8 18 9 19 10 20 6 21 3 22 4 23
REMARK SMILES IDX 94 24 5 25 93 26 2 27 1 28 23 29 24 30 25 31 26 32 27 33
REMARK SMILES IDX 28 34 89 35 29 36 88 37 30 38 31 39 32 40 82 41 33 42 87 43
REMARK SMILES IDX 81 44 83 45 34 46 86 47 80 48 79 49 35 51 67 52 47 53 66 54
REMARK SMILES IDX 48 55 51 56 65 57 84 58 49 59 50 60 64 62 85 63 52 64 36 65
REMARK SMILES IDX 37 66 45 67 38 68 39 69 43 70 46 71 40 72 41 73 44 74 42 75
REMARK SMILES IDX 68 76 69 77 77 78 70 79 71 80 75 81 78 82 72 83 73 84 76 85
REMARK SMILES IDX 74 86 53 87 54 88 62 89 55 90 56 91 60 92 63 93 57 94 58 95
REMARK SMILES IDX 61 96 59 97
REMARK H PARENT 13 9 83 50 51 61
REMARK Flexibility Score: inf
ROOT
ATOM      1  C   UNL A   1      34.317  34.058  28.139  1.00  0.00     0.275 C 
ENDROOT
BRANCH   1   2
ATOM      2  O   UNL A   1      33.027  34.592  28.593  1.00  0.00    -0.457 OA
BRANCH   2   3
ATOM      3  C   UNL A   1      33.071  35.470  29.854  1.00  0.00     0.358 C 
ATOM      4  O   UNL A   1      32.634  36.577  29.374  1.00  0.00    -0.244 OA
BRANCH   3   5
ATOM      5  C   UNL A   1      33.790  35.014  31.746  1.00  0.00     0.170 A 
ATOM      6  N   UNL A   1      37.358  33.790  33.165  1.00  0.00    -0.322 N 
ATOM      7  C   UNL A   1      36.686  32.511  32.793  1.00  0.00     0.286 C 
ATOM      8  C   UNL A   1      36.604  34.524  34.203  1.00  0.00     0.319 C 
ATOM      9  H   UNL A   1      38.253  33.443  33.511  1.00  0.00     0.348 HD
ATOM     10  C   UNL A   1      35.211  32.332  33.236  1.00  0.00     0.206 C 
ATOM     11  C   UNL A   1      35.265  34.738  33.626  1.00  0.00     0.094 A 
ATOM     12  N   UNL A   1      34.581  33.636  33.280  1.00  0.00    -0.257 N 
ATOM     13  C   UNL A   1      34.703  35.739  32.865  1.00  0.00     0.067 A 
ATOM     14  N   UNL A   1      33.486  33.891  32.597  1.00  0.00    -0.165 NA
BRANCH   6  15
ATOM     15  C   UNL A   1      37.720  34.743  32.074  1.00  0.00     0.339 C 
BRANCH  15  16
ATOM     16  C   UNL A   1      38.971  34.574  31.268  1.00  0.00     0.168 A 
ATOM     17  N   UNL A   1      40.193  34.028  31.691  1.00  0.00    -0.299 N 
ATOM     18  C   UNL A   1      41.017  34.109  30.585  1.00  0.00     0.113 A 
ATOM     19  C   UNL A   1      40.257  34.575  29.545  1.00  0.00     0.132 A 
ATOM     20  N   UNL A   1      39.003  34.864  29.975  1.00  0.00    -0.236 NA
BRANCH  17  21
ATOM     21  C   UNL A   1      40.705  33.866  33.014  1.00  0.00     0.047 A 
ATOM     22  C   UNL A   1      41.666  34.017  36.550  1.00  0.00     0.119 A 
ATOM     23  C   UNL A   1      40.907  32.494  35.864  1.00  0.00     0.048 A 
ATOM     24  C   UNL A   1      42.035  35.438  35.428  1.00  0.00     0.048 A 
ATOM     25  C   UNL A   1      40.403  32.422  34.087  1.00  0.00     0.030 A 
ATOM     26  C   UNL A   1      41.539  35.320  33.671  1.00  0.00     0.030 A 
BRANCH  22  27
ATOM     27  O   UNL A   1      42.082  33.980  37.853  1.00  0.00    -0.497 OA
ATOM     28  C   UNL A   1      41.251  34.775  38.691  1.00  0.00     0.278 C 
ENDBRANCH  22  27
ENDBRANCH  17  21
ENDBRANCH  15  16
ENDBRANCH   6  15
ENDBRANCH   3   5
ENDBRANCH   2   3
ENDBRANCH   1   2
BRANCH   1  29
ATOM     29  C   UNL A   1      34.407  32.536  27.994  1.00  0.00     0.275 C 
BRANCH  29  30
ATOM     30  O   UNL A   1      35.735  32.106  27.743  1.00  0.00    -0.458 OA
BRANCH  30  31
ATOM     31  C   UNL A   1      35.914  30.783  27.945  1.00  0.00     0.338 C 
ATOM     32  O   UNL A   1      35.517  29.861  27.254  1.00  0.00    -0.246 OA
BRANCH  31  33
ATOM     33  C   UNL A   1      36.581  30.590  29.230  1.00  0.00     0.060 A 
ATOM     34  C   UNL A   1      37.570  31.505  29.593  1.00  0.00     0.016 A 
ATOM     35  C   UNL A   1      36.645  29.286  29.665  1.00  0.00     0.016 A 
ATOM     36  C   UNL A   1      38.836  31.038  29.752  1.00  0.00     0.010 A 
ATOM     37  C   UNL A   1      37.841  28.907  30.173  1.00  0.00     0.010 A 
ATOM     38  C   UNL A   1      38.951  29.674  29.843  1.00  0.00    -0.014 A 
BRANCH  38  39
ATOM     39  C   UNL A   1      40.251  29.067  29.838  1.00  0.00     0.031 A 
ATOM     40  C   UNL A   1      40.767  29.046  31.228  1.00  0.00     0.074 A 
ATOM     41  C   UNL A   1      40.744  28.567  28.683  1.00  0.00     0.049 A 
ATOM     42  N   UNL A   1      41.666  29.821  31.741  1.00  0.00    -0.248 NA
ATOM     43  C   UNL A   1      39.948  28.358  32.250  1.00  0.00     0.031 C 
ATOM     44  C   UNL A   1      40.142  28.485  27.341  1.00  0.00     0.029 A 
ATOM     45  N   UNL A   1      41.909  27.888  28.507  1.00  0.00    -0.354 N 
ATOM     46  C   UNL A   1      41.674  29.494  33.095  1.00  0.00     0.074 A 
ATOM     47  C   UNL A   1      40.399  28.916  33.370  1.00  0.00     0.031 C 
ATOM     48  C   UNL A   1      40.793  27.548  26.605  1.00  0.00     0.029 A 
ATOM     49  C   UNL A   1      41.921  27.065  27.372  1.00  0.00     0.049 A 
ATOM     50  H   UNL A   1      42.676  27.968  29.121  1.00  0.00     0.167 HD
ATOM     51  C   UNL A   1      42.848  29.326  33.761  1.00  0.00     0.037 A 
ATOM     52  C   UNL A   1      42.764  26.003  27.246  1.00  0.00     0.037 A 
ATOM     53  C   UNL A   1      43.919  29.939  33.018  1.00  0.00     0.049 A 
ATOM     54  C   UNL A   1      43.858  26.241  28.248  1.00  0.00     0.074 A 
ATOM     55  C   UNL A   1      44.194  31.239  32.647  1.00  0.00     0.029 A 
ATOM     56  N   UNL A   1      44.610  29.128  32.147  1.00  0.00    -0.354 N 
ATOM     57  N   UNL A   1      44.667  27.271  28.169  1.00  0.00    -0.248 NA
ATOM     58  C   UNL A   1      43.618  25.733  29.601  1.00  0.00     0.031 C 
ATOM     59  C   UNL A   1      44.630  31.144  31.294  1.00  0.00     0.029 A 
ATOM     60  C   UNL A   1      44.742  29.795  30.955  1.00  0.00     0.049 A 
ATOM     61  H   UNL A   1      44.950  28.226  32.345  1.00  0.00     0.167 HD
ATOM     62  C   UNL A   1      44.695  27.798  29.456  1.00  0.00     0.074 A 
ATOM     63  C   UNL A   1      44.034  26.797  30.299  1.00  0.00     0.031 C 
ATOM     64  C   UNL A   1      44.942  29.122  29.691  1.00  0.00     0.037 A 
BRANCH  51  65
ATOM     65  C   UNL A   1      43.102  28.258  34.801  1.00  0.00     0.064 A 
ATOM     66  C   UNL A   1      43.548  28.669  36.070  1.00  0.00     0.173 A 
ATOM     67  C   UNL A   1      43.214  26.870  34.546  1.00  0.00     0.173 A 
ATOM     68  F   UNL A   1      43.474  29.959  36.433  1.00  0.00    -0.203 F 
ATOM     69  C   UNL A   1      44.159  27.786  36.963  1.00  0.00     0.198 A 
ATOM     70  C   UNL A   1      43.781  25.983  35.457  1.00  0.00     0.198 A 
ATOM     71  F   UNL A   1      42.881  26.308  33.381  1.00  0.00    -0.203 F 
ATOM     72  F   UNL A   1      44.684  28.253  38.103  1.00  0.00    -0.200 F 
ATOM     73  C   UNL A   1      44.289  26.446  36.650  1.00  0.00     0.200 A 
ATOM     74  F   UNL A   1      43.902  24.689  35.126  1.00  0.00    -0.200 F 
ATOM     75  F   UNL A   1      44.933  25.609  37.472  1.00  0.00    -0.200 F 
ENDBRANCH  51  65
BRANCH  52  76
ATOM     76  C   UNL A   1      42.435  24.659  26.697  1.00  0.00     0.064 A 
ATOM     77  C   UNL A   1      43.224  24.027  25.719  1.00  0.00     0.173 A 
ATOM     78  C   UNL A   1      41.459  23.851  27.317  1.00  0.00     0.173 A 
ATOM     79  F   UNL A   1      44.217  24.698  25.117  1.00  0.00    -0.203 F 
ATOM     80  C   UNL A   1      43.039  22.675  25.383  1.00  0.00     0.198 A 
ATOM     81  C   UNL A   1      41.278  22.508  26.982  1.00  0.00     0.198 A 
ATOM     82  F   UNL A   1      40.721  24.326  28.329  1.00  0.00    -0.203 F 
ATOM     83  F   UNL A   1      43.834  22.094  24.471  1.00  0.00    -0.200 F 
ATOM     84  C   UNL A   1      42.071  21.917  26.019  1.00  0.00     0.200 A 
ATOM     85  F   UNL A   1      40.366  21.778  27.641  1.00  0.00    -0.200 F 
ATOM     86  F   UNL A   1      41.928  20.614  25.738  1.00  0.00    -0.200 F 
ENDBRANCH  52  76
BRANCH  64  87
ATOM     87  C   UNL A   1      45.317  30.010  28.533  1.00  0.00     0.064 A 
ATOM     88  C   UNL A   1      44.404  30.776  27.782  1.00  0.00     0.173 A 
ATOM     89  C   UNL A   1      46.677  30.271  28.339  1.00  0.00     0.173 A 
ATOM     90  F   UNL A   1      43.086  30.670  27.984  1.00  0.00    -0.203 F 
ATOM     91  C   UNL A   1      44.838  31.733  26.864  1.00  0.00     0.198 A 
ATOM     92  C   UNL A   1      47.108  31.251  27.451  1.00  0.00     0.198 A 
ATOM     93  F   UNL A   1      47.591  29.627  29.080  1.00  0.00    -0.203 F 
ATOM     94  F   UNL A   1      43.946  32.456  26.169  1.00  0.00    -0.200 F 
ATOM     95  C   UNL A   1      46.192  31.975  26.705  1.00  0.00     0.200 A 
ATOM     96  F   UNL A   1      48.415  31.525  27.353  1.00  0.00    -0.200 F 
ATOM     97  F   UNL A   1      46.614  32.927  25.861  1.00  0.00    -0.200 F 
ENDBRANCH  64  87
ENDBRANCH  38  39
ENDBRANCH  31  33
ENDBRANCH  30  31
ENDBRANCH  29  30
ENDBRANCH   1  29
TORSDOF 15
ENDMDL
