MODEL 1
REMARK VINA RESULT:     -12.4      0.000      0.000
REMARK SMILES C[C@H]1[C@H](C(=O)OCCOC(=O)c2ccc(-c3c4nc(c(-c5c(F)c(F)c(F)c(F)c5F)c5ccc([nH]5)c(-c5c(F)c(F)c(F)c(F)c5F)c5nc(c(-c6c(F)c(F)c(F)c(F)c6F)c6ccc3[nH]6)C=C5)C=C4)cc2)CC[N@@H+]1[C@@H](c1ccccc1)c1ccco1
REMARK SMILES IDX 7 1 6 2 4 3 5 4 3 5 1 6 2 7 77 8 75 9 76 10 78 12 79 13
REMARK SMILES IDX 80 14 84 15 81 16 83 17 82 18 85 19 86 20 89 21 87 22 88 23
REMARK SMILES IDX 8 24 9 25 10 26 11 27 12 28 13 29 74 30 14 31 73 32 15 33
REMARK SMILES IDX 16 34 17 35 67 36 18 37 72 38 66 39 68 40 19 41 71 42 65 43
REMARK SMILES IDX 64 44 20 46 52 47 32 48 51 49 33 50 36 51 50 52 69 53 34 54
REMARK SMILES IDX 35 55 49 57 70 58 37 59 21 60 22 61 30 62 23 63 24 64 28 65
REMARK SMILES IDX 31 66 25 67 26 68 29 69 27 70 53 71 54 72 62 73 55 74 56 75
REMARK SMILES IDX 60 76 63 77 57 78 58 79 61 80 59 81 38 82 39 83 47 84 40 85
REMARK SMILES IDX 41 86 45 87 48 88 42 89 43 90 46 91 44 92
REMARK H PARENT 77 11 68 45 36 56
REMARK Flexibility Score: inf
ROOT
ATOM      1  C   UNL A   1      31.509  28.617  24.974  1.00  0.00     0.274 C 
ENDROOT
BRANCH   1   2
ATOM      2  O   UNL A   1      32.759  27.936  24.755  1.00  0.00    -0.462 OA
BRANCH   2   3
ATOM      3  C   UNL A   1      32.833  26.633  25.109  1.00  0.00     0.315 C 
ATOM      4  O   UNL A   1      33.373  26.221  26.132  1.00  0.00    -0.252 OA
BRANCH   3   5
ATOM      5  C   UNL A   1      32.123  25.691  24.152  1.00  0.00     0.162 C 
ATOM      6  C   UNL A   1      32.889  24.724  21.952  1.00  0.00     0.076 C 
ATOM      7  C   UNL A   1      32.961  24.595  23.482  1.00  0.00     0.196 C 
ATOM      8  N   UNL A   1      32.336  23.315  23.846  1.00  0.00    -0.319 N 
ATOM      9  C   UNL A   1      30.971  24.991  24.856  1.00  0.00     0.083 C 
ATOM     10  C   UNL A   1      30.978  23.581  24.305  1.00  0.00     0.264 C 
ATOM     11  H   UNL A   1      32.259  22.723  23.018  1.00  0.00     0.349 HD
BRANCH   8  12
ATOM     12  C   UNL A   1      33.174  22.424  24.682  1.00  0.00     0.283 C 
BRANCH  12  13
ATOM     13  C   UNL A   1      32.916  20.919  24.554  1.00  0.00     0.017 A 
ATOM     14  C   UNL A   1      32.488  20.391  23.321  1.00  0.00     0.010 A 
ATOM     15  C   UNL A   1      33.074  20.027  25.627  1.00  0.00     0.010 A 
ATOM     16  C   UNL A   1      32.247  19.024  23.165  1.00  0.00     0.001 A 
ATOM     17  C   UNL A   1      32.859  18.656  25.465  1.00  0.00     0.001 A 
ATOM     18  C   UNL A   1      32.443  18.156  24.235  1.00  0.00     0.000 A 
ENDBRANCH  12  13
BRANCH  12  19
ATOM     19  C   UNL A   1      34.629  22.833  24.606  1.00  0.00     0.165 A 
ATOM     20  C   UNL A   1      35.581  22.669  23.616  1.00  0.00     0.052 A 
ATOM     21  O   UNL A   1      35.196  23.458  25.681  1.00  0.00    -0.463 OA
ATOM     22  C   UNL A   1      36.785  23.218  24.116  1.00  0.00     0.042 A 
ATOM     23  C   UNL A   1      36.496  23.687  25.374  1.00  0.00     0.195 A 
ENDBRANCH  12  19
ENDBRANCH   8  12
ENDBRANCH   3   5
ENDBRANCH   2   3
ENDBRANCH   1   2
BRANCH   1  24
ATOM     24  C   UNL A   1      31.763  29.985  25.606  1.00  0.00     0.275 C 
BRANCH  24  25
ATOM     25  O   UNL A   1      33.124  30.084  26.061  1.00  0.00    -0.458 OA
BRANCH  25  26
ATOM     26  C   UNL A   1      33.363  31.103  26.916  1.00  0.00     0.338 C 
ATOM     27  O   UNL A   1      32.616  32.007  27.242  1.00  0.00    -0.246 OA
BRANCH  26  28
ATOM     28  C   UNL A   1      34.676  30.894  27.533  1.00  0.00     0.060 A 
ATOM     29  C   UNL A   1      35.014  29.605  27.950  1.00  0.00     0.016 A 
ATOM     30  C   UNL A   1      35.528  31.967  27.770  1.00  0.00     0.016 A 
ATOM     31  C   UNL A   1      36.193  29.379  28.644  1.00  0.00     0.010 A 
ATOM     32  C   UNL A   1      36.732  31.736  28.436  1.00  0.00     0.010 A 
ATOM     33  C   UNL A   1      37.061  30.444  28.889  1.00  0.00    -0.014 A 
BRANCH  33  34
ATOM     34  C   UNL A   1      38.304  30.234  29.660  1.00  0.00     0.031 A 
ATOM     35  C   UNL A   1      39.367  29.344  29.094  1.00  0.00     0.074 A 
ATOM     36  C   UNL A   1      38.454  30.810  30.865  1.00  0.00     0.049 A 
ATOM     37  N   UNL A   1      40.400  28.808  29.687  1.00  0.00    -0.248 NA
ATOM     38  C   UNL A   1      39.240  29.001  27.668  1.00  0.00     0.031 C 
ATOM     39  C   UNL A   1      37.519  31.757  31.472  1.00  0.00     0.029 A 
ATOM     40  N   UNL A   1      39.440  30.661  31.805  1.00  0.00    -0.354 N 
ATOM     41  C   UNL A   1      41.018  28.024  28.723  1.00  0.00     0.074 A 
ATOM     42  C   UNL A   1      40.250  28.159  27.504  1.00  0.00     0.031 C 
ATOM     43  C   UNL A   1      37.966  32.091  32.694  1.00  0.00     0.029 A 
ATOM     44  C   UNL A   1      39.174  31.323  32.978  1.00  0.00     0.049 A 
ATOM     45  H   UNL A   1      40.256  30.130  31.655  1.00  0.00     0.167 HD
ATOM     46  C   UNL A   1      42.123  27.255  28.860  1.00  0.00     0.037 A 
ATOM     47  C   UNL A   1      39.804  31.266  34.166  1.00  0.00     0.037 A 
ATOM     48  C   UNL A   1      42.885  27.161  30.076  1.00  0.00     0.049 A 
ATOM     49  C   UNL A   1      40.995  30.360  34.312  1.00  0.00     0.074 A 
ATOM     50  C   UNL A   1      44.021  26.415  30.330  1.00  0.00     0.029 A 
ATOM     51  N   UNL A   1      42.585  27.849  31.244  1.00  0.00    -0.354 N 
ATOM     52  N   UNL A   1      41.551  29.579  33.418  1.00  0.00    -0.248 NA
ATOM     53  C   UNL A   1      41.634  30.311  35.633  1.00  0.00     0.031 C 
ATOM     54  C   UNL A   1      44.389  26.625  31.663  1.00  0.00     0.029 A 
ATOM     55  C   UNL A   1      43.508  27.536  32.226  1.00  0.00     0.049 A 
ATOM     56  H   UNL A   1      41.828  28.468  31.357  1.00  0.00     0.167 HD
ATOM     57  C   UNL A   1      42.621  28.967  34.057  1.00  0.00     0.074 A 
ATOM     58  C   UNL A   1      42.636  29.470  35.415  1.00  0.00     0.031 C 
ATOM     59  C   UNL A   1      43.510  28.072  33.563  1.00  0.00     0.037 A 
BRANCH  46  60
ATOM     60  C   UNL A   1      42.541  26.424  27.684  1.00  0.00     0.064 A 
ATOM     61  C   UNL A   1      43.525  26.857  26.784  1.00  0.00     0.173 A 
ATOM     62  C   UNL A   1      41.964  25.164  27.472  1.00  0.00     0.173 A 
ATOM     63  F   UNL A   1      44.095  28.062  26.933  1.00  0.00    -0.203 F 
ATOM     64  C   UNL A   1      43.901  26.065  25.701  1.00  0.00     0.198 A 
ATOM     65  C   UNL A   1      42.360  24.364  26.404  1.00  0.00     0.198 A 
ATOM     66  F   UNL A   1      41.018  24.704  28.305  1.00  0.00    -0.203 F 
ATOM     67  F   UNL A   1      44.812  26.514  24.827  1.00  0.00    -0.200 F 
ATOM     68  C   UNL A   1      43.322  24.817  25.516  1.00  0.00     0.200 A 
ATOM     69  F   UNL A   1      41.805  23.155  26.232  1.00  0.00    -0.200 F 
ATOM     70  F   UNL A   1      43.689  24.054  24.476  1.00  0.00    -0.200 F 
ENDBRANCH  46  60
BRANCH  47  71
ATOM     71  C   UNL A   1      39.289  32.058  35.313  1.00  0.00     0.064 A 
ATOM     72  C   UNL A   1      38.485  31.464  36.293  1.00  0.00     0.173 A 
ATOM     73  C   UNL A   1      39.605  33.417  35.459  1.00  0.00     0.173 A 
ATOM     74  F   UNL A   1      38.138  30.174  36.184  1.00  0.00    -0.203 F 
ATOM     75  C   UNL A   1      38.009  32.203  37.376  1.00  0.00     0.198 A 
ATOM     76  C   UNL A   1      39.150  34.148  36.556  1.00  0.00     0.198 A 
ATOM     77  F   UNL A   1      40.371  34.032  34.547  1.00  0.00    -0.203 F 
ATOM     78  F   UNL A   1      37.212  31.620  38.282  1.00  0.00    -0.200 F 
ATOM     79  C   UNL A   1      38.348  33.541  37.510  1.00  0.00     0.200 A 
ATOM     80  F   UNL A   1      39.492  35.436  36.688  1.00  0.00    -0.200 F 
ATOM     81  F   UNL A   1      37.896  34.247  38.556  1.00  0.00    -0.200 F 
ENDBRANCH  47  71
BRANCH  59  82
ATOM     82  C   UNL A   1      44.608  27.621  34.477  1.00  0.00     0.064 A 
ATOM     83  C   UNL A   1      44.486  26.461  35.253  1.00  0.00     0.173 A 
ATOM     84  C   UNL A   1      45.823  28.322  34.515  1.00  0.00     0.173 A 
ATOM     85  F   UNL A   1      43.337  25.769  35.259  1.00  0.00    -0.203 F 
ATOM     86  C   UNL A   1      45.544  26.021  36.045  1.00  0.00     0.198 A 
ATOM     87  C   UNL A   1      46.885  27.867  35.289  1.00  0.00     0.198 A 
ATOM     88  F   UNL A   1      45.985  29.434  33.784  1.00  0.00    -0.203 F 
ATOM     89  F   UNL A   1      45.401  24.924  36.801  1.00  0.00    -0.200 F 
ATOM     90  C   UNL A   1      46.744  26.719  36.055  1.00  0.00     0.200 A 
ATOM     91  F   UNL A   1      48.047  28.533  35.288  1.00  0.00    -0.200 F 
ATOM     92  F   UNL A   1      47.765  26.283  36.805  1.00  0.00    -0.200 F 
ENDBRANCH  59  82
ENDBRANCH  33  34
ENDBRANCH  26  28
ENDBRANCH  25  26
ENDBRANCH  24  25
ENDBRANCH   1  24
TORSDOF 14
ENDMDL
MODEL 2
REMARK VINA RESULT:     -12.4      1.163      1.628
REMARK SMILES C[C@H]1[C@H](C(=O)OCCOC(=O)c2ccc(-c3c4nc(c(-c5c(F)c(F)c(F)c(F)c5F)c5ccc([nH]5)c(-c5c(F)c(F)c(F)c(F)c5F)c5nc(c(-c6c(F)c(F)c(F)c(F)c6F)c6ccc3[nH]6)C=C5)C=C4)cc2)CC[N@@H+]1[C@@H](c1ccccc1)c1ccco1
REMARK SMILES IDX 7 1 6 2 4 3 5 4 3 5 1 6 2 7 77 8 75 9 76 10 78 12 79 13
REMARK SMILES IDX 80 14 84 15 81 16 83 17 82 18 85 19 86 20 89 21 87 22 88 23
REMARK SMILES IDX 8 24 9 25 10 26 11 27 12 28 13 29 74 30 14 31 73 32 15 33
REMARK SMILES IDX 16 34 17 35 67 36 18 37 72 38 66 39 68 40 19 41 71 42 65 43
REMARK SMILES IDX 64 44 20 46 52 47 32 48 51 49 33 50 36 51 50 52 69 53 34 54
REMARK SMILES IDX 35 55 49 57 70 58 37 59 21 60 22 61 30 62 23 63 24 64 28 65
REMARK SMILES IDX 31 66 25 67 26 68 29 69 27 70 53 71 54 72 62 73 55 74 56 75
REMARK SMILES IDX 60 76 63 77 57 78 58 79 61 80 59 81 38 82 39 83 47 84 40 85
REMARK SMILES IDX 41 86 45 87 48 88 42 89 43 90 46 91 44 92
REMARK H PARENT 77 11 68 45 36 56
REMARK Flexibility Score: inf
ROOT
ATOM      1  C   UNL A   1      31.345  29.752  25.012  1.00  0.00     0.274 C 
ENDROOT
BRANCH   1   2
ATOM      2  O   UNL A   1      31.281  28.314  24.951  1.00  0.00    -0.462 OA
BRANCH   2   3
ATOM      3  C   UNL A   1      30.698  27.759  23.865  1.00  0.00     0.315 C 
ATOM      4  O   UNL A   1      29.488  27.747  23.656  1.00  0.00    -0.252 OA
BRANCH   3   5
ATOM      5  C   UNL A   1      31.682  27.188  22.859  1.00  0.00     0.162 C 
ATOM      6  C   UNL A   1      34.071  27.834  22.372  1.00  0.00     0.076 C 
ATOM      7  C   UNL A   1      33.143  27.036  23.302  1.00  0.00     0.196 C 
ATOM      8  N   UNL A   1      33.478  25.614  23.144  1.00  0.00    -0.319 N 
ATOM      9  C   UNL A   1      31.224  25.816  22.390  1.00  0.00     0.083 C 
ATOM     10  C   UNL A   1      32.495  25.006  22.255  1.00  0.00     0.264 C 
ATOM     11  H   UNL A   1      34.387  25.524  22.688  1.00  0.00     0.349 HD
BRANCH   8  12
ATOM     12  C   UNL A   1      33.788  24.900  24.405  1.00  0.00     0.283 C 
BRANCH  12  13
ATOM     13  C   UNL A   1      32.628  24.155  25.075  1.00  0.00     0.017 A 
ATOM     14  C   UNL A   1      32.496  22.766  24.886  1.00  0.00     0.010 A 
ATOM     15  C   UNL A   1      31.667  24.800  25.869  1.00  0.00     0.010 A 
ATOM     16  C   UNL A   1      31.454  22.051  25.483  1.00  0.00     0.001 A 
ATOM     17  C   UNL A   1      30.641  24.083  26.489  1.00  0.00     0.001 A 
ATOM     18  C   UNL A   1      30.534  22.709  26.293  1.00  0.00     0.000 A 
ENDBRANCH  12  13
BRANCH  12  19
ATOM     19  C   UNL A   1      35.066  24.104  24.267  1.00  0.00     0.165 A 
ATOM     20  C   UNL A   1      36.064  23.798  25.175  1.00  0.00     0.052 A 
ATOM     21  O   UNL A   1      35.387  23.577  23.048  1.00  0.00    -0.463 OA
ATOM     22  C   UNL A   1      37.040  23.055  24.472  1.00  0.00     0.042 A 
ATOM     23  C   UNL A   1      36.579  22.945  23.183  1.00  0.00     0.195 A 
ENDBRANCH  12  19
ENDBRANCH   8  12
ENDBRANCH   3   5
ENDBRANCH   2   3
ENDBRANCH   1   2
BRANCH   1  24
ATOM     24  C   UNL A   1      31.756  30.197  26.416  1.00  0.00     0.275 C 
BRANCH  24  25
ATOM     25  O   UNL A   1      33.178  30.400  26.485  1.00  0.00    -0.458 OA
BRANCH  25  26
ATOM     26  C   UNL A   1      33.564  31.474  27.209  1.00  0.00     0.338 C 
ATOM     27  O   UNL A   1      32.934  32.488  27.449  1.00  0.00    -0.246 OA
BRANCH  26  28
ATOM     28  C   UNL A   1      34.870  31.186  27.807  1.00  0.00     0.060 A 
ATOM     29  C   UNL A   1      35.104  29.901  28.300  1.00  0.00     0.016 A 
ATOM     30  C   UNL A   1      35.821  32.191  27.952  1.00  0.00     0.016 A 
ATOM     31  C   UNL A   1      36.279  29.614  28.980  1.00  0.00     0.010 A 
ATOM     32  C   UNL A   1      37.019  31.895  28.603  1.00  0.00     0.010 A 
ATOM     33  C   UNL A   1      37.245  30.610  29.133  1.00  0.00    -0.014 A 
BRANCH  33  34
ATOM     34  C   UNL A   1      38.486  30.338  29.886  1.00  0.00     0.031 A 
ATOM     35  C   UNL A   1      39.510  29.422  29.291  1.00  0.00     0.074 A 
ATOM     36  C   UNL A   1      38.668  30.881  31.102  1.00  0.00     0.049 A 
ATOM     37  N   UNL A   1      40.529  28.836  29.862  1.00  0.00    -0.248 NA
ATOM     38  C   UNL A   1      39.358  29.116  27.860  1.00  0.00     0.031 C 
ATOM     39  C   UNL A   1      37.775  31.849  31.739  1.00  0.00     0.029 A 
ATOM     40  N   UNL A   1      39.657  30.676  32.029  1.00  0.00    -0.354 N 
ATOM     41  C   UNL A   1      41.109  28.052  28.875  1.00  0.00     0.074 A 
ATOM     42  C   UNL A   1      40.335  28.241  27.667  1.00  0.00     0.031 C 
ATOM     43  C   UNL A   1      38.245  32.139  32.963  1.00  0.00     0.029 A 
ATOM     44  C   UNL A   1      39.427  31.322  33.218  1.00  0.00     0.049 A 
ATOM     45  H   UNL A   1      40.451  30.120  31.860  1.00  0.00     0.167 HD
ATOM     46  C   UNL A   1      42.186  27.240  28.984  1.00  0.00     0.037 A 
ATOM     47  C   UNL A   1      40.065  31.217  34.398  1.00  0.00     0.037 A 
ATOM     48  C   UNL A   1      42.955  27.091  30.191  1.00  0.00     0.049 A 
ATOM     49  C   UNL A   1      41.223  30.264  34.513  1.00  0.00     0.074 A 
ATOM     50  C   UNL A   1      44.066  26.300  30.417  1.00  0.00     0.029 A 
ATOM     51  N   UNL A   1      42.691  27.765  31.376  1.00  0.00    -0.354 N 
ATOM     52  N   UNL A   1      41.742  29.483  33.597  1.00  0.00    -0.248 NA
ATOM     53  C   UNL A   1      41.872  30.164  35.826  1.00  0.00     0.031 C 
ATOM     54  C   UNL A   1      44.453  26.467  31.751  1.00  0.00     0.029 A 
ATOM     55  C   UNL A   1      43.611  27.396  32.342  1.00  0.00     0.049 A 
ATOM     56  H   UNL A   1      41.959  28.408  31.510  1.00  0.00     0.167 HD
ATOM     57  C   UNL A   1      42.794  28.819  34.211  1.00  0.00     0.074 A 
ATOM     58  C   UNL A   1      42.840  29.291  35.580  1.00  0.00     0.031 C 
ATOM     59  C   UNL A   1      43.646  27.903  33.689  1.00  0.00     0.037 A 
BRANCH  46  60
ATOM     60  C   UNL A   1      42.563  26.420  27.787  1.00  0.00     0.064 A 
ATOM     61  C   UNL A   1      43.515  26.860  26.858  1.00  0.00     0.173 A 
ATOM     62  C   UNL A   1      41.976  25.162  27.582  1.00  0.00     0.173 A 
ATOM     63  F   UNL A   1      44.093  28.063  26.999  1.00  0.00    -0.203 F 
ATOM     64  C   UNL A   1      43.853  26.079  25.755  1.00  0.00     0.198 A 
ATOM     65  C   UNL A   1      42.334  24.373  26.493  1.00  0.00     0.198 A 
ATOM     66  F   UNL A   1      41.059  24.696  28.442  1.00  0.00    -0.203 F 
ATOM     67  F   UNL A   1      44.735  26.536  24.855  1.00  0.00    -0.200 F 
ATOM     68  C   UNL A   1      43.267  24.834  25.577  1.00  0.00     0.200 A 
ATOM     69  F   UNL A   1      41.773  23.167  26.329  1.00  0.00    -0.200 F 
ATOM     70  F   UNL A   1      43.596  24.081  24.518  1.00  0.00    -0.200 F 
ENDBRANCH  46  60
BRANCH  47  71
ATOM     71  C   UNL A   1      39.590  32.001  35.567  1.00  0.00     0.064 A 
ATOM     72  C   UNL A   1      38.588  31.503  36.409  1.00  0.00     0.173 A 
ATOM     73  C   UNL A   1      40.139  33.255  35.874  1.00  0.00     0.173 A 
ATOM     74  F   UNL A   1      38.018  30.319  36.143  1.00  0.00    -0.203 F 
ATOM     75  C   UNL A   1      38.148  32.233  37.512  1.00  0.00     0.198 A 
ATOM     76  C   UNL A   1      39.717  33.972  36.992  1.00  0.00     0.198 A 
ATOM     77  F   UNL A   1      41.101  33.777  35.098  1.00  0.00    -0.203 F 
ATOM     78  F   UNL A   1      37.164  31.749  38.282  1.00  0.00    -0.200 F 
ATOM     79  C   UNL A   1      38.717  33.463  37.807  1.00  0.00     0.200 A 
ATOM     80  F   UNL A   1      40.280  35.153  37.280  1.00  0.00    -0.200 F 
ATOM     81  F   UNL A   1      38.299  34.159  38.873  1.00  0.00    -0.200 F 
ENDBRANCH  47  71
BRANCH  59  82
ATOM     82  C   UNL A   1      44.734  27.393  34.583  1.00  0.00     0.064 A 
ATOM     83  C   UNL A   1      44.574  26.226  35.343  1.00  0.00     0.173 A 
ATOM     84  C   UNL A   1      45.978  28.042  34.617  1.00  0.00     0.173 A 
ATOM     85  F   UNL A   1      43.397  25.582  35.352  1.00  0.00    -0.203 F 
ATOM     86  C   UNL A   1      45.622  25.731  36.114  1.00  0.00     0.198 A 
ATOM     87  C   UNL A   1      47.029  27.531  35.370  1.00  0.00     0.198 A 
ATOM     88  F   UNL A   1      46.177  29.158  33.901  1.00  0.00    -0.203 F 
ATOM     89  F   UNL A   1      45.443  24.628  36.854  1.00  0.00    -0.200 F 
ATOM     90  C   UNL A   1      46.850  26.377  36.119  1.00  0.00     0.200 A 
ATOM     91  F   UNL A   1      48.218  28.149  35.365  1.00  0.00    -0.200 F 
ATOM     92  F   UNL A   1      47.861  25.889  36.851  1.00  0.00    -0.200 F 
ENDBRANCH  59  82
ENDBRANCH  33  34
ENDBRANCH  26  28
ENDBRANCH  25  26
ENDBRANCH  24  25
ENDBRANCH   1  24
TORSDOF 14
ENDMDL
MODEL 3
REMARK VINA RESULT:     -12.4      0.247      1.611
REMARK SMILES C[C@H]1[C@H](C(=O)OCCOC(=O)c2ccc(-c3c4nc(c(-c5c(F)c(F)c(F)c(F)c5F)c5ccc([nH]5)c(-c5c(F)c(F)c(F)c(F)c5F)c5nc(c(-c6c(F)c(F)c(F)c(F)c6F)c6ccc3[nH]6)C=C5)C=C4)cc2)CC[N@@H+]1[C@@H](c1ccccc1)c1ccco1
REMARK SMILES IDX 7 1 6 2 4 3 5 4 3 5 1 6 2 7 77 8 75 9 76 10 78 12 79 13
REMARK SMILES IDX 80 14 84 15 81 16 83 17 82 18 85 19 86 20 89 21 87 22 88 23
REMARK SMILES IDX 8 24 9 25 10 26 11 27 12 28 13 29 74 30 14 31 73 32 15 33
REMARK SMILES IDX 16 34 17 35 67 36 18 37 72 38 66 39 68 40 19 41 71 42 65 43
REMARK SMILES IDX 64 44 20 46 52 47 32 48 51 49 33 50 36 51 50 52 69 53 34 54
REMARK SMILES IDX 35 55 49 57 70 58 37 59 21 60 22 61 30 62 23 63 24 64 28 65
REMARK SMILES IDX 31 66 25 67 26 68 29 69 27 70 53 71 54 72 62 73 55 74 56 75
REMARK SMILES IDX 60 76 63 77 57 78 58 79 61 80 59 81 38 82 39 83 47 84 40 85
REMARK SMILES IDX 41 86 45 87 48 88 42 89 43 90 46 91 44 92
REMARK H PARENT 77 11 68 45 36 56
REMARK Flexibility Score: inf
ROOT
ATOM      1  C   UNL A   1      31.576  28.689  24.719  1.00  0.00     0.274 C 
ENDROOT
BRANCH   1   2
ATOM      2  O   UNL A   1      31.459  27.578  25.629  1.00  0.00    -0.462 OA
BRANCH   2   3
ATOM      3  C   UNL A   1      32.266  26.512  25.423  1.00  0.00     0.315 C 
ATOM      4  O   UNL A   1      33.231  26.226  26.126  1.00  0.00    -0.252 OA
BRANCH   3   5
ATOM      5  C   UNL A   1      31.843  25.632  24.260  1.00  0.00     0.162 C 
ATOM      6  C   UNL A   1      33.054  25.066  22.122  1.00  0.00     0.076 C 
ATOM      7  C   UNL A   1      32.913  24.741  23.618  1.00  0.00     0.196 C 
ATOM      8  N   UNL A   1      32.421  23.360  23.724  1.00  0.00    -0.319 N 
ATOM      9  C   UNL A   1      30.705  24.714  24.678  1.00  0.00     0.083 C 
ATOM     10  C   UNL A   1      30.986  23.402  23.979  1.00  0.00     0.264 C 
ATOM     11  H   UNL A   1      32.550  22.880  22.832  1.00  0.00     0.349 HD
BRANCH   8  12
ATOM     12  C   UNL A   1      33.238  22.468  24.580  1.00  0.00     0.283 C 
BRANCH  12  13
ATOM     13  C   UNL A   1      32.969  20.964  24.458  1.00  0.00     0.017 A 
ATOM     14  C   UNL A   1      32.528  20.436  23.230  1.00  0.00     0.010 A 
ATOM     15  C   UNL A   1      33.130  20.074  25.532  1.00  0.00     0.010 A 
ATOM     16  C   UNL A   1      32.277  19.069  23.080  1.00  0.00     0.001 A 
ATOM     17  C   UNL A   1      32.904  18.705  25.376  1.00  0.00     0.001 A 
ATOM     18  C   UNL A   1      32.475  18.203  24.151  1.00  0.00     0.000 A 
ENDBRANCH  12  13
BRANCH  12  19
ATOM     19  C   UNL A   1      34.697  22.864  24.524  1.00  0.00     0.165 A 
ATOM     20  C   UNL A   1      35.661  22.693  23.547  1.00  0.00     0.052 A 
ATOM     21  O   UNL A   1      35.254  23.483  25.607  1.00  0.00    -0.463 OA
ATOM     22  C   UNL A   1      36.863  23.230  24.064  1.00  0.00     0.042 A 
ATOM     23  C   UNL A   1      36.561  23.701  25.318  1.00  0.00     0.195 A 
ENDBRANCH  12  19
ENDBRANCH   8  12
ENDBRANCH   3   5
ENDBRANCH   2   3
ENDBRANCH   1   2
BRANCH   1  24
ATOM     24  C   UNL A   1      31.767  29.987  25.503  1.00  0.00     0.275 C 
BRANCH  24  25
ATOM     25  O   UNL A   1      33.128  30.107  25.954  1.00  0.00    -0.458 OA
BRANCH  25  26
ATOM     26  C   UNL A   1      33.336  31.073  26.877  1.00  0.00     0.338 C 
ATOM     27  O   UNL A   1      32.566  31.939  27.251  1.00  0.00    -0.246 OA
BRANCH  26  28
ATOM     28  C   UNL A   1      34.646  30.850  27.495  1.00  0.00     0.060 A 
ATOM     29  C   UNL A   1      34.959  29.563  27.937  1.00  0.00     0.016 A 
ATOM     30  C   UNL A   1      35.520  31.911  27.708  1.00  0.00     0.016 A 
ATOM     31  C   UNL A   1      36.136  29.328  28.633  1.00  0.00     0.010 A 
ATOM     32  C   UNL A   1      36.720  31.670  28.376  1.00  0.00     0.010 A 
ATOM     33  C   UNL A   1      37.025  30.381  28.855  1.00  0.00    -0.014 A 
BRANCH  33  34
ATOM     34  C   UNL A   1      38.265  30.161  29.627  1.00  0.00     0.031 A 
ATOM     35  C   UNL A   1      39.323  29.266  29.062  1.00  0.00     0.074 A 
ATOM     36  C   UNL A   1      38.417  30.735  30.833  1.00  0.00     0.049 A 
ATOM     37  N   UNL A   1      40.353  28.723  29.655  1.00  0.00    -0.248 NA
ATOM     38  C   UNL A   1      39.197  28.927  27.635  1.00  0.00     0.031 C 
ATOM     39  C   UNL A   1      37.487  31.686  31.441  1.00  0.00     0.029 A 
ATOM     40  N   UNL A   1      39.400  30.578  31.775  1.00  0.00    -0.354 N 
ATOM     41  C   UNL A   1      40.967  27.937  28.691  1.00  0.00     0.074 A 
ATOM     42  C   UNL A   1      40.202  28.079  27.471  1.00  0.00     0.031 C 
ATOM     43  C   UNL A   1      37.934  32.015  32.664  1.00  0.00     0.029 A 
ATOM     44  C   UNL A   1      39.137  31.240  32.949  1.00  0.00     0.049 A 
ATOM     45  H   UNL A   1      40.213  30.043  31.626  1.00  0.00     0.167 HD
ATOM     46  C   UNL A   1      42.067  27.160  28.828  1.00  0.00     0.037 A 
ATOM     47  C   UNL A   1      39.764  31.177  34.138  1.00  0.00     0.037 A 
ATOM     48  C   UNL A   1      42.826  27.060  30.046  1.00  0.00     0.049 A 
ATOM     49  C   UNL A   1      40.950  30.263  34.284  1.00  0.00     0.074 A 
ATOM     50  C   UNL A   1      43.958  26.307  30.300  1.00  0.00     0.029 A 
ATOM     51  N   UNL A   1      42.529  27.748  31.214  1.00  0.00    -0.354 N 
ATOM     52  N   UNL A   1      41.503  29.480  33.390  1.00  0.00    -0.248 NA
ATOM     53  C   UNL A   1      41.586  30.208  35.606  1.00  0.00     0.031 C 
ATOM     54  C   UNL A   1      44.325  26.512  31.634  1.00  0.00     0.029 A 
ATOM     55  C   UNL A   1      43.449  27.427  32.197  1.00  0.00     0.049 A 
ATOM     56  H   UNL A   1      41.776  28.371  31.327  1.00  0.00     0.167 HD
ATOM     57  C   UNL A   1      42.567  28.861  34.029  1.00  0.00     0.074 A 
ATOM     58  C   UNL A   1      42.583  29.361  35.388  1.00  0.00     0.031 C 
ATOM     59  C   UNL A   1      43.452  27.961  33.535  1.00  0.00     0.037 A 
BRANCH  46  60
ATOM     60  C   UNL A   1      42.482  26.330  27.652  1.00  0.00     0.064 A 
ATOM     61  C   UNL A   1      43.455  26.766  26.742  1.00  0.00     0.173 A 
ATOM     62  C   UNL A   1      41.913  25.064  27.448  1.00  0.00     0.173 A 
ATOM     63  F   UNL A   1      44.018  27.976  26.883  1.00  0.00    -0.203 F 
ATOM     64  C   UNL A   1      43.829  25.974  25.658  1.00  0.00     0.198 A 
ATOM     65  C   UNL A   1      42.306  24.264  26.379  1.00  0.00     0.198 A 
ATOM     66  F   UNL A   1      40.977  24.600  28.289  1.00  0.00    -0.203 F 
ATOM     67  F   UNL A   1      44.730  26.428  24.776  1.00  0.00    -0.200 F 
ATOM     68  C   UNL A   1      43.258  24.722  25.482  1.00  0.00     0.200 A 
ATOM     69  F   UNL A   1      41.759  23.051  26.215  1.00  0.00    -0.200 F 
ATOM     70  F   UNL A   1      43.622  23.958  24.441  1.00  0.00    -0.200 F 
ENDBRANCH  46  60
BRANCH  47  71
ATOM     71  C   UNL A   1      39.253  31.970  35.285  1.00  0.00     0.064 A 
ATOM     72  C   UNL A   1      39.539  33.336  35.400  1.00  0.00     0.173 A 
ATOM     73  C   UNL A   1      38.454  31.383  36.278  1.00  0.00     0.173 A 
ATOM     74  F   UNL A   1      40.317  33.936  34.487  1.00  0.00    -0.203 F 
ATOM     75  C   UNL A   1      39.052  34.085  36.470  1.00  0.00     0.198 A 
ATOM     76  C   UNL A   1      37.946  32.138  37.333  1.00  0.00     0.198 A 
ATOM     77  F   UNL A   1      38.152  30.078  36.214  1.00  0.00    -0.203 F 
ATOM     78  F   UNL A   1      39.369  35.382  36.576  1.00  0.00    -0.200 F 
ATOM     79  C   UNL A   1      38.250  33.488  37.431  1.00  0.00     0.200 A 
ATOM     80  F   UNL A   1      37.160  31.559  38.251  1.00  0.00    -0.200 F 
ATOM     81  F   UNL A   1      37.775  34.211  38.454  1.00  0.00    -0.200 F 
ENDBRANCH  47  71
BRANCH  59  82
ATOM     82  C   UNL A   1      44.545  27.502  34.450  1.00  0.00     0.064 A 
ATOM     83  C   UNL A   1      45.741  28.221  34.584  1.00  0.00     0.173 A 
ATOM     84  C   UNL A   1      44.356  26.370  35.258  1.00  0.00     0.173 A 
ATOM     85  F   UNL A   1      45.970  29.300  33.821  1.00  0.00    -0.203 F 
ATOM     86  C   UNL A   1      46.716  27.815  35.491  1.00  0.00     0.198 A 
ATOM     87  C   UNL A   1      45.323  25.982  36.179  1.00  0.00     0.198 A 
ATOM     88  F   UNL A   1      43.225  25.657  35.167  1.00  0.00    -0.203 F 
ATOM     89  F   UNL A   1      47.864  28.499  35.587  1.00  0.00    -0.200 F 
ATOM     90  C   UNL A   1      46.502  26.703  36.294  1.00  0.00     0.200 A 
ATOM     91  F   UNL A   1      45.110  24.916  36.962  1.00  0.00    -0.200 F 
ATOM     92  F   UNL A   1      47.436  26.325  37.177  1.00  0.00    -0.200 F 
ENDBRANCH  59  82
ENDBRANCH  33  34
ENDBRANCH  26  28
ENDBRANCH  25  26
ENDBRANCH  24  25
ENDBRANCH   1  24
TORSDOF 14
ENDMDL
