MODEL 1
REMARK VINA RESULT:     -11.0      0.000      0.000
REMARK SMILES [NH3+][C@H]1COC[C@@H]1C(=O)NC1(CC(=O)OCCOC(=O)c2ccc(-c3c4nc(c(-c5c(F)c(F)c(F)c(F)c5F)c5ccc([nH]5)c(-c5c(F)c(F)c(F)c(F)c5F)c5nc(c(-c6c(F)c(F)c(F)c(F)c6F)c6ccc3[nH]6)C=C5)C=C4)cc2)CCC1
REMARK SMILES IDX 15 1 14 2 12 3 13 4 11 5 10 6 83 7 85 8 84 9 9 10 7 11 8 12
REMARK SMILES IDX 6 14 2 15 3 16 4 17 5 18 1 19 16 23 17 24 18 25 19 26 20 27
REMARK SMILES IDX 21 28 82 29 22 30 81 31 23 32 24 33 25 34 75 35 26 36 80 37
REMARK SMILES IDX 74 38 76 39 27 40 79 41 73 42 72 43 28 45 60 46 40 47 59 48
REMARK SMILES IDX 41 49 44 50 58 51 77 52 42 53 43 54 57 56 78 57 45 58 29 59
REMARK SMILES IDX 30 60 38 61 31 62 32 63 36 64 39 65 33 66 34 67 37 68 35 69
REMARK SMILES IDX 61 70 62 71 70 72 63 73 64 74 68 75 71 76 65 77 66 78 69 79
REMARK SMILES IDX 67 80 46 81 47 82 55 83 48 84 49 85 53 86 56 87 50 88 51 89
REMARK SMILES IDX 54 90 52 91
REMARK H PARENT 9 13 1 20 1 21 1 22 76 44 44 55
REMARK Flexibility Score: inf
ROOT
ATOM      1  C   UNL A   1      31.537  29.122  24.247  1.00  0.00     0.274 C 
ENDROOT
BRANCH   1   2
ATOM      2  O   UNL A   1      32.669  29.213  23.353  1.00  0.00    -0.462 OA
BRANCH   2   3
ATOM      3  C   UNL A   1      33.142  28.039  22.871  1.00  0.00     0.308 C 
ATOM      4  O   UNL A   1      33.994  27.945  21.992  1.00  0.00    -0.252 OA
BRANCH   3   5
ATOM      5  C   UNL A   1      32.471  26.817  23.444  1.00  0.00     0.151 C 
BRANCH   5   6
ATOM      6  C   UNL A   1      33.249  25.859  24.370  1.00  0.00     0.050 C 
ATOM      7  C   UNL A   1      32.279  25.235  25.423  1.00  0.00     0.029 C 
ATOM      8  C   UNL A   1      33.982  26.495  25.597  1.00  0.00     0.029 C 
ATOM      9  C   UNL A   1      32.662  26.378  26.381  1.00  0.00     0.005 C 
BRANCH   6  10
ATOM     10  N   UNL A   1      34.152  24.985  23.574  1.00  0.00    -0.350 N 
ATOM     11  C   UNL A   1      34.667  23.721  23.672  1.00  0.00     0.232 C 
ATOM     12  O   UNL A   1      35.363  23.318  22.734  1.00  0.00    -0.274 OA
ATOM     13  H   UNL A   1      34.462  25.438  22.756  1.00  0.00     0.164 HD
BRANCH  11  14
ATOM     14  C   UNL A   1      34.441  22.848  24.886  1.00  0.00     0.164 C 
ATOM     15  C   UNL A   1      35.415  23.171  26.013  1.00  0.00     0.221 C 
ATOM     16  C   UNL A   1      36.619  22.295  25.660  1.00  0.00     0.225 C 
ATOM     17  O   UNL A   1      36.141  21.171  24.905  1.00  0.00    -0.374 OA
ATOM     18  C   UNL A   1      34.761  21.400  24.575  1.00  0.00     0.180 C 
BRANCH  15  19
ATOM     19  N   UNL A   1      34.826  22.788  27.315  1.00  0.00    -0.352 N 
ATOM     20  H   UNL A   1      35.362  22.019  27.717  1.00  0.00     0.344 HD
ATOM     21  H   UNL A   1      33.859  22.494  27.177  1.00  0.00     0.344 HD
ATOM     22  H   UNL A   1      34.852  23.588  27.947  1.00  0.00     0.344 HD
ENDBRANCH  15  19
ENDBRANCH  11  14
ENDBRANCH   6  10
ENDBRANCH   5   6
ENDBRANCH   3   5
ENDBRANCH   2   3
ENDBRANCH   1   2
BRANCH   1  23
ATOM     23  C   UNL A   1      31.725  29.935  25.531  1.00  0.00     0.275 C 
BRANCH  23  24
ATOM     24  O   UNL A   1      33.115  30.134  25.854  1.00  0.00    -0.458 OA
BRANCH  24  25
ATOM     25  C   UNL A   1      33.324  31.064  26.813  1.00  0.00     0.338 C 
ATOM     26  O   UNL A   1      32.530  31.913  27.182  1.00  0.00    -0.246 OA
BRANCH  25  27
ATOM     27  C   UNL A   1      34.603  30.814  27.493  1.00  0.00     0.060 A 
ATOM     28  C   UNL A   1      34.869  29.518  27.945  1.00  0.00     0.016 A 
ATOM     29  C   UNL A   1      35.488  31.855  27.765  1.00  0.00     0.016 A 
ATOM     30  C   UNL A   1      36.024  29.253  28.674  1.00  0.00     0.010 A 
ATOM     31  C   UNL A   1      36.654  31.588  28.490  1.00  0.00     0.010 A 
ATOM     32  C   UNL A   1      36.924  30.287  28.952  1.00  0.00    -0.014 A 
BRANCH  32  33
ATOM     33  C   UNL A   1      38.140  30.005  29.749  1.00  0.00     0.031 A 
ATOM     34  C   UNL A   1      39.207  29.108  29.198  1.00  0.00     0.074 A 
ATOM     35  C   UNL A   1      38.284  30.566  30.963  1.00  0.00     0.049 A 
ATOM     36  N   UNL A   1      40.288  28.655  29.780  1.00  0.00    -0.248 NA
ATOM     37  C   UNL A   1      39.035  28.660  27.809  1.00  0.00     0.031 C 
ATOM     38  C   UNL A   1      37.337  31.494  31.579  1.00  0.00     0.029 A 
ATOM     39  N   UNL A   1      39.283  30.434  31.894  1.00  0.00    -0.354 N 
ATOM     40  C   UNL A   1      40.912  27.849  28.840  1.00  0.00     0.074 A 
ATOM     41  C   UNL A   1      40.085  27.868  27.650  1.00  0.00     0.031 C 
ATOM     42  C   UNL A   1      37.799  31.849  32.790  1.00  0.00     0.029 A 
ATOM     43  C   UNL A   1      39.049  31.138  33.048  1.00  0.00     0.049 A 
ATOM     44  H   UNL A   1      40.089  29.888  31.747  1.00  0.00     0.167 HD
ATOM     45  C   UNL A   1      42.070  27.158  28.962  1.00  0.00     0.037 A 
ATOM     46  C   UNL A   1      39.749  31.180  34.196  1.00  0.00     0.037 A 
ATOM     47  C   UNL A   1      42.902  27.164  30.138  1.00  0.00     0.049 A 
ATOM     48  C   UNL A   1      41.007  30.367  34.322  1.00  0.00     0.074 A 
ATOM     49  C   UNL A   1      44.103  26.509  30.350  1.00  0.00     0.029 A 
ATOM     50  N   UNL A   1      42.618  27.866  31.300  1.00  0.00    -0.354 N 
ATOM     51  N   UNL A   1      41.580  29.589  33.438  1.00  0.00    -0.248 NA
ATOM     52  C   UNL A   1      41.710  30.431  35.613  1.00  0.00     0.031 C 
ATOM     53  C   UNL A   1      44.530  26.789  31.654  1.00  0.00     0.029 A 
ATOM     54  C   UNL A   1      43.613  27.646  32.241  1.00  0.00     0.049 A 
ATOM     55  H   UNL A   1      41.828  28.436  31.437  1.00  0.00     0.167 HD
ATOM     56  C   UNL A   1      42.715  29.081  34.054  1.00  0.00     0.074 A 
ATOM     57  C   UNL A   1      42.758  29.650  35.385  1.00  0.00     0.031 C 
ATOM     58  C   UNL A   1      43.638  28.220  33.561  1.00  0.00     0.037 A 
BRANCH  45  59
ATOM     59  C   UNL A   1      42.492  26.309  27.802  1.00  0.00     0.064 A 
ATOM     60  C   UNL A   1      41.976  25.021  27.604  1.00  0.00     0.173 A 
ATOM     61  C   UNL A   1      43.402  26.807  26.856  1.00  0.00     0.173 A 
ATOM     62  F   UNL A   1      41.114  24.496  28.487  1.00  0.00    -0.203 F 
ATOM     63  C   UNL A   1      42.374  24.252  26.513  1.00  0.00     0.198 A 
ATOM     64  C   UNL A   1      43.779  26.045  25.755  1.00  0.00     0.198 A 
ATOM     65  F   UNL A   1      43.921  28.037  26.999  1.00  0.00    -0.203 F 
ATOM     66  F   UNL A   1      41.898  23.008  26.362  1.00  0.00    -0.200 F 
ATOM     67  C   UNL A   1      43.269  24.767  25.587  1.00  0.00     0.200 A 
ATOM     68  F   UNL A   1      44.639  26.547  24.857  1.00  0.00    -0.200 F 
ATOM     69  F   UNL A   1      43.647  24.027  24.534  1.00  0.00    -0.200 F 
ENDBRANCH  45  59
BRANCH  46  70
ATOM     70  C   UNL A   1      39.260  32.008  35.325  1.00  0.00     0.064 A 
ATOM     71  C   UNL A   1      38.451  31.456  36.327  1.00  0.00     0.173 A 
ATOM     72  C   UNL A   1      39.598  33.366  35.429  1.00  0.00     0.173 A 
ATOM     73  F   UNL A   1      38.081  30.169  36.254  1.00  0.00    -0.203 F 
ATOM     74  C   UNL A   1      37.994  32.233  37.389  1.00  0.00     0.198 A 
ATOM     75  C   UNL A   1      39.159  34.135  36.503  1.00  0.00     0.198 A 
ATOM     76  F   UNL A   1      40.366  33.940  34.492  1.00  0.00    -0.203 F 
ATOM     77  F   UNL A   1      37.195  31.690  38.318  1.00  0.00    -0.200 F 
ATOM     78  C   UNL A   1      38.354  33.569  37.480  1.00  0.00     0.200 A 
ATOM     79  F   UNL A   1      39.516  35.424  36.592  1.00  0.00    -0.200 F 
ATOM     80  F   UNL A   1      37.919  34.315  38.505  1.00  0.00    -0.200 F 
ENDBRANCH  46  70
BRANCH  58  81
ATOM     81  C   UNL A   1      44.781  27.857  34.460  1.00  0.00     0.064 A 
ATOM     82  C   UNL A   1      45.953  28.624  34.496  1.00  0.00     0.173 A 
ATOM     83  C   UNL A   1      44.688  26.751  35.316  1.00  0.00     0.173 A 
ATOM     84  F   UNL A   1      46.094  29.681  33.683  1.00  0.00    -0.203 F 
ATOM     85  C   UNL A   1      47.003  28.285  35.347  1.00  0.00     0.198 A 
ATOM     86  C   UNL A   1      45.729  26.427  36.181  1.00  0.00     0.198 A 
ATOM     87  F   UNL A   1      43.585  25.988  35.320  1.00  0.00    -0.203 F 
ATOM     88  F   UNL A   1      48.130  29.010  35.339  1.00  0.00    -0.200 F 
ATOM     89  C   UNL A   1      46.887  27.191  36.192  1.00  0.00     0.200 A 
ATOM     90  F   UNL A   1      45.615  25.374  37.002  1.00  0.00    -0.200 F 
ATOM     91  F   UNL A   1      47.897  26.868  37.011  1.00  0.00    -0.200 F 
ENDBRANCH  58  81
ENDBRANCH  32  33
ENDBRANCH  25  27
ENDBRANCH  24  25
ENDBRANCH  23  24
ENDBRANCH   1  23
TORSDOF 15
ENDMDL
MODEL 2
REMARK VINA RESULT:     -10.8      2.182      4.126
REMARK SMILES [NH3+][C@H]1COC[C@@H]1C(=O)NC1(CC(=O)OCCOC(=O)c2ccc(-c3c4nc(c(-c5c(F)c(F)c(F)c(F)c5F)c5ccc([nH]5)c(-c5c(F)c(F)c(F)c(F)c5F)c5nc(c(-c6c(F)c(F)c(F)c(F)c6F)c6ccc3[nH]6)C=C5)C=C4)cc2)CCC1
REMARK SMILES IDX 15 1 14 2 12 3 13 4 11 5 10 6 83 7 85 8 84 9 9 10 7 11 8 12
REMARK SMILES IDX 6 14 2 15 3 16 4 17 5 18 1 19 16 23 17 24 18 25 19 26 20 27
REMARK SMILES IDX 21 28 82 29 22 30 81 31 23 32 24 33 25 34 75 35 26 36 80 37
REMARK SMILES IDX 74 38 76 39 27 40 79 41 73 42 72 43 28 45 60 46 40 47 59 48
REMARK SMILES IDX 41 49 44 50 58 51 77 52 42 53 43 54 57 56 78 57 45 58 29 59
REMARK SMILES IDX 30 60 38 61 31 62 32 63 36 64 39 65 33 66 34 67 37 68 35 69
REMARK SMILES IDX 61 70 62 71 70 72 63 73 64 74 68 75 71 76 65 77 66 78 69 79
REMARK SMILES IDX 67 80 46 81 47 82 55 83 48 84 49 85 53 86 56 87 50 88 51 89
REMARK SMILES IDX 54 90 52 91
REMARK H PARENT 9 13 1 20 1 21 1 22 76 44 44 55
REMARK Flexibility Score: inf
ROOT
ATOM      1  C   UNL A   1      31.994  28.032  27.238  1.00  0.00     0.274 C 
ENDROOT
BRANCH   1   2
ATOM      2  O   UNL A   1      30.760  27.373  26.879  1.00  0.00    -0.462 OA
BRANCH   2   3
ATOM      3  C   UNL A   1      30.818  26.541  25.811  1.00  0.00     0.308 C 
ATOM      4  O   UNL A   1      31.349  25.434  25.824  1.00  0.00    -0.252 OA
BRANCH   3   5
ATOM      5  C   UNL A   1      30.243  27.120  24.543  1.00  0.00     0.151 C 
BRANCH   5   6
ATOM      6  C   UNL A   1      31.078  28.085  23.675  1.00  0.00     0.050 C 
ATOM      7  C   UNL A   1      30.875  27.748  22.164  1.00  0.00     0.029 C 
ATOM      8  C   UNL A   1      32.577  27.709  23.437  1.00  0.00     0.029 C 
ATOM      9  C   UNL A   1      32.119  26.844  22.250  1.00  0.00     0.005 C 
BRANCH   6  10
ATOM     10  N   UNL A   1      30.924  29.483  24.158  1.00  0.00    -0.350 N 
ATOM     11  C   UNL A   1      29.975  30.468  24.092  1.00  0.00     0.232 C 
ATOM     12  O   UNL A   1      30.207  31.519  24.698  1.00  0.00    -0.274 OA
ATOM     13  H   UNL A   1      31.717  29.780  24.661  1.00  0.00     0.164 HD
BRANCH  11  14
ATOM     14  C   UNL A   1      28.706  30.314  23.284  1.00  0.00     0.164 C 
ATOM     15  C   UNL A   1      28.880  30.792  21.847  1.00  0.00     0.221 C 
ATOM     16  C   UNL A   1      28.575  32.288  21.965  1.00  0.00     0.225 C 
ATOM     17  O   UNL A   1      27.701  32.471  23.089  1.00  0.00    -0.374 OA
ATOM     18  C   UNL A   1      27.620  31.231  23.809  1.00  0.00     0.180 C 
BRANCH  15  19
ATOM     19  N   UNL A   1      27.911  30.106  20.965  1.00  0.00    -0.352 N 
ATOM     20  H   UNL A   1      28.123  29.109  20.939  1.00  0.00     0.344 HD
ATOM     21  H   UNL A   1      27.977  30.493  20.023  1.00  0.00     0.344 HD
ATOM     22  H   UNL A   1      26.967  30.244  21.325  1.00  0.00     0.344 HD
ENDBRANCH  15  19
ENDBRANCH  11  14
ENDBRANCH   6  10
ENDBRANCH   5   6
ENDBRANCH   3   5
ENDBRANCH   2   3
ENDBRANCH   1   2
BRANCH   1  23
ATOM     23  C   UNL A   1      31.877  29.560  27.236  1.00  0.00     0.275 C 
BRANCH  23  24
ATOM     24  O   UNL A   1      32.950  30.189  26.510  1.00  0.00    -0.458 OA
BRANCH  24  25
ATOM     25  C   UNL A   1      33.424  31.310  27.101  1.00  0.00     0.338 C 
ATOM     26  O   UNL A   1      32.833  32.369  27.221  1.00  0.00    -0.246 OA
BRANCH  25  27
ATOM     27  C   UNL A   1      34.715  31.034  27.749  1.00  0.00     0.060 A 
ATOM     28  C   UNL A   1      34.937  29.753  28.262  1.00  0.00     0.016 A 
ATOM     29  C   UNL A   1      35.657  32.044  27.932  1.00  0.00     0.016 A 
ATOM     30  C   UNL A   1      36.105  29.471  28.963  1.00  0.00     0.010 A 
ATOM     31  C   UNL A   1      36.836  31.760  28.630  1.00  0.00     0.010 A 
ATOM     32  C   UNL A   1      37.062  30.473  29.152  1.00  0.00    -0.014 A 
BRANCH  32  33
ATOM     33  C   UNL A   1      38.292  30.175  29.921  1.00  0.00     0.031 A 
ATOM     34  C   UNL A   1      39.348  29.287  29.334  1.00  0.00     0.074 A 
ATOM     35  C   UNL A   1      38.462  30.715  31.141  1.00  0.00     0.049 A 
ATOM     36  N   UNL A   1      40.439  28.822  29.887  1.00  0.00    -0.248 NA
ATOM     37  C   UNL A   1      39.148  28.863  27.940  1.00  0.00     0.031 C 
ATOM     38  C   UNL A   1      37.528  31.633  31.792  1.00  0.00     0.029 A 
ATOM     39  N   UNL A   1      39.477  30.565  32.050  1.00  0.00    -0.354 N 
ATOM     40  C   UNL A   1      41.043  28.031  28.921  1.00  0.00     0.074 A 
ATOM     41  C   UNL A   1      40.193  28.072  27.748  1.00  0.00     0.031 C 
ATOM     42  C   UNL A   1      38.014  31.966  32.999  1.00  0.00     0.029 A 
ATOM     43  C   UNL A   1      39.267  31.249  33.220  1.00  0.00     0.049 A 
ATOM     44  H   UNL A   1      40.279  30.021  31.878  1.00  0.00     0.167 HD
ATOM     45  C   UNL A   1      42.202  27.337  29.008  1.00  0.00     0.037 A 
ATOM     46  C   UNL A   1      39.990  31.270  34.356  1.00  0.00     0.037 A 
ATOM     47  C   UNL A   1      43.056  27.321  30.168  1.00  0.00     0.049 A 
ATOM     48  C   UNL A   1      41.248  30.453  34.443  1.00  0.00     0.074 A 
ATOM     49  C   UNL A   1      44.260  26.661  30.346  1.00  0.00     0.029 A 
ATOM     50  N   UNL A   1      42.796  28.003  31.347  1.00  0.00    -0.354 N 
ATOM     51  N   UNL A   1      41.803  29.690  33.535  1.00  0.00    -0.248 NA
ATOM     52  C   UNL A   1      41.976  30.493  35.721  1.00  0.00     0.031 C 
ATOM     53  C   UNL A   1      44.712  26.917  31.646  1.00  0.00     0.029 A 
ATOM     54  C   UNL A   1      43.808  27.765  32.265  1.00  0.00     0.049 A 
ATOM     55  H   UNL A   1      42.010  28.571  31.509  1.00  0.00     0.167 HD
ATOM     56  C   UNL A   1      42.948  29.169  34.120  1.00  0.00     0.074 A 
ATOM     57  C   UNL A   1      43.017  29.715  35.460  1.00  0.00     0.031 C 
ATOM     58  C   UNL A   1      43.860  28.316  33.594  1.00  0.00     0.037 A 
BRANCH  45  59
ATOM     59  C   UNL A   1      42.600  26.508  27.825  1.00  0.00     0.064 A 
ATOM     60  C   UNL A   1      43.477  26.993  26.846  1.00  0.00     0.173 A 
ATOM     61  C   UNL A   1      42.119  25.196  27.689  1.00  0.00     0.173 A 
ATOM     62  F   UNL A   1      43.953  28.244  26.925  1.00  0.00    -0.203 F 
ATOM     63  C   UNL A   1      43.842  26.201  25.759  1.00  0.00     0.198 A 
ATOM     64  C   UNL A   1      42.503  24.401  26.613  1.00  0.00     0.198 A 
ATOM     65  F   UNL A   1      41.279  24.685  28.603  1.00  0.00    -0.203 F 
ATOM     66  F   UNL A   1      44.652  26.697  24.813  1.00  0.00    -0.200 F 
ATOM     67  C   UNL A   1      43.360  24.905  25.647  1.00  0.00     0.200 A 
ATOM     68  F   UNL A   1      42.043  23.146  26.511  1.00  0.00    -0.200 F 
ATOM     69  F   UNL A   1      43.716  24.144  24.603  1.00  0.00    -0.200 F 
ENDBRANCH  45  59
BRANCH  46  70
ATOM     70  C   UNL A   1      39.523  32.079  35.508  1.00  0.00     0.064 A 
ATOM     71  C   UNL A   1      38.623  31.551  36.443  1.00  0.00     0.173 A 
ATOM     72  C   UNL A   1      39.976  33.393  35.703  1.00  0.00     0.173 A 
ATOM     73  F   UNL A   1      38.144  30.309  36.282  1.00  0.00    -0.203 F 
ATOM     74  C   UNL A   1      38.188  32.310  37.526  1.00  0.00     0.198 A 
ATOM     75  C   UNL A   1      39.557  34.142  36.799  1.00  0.00     0.198 A 
ATOM     76  F   UNL A   1      40.834  33.943  34.832  1.00  0.00    -0.203 F 
ATOM     77  F   UNL A   1      37.301  31.794  38.390  1.00  0.00    -0.200 F 
ATOM     78  C   UNL A   1      38.660  33.601  37.709  1.00  0.00     0.200 A 
ATOM     79  F   UNL A   1      40.022  35.386  36.976  1.00  0.00    -0.200 F 
ATOM     80  F   UNL A   1      38.245  34.328  38.755  1.00  0.00    -0.200 F 
ENDBRANCH  46  70
BRANCH  58  81
ATOM     81  C   UNL A   1      45.019  27.935  34.465  1.00  0.00     0.064 A 
ATOM     82  C   UNL A   1      44.979  26.792  35.275  1.00  0.00     0.173 A 
ATOM     83  C   UNL A   1      46.191  28.705  34.464  1.00  0.00     0.173 A 
ATOM     84  F   UNL A   1      43.873  26.035  35.321  1.00  0.00    -0.203 F 
ATOM     85  C   UNL A   1      46.069  26.442  36.069  1.00  0.00     0.198 A 
ATOM     86  C   UNL A   1      47.286  28.340  35.242  1.00  0.00     0.198 A 
ATOM     87  F   UNL A   1      46.277  29.806  33.704  1.00  0.00    -0.203 F 
ATOM     88  F   UNL A   1      45.997  25.366  36.864  1.00  0.00    -0.200 F 
ATOM     89  C   UNL A   1      47.222  27.213  36.047  1.00  0.00     0.200 A 
ATOM     90  F   UNL A   1      48.402  29.081  35.216  1.00  0.00    -0.200 F 
ATOM     91  F   UNL A   1      48.270  26.872  36.811  1.00  0.00    -0.200 F 
ENDBRANCH  58  81
ENDBRANCH  32  33
ENDBRANCH  25  27
ENDBRANCH  24  25
ENDBRANCH  23  24
ENDBRANCH   1  23
TORSDOF 15
ENDMDL
MODEL 3
REMARK VINA RESULT:     -10.8      4.412      9.512
REMARK SMILES [NH3+][C@H]1COC[C@@H]1C(=O)NC1(CC(=O)OCCOC(=O)c2ccc(-c3c4nc(c(-c5c(F)c(F)c(F)c(F)c5F)c5ccc([nH]5)c(-c5c(F)c(F)c(F)c(F)c5F)c5nc(c(-c6c(F)c(F)c(F)c(F)c6F)c6ccc3[nH]6)C=C5)C=C4)cc2)CCC1
REMARK SMILES IDX 15 1 14 2 12 3 13 4 11 5 10 6 83 7 85 8 84 9 9 10 7 11 8 12
REMARK SMILES IDX 6 14 2 15 3 16 4 17 5 18 1 19 16 23 17 24 18 25 19 26 20 27
REMARK SMILES IDX 21 28 82 29 22 30 81 31 23 32 24 33 25 34 75 35 26 36 80 37
REMARK SMILES IDX 74 38 76 39 27 40 79 41 73 42 72 43 28 45 60 46 40 47 59 48
REMARK SMILES IDX 41 49 44 50 58 51 77 52 42 53 43 54 57 56 78 57 45 58 29 59
REMARK SMILES IDX 30 60 38 61 31 62 32 63 36 64 39 65 33 66 34 67 37 68 35 69
REMARK SMILES IDX 61 70 62 71 70 72 63 73 64 74 68 75 71 76 65 77 66 78 69 79
REMARK SMILES IDX 67 80 46 81 47 82 55 83 48 84 49 85 53 86 56 87 50 88 51 89
REMARK SMILES IDX 54 90 52 91
REMARK H PARENT 9 13 1 20 1 21 1 22 76 44 44 55
REMARK Flexibility Score: inf
ROOT
ATOM      1  C   UNL A   1      36.521  23.169  23.497  1.00  0.00     0.274 C 
ENDROOT
BRANCH   1   2
ATOM      2  O   UNL A   1      35.354  22.949  22.674  1.00  0.00    -0.462 OA
BRANCH   2   3
ATOM      3  C   UNL A   1      34.199  23.500  23.119  1.00  0.00     0.308 C 
ATOM      4  O   UNL A   1      34.021  24.705  23.271  1.00  0.00    -0.252 OA
BRANCH   3   5
ATOM      5  C   UNL A   1      33.143  22.496  23.506  1.00  0.00     0.151 C 
BRANCH   5   6
ATOM      6  C   UNL A   1      33.220  21.765  24.863  1.00  0.00     0.050 C 
ATOM      7  C   UNL A   1      31.780  21.426  25.364  1.00  0.00     0.029 C 
ATOM      8  C   UNL A   1      33.329  22.655  26.145  1.00  0.00     0.029 C 
ATOM      9  C   UNL A   1      31.793  22.753  26.146  1.00  0.00     0.005 C 
BRANCH   6  10
ATOM     10  N   UNL A   1      34.268  20.710  24.827  1.00  0.00    -0.350 N 
ATOM     11  C   UNL A   1      34.320  19.355  24.647  1.00  0.00     0.232 C 
ATOM     12  O   UNL A   1      35.437  18.828  24.625  1.00  0.00    -0.274 OA
ATOM     13  H   UNL A   1      35.166  21.089  24.970  1.00  0.00     0.164 HD
BRANCH  11  14
ATOM     14  C   UNL A   1      33.073  18.508  24.518  1.00  0.00     0.164 C 
ATOM     15  C   UNL A   1      33.363  17.026  24.723  1.00  0.00     0.221 C 
ATOM     16  C   UNL A   1      33.762  16.577  23.314  1.00  0.00     0.225 C 
ATOM     17  O   UNL A   1      33.123  17.456  22.375  1.00  0.00    -0.374 OA
ATOM     18  C   UNL A   1      32.538  18.548  23.101  1.00  0.00     0.180 C 
BRANCH  15  19
ATOM     19  N   UNL A   1      32.145  16.331  25.191  1.00  0.00    -0.352 N 
ATOM     20  H   UNL A   1      31.777  16.807  26.015  1.00  0.00     0.344 HD
ATOM     21  H   UNL A   1      32.374  15.366  25.429  1.00  0.00     0.344 HD
ATOM     22  H   UNL A   1      31.442  16.341  24.451  1.00  0.00     0.344 HD
ENDBRANCH  15  19
ENDBRANCH  11  14
ENDBRANCH   6  10
ENDBRANCH   5   6
ENDBRANCH   3   5
ENDBRANCH   2   3
ENDBRANCH   1   2
BRANCH   1  23
ATOM     23  C   UNL A   1      37.060  21.880  24.125  1.00  0.00     0.275 C 
BRANCH  23  24
ATOM     24  O   UNL A   1      37.217  21.990  25.552  1.00  0.00    -0.458 OA
BRANCH  24  25
ATOM     25  C   UNL A   1      38.445  21.633  25.994  1.00  0.00     0.338 C 
ATOM     26  O   UNL A   1      38.962  20.535  25.882  1.00  0.00    -0.246 OA
BRANCH  25  27
ATOM     27  C   UNL A   1      39.167  22.813  26.494  1.00  0.00     0.060 A 
ATOM     28  C   UNL A   1      38.690  24.078  26.142  1.00  0.00     0.016 A 
ATOM     29  C   UNL A   1      40.349  22.677  27.220  1.00  0.00     0.016 A 
ATOM     30  C   UNL A   1      39.391  25.220  26.514  1.00  0.00     0.010 A 
ATOM     31  C   UNL A   1      41.051  23.825  27.602  1.00  0.00     0.010 A 
ATOM     32  C   UNL A   1      40.577  25.101  27.246  1.00  0.00    -0.014 A 
BRANCH  32  33
ATOM     33  C   UNL A   1      41.333  26.319  27.618  1.00  0.00     0.031 A 
ATOM     34  C   UNL A   1      40.675  27.392  28.431  1.00  0.00     0.074 A 
ATOM     35  C   UNL A   1      42.616  26.449  27.233  1.00  0.00     0.049 A 
ATOM     36  N   UNL A   1      41.130  28.573  28.765  1.00  0.00    -0.248 NA
ATOM     37  C   UNL A   1      39.324  27.099  28.933  1.00  0.00     0.031 C 
ATOM     38  C   UNL A   1      43.375  25.449  26.484  1.00  0.00     0.029 A 
ATOM     39  N   UNL A   1      43.502  27.479  27.416  1.00  0.00    -0.354 N 
ATOM     40  C   UNL A   1      40.115  29.175  29.494  1.00  0.00     0.074 A 
ATOM     41  C   UNL A   1      39.015  28.233  29.547  1.00  0.00     0.031 C 
ATOM     42  C   UNL A   1      44.617  25.915  26.270  1.00  0.00     0.029 A 
ATOM     43  C   UNL A   1      44.721  27.261  26.827  1.00  0.00     0.049 A 
ATOM     44  H   UNL A   1      43.284  28.295  27.922  1.00  0.00     0.167 HD
ATOM     45  C   UNL A   1      40.105  30.402  30.065  1.00  0.00     0.037 A 
ATOM     46  C   UNL A   1      45.793  28.070  26.722  1.00  0.00     0.037 A 
ATOM     47  C   UNL A   1      41.211  31.325  30.032  1.00  0.00     0.049 A 
ATOM     48  C   UNL A   1      45.739  29.445  27.325  1.00  0.00     0.074 A 
ATOM     49  C   UNL A   1      41.303  32.585  30.597  1.00  0.00     0.029 A 
ATOM     50  N   UNL A   1      42.421  31.081  29.400  1.00  0.00    -0.354 N 
ATOM     51  N   UNL A   1      44.769  30.017  27.993  1.00  0.00    -0.248 NA
ATOM     52  C   UNL A   1      46.929  30.292  27.150  1.00  0.00     0.031 C 
ATOM     53  C   UNL A   1      42.558  33.118  30.278  1.00  0.00     0.029 A 
ATOM     54  C   UNL A   1      43.261  32.175  29.545  1.00  0.00     0.049 A 
ATOM     55  H   UNL A   1      42.651  30.254  28.919  1.00  0.00     0.167 HD
ATOM     56  C   UNL A   1      45.230  31.282  28.331  1.00  0.00     0.074 A 
ATOM     57  C   UNL A   1      46.575  31.389  27.804  1.00  0.00     0.031 C 
ATOM     58  C   UNL A   1      44.595  32.265  29.014  1.00  0.00     0.037 A 
BRANCH  45  59
ATOM     59  C   UNL A   1      38.845  30.834  30.750  1.00  0.00     0.064 A 
ATOM     60  C   UNL A   1      37.769  31.383  30.039  1.00  0.00     0.173 A 
ATOM     61  C   UNL A   1      38.701  30.664  32.136  1.00  0.00     0.173 A 
ATOM     62  F   UNL A   1      37.864  31.577  28.716  1.00  0.00    -0.203 F 
ATOM     63  C   UNL A   1      36.602  31.768  30.695  1.00  0.00     0.198 A 
ATOM     64  C   UNL A   1      37.525  31.029  32.784  1.00  0.00     0.198 A 
ATOM     65  F   UNL A   1      39.702  30.139  32.861  1.00  0.00    -0.203 F 
ATOM     66  F   UNL A   1      35.599  32.326  30.002  1.00  0.00    -0.200 F 
ATOM     67  C   UNL A   1      36.478  31.585  32.064  1.00  0.00     0.200 A 
ATOM     68  F   UNL A   1      37.404  30.844  34.107  1.00  0.00    -0.200 F 
ATOM     69  F   UNL A   1      35.353  31.952  32.693  1.00  0.00    -0.200 F 
ENDBRANCH  45  59
BRANCH  46  70
ATOM     70  C   UNL A   1      46.998  27.601  25.996  1.00  0.00     0.064 A 
ATOM     71  C   UNL A   1      47.091  27.714  24.603  1.00  0.00     0.173 A 
ATOM     72  C   UNL A   1      48.086  27.039  26.683  1.00  0.00     0.173 A 
ATOM     73  F   UNL A   1      46.064  28.220  23.904  1.00  0.00    -0.203 F 
ATOM     74  C   UNL A   1      48.223  27.277  23.922  1.00  0.00     0.198 A 
ATOM     75  C   UNL A   1      49.227  26.623  26.002  1.00  0.00     0.198 A 
ATOM     76  F   UNL A   1      48.041  26.906  28.016  1.00  0.00    -0.203 F 
ATOM     77  F   UNL A   1      48.275  27.366  22.585  1.00  0.00    -0.200 F 
ATOM     78  C   UNL A   1      49.294  26.739  24.621  1.00  0.00     0.200 A 
ATOM     79  F   UNL A   1      50.262  26.112  26.682  1.00  0.00    -0.200 F 
ATOM     80  F   UNL A   1      50.386  26.324  23.965  1.00  0.00    -0.200 F 
ENDBRANCH  46  70
BRANCH  58  81
ATOM     81  C   UNL A   1      45.358  33.535  29.247  1.00  0.00     0.064 A 
ATOM     82  C   UNL A   1      46.182  33.695  30.369  1.00  0.00     0.173 A 
ATOM     83  C   UNL A   1      45.287  34.585  28.322  1.00  0.00     0.173 A 
ATOM     84  F   UNL A   1      46.268  32.724  31.289  1.00  0.00    -0.203 F 
ATOM     85  C   UNL A   1      46.897  34.875  30.566  1.00  0.00     0.198 A 
ATOM     86  C   UNL A   1      46.019  35.754  28.510  1.00  0.00     0.198 A 
ATOM     87  F   UNL A   1      44.513  34.477  27.232  1.00  0.00    -0.203 F 
ATOM     88  F   UNL A   1      47.651  35.023  31.664  1.00  0.00    -0.200 F 
ATOM     89  C   UNL A   1      46.819  35.899  29.634  1.00  0.00     0.200 A 
ATOM     90  F   UNL A   1      45.948  36.742  27.607  1.00  0.00    -0.200 F 
ATOM     91  F   UNL A   1      47.509  37.033  29.825  1.00  0.00    -0.200 F 
ENDBRANCH  58  81
ENDBRANCH  32  33
ENDBRANCH  25  27
ENDBRANCH  24  25
ENDBRANCH  23  24
ENDBRANCH   1  23
TORSDOF 15
ENDMDL
