MODEL 1
REMARK VINA RESULT:     -10.2      0.000      0.000
REMARK SMILES CC(C)(C)c1ccc(N2C(=O)/C(=C\c3ccc(OCC(=O)OCCOC(=O)c4ccc(-c5c6nc(c(-c7c(F)c(F)c(F)c(F)c7F)c7ccc([nH]7)c(-c7c(F)c(F)c(F)c(F)c7F)c7nc(c(-c8c(F)c(F)c(F)c(F)c8F)c8ccc5[nH]8)C=C7)C=C6)cc4)c(Br)c3)C(=O)[NH+]=C2O)cc1
REMARK SMILES IDX 22 1 20 2 21 3 19 4 18 5 17 6 14 7 15 8 93 9 16 10 91 11
REMARK SMILES IDX 92 12 13 13 9 14 10 15 97 16 11 17 12 18 96 19 94 20 95 22
REMARK SMILES IDX 8 23 5 24 6 25 100 26 7 27 99 28 2 29 1 30 3 31 4 32 98 33
REMARK SMILES IDX 23 35 24 36 25 37 26 38 27 39 28 40 29 41 90 42 30 43 89 44
REMARK SMILES IDX 31 45 32 46 33 47 83 48 34 49 88 50 82 51 84 52 35 53 87 54
REMARK SMILES IDX 81 55 80 56 36 58 68 59 48 60 67 61 49 62 52 63 66 64 85 65
REMARK SMILES IDX 50 66 51 67 65 69 86 70 53 71 37 72 38 73 46 74 39 75 40 76
REMARK SMILES IDX 44 77 47 78 41 79 42 80 45 81 43 82 69 83 70 84 78 85 71 86
REMARK SMILES IDX 72 87 76 88 79 89 73 90 74 91 77 92 75 93 54 94 55 95 63 96
REMARK SMILES IDX 56 97 57 98 61 99 64 100 58 101 59 102 62 103 60 104
REMARK H PARENT 96 21 98 34 84 57 52 68
REMARK Flexibility Score: inf
ROOT
ATOM      1  O   UNL A   1      32.899  33.918  29.136  1.00  0.00    -0.460 OA
ENDROOT
BRANCH   1   2
ATOM      2  C   UNL A   1      33.127  35.189  29.546  1.00  0.00     0.344 C 
ATOM      3  O   UNL A   1      32.421  36.146  29.227  1.00  0.00    -0.248 OA
BRANCH   2   4
ATOM      4  C   UNL A   1      34.374  35.391  30.430  1.00  0.00     0.352 C 
BRANCH   4   5
ATOM      5  O   UNL A   1      34.603  34.890  31.734  1.00  0.00    -0.481 OA
BRANCH   5   6
ATOM      6  C   UNL A   1      35.527  33.897  31.901  1.00  0.00     0.134 A 
ATOM      7  C   UNL A   1      37.272  31.834  32.710  1.00  0.00    -0.023 A 
ATOM      8  C   UNL A   1      35.924  31.798  33.069  1.00  0.00     0.012 A 
ATOM      9  C   UNL A   1      37.689  32.789  31.777  1.00  0.00     0.027 A 
ATOM     10  C   UNL A   1      35.072  32.839  32.693  1.00  0.00     0.048 A 
ATOM     11  C   UNL A   1      36.794  33.775  31.322  1.00  0.00     0.060 A 
ATOM     12  Br  UNL A   1      37.317  34.717  29.756  1.00  0.00    -0.047 Br
BRANCH   7  13
ATOM     13  C   UNL A   1      38.242  30.902  33.305  1.00  0.00     0.032 C 
ATOM     14  N   UNL A   1      39.685  32.382  36.368  1.00  0.00    -0.124 N 
ATOM     15  C   UNL A   1      38.708  32.217  35.397  1.00  0.00     0.357 C 
ATOM     16  C   UNL A   1      40.606  31.382  36.559  1.00  0.00     0.462 C 
ATOM     17  O   UNL A   1      37.718  32.936  35.302  1.00  0.00    -0.240 OA
ATOM     18  C   UNL A   1      38.907  31.067  34.474  1.00  0.00     0.155 C 
ATOM     19  N   UNL A   1      40.727  30.301  35.892  1.00  0.00    -0.172 N 
ATOM     20  C   UNL A   1      39.911  30.030  34.828  1.00  0.00     0.349 C 
ATOM     21  H   UNL A   1      41.420  29.650  36.148  1.00  0.00     0.319 HD
ATOM     22  O   UNL A   1      40.012  28.993  34.190  1.00  0.00    -0.240 OA
BRANCH  14  23
ATOM     23  C   UNL A   1      39.642  33.550  37.205  1.00  0.00     0.140 A 
ATOM     24  C   UNL A   1      39.729  35.828  38.935  1.00  0.00    -0.042 A 
ATOM     25  C   UNL A   1      38.985  34.682  39.264  1.00  0.00     0.008 A 
ATOM     26  C   UNL A   1      40.389  35.819  37.697  1.00  0.00     0.008 A 
ATOM     27  C   UNL A   1      38.933  33.564  38.412  1.00  0.00     0.053 A 
ATOM     28  C   UNL A   1      40.356  34.701  36.859  1.00  0.00     0.053 A 
BRANCH  24  29
ATOM     29  C   UNL A   1      39.792  37.076  39.833  1.00  0.00    -0.013 C 
ATOM     30  C   UNL A   1      39.796  36.705  41.336  1.00  0.00     0.016 C 
ATOM     31  C   UNL A   1      38.603  38.040  39.627  1.00  0.00     0.016 C 
ATOM     32  C   UNL A   1      41.094  37.836  39.512  1.00  0.00     0.016 C 
ENDBRANCH  24  29
ENDBRANCH  14  23
BRANCH  16  33
ATOM     33  O   UNL A   1      41.441  31.510  37.608  1.00  0.00    -0.446 OA
ATOM     34  H   UNL A   1      42.294  31.126  37.577  1.00  0.00     0.301 HD
ENDBRANCH  16  33
ENDBRANCH   7  13
ENDBRANCH   5   6
ENDBRANCH   4   5
ENDBRANCH   2   4
ENDBRANCH   1   2
BRANCH   1  35
ATOM     35  C   UNL A   1      33.436  33.576  27.833  1.00  0.00     0.274 C 
BRANCH  35  36
ATOM     36  C   UNL A   1      34.809  32.898  27.925  1.00  0.00     0.275 C 
BRANCH  36  37
ATOM     37  O   UNL A   1      34.833  31.840  28.905  1.00  0.00    -0.458 OA
BRANCH  37  38
ATOM     38  C   UNL A   1      34.856  30.617  28.344  1.00  0.00     0.338 C 
ATOM     39  O   UNL A   1      33.965  30.080  27.713  1.00  0.00    -0.246 OA
BRANCH  38  40
ATOM     40  C   UNL A   1      36.148  29.951  28.450  1.00  0.00     0.060 A 
ATOM     41  C   UNL A   1      36.521  29.495  29.709  1.00  0.00     0.016 A 
ATOM     42  C   UNL A   1      37.093  30.088  27.431  1.00  0.00     0.016 A 
ATOM     43  C   UNL A   1      37.859  29.255  29.978  1.00  0.00     0.010 A 
ATOM     44  C   UNL A   1      38.428  29.749  27.682  1.00  0.00     0.010 A 
ATOM     45  C   UNL A   1      38.831  29.354  28.969  1.00  0.00    -0.014 A 
BRANCH  45  46
ATOM     46  C   UNL A   1      40.238  28.992  29.294  1.00  0.00     0.031 A 
ATOM     47  C   UNL A   1      41.103  29.849  30.177  1.00  0.00     0.074 A 
ATOM     48  C   UNL A   1      40.723  27.831  28.812  1.00  0.00     0.049 A 
ATOM     49  N   UNL A   1      42.362  29.685  30.508  1.00  0.00    -0.248 NA
ATOM     50  C   UNL A   1      40.488  31.053  30.753  1.00  0.00     0.031 C 
ATOM     51  C   UNL A   1      39.979  26.900  27.960  1.00  0.00     0.029 A 
ATOM     52  N   UNL A   1      41.936  27.217  28.987  1.00  0.00    -0.354 N 
ATOM     53  C   UNL A   1      42.700  30.778  31.297  1.00  0.00     0.074 A 
ATOM     54  C   UNL A   1      41.517  31.610  31.381  1.00  0.00     0.031 C 
ATOM     55  C   UNL A   1      40.717  25.804  27.753  1.00  0.00     0.029 A 
ATOM     56  C   UNL A   1      42.028  26.001  28.356  1.00  0.00     0.049 A 
ATOM     57  H   UNL A   1      42.670  27.609  29.514  1.00  0.00     0.167 HD
ATOM     58  C   UNL A   1      43.890  31.059  31.889  1.00  0.00     0.037 A 
ATOM     59  C   UNL A   1      43.060  25.149  28.234  1.00  0.00     0.037 A 
ATOM     60  C   UNL A   1      45.055  30.207  31.820  1.00  0.00     0.049 A 
ATOM     61  C   UNL A   1      44.371  25.504  28.864  1.00  0.00     0.074 A 
ATOM     62  C   UNL A   1      46.296  30.390  32.409  1.00  0.00     0.029 A 
ATOM     63  N   UNL A   1      45.126  29.009  31.119  1.00  0.00    -0.354 N 
ATOM     64  N   UNL A   1      44.685  26.550  29.588  1.00  0.00    -0.248 NA
ATOM     65  C   UNL A   1      45.476  24.562  28.649  1.00  0.00     0.031 C 
ATOM     66  C   UNL A   1      47.133  29.341  32.012  1.00  0.00     0.029 A 
ATOM     67  C   UNL A   1      46.397  28.461  31.236  1.00  0.00     0.049 A 
ATOM     68  H   UNL A   1      44.383  28.607  30.613  1.00  0.00     0.167 HD
ATOM     69  C   UNL A   1      46.019  26.388  29.930  1.00  0.00     0.074 A 
ATOM     70  C   UNL A   1      46.444  25.126  29.357  1.00  0.00     0.031 C 
ATOM     71  C   UNL A   1      46.818  27.212  30.651  1.00  0.00     0.037 A 
BRANCH  58  72
ATOM     72  C   UNL A   1      44.014  32.363  32.632  1.00  0.00     0.064 A 
ATOM     73  C   UNL A   1      44.389  33.556  31.997  1.00  0.00     0.173 A 
ATOM     74  C   UNL A   1      43.707  32.426  34.002  1.00  0.00     0.173 A 
ATOM     75  F   UNL A   1      44.698  33.559  30.692  1.00  0.00    -0.203 F 
ATOM     76  C   UNL A   1      44.488  34.751  32.709  1.00  0.00     0.198 A 
ATOM     77  C   UNL A   1      43.771  33.628  34.703  1.00  0.00     0.198 A 
ATOM     78  F   UNL A   1      43.330  31.320  34.662  1.00  0.00    -0.203 F 
ATOM     79  F   UNL A   1      44.901  35.866  32.091  1.00  0.00    -0.200 F 
ATOM     80  C   UNL A   1      44.172  34.787  34.059  1.00  0.00     0.200 A 
ATOM     81  F   UNL A   1      43.445  33.662  36.003  1.00  0.00    -0.200 F 
ATOM     82  F   UNL A   1      44.258  35.938  34.741  1.00  0.00    -0.200 F 
ENDBRANCH  58  72
BRANCH  59  83
ATOM     83  C   UNL A   1      42.884  23.895  27.455  1.00  0.00     0.064 A 
ATOM     84  C   UNL A   1      43.193  23.846  26.090  1.00  0.00     0.173 A 
ATOM     85  C   UNL A   1      42.442  22.713  28.071  1.00  0.00     0.173 A 
ATOM     86  F   UNL A   1      43.598  24.954  25.454  1.00  0.00    -0.203 F 
ATOM     87  C   UNL A   1      43.059  22.662  25.368  1.00  0.00     0.198 A 
ATOM     88  C   UNL A   1      42.347  21.523  27.356  1.00  0.00     0.198 A 
ATOM     89  F   UNL A   1      42.140  22.707  29.377  1.00  0.00    -0.203 F 
ATOM     90  F   UNL A   1      43.321  22.649  24.054  1.00  0.00    -0.200 F 
ATOM     91  C   UNL A   1      42.648  21.500  26.003  1.00  0.00     0.200 A 
ATOM     92  F   UNL A   1      41.973  20.398  27.981  1.00  0.00    -0.200 F 
ATOM     93  F   UNL A   1      42.538  20.357  25.311  1.00  0.00    -0.200 F 
ENDBRANCH  59  83
BRANCH  71  94
ATOM     94  C   UNL A   1      48.229  26.749  30.884  1.00  0.00     0.064 A 
ATOM     95  C   UNL A   1      49.286  27.140  30.047  1.00  0.00     0.173 A 
ATOM     96  C   UNL A   1      48.526  25.885  31.950  1.00  0.00     0.173 A 
ATOM     97  F   UNL A   1      49.056  27.950  29.002  1.00  0.00    -0.203 F 
ATOM     98  C   UNL A   1      50.574  26.646  30.239  1.00  0.00     0.198 A 
ATOM     99  C   UNL A   1      49.821  25.424  32.162  1.00  0.00     0.198 A 
ATOM    100  F   UNL A   1      47.556  25.483  32.786  1.00  0.00    -0.203 F 
ATOM    101  F   UNL A   1      51.549  26.972  29.379  1.00  0.00    -0.200 F 
ATOM    102  C   UNL A   1      50.841  25.792  31.298  1.00  0.00     0.200 A 
ATOM    103  F   UNL A   1      50.081  24.610  33.195  1.00  0.00    -0.200 F 
ATOM    104  F   UNL A   1      52.080  25.311  31.477  1.00  0.00    -0.200 F 
ENDBRANCH  71  94
ENDBRANCH  45  46
ENDBRANCH  38  40
ENDBRANCH  37  38
ENDBRANCH  36  37
ENDBRANCH  35  36
ENDBRANCH   1  35
TORSDOF 17
ENDMDL
MODEL 2
REMARK VINA RESULT:     -10.2      3.700      8.752
REMARK SMILES CC(C)(C)c1ccc(N2C(=O)/C(=C\c3ccc(OCC(=O)OCCOC(=O)c4ccc(-c5c6nc(c(-c7c(F)c(F)c(F)c(F)c7F)c7ccc([nH]7)c(-c7c(F)c(F)c(F)c(F)c7F)c7nc(c(-c8c(F)c(F)c(F)c(F)c8F)c8ccc5[nH]8)C=C7)C=C6)cc4)c(Br)c3)C(=O)[NH+]=C2O)cc1
REMARK SMILES IDX 22 1 20 2 21 3 19 4 18 5 17 6 14 7 15 8 93 9 16 10 91 11
REMARK SMILES IDX 92 12 13 13 9 14 10 15 97 16 11 17 12 18 96 19 94 20 95 22
REMARK SMILES IDX 8 23 5 24 6 25 100 26 7 27 99 28 2 29 1 30 3 31 4 32 98 33
REMARK SMILES IDX 23 35 24 36 25 37 26 38 27 39 28 40 29 41 90 42 30 43 89 44
REMARK SMILES IDX 31 45 32 46 33 47 83 48 34 49 88 50 82 51 84 52 35 53 87 54
REMARK SMILES IDX 81 55 80 56 36 58 68 59 48 60 67 61 49 62 52 63 66 64 85 65
REMARK SMILES IDX 50 66 51 67 65 69 86 70 53 71 37 72 38 73 46 74 39 75 40 76
REMARK SMILES IDX 44 77 47 78 41 79 42 80 45 81 43 82 69 83 70 84 78 85 71 86
REMARK SMILES IDX 72 87 76 88 79 89 73 90 74 91 77 92 75 93 54 94 55 95 63 96
REMARK SMILES IDX 56 97 57 98 61 99 64 100 58 101 59 102 62 103 60 104
REMARK H PARENT 96 21 98 34 84 57 52 68
REMARK Flexibility Score: inf
ROOT
ATOM      1  O   UNL A   1      39.575  35.575  41.464  1.00  0.00    -0.460 OA
ENDROOT
BRANCH   1   2
ATOM      2  C   UNL A   1      40.303  34.483  41.123  1.00  0.00     0.344 C 
ATOM      3  O   UNL A   1      41.530  34.487  41.019  1.00  0.00    -0.248 OA
BRANCH   2   4
ATOM      4  C   UNL A   1      39.491  33.207  40.828  1.00  0.00     0.352 C 
BRANCH   4   5
ATOM      5  O   UNL A   1      39.504  32.425  39.648  1.00  0.00    -0.481 OA
BRANCH   5   6
ATOM      6  C   UNL A   1      38.607  32.716  38.659  1.00  0.00     0.134 A 
ATOM      7  C   UNL A   1      37.031  33.720  36.546  1.00  0.00    -0.023 A 
ATOM      8  C   UNL A   1      38.422  33.710  36.444  1.00  0.00     0.012 A 
ATOM      9  C   UNL A   1      36.435  33.039  37.612  1.00  0.00     0.027 A 
ATOM     10  C   UNL A   1      39.199  33.242  37.507  1.00  0.00     0.048 A 
ATOM     11  C   UNL A   1      37.230  32.477  38.629  1.00  0.00     0.060 A 
ATOM     12  Br  UNL A   1      36.368  31.215  39.759  1.00  0.00    -0.047 Br
BRANCH   7  13
ATOM     13  C   UNL A   1      36.202  34.441  35.568  1.00  0.00     0.032 C 
ATOM     14  N   UNL A   1      36.513  32.851  32.246  1.00  0.00    -0.124 N 
ATOM     15  C   UNL A   1      36.552  32.873  33.633  1.00  0.00     0.357 C 
ATOM     16  C   UNL A   1      35.787  33.812  31.588  1.00  0.00     0.462 C 
ATOM     17  O   UNL A   1      36.975  31.944  34.315  1.00  0.00    -0.240 OA
ATOM     18  C   UNL A   1      36.002  34.099  34.272  1.00  0.00     0.155 C 
ATOM     19  N   UNL A   1      35.167  34.804  32.100  1.00  0.00    -0.172 N 
ATOM     20  C   UNL A   1      35.193  35.035  33.447  1.00  0.00     0.349 C 
ATOM     21  H   UNL A   1      34.661  35.412  31.514  1.00  0.00     0.319 HD
ATOM     22  O   UNL A   1      34.595  35.975  33.949  1.00  0.00    -0.240 OA
BRANCH  14  23
ATOM     23  C   UNL A   1      37.153  31.768  31.552  1.00  0.00     0.140 A 
ATOM     24  C   UNL A   1      38.440  29.519  30.336  1.00  0.00    -0.042 A 
ATOM     25  C   UNL A   1      39.140  30.706  30.614  1.00  0.00     0.008 A 
ATOM     26  C   UNL A   1      37.071  29.506  30.641  1.00  0.00     0.008 A 
ATOM     27  C   UNL A   1      38.508  31.816  31.204  1.00  0.00     0.053 A 
ATOM     28  C   UNL A   1      36.446  30.601  31.246  1.00  0.00     0.053 A 
BRANCH  24  29
ATOM     29  C   UNL A   1      39.094  28.293  29.674  1.00  0.00    -0.013 C 
ATOM     30  C   UNL A   1      40.617  28.486  29.482  1.00  0.00     0.016 C 
ATOM     31  C   UNL A   1      38.517  27.972  28.278  1.00  0.00     0.016 C 
ATOM     32  C   UNL A   1      38.865  27.073  30.587  1.00  0.00     0.016 C 
ENDBRANCH  24  29
ENDBRANCH  14  23
BRANCH  16  33
ATOM     33  O   UNL A   1      35.648  33.669  30.256  1.00  0.00    -0.446 OA
ATOM     34  H   UNL A   1      34.818  33.828  29.852  1.00  0.00     0.301 HD
ENDBRANCH  16  33
ENDBRANCH   7  13
ENDBRANCH   5   6
ENDBRANCH   4   5
ENDBRANCH   2   4
ENDBRANCH   1   2
BRANCH   1  35
ATOM     35  C   UNL A   1      38.588  35.997  40.490  1.00  0.00     0.274 C 
BRANCH  35  36
ATOM     36  C   UNL A   1      39.005  37.275  39.750  1.00  0.00     0.275 C 
BRANCH  36  37
ATOM     37  O   UNL A   1      39.583  36.997  38.460  1.00  0.00    -0.458 OA
BRANCH  37  38
ATOM     38  C   UNL A   1      40.928  37.034  38.477  1.00  0.00     0.338 C 
ATOM     39  O   UNL A   1      41.643  37.389  39.396  1.00  0.00    -0.246 OA
BRANCH  38  40
ATOM     40  C   UNL A   1      41.543  36.482  37.276  1.00  0.00     0.060 A 
ATOM     41  C   UNL A   1      40.746  36.403  36.140  1.00  0.00     0.016 A 
ATOM     42  C   UNL A   1      42.730  35.753  37.368  1.00  0.00     0.016 A 
ATOM     43  C   UNL A   1      41.093  35.527  35.125  1.00  0.00     0.010 A 
ATOM     44  C   UNL A   1      43.126  34.946  36.295  1.00  0.00     0.010 A 
ATOM     45  C   UNL A   1      42.296  34.802  35.171  1.00  0.00    -0.014 A 
BRANCH  45  46
ATOM     46  C   UNL A   1      42.661  33.949  34.007  1.00  0.00     0.031 A 
ATOM     47  C   UNL A   1      42.992  34.530  32.659  1.00  0.00     0.074 A 
ATOM     48  C   UNL A   1      42.740  32.616  34.194  1.00  0.00     0.049 A 
ATOM     49  N   UNL A   1      43.281  33.907  31.541  1.00  0.00    -0.248 NA
ATOM     50  C   UNL A   1      42.986  35.995  32.541  1.00  0.00     0.031 C 
ATOM     51  C   UNL A   1      42.463  31.930  35.459  1.00  0.00     0.029 A 
ATOM     52  N   UNL A   1      43.101  31.604  33.343  1.00  0.00    -0.354 N 
ATOM     53  C   UNL A   1      43.453  34.898  30.581  1.00  0.00     0.074 A 
ATOM     54  C   UNL A   1      43.220  36.164  31.245  1.00  0.00     0.031 C 
ATOM     55  C   UNL A   1      42.738  30.628  35.324  1.00  0.00     0.029 A 
ATOM     56  C   UNL A   1      43.097  30.366  33.937  1.00  0.00     0.049 A 
ATOM     57  H   UNL A   1      43.340  31.750  32.399  1.00  0.00     0.167 HD
ATOM     58  C   UNL A   1      43.773  34.757  29.268  1.00  0.00     0.037 A 
ATOM     59  C   UNL A   1      43.316  29.144  33.423  1.00  0.00     0.037 A 
ATOM     60  C   UNL A   1      44.031  33.489  28.624  1.00  0.00     0.049 A 
ATOM     61  C   UNL A   1      43.628  29.016  31.963  1.00  0.00     0.074 A 
ATOM     62  C   UNL A   1      44.388  33.246  27.308  1.00  0.00     0.029 A 
ATOM     63  N   UNL A   1      43.958  32.250  29.247  1.00  0.00    -0.354 N 
ATOM     64  N   UNL A   1      43.766  29.956  31.062  1.00  0.00    -0.248 NA
ATOM     65  C   UNL A   1      43.801  27.653  31.449  1.00  0.00     0.031 C 
ATOM     66  C   UNL A   1      44.468  31.862  27.120  1.00  0.00     0.029 A 
ATOM     67  C   UNL A   1      44.234  31.239  28.334  1.00  0.00     0.049 A 
ATOM     68  H   UNL A   1      43.743  32.107  30.197  1.00  0.00     0.167 HD
ATOM     69  C   UNL A   1      44.058  29.303  29.874  1.00  0.00     0.074 A 
ATOM     70  C   UNL A   1      44.106  27.887  30.181  1.00  0.00     0.031 C 
ATOM     71  C   UNL A   1      44.265  29.831  28.642  1.00  0.00     0.037 A 
BRANCH  58  72
ATOM     72  C   UNL A   1      43.821  36.001  28.421  1.00  0.00     0.064 A 
ATOM     73  C   UNL A   1      42.670  36.569  27.855  1.00  0.00     0.173 A 
ATOM     74  C   UNL A   1      45.042  36.662  28.208  1.00  0.00     0.173 A 
ATOM     75  F   UNL A   1      41.475  35.981  28.020  1.00  0.00    -0.203 F 
ATOM     76  C   UNL A   1      42.744  37.726  27.080  1.00  0.00     0.198 A 
ATOM     77  C   UNL A   1      45.108  37.839  27.464  1.00  0.00     0.198 A 
ATOM     78  F   UNL A   1      46.176  36.175  28.734  1.00  0.00    -0.203 F 
ATOM     79  F   UNL A   1      41.637  38.218  26.506  1.00  0.00    -0.200 F 
ATOM     80  C   UNL A   1      43.961  38.363  26.892  1.00  0.00     0.200 A 
ATOM     81  F   UNL A   1      46.284  38.462  27.302  1.00  0.00    -0.200 F 
ATOM     82  F   UNL A   1      44.030  39.481  26.155  1.00  0.00    -0.200 F 
ENDBRANCH  58  72
BRANCH  59  83
ATOM     83  C   UNL A   1      43.217  27.952  34.305  1.00  0.00     0.064 A 
ATOM     84  C   UNL A   1      42.019  27.234  34.414  1.00  0.00     0.173 A 
ATOM     85  C   UNL A   1      44.329  27.484  35.023  1.00  0.00     0.173 A 
ATOM     86  F   UNL A   1      40.925  27.654  33.763  1.00  0.00    -0.203 F 
ATOM     87  C   UNL A   1      41.935  26.098  35.216  1.00  0.00     0.198 A 
ATOM     88  C   UNL A   1      44.253  26.327  35.792  1.00  0.00     0.198 A 
ATOM     89  F   UNL A   1      45.501  28.132  34.947  1.00  0.00    -0.203 F 
ATOM     90  F   UNL A   1      40.768  25.452  35.337  1.00  0.00    -0.200 F 
ATOM     91  C   UNL A   1      43.054  25.639  35.894  1.00  0.00     0.200 A 
ATOM     92  F   UNL A   1      45.344  25.874  36.425  1.00  0.00    -0.200 F 
ATOM     93  F   UNL A   1      42.977  24.534  36.650  1.00  0.00    -0.200 F 
ENDBRANCH  59  83
BRANCH  71  94
ATOM     94  C   UNL A   1      44.596  28.861  27.542  1.00  0.00     0.064 A 
ATOM     95  C   UNL A   1      43.627  28.419  26.627  1.00  0.00     0.173 A 
ATOM     96  C   UNL A   1      45.897  28.353  27.411  1.00  0.00     0.173 A 
ATOM     97  F   UNL A   1      42.363  28.860  26.718  1.00  0.00    -0.203 F 
ATOM     98  C   UNL A   1      43.936  27.470  25.657  1.00  0.00     0.198 A 
ATOM     99  C   UNL A   1      46.212  27.433  26.416  1.00  0.00     0.198 A 
ATOM    100  F   UNL A   1      46.865  28.744  28.253  1.00  0.00    -0.203 F 
ATOM    101  F   UNL A   1      42.975  27.005  24.846  1.00  0.00    -0.200 F 
ATOM    102  C   UNL A   1      45.229  26.980  25.549  1.00  0.00     0.200 A 
ATOM    103  F   UNL A   1      47.466  26.971  26.303  1.00  0.00    -0.200 F 
ATOM    104  F   UNL A   1      45.524  26.061  24.620  1.00  0.00    -0.200 F 
ENDBRANCH  71  94
ENDBRANCH  45  46
ENDBRANCH  38  40
ENDBRANCH  37  38
ENDBRANCH  36  37
ENDBRANCH  35  36
ENDBRANCH   1  35
TORSDOF 17
ENDMDL
MODEL 3
REMARK VINA RESULT:     -10.1      1.758      4.228
REMARK SMILES CC(C)(C)c1ccc(N2C(=O)/C(=C\c3ccc(OCC(=O)OCCOC(=O)c4ccc(-c5c6nc(c(-c7c(F)c(F)c(F)c(F)c7F)c7ccc([nH]7)c(-c7c(F)c(F)c(F)c(F)c7F)c7nc(c(-c8c(F)c(F)c(F)c(F)c8F)c8ccc5[nH]8)C=C7)C=C6)cc4)c(Br)c3)C(=O)[NH+]=C2O)cc1
REMARK SMILES IDX 22 1 20 2 21 3 19 4 18 5 17 6 14 7 15 8 93 9 16 10 91 11
REMARK SMILES IDX 92 12 13 13 9 14 10 15 97 16 11 17 12 18 96 19 94 20 95 22
REMARK SMILES IDX 8 23 5 24 6 25 100 26 7 27 99 28 2 29 1 30 3 31 4 32 98 33
REMARK SMILES IDX 23 35 24 36 25 37 26 38 27 39 28 40 29 41 90 42 30 43 89 44
REMARK SMILES IDX 31 45 32 46 33 47 83 48 34 49 88 50 82 51 84 52 35 53 87 54
REMARK SMILES IDX 81 55 80 56 36 58 68 59 48 60 67 61 49 62 52 63 66 64 85 65
REMARK SMILES IDX 50 66 51 67 65 69 86 70 53 71 37 72 38 73 46 74 39 75 40 76
REMARK SMILES IDX 44 77 47 78 41 79 42 80 45 81 43 82 69 83 70 84 78 85 71 86
REMARK SMILES IDX 72 87 76 88 79 89 73 90 74 91 77 92 75 93 54 94 55 95 63 96
REMARK SMILES IDX 56 97 57 98 61 99 64 100 58 101 59 102 62 103 60 104
REMARK H PARENT 96 21 98 34 84 57 52 68
REMARK Flexibility Score: inf
ROOT
ATOM      1  O   UNL A   1      33.232  33.683  28.950  1.00  0.00    -0.460 OA
ENDROOT
BRANCH   1   2
ATOM      2  C   UNL A   1      33.910  34.182  30.012  1.00  0.00     0.344 C 
ATOM      3  O   UNL A   1      33.388  34.869  30.892  1.00  0.00    -0.248 OA
BRANCH   2   4
ATOM      4  C   UNL A   1      35.418  33.868  30.048  1.00  0.00     0.352 C 
BRANCH   4   5
ATOM      5  O   UNL A   1      36.046  32.679  30.487  1.00  0.00    -0.481 OA
BRANCH   5   6
ATOM      6  C   UNL A   1      37.002  32.763  31.459  1.00  0.00     0.134 A 
ATOM      7  C   UNL A   1      38.602  32.873  33.780  1.00  0.00    -0.023 A 
ATOM      8  C   UNL A   1      37.627  31.885  33.643  1.00  0.00     0.012 A 
ATOM      9  C   UNL A   1      38.909  33.667  32.671  1.00  0.00     0.027 A 
ATOM     10  C   UNL A   1      36.815  31.856  32.505  1.00  0.00     0.048 A 
ATOM     11  C   UNL A   1      38.153  33.558  31.489  1.00  0.00     0.060 A 
ATOM     12  Br  UNL A   1      38.921  34.333  29.933  1.00  0.00    -0.047 Br
BRANCH   7  13
ATOM     13  C   UNL A   1      39.286  33.093  35.064  1.00  0.00     0.032 C 
ATOM     14  N   UNL A   1      41.780  30.425  35.630  1.00  0.00    -0.124 N 
ATOM     15  C   UNL A   1      40.975  31.243  34.849  1.00  0.00     0.357 C 
ATOM     16  C   UNL A   1      42.092  30.825  36.905  1.00  0.00     0.462 C 
ATOM     17  O   UNL A   1      40.825  31.092  33.640  1.00  0.00    -0.240 OA
ATOM     18  C   UNL A   1      40.314  32.367  35.565  1.00  0.00     0.155 C 
ATOM     19  N   UNL A   1      41.672  31.864  37.518  1.00  0.00    -0.172 N 
ATOM     20  C   UNL A   1      40.785  32.722  36.930  1.00  0.00     0.349 C 
ATOM     21  H   UNL A   1      41.994  32.050  38.430  1.00  0.00     0.319 HD
ATOM     22  O   UNL A   1      40.385  33.724  37.503  1.00  0.00    -0.240 OA
BRANCH  14  23
ATOM     23  C   UNL A   1      42.337  29.237  35.044  1.00  0.00     0.140 A 
ATOM     24  C   UNL A   1      43.538  26.840  34.043  1.00  0.00    -0.042 A 
ATOM     25  C   UNL A   1      44.015  28.111  33.678  1.00  0.00     0.008 A 
ATOM     26  C   UNL A   1      42.416  26.804  34.884  1.00  0.00     0.008 A 
ATOM     27  C   UNL A   1      43.422  29.291  34.162  1.00  0.00     0.053 A 
ATOM     28  C   UNL A   1      41.838  27.975  35.383  1.00  0.00     0.053 A 
BRANCH  24  29
ATOM     29  C   UNL A   1      44.150  25.529  33.518  1.00  0.00    -0.013 C 
ATOM     30  C   UNL A   1      43.364  24.289  34.010  1.00  0.00     0.016 C 
ATOM     31  C   UNL A   1      45.615  25.318  33.960  1.00  0.00     0.016 C 
ATOM     32  C   UNL A   1      44.106  25.559  31.978  1.00  0.00     0.016 C 
ENDBRANCH  24  29
ENDBRANCH  14  23
BRANCH  16  33
ATOM     33  O   UNL A   1      42.995  30.085  37.576  1.00  0.00    -0.446 OA
ATOM     34  H   UNL A   1      43.303  29.279  37.212  1.00  0.00     0.301 HD
ENDBRANCH  16  33
ENDBRANCH   7  13
ENDBRANCH   5   6
ENDBRANCH   4   5
ENDBRANCH   2   4
ENDBRANCH   1   2
BRANCH   1  35
ATOM     35  C   UNL A   1      34.052  33.207  27.853  1.00  0.00     0.274 C 
BRANCH  35  36
ATOM     36  C   UNL A   1      33.747  31.751  27.481  1.00  0.00     0.275 C 
BRANCH  36  37
ATOM     37  O   UNL A   1      34.204  30.822  28.484  1.00  0.00    -0.458 OA
BRANCH  37  38
ATOM     38  C   UNL A   1      34.949  29.828  27.967  1.00  0.00     0.338 C 
ATOM     39  O   UNL A   1      34.594  28.980  27.169  1.00  0.00    -0.246 OA
BRANCH  38  40
ATOM     40  C   UNL A   1      36.351  29.883  28.364  1.00  0.00     0.060 A 
ATOM     41  C   UNL A   1      37.281  30.111  27.357  1.00  0.00     0.016 A 
ATOM     42  C   UNL A   1      36.748  29.381  29.604  1.00  0.00     0.016 A 
ATOM     43  C   UNL A   1      38.605  29.756  27.561  1.00  0.00     0.010 A 
ATOM     44  C   UNL A   1      38.103  29.119  29.837  1.00  0.00     0.010 A 
ATOM     45  C   UNL A   1      39.045  29.278  28.807  1.00  0.00    -0.014 A 
BRANCH  45  46
ATOM     46  C   UNL A   1      40.496  29.004  28.995  1.00  0.00     0.031 A 
ATOM     47  C   UNL A   1      41.411  29.972  29.694  1.00  0.00     0.074 A 
ATOM     48  C   UNL A   1      40.982  27.823  28.563  1.00  0.00     0.049 A 
ATOM     49  N   UNL A   1      42.706  29.890  29.888  1.00  0.00    -0.248 NA
ATOM     50  C   UNL A   1      40.805  31.198  30.232  1.00  0.00     0.031 C 
ATOM     51  C   UNL A   1      40.194  26.789  27.887  1.00  0.00     0.029 A 
ATOM     52  N   UNL A   1      42.236  27.277  28.647  1.00  0.00    -0.354 N 
ATOM     53  C   UNL A   1      43.075  31.063  30.535  1.00  0.00     0.074 A 
ATOM     54  C   UNL A   1      41.868  31.851  30.685  1.00  0.00     0.031 C 
ATOM     55  C   UNL A   1      40.958  25.709  27.690  1.00  0.00     0.029 A 
ATOM     56  C   UNL A   1      42.317  26.014  28.117  1.00  0.00     0.049 A 
ATOM     57  H   UNL A   1      43.004  27.745  29.049  1.00  0.00     0.167 HD
ATOM     58  C   UNL A   1      44.308  31.444  30.958  1.00  0.00     0.037 A 
ATOM     59  C   UNL A   1      43.371  25.196  27.949  1.00  0.00     0.037 A 
ATOM     60  C   UNL A   1      45.500  30.637  30.827  1.00  0.00     0.049 A 
ATOM     61  C   UNL A   1      44.725  25.659  28.389  1.00  0.00     0.074 A 
ATOM     62  C   UNL A   1      46.788  30.923  31.249  1.00  0.00     0.029 A 
ATOM     63  N   UNL A   1      45.551  29.385  30.229  1.00  0.00    -0.354 N 
ATOM     64  N   UNL A   1      45.066  26.779  28.978  1.00  0.00    -0.248 NA
ATOM     65  C   UNL A   1      45.844  24.747  28.129  1.00  0.00     0.031 C 
ATOM     66  C   UNL A   1      47.627  29.877  30.849  1.00  0.00     0.029 A 
ATOM     67  C   UNL A   1      46.854  28.901  30.244  1.00  0.00     0.049 A 
ATOM     68  H   UNL A   1      44.778  28.908  29.850  1.00  0.00     0.167 HD
ATOM     69  C   UNL A   1      46.436  26.703  29.175  1.00  0.00     0.074 A 
ATOM     70  C   UNL A   1      46.857  25.412  28.667  1.00  0.00     0.031 C 
ATOM     71  C   UNL A   1      47.269  27.622  29.723  1.00  0.00     0.037 A 
BRANCH  58  72
ATOM     72  C   UNL A   1      44.449  32.816  31.566  1.00  0.00     0.064 A 
ATOM     73  C   UNL A   1      44.367  33.036  32.948  1.00  0.00     0.173 A 
ATOM     74  C   UNL A   1      44.715  33.926  30.746  1.00  0.00     0.173 A 
ATOM     75  F   UNL A   1      44.110  32.016  33.781  1.00  0.00    -0.203 F 
ATOM     76  C   UNL A   1      44.509  34.316  33.483  1.00  0.00     0.198 A 
ATOM     77  C   UNL A   1      44.893  35.198  31.287  1.00  0.00     0.198 A 
ATOM     78  F   UNL A   1      44.817  33.777  29.416  1.00  0.00    -0.203 F 
ATOM     79  F   UNL A   1      44.372  34.508  34.803  1.00  0.00    -0.200 F 
ATOM     80  C   UNL A   1      44.778  35.394  32.653  1.00  0.00     0.200 A 
ATOM     81  F   UNL A   1      45.174  36.233  30.482  1.00  0.00    -0.200 F 
ATOM     82  F   UNL A   1      44.924  36.622  33.170  1.00  0.00    -0.200 F 
ENDBRANCH  58  72
BRANCH  59  83
ATOM     83  C   UNL A   1      43.172  23.870  27.307  1.00  0.00     0.064 A 
ATOM     84  C   UNL A   1      42.683  22.782  28.040  1.00  0.00     0.173 A 
ATOM     85  C   UNL A   1      43.429  23.678  25.941  1.00  0.00     0.173 A 
ATOM     86  F   UNL A   1      42.443  22.911  29.353  1.00  0.00    -0.203 F 
ATOM     87  C   UNL A   1      42.466  21.547  27.431  1.00  0.00     0.198 A 
ATOM     88  C   UNL A   1      43.174  22.456  25.326  1.00  0.00     0.198 A 
ATOM     89  F   UNL A   1      43.892  24.691  25.193  1.00  0.00    -0.203 F 
ATOM     90  F   UNL A   1      42.036  20.510  28.162  1.00  0.00    -0.200 F 
ATOM     91  C   UNL A   1      42.700  21.389  26.074  1.00  0.00     0.200 A 
ATOM     92  F   UNL A   1      43.379  22.316  24.009  1.00  0.00    -0.200 F 
ATOM     93  F   UNL A   1      42.472  20.206  25.485  1.00  0.00    -0.200 F 
ENDBRANCH  59  83
BRANCH  71  94
ATOM     94  C   UNL A   1      48.719  27.239  29.829  1.00  0.00     0.064 A 
ATOM     95  C   UNL A   1      49.652  27.588  28.840  1.00  0.00     0.173 A 
ATOM     96  C   UNL A   1      49.178  26.495  30.927  1.00  0.00     0.173 A 
ATOM     97  F   UNL A   1      49.263  28.283  27.761  1.00  0.00    -0.203 F 
ATOM     98  C   UNL A   1      50.976  27.166  28.923  1.00  0.00     0.198 A 
ATOM     99  C   UNL A   1      50.511  26.107  31.026  1.00  0.00     0.198 A 
ATOM    100  F   UNL A   1      48.331  26.138  31.905  1.00  0.00    -0.203 F 
ATOM    101  F   UNL A   1      51.830  27.445  27.927  1.00  0.00    -0.200 F 
ATOM    102  C   UNL A   1      51.406  26.429  30.017  1.00  0.00     0.200 A 
ATOM    103  F   UNL A   1      50.927  25.408  32.091  1.00  0.00    -0.200 F 
ATOM    104  F   UNL A   1      52.679  26.017  30.091  1.00  0.00    -0.200 F 
ENDBRANCH  71  94
ENDBRANCH  45  46
ENDBRANCH  38  40
ENDBRANCH  37  38
ENDBRANCH  36  37
ENDBRANCH  35  36
ENDBRANCH   1  35
TORSDOF 17
ENDMDL
