MODEL 1
REMARK VINA RESULT:     -12.2      0.000      0.000
REMARK SMILES COc1c(Cl)cc(C(=O)OCCOC(=O)c2ccc(-c3c4nc(c(-c5c(F)c(F)c(F)c(F)c5F)c5ccc([nH]5)c(-c5c(F)c(F)c(F)c(F)c5F)c5nc(c(-c6c(F)c(F)c(F)c(F)c6F)c6ccc3[nH]6)C=C5)C=C4)cc2)cc1NC(=S)NC(=O)c1ccccc1F
REMARK SMILES IDX 11 1 10 2 8 3 9 4 7 5 3 6 4 7 80 8 5 9 6 10 79 11 2 12 1 13
REMARK SMILES IDX 81 14 82 16 83 17 84 18 85 19 86 21 87 22 88 23 92 24 89 25
REMARK SMILES IDX 91 26 93 27 90 28 12 29 13 30 14 31 15 32 16 33 17 34 78 35
REMARK SMILES IDX 18 36 77 37 19 38 20 39 21 40 71 41 22 42 76 43 70 44 72 45
REMARK SMILES IDX 23 46 75 47 69 48 68 49 24 51 56 52 36 53 55 54 37 55 40 56
REMARK SMILES IDX 54 57 73 58 38 59 39 60 53 62 74 63 41 64 25 65 26 66 34 67
REMARK SMILES IDX 27 68 28 69 32 70 35 71 29 72 30 73 33 74 31 75 57 76 58 77
REMARK SMILES IDX 66 78 59 79 60 80 64 81 67 82 61 83 62 84 65 85 63 86 42 87
REMARK SMILES IDX 43 88 51 89 44 90 45 91 49 92 52 93 46 94 47 95 50 96 48 97
REMARK H PARENT 81 15 84 20 72 50 40 61
REMARK Flexibility Score: inf
ROOT
ATOM      1  C   UNL A   1      31.429  27.471  26.550  1.00  0.00     0.275 C 
ENDROOT
BRANCH   1   2
ATOM      2  O   UNL A   1      32.652  26.703  26.358  1.00  0.00    -0.458 OA
BRANCH   2   3
ATOM      3  C   UNL A   1      32.757  25.218  26.452  1.00  0.00     0.338 C 
ATOM      4  O   UNL A   1      31.563  24.922  26.707  1.00  0.00    -0.246 OA
BRANCH   3   5
ATOM      5  C   UNL A   1      34.564  24.057  26.206  1.00  0.00     0.063 A 
ATOM      6  C   UNL A   1      36.932  22.249  25.487  1.00  0.00     0.160 A 
ATOM      7  C   UNL A   1      37.138  23.576  25.810  1.00  0.00     0.086 A 
ATOM      8  C   UNL A   1      35.624  21.828  25.636  1.00  0.00     0.085 A 
ATOM      9  Cl  UNL A   1      38.655  24.356  26.123  1.00  0.00    -0.080 Cl
ATOM     10  C   UNL A   1      36.004  24.428  25.968  1.00  0.00     0.040 A 
ATOM     11  C   UNL A   1      34.789  22.622  26.379  1.00  0.00     0.045 A 
BRANCH   6  12
ATOM     12  O   UNL A   1      37.820  21.302  25.076  1.00  0.00    -0.493 OA
ATOM     13  C   UNL A   1      39.010  21.120  25.835  1.00  0.00     0.278 C 
ENDBRANCH   6  12
BRANCH   8  14
ATOM     14  N   UNL A   1      35.075  20.643  25.129  1.00  0.00    -0.329 N 
ATOM     15  H   UNL A   1      35.728  19.911  25.050  1.00  0.00     0.169 HD
BRANCH  14  16
ATOM     16  C   UNL A   1      33.823  20.296  24.725  1.00  0.00     0.177 C 
ATOM     17  S   UNL A   1      32.900  19.419  25.824  1.00  0.00    -0.040 S 
BRANCH  16  18
ATOM     18  N   UNL A   1      33.185  20.598  23.522  1.00  0.00    -0.299 N 
ATOM     19  C   UNL A   1      32.491  21.539  22.709  1.00  0.00     0.260 C 
ATOM     20  H   UNL A   1      33.238  19.776  22.984  1.00  0.00     0.172 HD
ATOM     21  O   UNL A   1      31.745  21.158  21.811  1.00  0.00    -0.269 OA
BRANCH  19  22
ATOM     22  C   UNL A   1      32.595  22.977  22.950  1.00  0.00     0.075 A 
ATOM     23  C   UNL A   1      34.218  23.863  22.751  1.00  0.00     0.017 A 
ATOM     24  C   UNL A   1      31.079  23.924  23.120  1.00  0.00     0.135 A 
ATOM     25  C   UNL A   1      34.248  25.680  22.822  1.00  0.00     0.001 A 
ATOM     26  C   UNL A   1      31.101  25.721  23.144  1.00  0.00     0.040 A 
ATOM     27  F   UNL A   1      29.903  23.286  23.186  1.00  0.00    -0.206 F 
ATOM     28  C   UNL A   1      32.696  26.618  23.070  1.00  0.00     0.003 A 
ENDBRANCH  19  22
ENDBRANCH  16  18
ENDBRANCH  14  16
ENDBRANCH   8  14
ENDBRANCH   3   5
ENDBRANCH   2   3
ENDBRANCH   1   2
BRANCH   1  29
ATOM     29  C   UNL A   1      31.770  28.789  27.251  1.00  0.00     0.275 C 
BRANCH  29  30
ATOM     30  O   UNL A   1      32.769  29.486  26.481  1.00  0.00    -0.458 OA
BRANCH  30  31
ATOM     31  C   UNL A   1      33.186  30.677  26.962  1.00  0.00     0.338 C 
ATOM     32  O   UNL A   1      32.513  31.669  27.193  1.00  0.00    -0.246 OA
BRANCH  31  33
ATOM     33  C   UNL A   1      34.609  30.587  27.351  1.00  0.00     0.060 A 
ATOM     34  C   UNL A   1      35.141  29.330  27.599  1.00  0.00     0.016 A 
ATOM     35  C   UNL A   1      35.316  31.718  27.747  1.00  0.00     0.016 A 
ATOM     36  C   UNL A   1      36.231  29.207  28.452  1.00  0.00     0.010 A 
ATOM     37  C   UNL A   1      36.555  31.574  28.390  1.00  0.00     0.010 A 
ATOM     38  C   UNL A   1      37.011  30.310  28.804  1.00  0.00    -0.014 A 
BRANCH  38  39
ATOM     39  C   UNL A   1      38.286  30.123  29.567  1.00  0.00     0.031 A 
ATOM     40  C   UNL A   1      39.390  29.251  29.017  1.00  0.00     0.074 A 
ATOM     41  C   UNL A   1      38.451  30.706  30.778  1.00  0.00     0.049 A 
ATOM     42  N   UNL A   1      40.406  28.710  29.642  1.00  0.00    -0.248 NA
ATOM     43  C   UNL A   1      39.330  28.918  27.585  1.00  0.00     0.031 C 
ATOM     44  C   UNL A   1      37.512  31.628  31.426  1.00  0.00     0.029 A 
ATOM     45  N   UNL A   1      39.467  30.596  31.700  1.00  0.00    -0.354 N 
ATOM     46  C   UNL A   1      41.047  27.906  28.706  1.00  0.00     0.074 A 
ATOM     47  C   UNL A   1      40.311  28.033  27.468  1.00  0.00     0.031 C 
ATOM     48  C   UNL A   1      38.007  32.032  32.600  1.00  0.00     0.029 A 
ATOM     49  C   UNL A   1      39.211  31.271  32.873  1.00  0.00     0.049 A 
ATOM     50  H   UNL A   1      40.293  30.086  31.538  1.00  0.00     0.167 HD
ATOM     51  C   UNL A   1      42.141  27.123  28.879  1.00  0.00     0.037 A 
ATOM     52  C   UNL A   1      39.804  31.217  34.079  1.00  0.00     0.037 A 
ATOM     53  C   UNL A   1      42.894  27.056  30.108  1.00  0.00     0.049 A 
ATOM     54  C   UNL A   1      40.968  30.291  34.263  1.00  0.00     0.074 A 
ATOM     55  C   UNL A   1      44.041  26.330  30.377  1.00  0.00     0.029 A 
ATOM     56  N   UNL A   1      42.575  27.743  31.270  1.00  0.00    -0.354 N 
ATOM     57  N   UNL A   1      41.541  29.501  33.389  1.00  0.00    -0.248 NA
ATOM     58  C   UNL A   1      41.560  30.239  35.605  1.00  0.00     0.031 C 
ATOM     59  C   UNL A   1      44.369  26.513  31.723  1.00  0.00     0.029 A 
ATOM     60  C   UNL A   1      43.482  27.426  32.269  1.00  0.00     0.049 A 
ATOM     61  H   UNL A   1      41.818  28.364  31.370  1.00  0.00     0.167 HD
ATOM     62  C   UNL A   1      42.582  28.883  34.064  1.00  0.00     0.074 A 
ATOM     63  C   UNL A   1      42.571  29.405  35.414  1.00  0.00     0.031 C 
ATOM     64  C   UNL A   1      43.466  27.964  33.606  1.00  0.00     0.037 A 
BRANCH  51  65
ATOM     65  C   UNL A   1      42.565  26.227  27.747  1.00  0.00     0.064 A 
ATOM     66  C   UNL A   1      41.990  24.969  27.519  1.00  0.00     0.173 A 
ATOM     67  C   UNL A   1      43.534  26.673  26.831  1.00  0.00     0.173 A 
ATOM     68  F   UNL A   1      41.065  24.487  28.362  1.00  0.00    -0.203 F 
ATOM     69  C   UNL A   1      42.386  24.182  26.438  1.00  0.00     0.198 A 
ATOM     70  C   UNL A   1      43.901  25.902  25.731  1.00  0.00     0.198 A 
ATOM     71  F   UNL A   1      44.114  27.873  26.991  1.00  0.00    -0.203 F 
ATOM     72  F   UNL A   1      41.858  22.962  26.271  1.00  0.00    -0.200 F 
ATOM     73  C   UNL A   1      43.333  24.653  25.541  1.00  0.00     0.200 A 
ATOM     74  F   UNL A   1      44.801  26.371  24.856  1.00  0.00    -0.200 F 
ATOM     75  F   UNL A   1      43.702  23.900  24.494  1.00  0.00    -0.200 F 
ENDBRANCH  51  65
BRANCH  52  76
ATOM     76  C   UNL A   1      39.254  31.998  35.222  1.00  0.00     0.064 A 
ATOM     77  C   UNL A   1      38.453  31.385  36.195  1.00  0.00     0.173 A 
ATOM     78  C   UNL A   1      39.505  33.374  35.363  1.00  0.00     0.173 A 
ATOM     79  F   UNL A   1      38.170  30.078  36.099  1.00  0.00    -0.203 F 
ATOM     80  C   UNL A   1      37.899  32.120  37.240  1.00  0.00     0.198 A 
ATOM     81  C   UNL A   1      38.990  34.098  36.435  1.00  0.00     0.198 A 
ATOM     82  F   UNL A   1      40.274  34.015  34.469  1.00  0.00    -0.203 F 
ATOM     83  F   UNL A   1      37.082  31.520  38.116  1.00  0.00    -0.200 F 
ATOM     84  C   UNL A   1      38.173  33.474  37.364  1.00  0.00     0.200 A 
ATOM     85  F   UNL A   1      39.282  35.400  36.565  1.00  0.00    -0.200 F 
ATOM     86  F   UNL A   1      37.643  34.178  38.373  1.00  0.00    -0.200 F 
ENDBRANCH  52  76
BRANCH  64  87
ATOM     87  C   UNL A   1      44.539  27.517  34.556  1.00  0.00     0.064 A 
ATOM     88  C   UNL A   1      45.749  28.212  34.693  1.00  0.00     0.173 A 
ATOM     89  C   UNL A   1      44.338  26.383  35.357  1.00  0.00     0.173 A 
ATOM     90  F   UNL A   1      45.999  29.292  33.936  1.00  0.00    -0.203 F 
ATOM     91  C   UNL A   1      46.733  27.767  35.572  1.00  0.00     0.198 A 
ATOM     92  C   UNL A   1      45.304  25.967  36.267  1.00  0.00     0.198 A 
ATOM     93  F   UNL A   1      43.196  25.684  35.267  1.00  0.00    -0.203 F 
ATOM     94  F   UNL A   1      47.908  28.407  35.637  1.00  0.00    -0.200 F 
ATOM     95  C   UNL A   1      46.505  26.652  36.365  1.00  0.00     0.200 A 
ATOM     96  F   UNL A   1      45.074  24.901  37.045  1.00  0.00    -0.200 F 
ATOM     97  F   UNL A   1      47.449  26.231  37.218  1.00  0.00    -0.200 F 
ENDBRANCH  64  87
ENDBRANCH  38  39
ENDBRANCH  31  33
ENDBRANCH  30  31
ENDBRANCH  29  30
ENDBRANCH   1  29
TORSDOF 16
ENDMDL
MODEL 2
REMARK VINA RESULT:     -12.0      1.144      2.039
REMARK SMILES COc1c(Cl)cc(C(=O)OCCOC(=O)c2ccc(-c3c4nc(c(-c5c(F)c(F)c(F)c(F)c5F)c5ccc([nH]5)c(-c5c(F)c(F)c(F)c(F)c5F)c5nc(c(-c6c(F)c(F)c(F)c(F)c6F)c6ccc3[nH]6)C=C5)C=C4)cc2)cc1NC(=S)NC(=O)c1ccccc1F
REMARK SMILES IDX 11 1 10 2 8 3 9 4 7 5 3 6 4 7 80 8 5 9 6 10 79 11 2 12 1 13
REMARK SMILES IDX 81 14 82 16 83 17 84 18 85 19 86 21 87 22 88 23 92 24 89 25
REMARK SMILES IDX 91 26 93 27 90 28 12 29 13 30 14 31 15 32 16 33 17 34 78 35
REMARK SMILES IDX 18 36 77 37 19 38 20 39 21 40 71 41 22 42 76 43 70 44 72 45
REMARK SMILES IDX 23 46 75 47 69 48 68 49 24 51 56 52 36 53 55 54 37 55 40 56
REMARK SMILES IDX 54 57 73 58 38 59 39 60 53 62 74 63 41 64 25 65 26 66 34 67
REMARK SMILES IDX 27 68 28 69 32 70 35 71 29 72 30 73 33 74 31 75 57 76 58 77
REMARK SMILES IDX 66 78 59 79 60 80 64 81 67 82 61 83 62 84 65 85 63 86 42 87
REMARK SMILES IDX 43 88 51 89 44 90 45 91 49 92 52 93 46 94 47 95 50 96 48 97
REMARK H PARENT 81 15 84 20 72 50 40 61
REMARK Flexibility Score: inf
ROOT
ATOM      1  C   UNL A   1      32.572  27.822  27.273  1.00  0.00     0.275 C 
ENDROOT
BRANCH   1   2
ATOM      2  O   UNL A   1      32.470  26.934  26.122  1.00  0.00    -0.458 OA
BRANCH   2   3
ATOM      3  C   UNL A   1      33.619  26.464  25.296  1.00  0.00     0.338 C 
ATOM      4  O   UNL A   1      33.640  27.353  24.409  1.00  0.00    -0.246 OA
BRANCH   3   5
ATOM      5  C   UNL A   1      34.806  24.695  25.665  1.00  0.00     0.063 A 
ATOM      6  C   UNL A   1      36.261  22.004  25.850  1.00  0.00     0.160 A 
ATOM      7  C   UNL A   1      36.977  23.186  25.829  1.00  0.00     0.086 A 
ATOM      8  C   UNL A   1      34.891  22.174  25.897  1.00  0.00     0.085 A 
ATOM      9  Cl  UNL A   1      38.667  23.395  26.155  1.00  0.00    -0.080 Cl
ATOM     10  C   UNL A   1      36.281  24.405  25.567  1.00  0.00     0.040 A 
ATOM     11  C   UNL A   1      34.424  23.413  26.254  1.00  0.00     0.045 A 
BRANCH   6  12
ATOM     12  O   UNL A   1      36.703  20.716  25.858  1.00  0.00    -0.493 OA
ATOM     13  C   UNL A   1      37.520  20.278  24.778  1.00  0.00     0.278 C 
ENDBRANCH   6  12
BRANCH   8  14
ATOM     14  N   UNL A   1      33.927  21.188  25.650  1.00  0.00    -0.329 N 
ATOM     15  H   UNL A   1      34.211  20.286  25.922  1.00  0.00     0.169 HD
BRANCH  14  16
ATOM     16  C   UNL A   1      32.678  21.222  25.112  1.00  0.00     0.177 C 
ATOM     17  S   UNL A   1      32.480  20.436  23.638  1.00  0.00    -0.040 S 
BRANCH  16  18
ATOM     18  N   UNL A   1      31.523  21.801  25.635  1.00  0.00    -0.299 N 
ATOM     19  C   UNL A   1      30.712  22.955  25.825  1.00  0.00     0.260 C 
ATOM     20  H   UNL A   1      31.044  21.067  26.085  1.00  0.00     0.172 HD
ATOM     21  O   UNL A   1      29.920  23.016  26.761  1.00  0.00    -0.269 OA
BRANCH  19  22
ATOM     22  C   UNL A   1      30.836  24.124  24.956  1.00  0.00     0.075 A 
ATOM     23  C   UNL A   1      31.796  24.034  23.365  1.00  0.00     0.017 A 
ATOM     24  C   UNL A   1      29.784  25.544  25.280  1.00  0.00     0.135 A 
ATOM     25  C   UNL A   1      31.719  25.432  22.205  1.00  0.00     0.001 A 
ATOM     26  C   UNL A   1      29.670  26.906  24.113  1.00  0.00     0.040 A 
ATOM     27  F   UNL A   1      29.034  25.572  26.390  1.00  0.00    -0.206 F 
ATOM     28  C   UNL A   1      30.696  26.898  22.596  1.00  0.00     0.003 A 
ENDBRANCH  19  22
ENDBRANCH  16  18
ENDBRANCH  14  16
ENDBRANCH   8  14
ENDBRANCH   3   5
ENDBRANCH   2   3
ENDBRANCH   1   2
BRANCH   1  29
ATOM     29  C   UNL A   1      32.010  29.196  26.896  1.00  0.00     0.275 C 
BRANCH  29  30
ATOM     30  O   UNL A   1      33.074  30.008  26.361  1.00  0.00    -0.458 OA
BRANCH  30  31
ATOM     31  C   UNL A   1      33.470  31.060  27.110  1.00  0.00     0.338 C 
ATOM     32  O   UNL A   1      32.781  31.960  27.562  1.00  0.00    -0.246 OA
BRANCH  31  33
ATOM     33  C   UNL A   1      34.893  30.902  27.476  1.00  0.00     0.060 A 
ATOM     34  C   UNL A   1      35.374  29.619  27.699  1.00  0.00     0.016 A 
ATOM     35  C   UNL A   1      35.656  31.996  27.874  1.00  0.00     0.016 A 
ATOM     36  C   UNL A   1      36.469  29.437  28.534  1.00  0.00     0.010 A 
ATOM     37  C   UNL A   1      36.897  31.788  28.496  1.00  0.00     0.010 A 
ATOM     38  C   UNL A   1      37.303  30.501  28.887  1.00  0.00    -0.014 A 
BRANCH  38  39
ATOM     39  C   UNL A   1      38.579  30.248  29.627  1.00  0.00     0.031 A 
ATOM     40  C   UNL A   1      39.638  29.340  29.047  1.00  0.00     0.074 A 
ATOM     41  C   UNL A   1      38.786  30.802  30.845  1.00  0.00     0.049 A 
ATOM     42  N   UNL A   1      40.640  28.746  29.647  1.00  0.00    -0.248 NA
ATOM     43  C   UNL A   1      39.544  29.034  27.610  1.00  0.00     0.031 C 
ATOM     44  C   UNL A   1      37.896  31.751  31.522  1.00  0.00     0.029 A 
ATOM     45  N   UNL A   1      39.810  30.634  31.750  1.00  0.00    -0.354 N 
ATOM     46  C   UNL A   1      41.233  27.932  28.689  1.00  0.00     0.074 A 
ATOM     47  C   UNL A   1      40.485  28.111  27.464  1.00  0.00     0.031 C 
ATOM     48  C   UNL A   1      38.424  32.114  32.695  1.00  0.00     0.029 A 
ATOM     49  C   UNL A   1      39.599  31.299  32.937  1.00  0.00     0.049 A 
ATOM     50  H   UNL A   1      40.612  30.094  31.567  1.00  0.00     0.167 HD
ATOM     51  C   UNL A   1      42.295  27.102  28.832  1.00  0.00     0.037 A 
ATOM     52  C   UNL A   1      40.207  31.200  34.134  1.00  0.00     0.037 A 
ATOM     53  C   UNL A   1      43.063  26.983  30.048  1.00  0.00     0.049 A 
ATOM     54  C   UNL A   1      41.333  30.223  34.285  1.00  0.00     0.074 A 
ATOM     55  C   UNL A   1      44.182  26.204  30.288  1.00  0.00     0.029 A 
ATOM     56  N   UNL A   1      42.790  27.663  31.226  1.00  0.00    -0.354 N 
ATOM     57  N   UNL A   1      41.860  29.426  33.389  1.00  0.00    -0.248 NA
ATOM     58  C   UNL A   1      41.942  30.124  35.616  1.00  0.00     0.031 C 
ATOM     59  C   UNL A   1      44.537  26.351  31.631  1.00  0.00     0.029 A 
ATOM     60  C   UNL A   1      43.697  27.291  32.206  1.00  0.00     0.049 A 
ATOM     61  H   UNL A   1      42.060  28.313  31.348  1.00  0.00     0.167 HD
ATOM     62  C   UNL A   1      42.884  28.753  34.038  1.00  0.00     0.074 A 
ATOM     63  C   UNL A   1      42.915  29.252  35.397  1.00  0.00     0.031 C 
ATOM     64  C   UNL A   1      43.722  27.807  33.552  1.00  0.00     0.037 A 
BRANCH  51  65
ATOM     65  C   UNL A   1      42.665  26.208  27.679  1.00  0.00     0.064 A 
ATOM     66  C   UNL A   1      43.650  26.550  26.741  1.00  0.00     0.173 A 
ATOM     67  C   UNL A   1      42.055  24.948  27.549  1.00  0.00     0.173 A 
ATOM     68  F   UNL A   1      44.263  27.741  26.809  1.00  0.00    -0.203 F 
ATOM     69  C   UNL A   1      43.989  25.680  25.706  1.00  0.00     0.198 A 
ATOM     70  C   UNL A   1      42.422  24.066  26.537  1.00  0.00     0.198 A 
ATOM     71  F   UNL A   1      41.112  24.561  28.423  1.00  0.00    -0.203 F 
ATOM     72  F   UNL A   1      44.897  26.051  24.792  1.00  0.00    -0.200 F 
ATOM     73  C   UNL A   1      43.383  24.437  25.610  1.00  0.00     0.200 A 
ATOM     74  F   UNL A   1      41.848  22.858  26.462  1.00  0.00    -0.200 F 
ATOM     75  F   UNL A   1      43.721  23.596  24.621  1.00  0.00    -0.200 F 
ENDBRANCH  51  65
BRANCH  52  76
ATOM     76  C   UNL A   1      39.706  31.984  35.297  1.00  0.00     0.064 A 
ATOM     77  C   UNL A   1      40.207  33.263  35.573  1.00  0.00     0.173 A 
ATOM     78  C   UNL A   1      38.725  31.472  36.164  1.00  0.00     0.173 A 
ATOM     79  F   UNL A   1      41.155  33.793  34.787  1.00  0.00    -0.203 F 
ATOM     80  C   UNL A   1      39.775  33.982  36.686  1.00  0.00     0.198 A 
ATOM     81  C   UNL A   1      38.259  32.211  37.248  1.00  0.00     0.198 A 
ATOM     82  F   UNL A   1      38.199  30.257  35.945  1.00  0.00    -0.203 F 
ATOM     83  F   UNL A   1      40.322  35.173  36.963  1.00  0.00    -0.200 F 
ATOM     84  C   UNL A   1      38.797  33.459  37.518  1.00  0.00     0.200 A 
ATOM     85  F   UNL A   1      37.293  31.712  38.032  1.00  0.00    -0.200 F 
ATOM     86  F   UNL A   1      38.379  34.154  38.585  1.00  0.00    -0.200 F 
ENDBRANCH  52  76
BRANCH  64  87
ATOM     87  C   UNL A   1      44.789  27.299  34.478  1.00  0.00     0.064 A 
ATOM     88  C   UNL A   1      46.043  27.918  34.579  1.00  0.00     0.173 A 
ATOM     89  C   UNL A   1      44.538  26.184  35.293  1.00  0.00     0.173 A 
ATOM     90  F   UNL A   1      46.340  28.975  33.808  1.00  0.00    -0.203 F 
ATOM     91  C   UNL A   1      47.019  27.417  35.437  1.00  0.00     0.198 A 
ATOM     92  C   UNL A   1      45.499  25.714  36.181  1.00  0.00     0.198 A 
ATOM     93  F   UNL A   1      43.352  25.557  35.237  1.00  0.00    -0.203 F 
ATOM     94  F   UNL A   1      48.234  27.983  35.468  1.00  0.00    -0.200 F 
ATOM     95  C   UNL A   1      46.743  26.323  36.243  1.00  0.00     0.200 A 
ATOM     96  F   UNL A   1      45.223  24.669  36.973  1.00  0.00    -0.200 F 
ATOM     97  F   UNL A   1      47.680  25.850  37.076  1.00  0.00    -0.200 F 
ENDBRANCH  64  87
ENDBRANCH  38  39
ENDBRANCH  31  33
ENDBRANCH  30  31
ENDBRANCH  29  30
ENDBRANCH   1  29
TORSDOF 16
ENDMDL
MODEL 3
REMARK VINA RESULT:     -11.8      4.704      9.743
REMARK SMILES COc1c(Cl)cc(C(=O)OCCOC(=O)c2ccc(-c3c4nc(c(-c5c(F)c(F)c(F)c(F)c5F)c5ccc([nH]5)c(-c5c(F)c(F)c(F)c(F)c5F)c5nc(c(-c6c(F)c(F)c(F)c(F)c6F)c6ccc3[nH]6)C=C5)C=C4)cc2)cc1NC(=S)NC(=O)c1ccccc1F
REMARK SMILES IDX 11 1 10 2 8 3 9 4 7 5 3 6 4 7 80 8 5 9 6 10 79 11 2 12 1 13
REMARK SMILES IDX 81 14 82 16 83 17 84 18 85 19 86 21 87 22 88 23 92 24 89 25
REMARK SMILES IDX 91 26 93 27 90 28 12 29 13 30 14 31 15 32 16 33 17 34 78 35
REMARK SMILES IDX 18 36 77 37 19 38 20 39 21 40 71 41 22 42 76 43 70 44 72 45
REMARK SMILES IDX 23 46 75 47 69 48 68 49 24 51 56 52 36 53 55 54 37 55 40 56
REMARK SMILES IDX 54 57 73 58 38 59 39 60 53 62 74 63 41 64 25 65 26 66 34 67
REMARK SMILES IDX 27 68 28 69 32 70 35 71 29 72 30 73 33 74 31 75 57 76 58 77
REMARK SMILES IDX 66 78 59 79 60 80 64 81 67 82 61 83 62 84 65 85 63 86 42 87
REMARK SMILES IDX 43 88 51 89 44 90 45 91 49 92 52 93 46 94 47 95 50 96 48 97
REMARK H PARENT 81 15 84 20 72 50 40 61
REMARK Flexibility Score: inf
ROOT
ATOM      1  C   UNL A   1      39.194  22.018  26.413  1.00  0.00     0.275 C 
ENDROOT
BRANCH   1   2
ATOM      2  O   UNL A   1      38.321  22.761  25.513  1.00  0.00    -0.458 OA
BRANCH   2   3
ATOM      3  C   UNL A   1      36.839  22.864  25.646  1.00  0.00     0.338 C 
ATOM      4  O   UNL A   1      36.729  24.049  26.048  1.00  0.00    -0.246 OA
BRANCH   3   5
ATOM      5  C   UNL A   1      35.416  21.290  25.232  1.00  0.00     0.063 A 
ATOM      6  C   UNL A   1      33.273  19.309  24.297  1.00  0.00     0.160 A 
ATOM      7  C   UNL A   1      34.550  18.871  24.591  1.00  0.00     0.086 A 
ATOM      8  C   UNL A   1      33.057  20.645  24.574  1.00  0.00     0.085 A 
ATOM      9  Cl  UNL A   1      35.085  17.229  24.751  1.00  0.00    -0.080 Cl
ATOM     10  C   UNL A   1      35.564  19.839  24.854  1.00  0.00     0.040 A 
ATOM     11  C   UNL A   1      33.963  21.272  25.391  1.00  0.00     0.045 A 
BRANCH   6  12
ATOM     12  O   UNL A   1      32.205  18.621  23.808  1.00  0.00    -0.493 OA
ATOM     13  C   UNL A   1      32.276  18.128  22.474  1.00  0.00     0.278 C 
ENDBRANCH   6  12
BRANCH   8  14
ATOM     14  N   UNL A   1      31.974  21.416  24.130  1.00  0.00    -0.329 N 
ATOM     15  H   UNL A   1      31.286  20.892  23.662  1.00  0.00     0.169 HD
BRANCH  14  16
ATOM     16  C   UNL A   1      31.681  22.743  24.213  1.00  0.00     0.177 C 
ATOM     17  S   UNL A   1      32.413  23.740  23.073  1.00  0.00    -0.040 S 
BRANCH  16  18
ATOM     18  N   UNL A   1      30.826  23.388  25.105  1.00  0.00    -0.299 N 
ATOM     19  C   UNL A   1      30.525  24.529  25.901  1.00  0.00     0.260 C 
ATOM     20  H   UNL A   1      30.082  22.760  25.254  1.00  0.00     0.172 HD
ATOM     21  O   UNL A   1      29.785  24.433  26.876  1.00  0.00    -0.269 OA
BRANCH  19  22
ATOM     22  C   UNL A   1      31.127  25.832  25.624  1.00  0.00     0.075 A 
ATOM     23  C   UNL A   1      32.884  26.195  26.115  1.00  0.00     0.017 A 
ATOM     24  C   UNL A   1      30.262  26.954  24.520  1.00  0.00     0.135 A 
ATOM     25  C   UNL A   1      33.665  27.732  25.536  1.00  0.00     0.001 A 
ATOM     26  C   UNL A   1      31.048  28.451  23.910  1.00  0.00     0.040 A 
ATOM     27  F   UNL A   1      29.025  26.653  24.106  1.00  0.00    -0.206 F 
ATOM     28  C   UNL A   1      32.734  28.893  24.472  1.00  0.00     0.003 A 
ENDBRANCH  19  22
ENDBRANCH  16  18
ENDBRANCH  14  16
ENDBRANCH   8  14
ENDBRANCH   3   5
ENDBRANCH   2   3
ENDBRANCH   1   2
BRANCH   1  29
ATOM     29  C   UNL A   1      39.427  20.617  25.840  1.00  0.00     0.275 C 
BRANCH  29  30
ATOM     30  O   UNL A   1      40.381  19.923  26.669  1.00  0.00    -0.458 OA
BRANCH  30  31
ATOM     31  C   UNL A   1      41.620  19.757  26.160  1.00  0.00     0.338 C 
ATOM     32  O   UNL A   1      42.009  18.880  25.406  1.00  0.00    -0.246 OA
BRANCH  31  33
ATOM     33  C   UNL A   1      42.464  20.917  26.516  1.00  0.00     0.060 A 
ATOM     34  C   UNL A   1      42.626  21.222  27.860  1.00  0.00     0.016 A 
ATOM     35  C   UNL A   1      42.841  21.849  25.553  1.00  0.00     0.016 A 
ATOM     36  C   UNL A   1      42.915  22.529  28.232  1.00  0.00     0.010 A 
ATOM     37  C   UNL A   1      43.378  23.083  25.953  1.00  0.00     0.010 A 
ATOM     38  C   UNL A   1      43.374  23.467  27.305  1.00  0.00    -0.014 A 
BRANCH  38  39
ATOM     39  C   UNL A   1      43.860  24.808  27.763  1.00  0.00     0.031 A 
ATOM     40  C   UNL A   1      42.881  25.873  28.199  1.00  0.00     0.074 A 
ATOM     41  C   UNL A   1      45.183  25.096  27.756  1.00  0.00     0.049 A 
ATOM     42  N   UNL A   1      43.062  27.165  28.317  1.00  0.00    -0.248 NA
ATOM     43  C   UNL A   1      41.513  25.434  28.518  1.00  0.00     0.031 C 
ATOM     44  C   UNL A   1      46.266  24.164  27.425  1.00  0.00     0.029 A 
ATOM     45  N   UNL A   1      45.852  26.270  28.022  1.00  0.00    -0.354 N 
ATOM     46  C   UNL A   1      41.816  27.698  28.631  1.00  0.00     0.074 A 
ATOM     47  C   UNL A   1      40.888  26.591  28.693  1.00  0.00     0.031 C 
ATOM     48  C   UNL A   1      47.448  24.776  27.549  1.00  0.00     0.029 A 
ATOM     49  C   UNL A   1      47.208  26.184  27.800  1.00  0.00     0.049 A 
ATOM     50  H   UNL A   1      45.405  27.088  28.339  1.00  0.00     0.167 HD
ATOM     51  C   UNL A   1      41.484  28.998  28.831  1.00  0.00     0.037 A 
ATOM     52  C   UNL A   1      48.156  27.134  27.698  1.00  0.00     0.037 A 
ATOM     53  C   UNL A   1      42.438  30.080  28.822  1.00  0.00     0.049 A 
ATOM     54  C   UNL A   1      47.750  28.568  27.853  1.00  0.00     0.074 A 
ATOM     55  C   UNL A   1      42.216  31.426  29.055  1.00  0.00     0.029 A 
ATOM     56  N   UNL A   1      43.795  29.938  28.568  1.00  0.00    -0.354 N 
ATOM     57  N   UNL A   1      46.566  29.069  28.105  1.00  0.00    -0.248 NA
ATOM     58  C   UNL A   1      48.810  29.570  27.699  1.00  0.00     0.031 C 
ATOM     59  C   UNL A   1      43.420  32.108  28.863  1.00  0.00     0.029 A 
ATOM     60  C   UNL A   1      44.413  31.178  28.601  1.00  0.00     0.049 A 
ATOM     61  H   UNL A   1      44.250  29.083  28.392  1.00  0.00     0.167 HD
ATOM     62  C   UNL A   1      46.744  30.442  28.173  1.00  0.00     0.074 A 
ATOM     63  C   UNL A   1      48.152  30.691  27.955  1.00  0.00     0.031 C 
ATOM     64  C   UNL A   1      45.821  31.409  28.395  1.00  0.00     0.037 A 
BRANCH  51  65
ATOM     65  C   UNL A   1      40.032  29.344  29.017  1.00  0.00     0.064 A 
ATOM     66  C   UNL A   1      39.142  29.483  27.943  1.00  0.00     0.173 A 
ATOM     67  C   UNL A   1      39.509  29.481  30.315  1.00  0.00     0.173 A 
ATOM     68  F   UNL A   1      39.583  29.370  26.681  1.00  0.00    -0.203 F 
ATOM     69  C   UNL A   1      37.795  29.771  28.158  1.00  0.00     0.198 A 
ATOM     70  C   UNL A   1      38.156  29.731  30.529  1.00  0.00     0.198 A 
ATOM     71  F   UNL A   1      40.310  29.350  31.384  1.00  0.00    -0.203 F 
ATOM     72  F   UNL A   1      36.974  29.949  27.113  1.00  0.00    -0.200 F 
ATOM     73  C   UNL A   1      37.301  29.885  29.449  1.00  0.00     0.200 A 
ATOM     74  F   UNL A   1      37.681  29.819  31.779  1.00  0.00    -0.200 F 
ATOM     75  F   UNL A   1      36.003  30.148  29.653  1.00  0.00    -0.200 F 
ENDBRANCH  51  65
BRANCH  52  76
ATOM     76  C   UNL A   1      49.556  26.763  27.351  1.00  0.00     0.064 A 
ATOM     77  C   UNL A   1      49.975  26.703  26.015  1.00  0.00     0.173 A 
ATOM     78  C   UNL A   1      50.503  26.451  28.342  1.00  0.00     0.173 A 
ATOM     79  F   UNL A   1      49.108  26.976  25.030  1.00  0.00    -0.203 F 
ATOM     80  C   UNL A   1      51.271  26.312  25.683  1.00  0.00     0.198 A 
ATOM     81  C   UNL A   1      51.811  26.107  28.011  1.00  0.00     0.198 A 
ATOM     82  F   UNL A   1      50.163  26.501  29.639  1.00  0.00    -0.203 F 
ATOM     83  F   UNL A   1      51.623  26.198  24.396  1.00  0.00    -0.200 F 
ATOM     84  C   UNL A   1      52.190  26.022  26.681  1.00  0.00     0.200 A 
ATOM     85  F   UNL A   1      52.702  25.856  28.980  1.00  0.00    -0.200 F 
ATOM     86  F   UNL A   1      53.437  25.652  26.360  1.00  0.00    -0.200 F 
ENDBRANCH  52  76
BRANCH  64  87
ATOM     87  C   UNL A   1      46.321  32.822  28.480  1.00  0.00     0.064 A 
ATOM     88  C   UNL A   1      46.819  33.364  29.674  1.00  0.00     0.173 A 
ATOM     89  C   UNL A   1      46.317  33.637  27.338  1.00  0.00     0.173 A 
ATOM     90  F   UNL A   1      46.825  32.632  30.799  1.00  0.00    -0.203 F 
ATOM     91  C   UNL A   1      47.263  34.682  29.729  1.00  0.00     0.198 A 
ATOM     92  C   UNL A   1      46.804  34.939  27.386  1.00  0.00     0.198 A 
ATOM     93  F   UNL A   1      45.854  33.166  26.171  1.00  0.00    -0.203 F 
ATOM     94  F   UNL A   1      47.672  35.200  30.895  1.00  0.00    -0.200 F 
ATOM     95  C   UNL A   1      47.264  35.464  28.584  1.00  0.00     0.200 A 
ATOM     96  F   UNL A   1      46.822  35.687  26.274  1.00  0.00    -0.200 F 
ATOM     97  F   UNL A   1      47.703  36.729  28.636  1.00  0.00    -0.200 F 
ENDBRANCH  64  87
ENDBRANCH  38  39
ENDBRANCH  31  33
ENDBRANCH  30  31
ENDBRANCH  29  30
ENDBRANCH   1  29
TORSDOF 16
ENDMDL
