MODEL 1
REMARK VINA RESULT:     -13.3      0.000      0.000
REMARK SMILES C[C@@H](C(=O)OCCOC(=O)c1ccc(-c2c3nc(c(-c4c(F)c(F)c(F)c(F)c4F)c4ccc([nH]4)c(-c4c(F)c(F)c(F)c(F)c4F)c4nc(c(-c5c(F)c(F)c(F)c(F)c5F)c5ccc2[nH]5)C=C4)C=C3)cc1)c1ccc2c3cc(Cl)ccc3n(C(=O)c3ccc(Cl)cc3)c2c1
REMARK SMILES IDX 6 1 5 2 3 3 4 4 2 5 1 6 74 7 75 8 96 9 76 10 95 11 77 12
REMARK SMILES IDX 85 13 78 14 84 15 79 16 83 17 80 18 82 19 81 20 86 21 87 22
REMARK SMILES IDX 88 23 89 24 94 25 90 26 93 27 91 28 92 29 7 30 8 31 9 32
REMARK SMILES IDX 10 33 11 34 12 35 73 36 13 37 72 38 14 39 15 40 16 41 66 42
REMARK SMILES IDX 17 43 71 44 65 45 67 46 18 47 70 48 64 49 63 50 19 52 51 53
REMARK SMILES IDX 31 54 50 55 32 56 35 57 49 58 68 59 33 60 34 61 48 63 69 64
REMARK SMILES IDX 36 65 20 66 21 67 29 68 22 69 23 70 27 71 30 72 24 73 25 74
REMARK SMILES IDX 28 75 26 76 52 77 53 78 61 79 54 80 55 81 59 82 62 83 56 84
REMARK SMILES IDX 57 85 60 86 58 87 37 88 38 89 46 90 39 91 40 92 44 93 47 94
REMARK SMILES IDX 41 95 42 96 45 97 43 98
REMARK H PARENT 67 51 35 62
REMARK Flexibility Score: inf
ROOT
ATOM      1  C   UNL A   1      34.659  33.549  30.056  1.00  0.00     0.274 C 
ENDROOT
BRANCH   1   2
ATOM      2  O   UNL A   1      34.275  32.279  29.506  1.00  0.00    -0.462 OA
BRANCH   2   3
ATOM      3  C   UNL A   1      34.829  31.945  28.306  1.00  0.00     0.313 C 
ATOM      4  O   UNL A   1      35.507  32.707  27.626  1.00  0.00    -0.252 OA
BRANCH   3   5
ATOM      5  C   UNL A   1      34.592  30.465  27.957  1.00  0.00     0.126 C 
ATOM      6  C   UNL A   1      35.908  29.784  27.566  1.00  0.00     0.025 C 
BRANCH   5   7
ATOM      7  C   UNL A   1      33.522  30.234  26.895  1.00  0.00    -0.032 A 
ATOM      8  C   UNL A   1      32.422  31.081  26.765  1.00  0.00     0.005 A 
ATOM      9  C   UNL A   1      33.611  29.128  26.050  1.00  0.00     0.032 A 
ATOM     10  C   UNL A   1      31.446  30.845  25.793  1.00  0.00     0.011 A 
ATOM     11  C   UNL A   1      32.556  28.784  25.191  1.00  0.00     0.057 A 
ATOM     12  C   UNL A   1      31.517  29.683  25.000  1.00  0.00     0.008 A 
ATOM     13  N   UNL A   1      32.298  27.574  24.484  1.00  0.00    -0.276 N 
ATOM     14  C   UNL A   1      30.635  29.121  24.060  1.00  0.00     0.009 A 
ATOM     15  C   UNL A   1      30.947  27.747  24.029  1.00  0.00     0.057 A 
ATOM     16  C   UNL A   1      29.431  29.636  23.506  1.00  0.00     0.031 A 
ATOM     17  C   UNL A   1      29.830  26.931  23.789  1.00  0.00     0.029 A 
ATOM     18  C   UNL A   1      28.418  28.771  23.125  1.00  0.00     0.041 A 
ATOM     19  C   UNL A   1      28.584  27.424  23.346  1.00  0.00     0.023 A 
ATOM     20  Cl  UNL A   1      26.911  29.392  22.575  1.00  0.00    -0.084 Cl
BRANCH  13  21
ATOM     21  C   UNL A   1      33.306  26.499  24.508  1.00  0.00     0.262 C 
ATOM     22  O   UNL A   1      34.205  26.586  23.660  1.00  0.00    -0.268 OA
BRANCH  21  23
ATOM     23  C   UNL A   1      33.640  25.284  25.293  1.00  0.00     0.040 A 
ATOM     24  C   UNL A   1      32.609  24.798  26.147  1.00  0.00     0.015 A 
ATOM     25  C   UNL A   1      34.880  24.658  25.387  1.00  0.00     0.015 A 
ATOM     26  C   UNL A   1      32.722  23.605  26.873  1.00  0.00     0.021 A 
ATOM     27  C   UNL A   1      35.005  23.452  26.130  1.00  0.00     0.021 A 
ATOM     28  C   UNL A   1      33.916  22.908  26.822  1.00  0.00     0.041 A 
ATOM     29  Cl  UNL A   1      34.031  21.369  27.581  1.00  0.00    -0.084 Cl
ENDBRANCH  21  23
ENDBRANCH  13  21
ENDBRANCH   5   7
ENDBRANCH   3   5
ENDBRANCH   2   3
ENDBRANCH   1   2
BRANCH   1  30
ATOM     30  C   UNL A   1      34.766  33.427  31.581  1.00  0.00     0.275 C 
BRANCH  30  31
ATOM     31  O   UNL A   1      35.186  32.100  31.989  1.00  0.00    -0.458 OA
BRANCH  31  32
ATOM     32  C   UNL A   1      36.247  32.034  32.821  1.00  0.00     0.338 C 
ATOM     33  O   UNL A   1      36.256  32.307  34.028  1.00  0.00    -0.246 OA
BRANCH  32  34
ATOM     34  C   UNL A   1      37.441  31.507  32.119  1.00  0.00     0.060 A 
ATOM     35  C   UNL A   1      38.457  30.917  32.871  1.00  0.00     0.016 A 
ATOM     36  C   UNL A   1      37.603  31.609  30.730  1.00  0.00     0.016 A 
ATOM     37  C   UNL A   1      39.594  30.389  32.235  1.00  0.00     0.010 A 
ATOM     38  C   UNL A   1      38.745  31.067  30.092  1.00  0.00     0.010 A 
ATOM     39  C   UNL A   1      39.752  30.425  30.831  1.00  0.00    -0.014 A 
BRANCH  39  40
ATOM     40  C   UNL A   1      41.032  29.900  30.202  1.00  0.00     0.031 A 
ATOM     41  C   UNL A   1      40.962  28.601  29.499  1.00  0.00     0.074 A 
ATOM     42  C   UNL A   1      42.157  30.628  30.004  1.00  0.00     0.049 A 
ATOM     43  N   UNL A   1      41.809  28.110  28.639  1.00  0.00    -0.248 NA
ATOM     44  C   UNL A   1      39.771  27.786  29.753  1.00  0.00     0.031 C 
ATOM     45  C   UNL A   1      42.216  31.997  30.422  1.00  0.00     0.029 A 
ATOM     46  N   UNL A   1      43.317  30.500  29.258  1.00  0.00    -0.354 N 
ATOM     47  C   UNL A   1      41.262  26.910  28.250  1.00  0.00     0.074 A 
ATOM     48  C   UNL A   1      39.991  26.770  28.935  1.00  0.00     0.031 C 
ATOM     49  C   UNL A   1      43.195  32.655  29.795  1.00  0.00     0.029 A 
ATOM     50  C   UNL A   1      43.974  31.709  29.039  1.00  0.00     0.049 A 
ATOM     51  H   UNL A   1      43.645  29.638  28.915  1.00  0.00     0.167 HD
ATOM     52  C   UNL A   1      41.810  25.990  27.431  1.00  0.00     0.037 A 
ATOM     53  C   UNL A   1      45.030  32.088  28.287  1.00  0.00     0.037 A 
ATOM     54  C   UNL A   1      43.104  26.104  26.815  1.00  0.00     0.049 A 
ATOM     55  C   UNL A   1      45.679  31.013  27.486  1.00  0.00     0.074 A 
ATOM     56  C   UNL A   1      43.802  25.137  26.117  1.00  0.00     0.029 A 
ATOM     57  N   UNL A   1      43.902  27.242  26.827  1.00  0.00    -0.354 N 
ATOM     58  N   UNL A   1      45.200  29.828  27.212  1.00  0.00    -0.248 NA
ATOM     59  C   UNL A   1      47.001  31.293  26.917  1.00  0.00     0.031 C 
ATOM     60  C   UNL A   1      45.047  25.665  25.760  1.00  0.00     0.029 A 
ATOM     61  C   UNL A   1      45.106  26.983  26.184  1.00  0.00     0.049 A 
ATOM     62  H   UNL A   1      43.652  28.103  27.232  1.00  0.00     0.167 HD
ATOM     63  C   UNL A   1      46.169  29.205  26.454  1.00  0.00     0.074 A 
ATOM     64  C   UNL A   1      47.232  30.171  26.249  1.00  0.00     0.031 C 
ATOM     65  C   UNL A   1      46.176  27.931  26.003  1.00  0.00     0.037 A 
BRANCH  52  66
ATOM     66  C   UNL A   1      41.049  24.713  27.324  1.00  0.00     0.064 A 
ATOM     67  C   UNL A   1      41.444  23.553  28.001  1.00  0.00     0.173 A 
ATOM     68  C   UNL A   1      39.964  24.639  26.440  1.00  0.00     0.173 A 
ATOM     69  F   UNL A   1      42.521  23.571  28.802  1.00  0.00    -0.203 F 
ATOM     70  C   UNL A   1      40.779  22.352  27.786  1.00  0.00     0.198 A 
ATOM     71  C   UNL A   1      39.288  23.443  26.247  1.00  0.00     0.198 A 
ATOM     72  F   UNL A   1      39.586  25.721  25.741  1.00  0.00    -0.203 F 
ATOM     73  F   UNL A   1      41.206  21.234  28.389  1.00  0.00    -0.200 F 
ATOM     74  C   UNL A   1      39.700  22.299  26.914  1.00  0.00     0.200 A 
ATOM     75  F   UNL A   1      38.256  23.391  25.394  1.00  0.00    -0.200 F 
ATOM     76  F   UNL A   1      39.068  21.138  26.699  1.00  0.00    -0.200 F 
ENDBRANCH  52  66
BRANCH  53  77
ATOM     77  C   UNL A   1      45.548  33.502  28.249  1.00  0.00     0.064 A 
ATOM     78  C   UNL A   1      46.360  34.024  29.272  1.00  0.00     0.173 A 
ATOM     79  C   UNL A   1      45.215  34.384  27.204  1.00  0.00     0.173 A 
ATOM     80  F   UNL A   1      46.705  33.254  30.313  1.00  0.00    -0.203 F 
ATOM     81  C   UNL A   1      46.795  35.354  29.257  1.00  0.00     0.198 A 
ATOM     82  C   UNL A   1      45.686  35.698  27.168  1.00  0.00     0.198 A 
ATOM     83  F   UNL A   1      44.439  33.967  26.192  1.00  0.00    -0.203 F 
ATOM     84  F   UNL A   1      47.522  35.833  30.277  1.00  0.00    -0.200 F 
ATOM     85  C   UNL A   1      46.466  36.187  28.201  1.00  0.00     0.200 A 
ATOM     86  F   UNL A   1      45.382  36.486  26.128  1.00  0.00    -0.200 F 
ATOM     87  F   UNL A   1      46.890  37.458  28.181  1.00  0.00    -0.200 F 
ENDBRANCH  53  77
BRANCH  65  88
ATOM     88  C   UNL A   1      47.406  27.498  25.271  1.00  0.00     0.064 A 
ATOM     89  C   UNL A   1      48.492  26.927  25.952  1.00  0.00     0.173 A 
ATOM     90  C   UNL A   1      47.501  27.652  23.882  1.00  0.00     0.173 A 
ATOM     91  F   UNL A   1      48.455  26.783  27.286  1.00  0.00    -0.203 F 
ATOM     92  C   UNL A   1      49.644  26.553  25.269  1.00  0.00     0.198 A 
ATOM     93  C   UNL A   1      48.643  27.247  23.199  1.00  0.00     0.198 A 
ATOM     94  F   UNL A   1      46.488  28.197  23.191  1.00  0.00    -0.203 F 
ATOM     95  F   UNL A   1      50.692  26.065  25.946  1.00  0.00    -0.200 F 
ATOM     96  C   UNL A   1      49.715  26.708  23.893  1.00  0.00     0.200 A 
ATOM     97  F   UNL A   1      48.708  27.388  21.868  1.00  0.00    -0.200 F 
ATOM     98  F   UNL A   1      50.825  26.345  23.235  1.00  0.00    -0.200 F 
ENDBRANCH  65  88
ENDBRANCH  39  40
ENDBRANCH  32  34
ENDBRANCH  31  32
ENDBRANCH  30  31
ENDBRANCH   1  30
TORSDOF 14
ENDMDL
MODEL 2
REMARK VINA RESULT:     -13.0      3.643      9.196
REMARK SMILES C[C@@H](C(=O)OCCOC(=O)c1ccc(-c2c3nc(c(-c4c(F)c(F)c(F)c(F)c4F)c4ccc([nH]4)c(-c4c(F)c(F)c(F)c(F)c4F)c4nc(c(-c5c(F)c(F)c(F)c(F)c5F)c5ccc2[nH]5)C=C4)C=C3)cc1)c1ccc2c3cc(Cl)ccc3n(C(=O)c3ccc(Cl)cc3)c2c1
REMARK SMILES IDX 6 1 5 2 3 3 4 4 2 5 1 6 74 7 75 8 96 9 76 10 95 11 77 12
REMARK SMILES IDX 85 13 78 14 84 15 79 16 83 17 80 18 82 19 81 20 86 21 87 22
REMARK SMILES IDX 88 23 89 24 94 25 90 26 93 27 91 28 92 29 7 30 8 31 9 32
REMARK SMILES IDX 10 33 11 34 12 35 73 36 13 37 72 38 14 39 15 40 16 41 66 42
REMARK SMILES IDX 17 43 71 44 65 45 67 46 18 47 70 48 64 49 63 50 19 52 51 53
REMARK SMILES IDX 31 54 50 55 32 56 35 57 49 58 68 59 33 60 34 61 48 63 69 64
REMARK SMILES IDX 36 65 20 66 21 67 29 68 22 69 23 70 27 71 30 72 24 73 25 74
REMARK SMILES IDX 28 75 26 76 52 77 53 78 61 79 54 80 55 81 59 82 62 83 56 84
REMARK SMILES IDX 57 85 60 86 58 87 37 88 38 89 46 90 39 91 40 92 44 93 47 94
REMARK SMILES IDX 41 95 42 96 45 97 43 98
REMARK H PARENT 67 51 35 62
REMARK Flexibility Score: inf
ROOT
ATOM      1  C   UNL A   1      41.881  19.595  27.027  1.00  0.00     0.274 C 
ENDROOT
BRANCH   1   2
ATOM      2  O   UNL A   1      41.143  20.526  26.220  1.00  0.00    -0.462 OA
BRANCH   2   3
ATOM      3  C   UNL A   1      40.383  21.438  26.889  1.00  0.00     0.313 C 
ATOM      4  O   UNL A   1      40.488  21.674  28.087  1.00  0.00    -0.252 OA
BRANCH   3   5
ATOM      5  C   UNL A   1      39.452  22.214  25.941  1.00  0.00     0.126 C 
ATOM      6  C   UNL A   1      39.213  23.635  26.460  1.00  0.00     0.025 C 
BRANCH   5   7
ATOM      7  C   UNL A   1      38.131  21.512  25.645  1.00  0.00    -0.032 A 
ATOM      8  C   UNL A   1      38.087  20.216  25.132  1.00  0.00     0.005 A 
ATOM      9  C   UNL A   1      36.927  22.186  25.849  1.00  0.00     0.032 A 
ATOM     10  C   UNL A   1      36.865  19.595  24.857  1.00  0.00     0.011 A 
ATOM     11  C   UNL A   1      35.707  21.643  25.416  1.00  0.00     0.057 A 
ATOM     12  C   UNL A   1      35.665  20.320  25.001  1.00  0.00     0.008 A 
ATOM     13  N   UNL A   1      34.433  22.255  25.244  1.00  0.00    -0.276 N 
ATOM     14  C   UNL A   1      34.330  20.017  24.679  1.00  0.00     0.009 A 
ATOM     15  C   UNL A   1      33.693  21.263  24.515  1.00  0.00     0.057 A 
ATOM     16  C   UNL A   1      33.747  18.802  24.224  1.00  0.00     0.031 A 
ATOM     17  C   UNL A   1      32.682  21.244  23.542  1.00  0.00     0.029 A 
ATOM     18  C   UNL A   1      32.637  18.835  23.395  1.00  0.00     0.041 A 
ATOM     19  C   UNL A   1      32.157  20.057  22.985  1.00  0.00     0.023 A 
ATOM     20  Cl  UNL A   1      32.005  17.377  22.736  1.00  0.00    -0.084 Cl
BRANCH  13  21
ATOM     21  C   UNL A   1      34.242  23.651  25.676  1.00  0.00     0.262 C 
ATOM     22  O   UNL A   1      34.310  23.851  26.896  1.00  0.00    -0.268 OA
BRANCH  21  23
ATOM     23  C   UNL A   1      34.017  24.993  25.082  1.00  0.00     0.040 A 
ATOM     24  C   UNL A   1      33.963  25.039  23.660  1.00  0.00     0.015 A 
ATOM     25  C   UNL A   1      33.989  26.215  25.751  1.00  0.00     0.015 A 
ATOM     26  C   UNL A   1      33.653  26.204  22.947  1.00  0.00     0.021 A 
ATOM     27  C   UNL A   1      33.684  27.404  25.032  1.00  0.00     0.021 A 
ATOM     28  C   UNL A   1      33.467  27.382  23.649  1.00  0.00     0.041 A 
ATOM     29  Cl  UNL A   1      32.939  28.791  22.815  1.00  0.00    -0.084 Cl
ENDBRANCH  21  23
ENDBRANCH  13  21
ENDBRANCH   5   7
ENDBRANCH   3   5
ENDBRANCH   2   3
ENDBRANCH   1   2
BRANCH   1  30
ATOM     30  C   UNL A   1      42.592  18.587  26.114  1.00  0.00     0.275 C 
BRANCH  30  31
ATOM     31  O   UNL A   1      43.036  19.199  24.877  1.00  0.00    -0.458 OA
BRANCH  31  32
ATOM     32  C   UNL A   1      44.352  19.489  24.788  1.00  0.00     0.338 C 
ATOM     33  O   UNL A   1      45.270  18.690  24.562  1.00  0.00    -0.246 OA
BRANCH  32  34
ATOM     34  C   UNL A   1      44.585  20.945  24.929  1.00  0.00     0.060 A 
ATOM     35  C   UNL A   1      44.958  21.449  26.175  1.00  0.00     0.016 A 
ATOM     36  C   UNL A   1      44.415  21.841  23.864  1.00  0.00     0.016 A 
ATOM     37  C   UNL A   1      45.207  22.823  26.339  1.00  0.00     0.010 A 
ATOM     38  C   UNL A   1      44.678  23.223  24.030  1.00  0.00     0.010 A 
ATOM     39  C   UNL A   1      45.102  23.737  25.266  1.00  0.00    -0.014 A 
BRANCH  39  40
ATOM     40  C   UNL A   1      45.318  25.220  25.515  1.00  0.00     0.031 A 
ATOM     41  C   UNL A   1      44.263  25.948  26.252  1.00  0.00     0.074 A 
ATOM     42  C   UNL A   1      46.494  25.874  25.352  1.00  0.00     0.049 A 
ATOM     43  N   UNL A   1      44.354  27.104  26.846  1.00  0.00    -0.248 NA
ATOM     44  C   UNL A   1      42.972  25.267  26.383  1.00  0.00     0.031 C 
ATOM     45  C   UNL A   1      47.653  25.172  24.888  1.00  0.00     0.029 A 
ATOM     46  N   UNL A   1      47.024  27.095  25.734  1.00  0.00    -0.354 N 
ATOM     47  C   UNL A   1      43.119  27.305  27.418  1.00  0.00     0.074 A 
ATOM     48  C   UNL A   1      42.314  26.132  27.137  1.00  0.00     0.031 C 
ATOM     49  C   UNL A   1      48.774  25.838  25.181  1.00  0.00     0.029 A 
ATOM     50  C   UNL A   1      48.417  27.128  25.711  1.00  0.00     0.049 A 
ATOM     51  H   UNL A   1      46.470  27.865  25.996  1.00  0.00     0.167 HD
ATOM     52  C   UNL A   1      42.692  28.403  28.075  1.00  0.00     0.037 A 
ATOM     53  C   UNL A   1      49.347  28.021  26.110  1.00  0.00     0.037 A 
ATOM     54  C   UNL A   1      43.474  29.591  28.285  1.00  0.00     0.049 A 
ATOM     55  C   UNL A   1      48.826  29.274  26.725  1.00  0.00     0.074 A 
ATOM     56  C   UNL A   1      43.053  30.809  28.783  1.00  0.00     0.029 A 
ATOM     57  N   UNL A   1      44.829  29.722  28.001  1.00  0.00    -0.354 N 
ATOM     58  N   UNL A   1      47.617  29.498  27.168  1.00  0.00    -0.248 NA
ATOM     59  C   UNL A   1      49.758  30.396  26.876  1.00  0.00     0.031 C 
ATOM     60  C   UNL A   1      44.133  31.697  28.744  1.00  0.00     0.029 A 
ATOM     61  C   UNL A   1      45.246  31.018  28.276  1.00  0.00     0.049 A 
ATOM     62  H   UNL A   1      45.407  29.004  27.658  1.00  0.00     0.167 HD
ATOM     63  C   UNL A   1      47.629  30.796  27.633  1.00  0.00     0.074 A 
ATOM     64  C   UNL A   1      48.987  31.285  27.487  1.00  0.00     0.031 C 
ATOM     65  C   UNL A   1      46.588  31.516  28.106  1.00  0.00     0.037 A 
BRANCH  52  66
ATOM     66  C   UNL A   1      41.249  28.392  28.442  1.00  0.00     0.064 A 
ATOM     67  C   UNL A   1      40.258  28.868  27.576  1.00  0.00     0.173 A 
ATOM     68  C   UNL A   1      40.877  27.989  29.732  1.00  0.00     0.173 A 
ATOM     69  F   UNL A   1      40.587  29.327  26.358  1.00  0.00    -0.203 F 
ATOM     70  C   UNL A   1      38.935  28.951  27.997  1.00  0.00     0.198 A 
ATOM     71  C   UNL A   1      39.552  28.051  30.139  1.00  0.00     0.198 A 
ATOM     72  F   UNL A   1      41.807  27.569  30.604  1.00  0.00    -0.203 F 
ATOM     73  F   UNL A   1      38.006  29.469  27.182  1.00  0.00    -0.200 F 
ATOM     74  C   UNL A   1      38.584  28.538  29.275  1.00  0.00     0.200 A 
ATOM     75  F   UNL A   1      39.218  27.665  31.378  1.00  0.00    -0.200 F 
ATOM     76  F   UNL A   1      37.311  28.630  29.683  1.00  0.00    -0.200 F 
ENDBRANCH  52  66
BRANCH  53  77
ATOM     77  C   UNL A   1      50.828  27.796  25.947  1.00  0.00     0.064 A 
ATOM     78  C   UNL A   1      51.488  28.039  24.729  1.00  0.00     0.173 A 
ATOM     79  C   UNL A   1      51.620  27.296  26.997  1.00  0.00     0.173 A 
ATOM     80  F   UNL A   1      50.800  28.498  23.674  1.00  0.00    -0.203 F 
ATOM     81  C   UNL A   1      52.853  27.779  24.569  1.00  0.00     0.198 A 
ATOM     82  C   UNL A   1      52.991  27.077  26.849  1.00  0.00     0.198 A 
ATOM     83  F   UNL A   1      51.067  27.031  28.191  1.00  0.00    -0.203 F 
ATOM     84  F   UNL A   1      53.436  27.972  23.377  1.00  0.00    -0.200 F 
ATOM     85  C   UNL A   1      53.606  27.308  25.631  1.00  0.00     0.200 A 
ATOM     86  F   UNL A   1      53.713  26.646  27.892  1.00  0.00    -0.200 F 
ATOM     87  F   UNL A   1      54.916  27.067  25.481  1.00  0.00    -0.200 F 
ENDBRANCH  53  77
BRANCH  65  88
ATOM     88  C   UNL A   1      46.880  32.938  28.464  1.00  0.00     0.064 A 
ATOM     89  C   UNL A   1      46.744  33.967  27.519  1.00  0.00     0.173 A 
ATOM     90  C   UNL A   1      47.295  33.278  29.758  1.00  0.00     0.173 A 
ATOM     91  F   UNL A   1      46.373  33.685  26.261  1.00  0.00    -0.203 F 
ATOM     92  C   UNL A   1      47.044  35.284  27.851  1.00  0.00     0.198 A 
ATOM     93  C   UNL A   1      47.564  34.600  30.094  1.00  0.00     0.198 A 
ATOM     94  F   UNL A   1      47.442  32.327  30.693  1.00  0.00    -0.203 F 
ATOM     95  F   UNL A   1      46.965  36.241  26.918  1.00  0.00    -0.200 F 
ATOM     96  C   UNL A   1      47.447  35.599  29.140  1.00  0.00     0.200 A 
ATOM     97  F   UNL A   1      47.944  34.906  31.342  1.00  0.00    -0.200 F 
ATOM     98  F   UNL A   1      47.734  36.868  29.459  1.00  0.00    -0.200 F 
ENDBRANCH  65  88
ENDBRANCH  39  40
ENDBRANCH  32  34
ENDBRANCH  31  32
ENDBRANCH  30  31
ENDBRANCH   1  30
TORSDOF 14
ENDMDL
MODEL 3
REMARK VINA RESULT:     -13.0      5.190      7.992
REMARK SMILES C[C@@H](C(=O)OCCOC(=O)c1ccc(-c2c3nc(c(-c4c(F)c(F)c(F)c(F)c4F)c4ccc([nH]4)c(-c4c(F)c(F)c(F)c(F)c4F)c4nc(c(-c5c(F)c(F)c(F)c(F)c5F)c5ccc2[nH]5)C=C4)C=C3)cc1)c1ccc2c3cc(Cl)ccc3n(C(=O)c3ccc(Cl)cc3)c2c1
REMARK SMILES IDX 6 1 5 2 3 3 4 4 2 5 1 6 74 7 75 8 96 9 76 10 95 11 77 12
REMARK SMILES IDX 85 13 78 14 84 15 79 16 83 17 80 18 82 19 81 20 86 21 87 22
REMARK SMILES IDX 88 23 89 24 94 25 90 26 93 27 91 28 92 29 7 30 8 31 9 32
REMARK SMILES IDX 10 33 11 34 12 35 73 36 13 37 72 38 14 39 15 40 16 41 66 42
REMARK SMILES IDX 17 43 71 44 65 45 67 46 18 47 70 48 64 49 63 50 19 52 51 53
REMARK SMILES IDX 31 54 50 55 32 56 35 57 49 58 68 59 33 60 34 61 48 63 69 64
REMARK SMILES IDX 36 65 20 66 21 67 29 68 22 69 23 70 27 71 30 72 24 73 25 74
REMARK SMILES IDX 28 75 26 76 52 77 53 78 61 79 54 80 55 81 59 82 62 83 56 84
REMARK SMILES IDX 57 85 60 86 58 87 37 88 38 89 46 90 39 91 40 92 44 93 47 94
REMARK SMILES IDX 41 95 42 96 45 97 43 98
REMARK H PARENT 67 51 35 62
REMARK Flexibility Score: inf
ROOT
ATOM      1  C   UNL A   1      34.158  34.500  28.796  1.00  0.00     0.274 C 
ENDROOT
BRANCH   1   2
ATOM      2  O   UNL A   1      34.021  33.073  28.898  1.00  0.00    -0.462 OA
BRANCH   2   3
ATOM      3  C   UNL A   1      34.866  32.328  28.132  1.00  0.00     0.313 C 
ATOM      4  O   UNL A   1      35.897  32.758  27.626  1.00  0.00    -0.252 OA
BRANCH   3   5
ATOM      5  C   UNL A   1      34.429  30.854  28.065  1.00  0.00     0.126 C 
ATOM      6  C   UNL A   1      35.647  29.934  27.930  1.00  0.00     0.025 C 
BRANCH   5   7
ATOM      7  C   UNL A   1      33.397  30.554  26.983  1.00  0.00    -0.032 A 
ATOM      8  C   UNL A   1      32.263  31.347  26.810  1.00  0.00     0.005 A 
ATOM      9  C   UNL A   1      33.555  29.436  26.164  1.00  0.00     0.032 A 
ATOM     10  C   UNL A   1      31.323  31.048  25.820  1.00  0.00     0.011 A 
ATOM     11  C   UNL A   1      32.538  29.027  25.287  1.00  0.00     0.057 A 
ATOM     12  C   UNL A   1      31.465  29.874  25.053  1.00  0.00     0.008 A 
ATOM     13  N   UNL A   1      32.351  27.793  24.601  1.00  0.00    -0.276 N 
ATOM     14  C   UNL A   1      30.631  29.254  24.105  1.00  0.00     0.009 A 
ATOM     15  C   UNL A   1      31.006  27.895  24.111  1.00  0.00     0.057 A 
ATOM     16  C   UNL A   1      29.419  29.704  23.513  1.00  0.00     0.031 A 
ATOM     17  C   UNL A   1      29.932  27.025  23.862  1.00  0.00     0.029 A 
ATOM     18  C   UNL A   1      28.455  28.787  23.126  1.00  0.00     0.041 A 
ATOM     19  C   UNL A   1      28.676  27.453  23.380  1.00  0.00     0.023 A 
ATOM     20  Cl  UNL A   1      26.936  29.327  22.529  1.00  0.00    -0.084 Cl
BRANCH  13  21
ATOM     21  C   UNL A   1      33.405  26.765  24.670  1.00  0.00     0.262 C 
ATOM     22  O   UNL A   1      34.403  26.969  23.965  1.00  0.00    -0.268 OA
BRANCH  21  23
ATOM     23  C   UNL A   1      33.699  25.498  25.387  1.00  0.00     0.040 A 
ATOM     24  C   UNL A   1      32.652  24.999  26.213  1.00  0.00     0.015 A 
ATOM     25  C   UNL A   1      34.918  24.828  25.445  1.00  0.00     0.015 A 
ATOM     26  C   UNL A   1      32.725  23.766  26.872  1.00  0.00     0.021 A 
ATOM     27  C   UNL A   1      35.003  23.579  26.121  1.00  0.00     0.021 A 
ATOM     28  C   UNL A   1      33.896  23.034  26.782  1.00  0.00     0.041 A 
ATOM     29  Cl  UNL A   1      33.960  21.452  27.455  1.00  0.00    -0.084 Cl
ENDBRANCH  21  23
ENDBRANCH  13  21
ENDBRANCH   5   7
ENDBRANCH   3   5
ENDBRANCH   2   3
ENDBRANCH   1   2
BRANCH   1  30
ATOM     30  C   UNL A   1      32.903  35.169  29.371  1.00  0.00     0.275 C 
BRANCH  30  31
ATOM     31  O   UNL A   1      33.235  36.223  30.310  1.00  0.00    -0.458 OA
BRANCH  31  32
ATOM     32  C   UNL A   1      32.958  35.981  31.608  1.00  0.00     0.338 C 
ATOM     33  O   UNL A   1      31.965  36.373  32.236  1.00  0.00    -0.246 OA
BRANCH  32  34
ATOM     34  C   UNL A   1      33.981  35.097  32.215  1.00  0.00     0.060 A 
ATOM     35  C   UNL A   1      35.322  35.474  32.142  1.00  0.00     0.016 A 
ATOM     36  C   UNL A   1      33.655  33.881  32.830  1.00  0.00     0.016 A 
ATOM     37  C   UNL A   1      36.317  34.669  32.724  1.00  0.00     0.010 A 
ATOM     38  C   UNL A   1      34.659  33.077  33.424  1.00  0.00     0.010 A 
ATOM     39  C   UNL A   1      36.007  33.469  33.403  1.00  0.00    -0.014 A 
BRANCH  39  40
ATOM     40  C   UNL A   1      37.128  32.603  33.955  1.00  0.00     0.031 A 
ATOM     41  C   UNL A   1      37.816  31.696  33.012  1.00  0.00     0.074 A 
ATOM     42  C   UNL A   1      37.721  32.775  35.162  1.00  0.00     0.049 A 
ATOM     43  N   UNL A   1      38.970  31.112  33.162  1.00  0.00    -0.248 NA
ATOM     44  C   UNL A   1      37.149  31.465  31.727  1.00  0.00     0.031 C 
ATOM     45  C   UNL A   1      37.285  33.818  36.041  1.00  0.00     0.029 A 
ATOM     46  N   UNL A   1      38.878  32.333  35.782  1.00  0.00    -0.354 N 
ATOM     47  C   UNL A   1      39.173  30.424  31.988  1.00  0.00     0.074 A 
ATOM     48  C   UNL A   1      38.043  30.700  31.122  1.00  0.00     0.031 C 
ATOM     49  C   UNL A   1      38.216  34.103  36.956  1.00  0.00     0.029 A 
ATOM     50  C   UNL A   1      39.274  33.132  36.853  1.00  0.00     0.049 A 
ATOM     51  H   UNL A   1      39.372  31.532  35.495  1.00  0.00     0.167 HD
ATOM     52  C   UNL A   1      40.194  29.594  31.693  1.00  0.00     0.037 A 
ATOM     53  C   UNL A   1      40.365  33.174  37.648  1.00  0.00     0.037 A 
ATOM     54  C   UNL A   1      41.273  29.268  32.587  1.00  0.00     0.049 A 
ATOM     55  C   UNL A   1      41.420  32.161  37.360  1.00  0.00     0.074 A 
ATOM     56  C   UNL A   1      42.247  28.301  32.428  1.00  0.00     0.029 A 
ATOM     57  N   UNL A   1      41.518  29.885  33.808  1.00  0.00    -0.354 N 
ATOM     58  N   UNL A   1      41.544  31.427  36.286  1.00  0.00    -0.248 NA
ATOM     59  C   UNL A   1      42.457  31.953  38.376  1.00  0.00     0.031 C 
ATOM     60  C   UNL A   1      43.044  28.287  33.577  1.00  0.00     0.029 A 
ATOM     61  C   UNL A   1      42.606  29.285  34.431  1.00  0.00     0.049 A 
ATOM     62  H   UNL A   1      41.000  30.635  34.178  1.00  0.00     0.167 HD
ATOM     63  C   UNL A   1      42.662  30.650  36.499  1.00  0.00     0.074 A 
ATOM     64  C   UNL A   1      43.224  31.055  37.774  1.00  0.00     0.031 C 
ATOM     65  C   UNL A   1      43.149  29.666  35.710  1.00  0.00     0.037 A 
BRANCH  52  66
ATOM     66  C   UNL A   1      40.058  28.866  30.402  1.00  0.00     0.064 A 
ATOM     67  C   UNL A   1      39.420  27.623  30.313  1.00  0.00     0.173 A 
ATOM     68  C   UNL A   1      40.674  29.388  29.256  1.00  0.00     0.173 A 
ATOM     69  F   UNL A   1      38.879  27.060  31.404  1.00  0.00    -0.203 F 
ATOM     70  C   UNL A   1      39.414  26.919  29.114  1.00  0.00     0.198 A 
ATOM     71  C   UNL A   1      40.645  28.693  28.056  1.00  0.00     0.198 A 
ATOM     72  F   UNL A   1      41.333  30.556  29.316  1.00  0.00    -0.203 F 
ATOM     73  F   UNL A   1      38.857  25.701  29.057  1.00  0.00    -0.200 F 
ATOM     74  C   UNL A   1      40.021  27.457  27.987  1.00  0.00     0.200 A 
ATOM     75  F   UNL A   1      41.244  29.208  26.974  1.00  0.00    -0.200 F 
ATOM     76  F   UNL A   1      40.025  26.772  26.836  1.00  0.00    -0.200 F 
ENDBRANCH  52  66
BRANCH  53  77
ATOM     77  C   UNL A   1      40.528  34.165  38.770  1.00  0.00     0.064 A 
ATOM     78  C   UNL A   1      39.970  33.947  40.042  1.00  0.00     0.173 A 
ATOM     79  C   UNL A   1      41.219  35.378  38.590  1.00  0.00     0.173 A 
ATOM     80  F   UNL A   1      39.279  32.825  40.288  1.00  0.00    -0.203 F 
ATOM     81  C   UNL A   1      40.081  34.896  41.065  1.00  0.00     0.198 A 
ATOM     82  C   UNL A   1      41.367  36.305  39.625  1.00  0.00     0.198 A 
ATOM     83  F   UNL A   1      41.777  35.667  37.405  1.00  0.00    -0.203 F 
ATOM     84  F   UNL A   1      39.489  34.678  42.248  1.00  0.00    -0.200 F 
ATOM     85  C   UNL A   1      40.787  36.069  40.859  1.00  0.00     0.200 A 
ATOM     86  F   UNL A   1      42.075  37.423  39.421  1.00  0.00    -0.200 F 
ATOM     87  F   UNL A   1      40.902  36.974  41.841  1.00  0.00    -0.200 F 
ENDBRANCH  53  77
BRANCH  65  88
ATOM     88  C   UNL A   1      44.339  28.928  36.236  1.00  0.00     0.064 A 
ATOM     89  C   UNL A   1      45.640  29.415  36.041  1.00  0.00     0.173 A 
ATOM     90  C   UNL A   1      44.179  27.728  36.942  1.00  0.00     0.173 A 
ATOM     91  F   UNL A   1      45.842  30.547  35.349  1.00  0.00    -0.203 F 
ATOM     92  C   UNL A   1      46.743  28.709  36.509  1.00  0.00     0.198 A 
ATOM     93  C   UNL A   1      45.283  27.042  37.436  1.00  0.00     0.198 A 
ATOM     94  F   UNL A   1      42.953  27.223  37.149  1.00  0.00    -0.203 F 
ATOM     95  F   UNL A   1      47.979  29.161  36.260  1.00  0.00    -0.200 F 
ATOM     96  C   UNL A   1      46.562  27.527  37.211  1.00  0.00     0.200 A 
ATOM     97  F   UNL A   1      45.108  25.904  38.123  1.00  0.00    -0.200 F 
ATOM     98  F   UNL A   1      47.625  26.849  37.664  1.00  0.00    -0.200 F 
ENDBRANCH  65  88
ENDBRANCH  39  40
ENDBRANCH  32  34
ENDBRANCH  31  32
ENDBRANCH  30  31
ENDBRANCH   1  30
TORSDOF 14
ENDMDL
