MODEL 1
REMARK VINA RESULT:     -12.5      0.000      0.000
REMARK SMILES CCc1cccc2c3c([nH]c12)[C@](CC)(CC(=O)OCCOC(=O)c1ccc(-c2c4nc(c(-c5c(F)c(F)c(F)c(F)c5F)c5ccc([nH]5)c(-c5c(F)c(F)c(F)c(F)c5F)c5nc(c(-c6c(F)c(F)c(F)c(F)c6F)c6ccc2[nH]6)C=C5)C=C4)cc1)OCC3
REMARK SMILES IDX 19 1 18 2 16 3 17 4 15 5 12 6 3 7 4 8 11 9 5 10 7 11 10 12
REMARK SMILES IDX 6 13 8 14 9 15 89 17 88 18 87 19 2 20 1 21 13 22 14 23 20 24
REMARK SMILES IDX 21 25 22 26 23 27 24 28 25 29 86 30 26 31 85 32 27 33 28 34
REMARK SMILES IDX 29 35 79 36 30 37 84 38 78 39 80 40 31 41 83 42 77 43 76 44
REMARK SMILES IDX 32 46 64 47 44 48 63 49 45 50 48 51 62 52 81 53 46 54 47 55
REMARK SMILES IDX 61 57 82 58 49 59 33 60 34 61 42 62 35 63 36 64 40 65 43 66
REMARK SMILES IDX 37 67 38 68 41 69 39 70 65 71 66 72 74 73 67 74 68 75 72 76
REMARK SMILES IDX 75 77 69 78 70 79 73 80 71 81 50 82 51 83 59 84 52 85 53 86
REMARK SMILES IDX 57 87 60 88 54 89 55 90 58 91 56 92
REMARK H PARENT 10 16 80 45 48 56
REMARK Flexibility Score: inf
ROOT
ATOM      1  C   UNL A   1      37.692  21.878  25.731  1.00  0.00     0.274 C 
ENDROOT
BRANCH   1   2
ATOM      2  O   UNL A   1      37.404  22.954  24.803  1.00  0.00    -0.462 OA
BRANCH   2   3
ATOM      3  C   UNL A   1      36.380  22.755  23.949  1.00  0.00     0.309 C 
ATOM      4  O   UNL A   1      36.428  23.050  22.755  1.00  0.00    -0.252 OA
BRANCH   3   5
ATOM      5  C   UNL A   1      35.081  22.242  24.535  1.00  0.00     0.164 C 
BRANCH   5   6
ATOM      6  C   UNL A   1      33.725  22.967  24.680  1.00  0.00     0.118 C 
ATOM      7  C   UNL A   1      33.551  28.000  25.402  1.00  0.00    -0.024 A 
ATOM      8  C   UNL A   1      33.425  29.075  24.497  1.00  0.00     0.006 A 
ATOM      9  C   UNL A   1      33.545  26.705  24.834  1.00  0.00     0.049 A 
ATOM     10  C   UNL A   1      33.268  28.876  23.128  1.00  0.00     0.001 A 
ATOM     11  C   UNL A   1      33.378  26.479  23.465  1.00  0.00     0.003 A 
ATOM     12  N   UNL A   1      33.666  25.456  25.421  1.00  0.00    -0.356 N 
ATOM     13  C   UNL A   1      33.222  27.583  22.606  1.00  0.00     0.010 A 
ATOM     14  C   UNL A   1      33.364  25.069  23.269  1.00  0.00    -0.014 A 
ATOM     15  C   UNL A   1      33.670  24.459  24.467  1.00  0.00     0.052 A 
ATOM     16  H   UNL A   1      33.741  25.299  26.389  1.00  0.00     0.166 HD
ATOM     17  C   UNL A   1      32.998  24.279  22.069  1.00  0.00     0.066 C 
ATOM     18  C   UNL A   1      32.963  22.765  22.366  1.00  0.00     0.166 C 
ATOM     19  O   UNL A   1      32.759  22.416  23.746  1.00  0.00    -0.368 OA
BRANCH   7  20
ATOM     20  C   UNL A   1      33.658  28.306  26.877  1.00  0.00     0.034 C 
ATOM     21  C   UNL A   1      34.970  29.002  27.221  1.00  0.00     0.009 C 
ENDBRANCH   7  20
BRANCH   6  22
ATOM     22  C   UNL A   1      33.154  22.638  26.103  1.00  0.00     0.039 C 
ATOM     23  C   UNL A   1      34.182  22.182  27.137  1.00  0.00     0.007 C 
ENDBRANCH   6  22
ENDBRANCH   5   6
ENDBRANCH   3   5
ENDBRANCH   2   3
ENDBRANCH   1   2
BRANCH   1  24
ATOM     24  C   UNL A   1      39.201  21.650  25.842  1.00  0.00     0.275 C 
BRANCH  24  25
ATOM     25  O   UNL A   1      39.756  22.678  26.672  1.00  0.00    -0.458 OA
BRANCH  25  26
ATOM     26  C   UNL A   1      41.085  22.907  26.502  1.00  0.00     0.338 C 
ATOM     27  O   UNL A   1      41.879  22.219  25.911  1.00  0.00    -0.246 OA
BRANCH  26  28
ATOM     28  C   UNL A   1      41.275  24.331  26.851  1.00  0.00     0.060 A 
ATOM     29  C   UNL A   1      42.097  24.712  27.911  1.00  0.00     0.016 A 
ATOM     30  C   UNL A   1      40.400  25.244  26.262  1.00  0.00     0.016 A 
ATOM     31  C   UNL A   1      41.929  25.968  28.472  1.00  0.00     0.010 A 
ATOM     32  C   UNL A   1      40.204  26.487  26.843  1.00  0.00     0.010 A 
ATOM     33  C   UNL A   1      40.934  26.827  27.981  1.00  0.00    -0.014 A 
BRANCH  33  34
ATOM     34  C   UNL A   1      40.898  28.187  28.499  1.00  0.00     0.031 A 
ATOM     35  C   UNL A   1      42.109  28.941  28.117  1.00  0.00     0.074 A 
ATOM     36  C   UNL A   1      39.927  28.780  29.218  1.00  0.00     0.049 A 
ATOM     37  N   UNL A   1      43.131  29.190  28.863  1.00  0.00    -0.248 NA
ATOM     38  C   UNL A   1      42.282  29.304  26.703  1.00  0.00     0.031 C 
ATOM     39  C   UNL A   1      38.552  28.343  29.441  1.00  0.00     0.029 A 
ATOM     40  N   UNL A   1      39.987  29.983  29.869  1.00  0.00    -0.354 N 
ATOM     41  C   UNL A   1      44.015  29.891  28.057  1.00  0.00     0.074 A 
ATOM     42  C   UNL A   1      43.535  29.760  26.708  1.00  0.00     0.031 C 
ATOM     43  C   UNL A   1      37.854  29.351  30.019  1.00  0.00     0.029 A 
ATOM     44  C   UNL A   1      38.764  30.442  30.338  1.00  0.00     0.049 A 
ATOM     45  H   UNL A   1      40.826  30.481  29.994  1.00  0.00     0.167 HD
ATOM     46  C   UNL A   1      44.919  30.744  28.601  1.00  0.00     0.037 A 
ATOM     47  C   UNL A   1      38.529  31.647  30.915  1.00  0.00     0.037 A 
ATOM     48  C   UNL A   1      45.074  30.505  30.014  1.00  0.00     0.049 A 
ATOM     49  C   UNL A   1      39.816  32.144  31.461  1.00  0.00     0.074 A 
ATOM     50  C   UNL A   1      45.547  29.471  30.792  1.00  0.00     0.029 A 
ATOM     51  N   UNL A   1      44.346  31.323  30.839  1.00  0.00    -0.354 N 
ATOM     52  N   UNL A   1      40.428  31.624  32.489  1.00  0.00    -0.248 NA
ATOM     53  C   UNL A   1      40.609  33.079  30.673  1.00  0.00     0.031 C 
ATOM     54  C   UNL A   1      44.805  29.531  32.009  1.00  0.00     0.029 A 
ATOM     55  C   UNL A   1      43.925  30.613  31.931  1.00  0.00     0.049 A 
ATOM     56  H   UNL A   1      44.155  32.274  30.672  1.00  0.00     0.167 HD
ATOM     57  C   UNL A   1      41.771  31.822  32.227  1.00  0.00     0.074 A 
ATOM     58  C   UNL A   1      41.812  32.862  31.211  1.00  0.00     0.031 C 
ATOM     59  C   UNL A   1      42.698  30.910  32.638  1.00  0.00     0.037 A 
BRANCH  46  60
ATOM     60  C   UNL A   1      45.325  32.054  27.967  1.00  0.00     0.064 A 
ATOM     61  C   UNL A   1      44.329  33.014  27.701  1.00  0.00     0.173 A 
ATOM     62  C   UNL A   1      46.569  32.279  27.336  1.00  0.00     0.173 A 
ATOM     63  F   UNL A   1      43.099  32.886  28.221  1.00  0.00    -0.203 F 
ATOM     64  C   UNL A   1      44.542  34.072  26.814  1.00  0.00     0.198 A 
ATOM     65  C   UNL A   1      46.796  33.369  26.501  1.00  0.00     0.198 A 
ATOM     66  F   UNL A   1      47.577  31.402  27.398  1.00  0.00    -0.203 F 
ATOM     67  F   UNL A   1      43.526  34.882  26.489  1.00  0.00    -0.200 F 
ATOM     68  C   UNL A   1      45.775  34.247  26.213  1.00  0.00     0.200 A 
ATOM     69  F   UNL A   1      47.992  33.506  25.910  1.00  0.00    -0.200 F 
ATOM     70  F   UNL A   1      45.965  35.226  25.320  1.00  0.00    -0.200 F 
ENDBRANCH  46  60
BRANCH  47  71
ATOM     71  C   UNL A   1      37.325  32.515  30.864  1.00  0.00     0.064 A 
ATOM     72  C   UNL A   1      37.040  33.291  29.724  1.00  0.00     0.173 A 
ATOM     73  C   UNL A   1      36.279  32.369  31.793  1.00  0.00     0.173 A 
ATOM     74  F   UNL A   1      37.964  33.457  28.767  1.00  0.00    -0.203 F 
ATOM     75  C   UNL A   1      35.772  33.841  29.505  1.00  0.00     0.198 A 
ATOM     76  C   UNL A   1      35.017  32.927  31.578  1.00  0.00     0.198 A 
ATOM     77  F   UNL A   1      36.427  31.598  32.879  1.00  0.00    -0.203 F 
ATOM     78  F   UNL A   1      35.517  34.503  28.367  1.00  0.00    -0.200 F 
ATOM     79  C   UNL A   1      34.758  33.645  30.426  1.00  0.00     0.200 A 
ATOM     80  F   UNL A   1      34.033  32.703  32.460  1.00  0.00    -0.200 F 
ATOM     81  F   UNL A   1      33.524  34.108  30.183  1.00  0.00    -0.200 F 
ENDBRANCH  47  71
BRANCH  59  82
ATOM     82  C   UNL A   1      42.323  29.993  33.765  1.00  0.00     0.064 A 
ATOM     83  C   UNL A   1      41.742  28.726  33.600  1.00  0.00     0.173 A 
ATOM     84  C   UNL A   1      42.699  30.373  35.062  1.00  0.00     0.173 A 
ATOM     85  F   UNL A   1      41.431  28.260  32.382  1.00  0.00    -0.203 F 
ATOM     86  C   UNL A   1      41.525  27.890  34.695  1.00  0.00     0.198 A 
ATOM     87  C   UNL A   1      42.519  29.521  36.145  1.00  0.00     0.198 A 
ATOM     88  F   UNL A   1      43.294  31.558  35.270  1.00  0.00    -0.203 F 
ATOM     89  F   UNL A   1      40.959  26.687  34.521  1.00  0.00    -0.200 F 
ATOM     90  C   UNL A   1      41.925  28.283  35.963  1.00  0.00     0.200 A 
ATOM     91  F   UNL A   1      42.950  29.886  37.360  1.00  0.00    -0.200 F 
ATOM     92  F   UNL A   1      41.764  27.456  37.006  1.00  0.00    -0.200 F 
ENDBRANCH  59  82
ENDBRANCH  33  34
ENDBRANCH  26  28
ENDBRANCH  25  26
ENDBRANCH  24  25
ENDBRANCH   1  24
TORSDOF 14
ENDMDL
MODEL 2
REMARK VINA RESULT:     -12.4      0.597      1.675
REMARK SMILES CCc1cccc2c3c([nH]c12)[C@](CC)(CC(=O)OCCOC(=O)c1ccc(-c2c4nc(c(-c5c(F)c(F)c(F)c(F)c5F)c5ccc([nH]5)c(-c5c(F)c(F)c(F)c(F)c5F)c5nc(c(-c6c(F)c(F)c(F)c(F)c6F)c6ccc2[nH]6)C=C5)C=C4)cc1)OCC3
REMARK SMILES IDX 19 1 18 2 16 3 17 4 15 5 12 6 3 7 4 8 11 9 5 10 7 11 10 12
REMARK SMILES IDX 6 13 8 14 9 15 89 17 88 18 87 19 2 20 1 21 13 22 14 23 20 24
REMARK SMILES IDX 21 25 22 26 23 27 24 28 25 29 86 30 26 31 85 32 27 33 28 34
REMARK SMILES IDX 29 35 79 36 30 37 84 38 78 39 80 40 31 41 83 42 77 43 76 44
REMARK SMILES IDX 32 46 64 47 44 48 63 49 45 50 48 51 62 52 81 53 46 54 47 55
REMARK SMILES IDX 61 57 82 58 49 59 33 60 34 61 42 62 35 63 36 64 40 65 43 66
REMARK SMILES IDX 37 67 38 68 41 69 39 70 65 71 66 72 74 73 67 74 68 75 72 76
REMARK SMILES IDX 75 77 69 78 70 79 73 80 71 81 50 82 51 83 59 84 52 85 53 86
REMARK SMILES IDX 57 87 60 88 54 89 55 90 58 91 56 92
REMARK H PARENT 10 16 80 45 48 56
REMARK Flexibility Score: inf
ROOT
ATOM      1  C   UNL A   1      37.669  21.820  25.753  1.00  0.00     0.274 C 
ENDROOT
BRANCH   1   2
ATOM      2  O   UNL A   1      37.577  22.685  24.593  1.00  0.00    -0.462 OA
BRANCH   2   3
ATOM      3  C   UNL A   1      36.448  22.594  23.862  1.00  0.00     0.309 C 
ATOM      4  O   UNL A   1      36.369  22.964  22.690  1.00  0.00    -0.252 OA
BRANCH   3   5
ATOM      5  C   UNL A   1      35.201  22.111  24.573  1.00  0.00     0.164 C 
BRANCH   5   6
ATOM      6  C   UNL A   1      33.848  22.831  24.765  1.00  0.00     0.118 C 
ATOM      7  C   UNL A   1      33.678  27.876  25.404  1.00  0.00    -0.024 A 
ATOM      8  C   UNL A   1      33.505  28.933  24.486  1.00  0.00     0.006 A 
ATOM      9  C   UNL A   1      33.654  26.570  24.860  1.00  0.00     0.049 A 
ATOM     10  C   UNL A   1      33.287  28.708  23.130  1.00  0.00     0.001 A 
ATOM     11  C   UNL A   1      33.427  26.318  23.504  1.00  0.00     0.003 A 
ATOM     12  N   UNL A   1      33.809  25.332  25.463  1.00  0.00    -0.356 N 
ATOM     13  C   UNL A   1      33.226  27.406  22.633  1.00  0.00     0.010 A 
ATOM     14  C   UNL A   1      33.412  24.905  23.335  1.00  0.00    -0.014 A 
ATOM     15  C   UNL A   1      33.775  24.318  24.528  1.00  0.00     0.052 A 
ATOM     16  H   UNL A   1      33.928  25.194  26.430  1.00  0.00     0.166 HD
ATOM     17  C   UNL A   1      32.997  24.091  22.167  1.00  0.00     0.066 C 
ATOM     18  C   UNL A   1      32.984  22.582  22.492  1.00  0.00     0.166 C 
ATOM     19  O   UNL A   1      32.844  22.258  23.887  1.00  0.00    -0.368 OA
BRANCH   7  20
ATOM     20  C   UNL A   1      33.850  28.209  26.867  1.00  0.00     0.034 C 
ATOM     21  C   UNL A   1      34.854  29.336  27.080  1.00  0.00     0.009 C 
ENDBRANCH   7  20
BRANCH   6  22
ATOM     22  C   UNL A   1      33.344  22.525  26.219  1.00  0.00     0.039 C 
ATOM     23  C   UNL A   1      34.216  21.569  27.031  1.00  0.00     0.007 C 
ENDBRANCH   6  22
ENDBRANCH   5   6
ENDBRANCH   3   5
ENDBRANCH   2   3
ENDBRANCH   1   2
BRANCH   1  24
ATOM     24  C   UNL A   1      39.118  21.392  25.994  1.00  0.00     0.275 C 
BRANCH  24  25
ATOM     25  O   UNL A   1      39.716  22.310  26.918  1.00  0.00    -0.458 OA
BRANCH  25  26
ATOM     26  C   UNL A   1      41.000  22.659  26.641  1.00  0.00     0.338 C 
ATOM     27  O   UNL A   1      41.815  22.024  26.020  1.00  0.00    -0.246 OA
BRANCH  26  28
ATOM     28  C   UNL A   1      41.071  24.109  26.920  1.00  0.00     0.060 A 
ATOM     29  C   UNL A   1      41.979  24.623  27.844  1.00  0.00     0.016 A 
ATOM     30  C   UNL A   1      40.026  24.894  26.433  1.00  0.00     0.016 A 
ATOM     31  C   UNL A   1      41.746  25.877  28.388  1.00  0.00     0.010 A 
ATOM     32  C   UNL A   1      39.770  26.132  27.001  1.00  0.00     0.010 A 
ATOM     33  C   UNL A   1      40.602  26.599  28.016  1.00  0.00    -0.014 A 
BRANCH  33  34
ATOM     34  C   UNL A   1      40.481  27.968  28.496  1.00  0.00     0.031 A 
ATOM     35  C   UNL A   1      41.597  28.808  28.014  1.00  0.00     0.074 A 
ATOM     36  C   UNL A   1      39.510  28.502  29.258  1.00  0.00     0.049 A 
ATOM     37  N   UNL A   1      42.638  29.168  28.685  1.00  0.00    -0.248 NA
ATOM     38  C   UNL A   1      41.650  29.136  26.582  1.00  0.00     0.031 C 
ATOM     39  C   UNL A   1      38.194  27.958  29.582  1.00  0.00     0.029 A 
ATOM     40  N   UNL A   1      39.505  29.727  29.869  1.00  0.00    -0.354 N 
ATOM     41  C   UNL A   1      43.406  29.913  27.804  1.00  0.00     0.074 A 
ATOM     42  C   UNL A   1      42.856  29.695  26.493  1.00  0.00     0.031 C 
ATOM     43  C   UNL A   1      37.448  28.923  30.175  1.00  0.00     0.029 A 
ATOM     44  C   UNL A   1      38.279  30.097  30.403  1.00  0.00     0.049 A 
ATOM     45  H   UNL A   1      40.304  30.298  29.925  1.00  0.00     0.167 HD
ATOM     46  C   UNL A   1      44.266  30.857  28.263  1.00  0.00     0.037 A 
ATOM     47  C   UNL A   1      37.977  31.298  30.959  1.00  0.00     0.037 A 
ATOM     48  C   UNL A   1      44.527  30.681  29.669  1.00  0.00     0.049 A 
ATOM     49  C   UNL A   1      39.247  31.919  31.406  1.00  0.00     0.074 A 
ATOM     50  C   UNL A   1      45.135  29.718  30.445  1.00  0.00     0.029 A 
ATOM     51  N   UNL A   1      43.784  31.462  30.516  1.00  0.00    -0.354 N 
ATOM     52  N   UNL A   1      39.964  31.489  32.406  1.00  0.00    -0.248 NA
ATOM     53  C   UNL A   1      39.907  32.890  30.541  1.00  0.00     0.031 C 
ATOM     54  C   UNL A   1      44.468  29.757  31.705  1.00  0.00     0.029 A 
ATOM     55  C   UNL A   1      43.495  30.757  31.653  1.00  0.00     0.049 A 
ATOM     56  H   UNL A   1      43.502  32.387  30.334  1.00  0.00     0.167 HD
ATOM     57  C   UNL A   1      41.267  31.790  32.053  1.00  0.00     0.074 A 
ATOM     58  C   UNL A   1      41.154  32.794  31.006  1.00  0.00     0.031 C 
ATOM     59  C   UNL A   1      42.292  30.974  32.429  1.00  0.00     0.037 A 
BRANCH  46  60
ATOM     60  C   UNL A   1      44.516  32.174  27.566  1.00  0.00     0.064 A 
ATOM     61  C   UNL A   1      45.725  32.348  26.864  1.00  0.00     0.173 A 
ATOM     62  C   UNL A   1      43.781  33.355  27.813  1.00  0.00     0.173 A 
ATOM     63  F   UNL A   1      46.521  31.300  26.601  1.00  0.00    -0.203 F 
ATOM     64  C   UNL A   1      46.193  33.614  26.504  1.00  0.00     0.198 A 
ATOM     65  C   UNL A   1      44.223  34.609  27.399  1.00  0.00     0.198 A 
ATOM     66  F   UNL A   1      42.674  33.372  28.563  1.00  0.00    -0.203 F 
ATOM     67  F   UNL A   1      47.409  33.742  25.957  1.00  0.00    -0.200 F 
ATOM     68  C   UNL A   1      45.443  34.743  26.774  1.00  0.00     0.200 A 
ATOM     69  F   UNL A   1      43.491  35.693  27.693  1.00  0.00    -0.200 F 
ATOM     70  F   UNL A   1      45.915  35.962  26.483  1.00  0.00    -0.200 F 
ENDBRANCH  46  60
BRANCH  47  71
ATOM     71  C   UNL A   1      36.702  32.058  30.960  1.00  0.00     0.064 A 
ATOM     72  C   UNL A   1      35.968  32.240  32.148  1.00  0.00     0.173 A 
ATOM     73  C   UNL A   1      36.336  32.874  29.874  1.00  0.00     0.173 A 
ATOM     74  F   UNL A   1      36.268  31.532  33.246  1.00  0.00    -0.203 F 
ATOM     75  C   UNL A   1      34.969  33.214  32.256  1.00  0.00     0.198 A 
ATOM     76  C   UNL A   1      35.331  33.838  29.980  1.00  0.00     0.198 A 
ATOM     77  F   UNL A   1      37.013  32.824  28.718  1.00  0.00    -0.203 F 
ATOM     78  F   UNL A   1      34.352  33.412  33.430  1.00  0.00    -0.200 F 
ATOM     79  C   UNL A   1      34.662  34.022  31.175  1.00  0.00     0.200 A 
ATOM     80  F   UNL A   1      35.066  34.637  28.937  1.00  0.00    -0.200 F 
ATOM     81  F   UNL A   1      33.758  35.003  31.298  1.00  0.00    -0.200 F 
ENDBRANCH  47  71
BRANCH  59  82
ATOM     82  C   UNL A   1      42.069  30.068  33.603  1.00  0.00     0.064 A 
ATOM     83  C   UNL A   1      41.612  28.744  33.512  1.00  0.00     0.173 A 
ATOM     84  C   UNL A   1      42.468  30.533  34.866  1.00  0.00     0.173 A 
ATOM     85  F   UNL A   1      41.289  28.203  32.329  1.00  0.00    -0.203 F 
ATOM     86  C   UNL A   1      41.534  27.933  34.644  1.00  0.00     0.198 A 
ATOM     87  C   UNL A   1      42.429  29.709  35.985  1.00  0.00     0.198 A 
ATOM     88  F   UNL A   1      42.950  31.778  35.002  1.00  0.00    -0.203 F 
ATOM     89  F   UNL A   1      41.085  26.674  34.540  1.00  0.00    -0.200 F 
ATOM     90  C   UNL A   1      41.955  28.412  35.875  1.00  0.00     0.200 A 
ATOM     91  F   UNL A   1      42.881  30.162  37.162  1.00  0.00    -0.200 F 
ATOM     92  F   UNL A   1      41.931  27.614  36.952  1.00  0.00    -0.200 F 
ENDBRANCH  59  82
ENDBRANCH  33  34
ENDBRANCH  26  28
ENDBRANCH  25  26
ENDBRANCH  24  25
ENDBRANCH   1  24
TORSDOF 14
ENDMDL
MODEL 3
REMARK VINA RESULT:     -12.4      3.427      6.677
REMARK SMILES CCc1cccc2c3c([nH]c12)[C@](CC)(CC(=O)OCCOC(=O)c1ccc(-c2c4nc(c(-c5c(F)c(F)c(F)c(F)c5F)c5ccc([nH]5)c(-c5c(F)c(F)c(F)c(F)c5F)c5nc(c(-c6c(F)c(F)c(F)c(F)c6F)c6ccc2[nH]6)C=C5)C=C4)cc1)OCC3
REMARK SMILES IDX 19 1 18 2 16 3 17 4 15 5 12 6 3 7 4 8 11 9 5 10 7 11 10 12
REMARK SMILES IDX 6 13 8 14 9 15 89 17 88 18 87 19 2 20 1 21 13 22 14 23 20 24
REMARK SMILES IDX 21 25 22 26 23 27 24 28 25 29 86 30 26 31 85 32 27 33 28 34
REMARK SMILES IDX 29 35 79 36 30 37 84 38 78 39 80 40 31 41 83 42 77 43 76 44
REMARK SMILES IDX 32 46 64 47 44 48 63 49 45 50 48 51 62 52 81 53 46 54 47 55
REMARK SMILES IDX 61 57 82 58 49 59 33 60 34 61 42 62 35 63 36 64 40 65 43 66
REMARK SMILES IDX 37 67 38 68 41 69 39 70 65 71 66 72 74 73 67 74 68 75 72 76
REMARK SMILES IDX 75 77 69 78 70 79 73 80 71 81 50 82 51 83 59 84 52 85 53 86
REMARK SMILES IDX 57 87 60 88 54 89 55 90 58 91 56 92
REMARK H PARENT 10 16 80 45 48 56
REMARK Flexibility Score: inf
ROOT
ATOM      1  C   UNL A   1      43.267  21.477  25.582  1.00  0.00     0.274 C 
ENDROOT
BRANCH   1   2
ATOM      2  O   UNL A   1      44.511  21.822  26.242  1.00  0.00    -0.462 OA
BRANCH   2   3
ATOM      3  C   UNL A   1      45.612  21.871  25.465  1.00  0.00     0.309 C 
ATOM      4  O   UNL A   1      46.399  20.932  25.346  1.00  0.00    -0.252 OA
BRANCH   3   5
ATOM      5  C   UNL A   1      45.931  23.195  24.801  1.00  0.00     0.164 C 
BRANCH   5   6
ATOM      6  C   UNL A   1      45.751  24.627  25.350  1.00  0.00     0.118 C 
ATOM      7  C   UNL A   1      45.822  25.501  30.362  1.00  0.00    -0.024 A 
ATOM      8  C   UNL A   1      46.866  25.870  31.236  1.00  0.00     0.006 A 
ATOM      9  C   UNL A   1      46.173  25.360  28.999  1.00  0.00     0.049 A 
ATOM     10  C   UNL A   1      48.159  26.115  30.782  1.00  0.00     0.001 A 
ATOM     11  C   UNL A   1      47.461  25.612  28.518  1.00  0.00     0.003 A 
ATOM     12  N   UNL A   1      45.413  24.998  27.898  1.00  0.00    -0.356 N 
ATOM     13  C   UNL A   1      48.461  26.010  29.425  1.00  0.00     0.010 A 
ATOM     14  C   UNL A   1      47.427  25.428  27.107  1.00  0.00    -0.014 A 
ATOM     15  C   UNL A   1      46.190  24.928  26.761  1.00  0.00     0.052 A 
ATOM     16  H   UNL A   1      44.446  24.814  27.924  1.00  0.00     0.166 HD
ATOM     17  C   UNL A   1      48.438  25.775  26.078  1.00  0.00     0.066 C 
ATOM     18  C   UNL A   1      47.902  25.553  24.648  1.00  0.00     0.166 C 
ATOM     19  O   UNL A   1      46.469  25.578  24.519  1.00  0.00    -0.368 OA
BRANCH   7  20
ATOM     20  C   UNL A   1      44.436  25.311  30.931  1.00  0.00     0.034 C 
ATOM     21  C   UNL A   1      44.392  25.591  32.429  1.00  0.00     0.009 C 
ENDBRANCH   7  20
BRANCH   6  22
ATOM     22  C   UNL A   1      44.238  25.012  25.199  1.00  0.00     0.039 C 
ATOM     23  C   UNL A   1      43.912  26.493  25.389  1.00  0.00     0.007 C 
ENDBRANCH   6  22
ENDBRANCH   5   6
ENDBRANCH   3   5
ENDBRANCH   2   3
ENDBRANCH   1   2
BRANCH   1  24
ATOM     24  C   UNL A   1      42.290  20.837  26.571  1.00  0.00     0.275 C 
BRANCH  24  25
ATOM     25  O   UNL A   1      41.681  21.879  27.345  1.00  0.00    -0.458 OA
BRANCH  25  26
ATOM     26  C   UNL A   1      40.639  22.512  26.747  1.00  0.00     0.338 C 
ATOM     27  O   UNL A   1      39.633  22.016  26.307  1.00  0.00    -0.246 OA
BRANCH  26  28
ATOM     28  C   UNL A   1      40.814  23.941  27.084  1.00  0.00     0.060 A 
ATOM     29  C   UNL A   1      41.803  24.357  27.974  1.00  0.00     0.016 A 
ATOM     30  C   UNL A   1      39.793  24.807  26.695  1.00  0.00     0.016 A 
ATOM     31  C   UNL A   1      41.677  25.596  28.584  1.00  0.00     0.010 A 
ATOM     32  C   UNL A   1      39.645  26.031  27.330  1.00  0.00     0.010 A 
ATOM     33  C   UNL A   1      40.560  26.400  28.313  1.00  0.00    -0.014 A 
BRANCH  33  34
ATOM     34  C   UNL A   1      40.550  27.750  28.858  1.00  0.00     0.031 A 
ATOM     35  C   UNL A   1      41.649  28.564  28.299  1.00  0.00     0.074 A 
ATOM     36  C   UNL A   1      39.685  28.288  29.737  1.00  0.00     0.049 A 
ATOM     37  N   UNL A   1      42.767  28.851  28.874  1.00  0.00    -0.248 NA
ATOM     38  C   UNL A   1      41.573  28.954  26.884  1.00  0.00     0.031 C 
ATOM     39  C   UNL A   1      38.386  27.785  30.171  1.00  0.00     0.029 A 
ATOM     40  N   UNL A   1      39.798  29.484  30.394  1.00  0.00    -0.354 N 
ATOM     41  C   UNL A   1      43.476  29.603  27.950  1.00  0.00     0.074 A 
ATOM     42  C   UNL A   1      42.788  29.467  26.695  1.00  0.00     0.031 C 
ATOM     43  C   UNL A   1      37.748  28.752  30.876  1.00  0.00     0.029 A 
ATOM     44  C   UNL A   1      38.649  29.879  31.065  1.00  0.00     0.049 A 
ATOM     45  H   UNL A   1      40.624  30.018  30.391  1.00  0.00     0.167 HD
ATOM     46  C   UNL A   1      44.419  30.490  28.357  1.00  0.00     0.037 A 
ATOM     47  C   UNL A   1      38.459  31.065  31.697  1.00  0.00     0.037 A 
ATOM     48  C   UNL A   1      44.812  30.239  29.721  1.00  0.00     0.049 A 
ATOM     49  C   UNL A   1      39.795  31.613  32.037  1.00  0.00     0.074 A 
ATOM     50  C   UNL A   1      45.451  29.219  30.390  1.00  0.00     0.029 A 
ATOM     51  N   UNL A   1      44.194  31.012  30.670  1.00  0.00    -0.354 N 
ATOM     52  N   UNL A   1      40.589  31.109  32.940  1.00  0.00    -0.248 NA
ATOM     53  C   UNL A   1      40.407  32.594  31.150  1.00  0.00     0.031 C 
ATOM     54  C   UNL A   1      44.916  29.228  31.712  1.00  0.00     0.029 A 
ATOM     55  C   UNL A   1      43.989  30.268  31.801  1.00  0.00     0.049 A 
ATOM     56  H   UNL A   1      43.937  31.955  30.556  1.00  0.00     0.167 HD
ATOM     57  C   UNL A   1      41.861  31.373  32.468  1.00  0.00     0.074 A 
ATOM     58  C   UNL A   1      41.690  32.426  31.481  1.00  0.00     0.031 C 
ATOM     59  C   UNL A   1      42.882  30.500  32.704  1.00  0.00     0.037 A 
BRANCH  46  60
ATOM     60  C   UNL A   1      44.658  31.825  27.692  1.00  0.00     0.064 A 
ATOM     61  C   UNL A   1      45.863  32.026  26.992  1.00  0.00     0.173 A 
ATOM     62  C   UNL A   1      43.913  32.994  27.969  1.00  0.00     0.173 A 
ATOM     63  F   UNL A   1      46.668  30.992  26.703  1.00  0.00    -0.203 F 
ATOM     64  C   UNL A   1      46.321  33.305  26.664  1.00  0.00     0.198 A 
ATOM     65  C   UNL A   1      44.344  34.261  27.585  1.00  0.00     0.198 A 
ATOM     66  F   UNL A   1      42.807  32.983  28.720  1.00  0.00    -0.203 F 
ATOM     67  F   UNL A   1      47.535  33.456  26.118  1.00  0.00    -0.200 F 
ATOM     68  C   UNL A   1      45.562  34.421  26.962  1.00  0.00     0.200 A 
ATOM     69  F   UNL A   1      43.603  35.331  27.906  1.00  0.00    -0.200 F 
ATOM     70  F   UNL A   1      46.023  35.650  26.700  1.00  0.00    -0.200 F 
ENDBRANCH  46  60
BRANCH  47  71
ATOM     71  C   UNL A   1      37.226  31.876  31.860  1.00  0.00     0.064 A 
ATOM     72  C   UNL A   1      36.719  32.173  33.140  1.00  0.00     0.173 A 
ATOM     73  C   UNL A   1      36.699  32.626  30.793  1.00  0.00     0.173 A 
ATOM     74  F   UNL A   1      37.187  31.534  34.221  1.00  0.00    -0.203 F 
ATOM     75  C   UNL A   1      35.782  33.193  33.343  1.00  0.00     0.198 A 
ATOM     76  C   UNL A   1      35.756  33.636  30.996  1.00  0.00     0.198 A 
ATOM     77  F   UNL A   1      37.160  32.465  29.545  1.00  0.00    -0.203 F 
ATOM     78  F   UNL A   1      35.388  33.501  34.586  1.00  0.00    -0.200 F 
ATOM     79  C   UNL A   1      35.314  33.934  32.271  1.00  0.00     0.200 A 
ATOM     80  F   UNL A   1      35.334  34.369  29.956  1.00  0.00    -0.200 F 
ATOM     81  F   UNL A   1      34.473  34.958  32.472  1.00  0.00    -0.200 F 
ENDBRANCH  47  71
BRANCH  59  82
ATOM     82  C   UNL A   1      42.737  29.551  33.857  1.00  0.00     0.064 A 
ATOM     83  C   UNL A   1      42.104  28.300  33.785  1.00  0.00     0.173 A 
ATOM     84  C   UNL A   1      43.392  29.881  35.054  1.00  0.00     0.173 A 
ATOM     85  F   UNL A   1      41.527  27.881  32.650  1.00  0.00    -0.203 F 
ATOM     86  C   UNL A   1      42.107  27.432  34.876  1.00  0.00     0.198 A 
ATOM     87  C   UNL A   1      43.428  28.995  36.125  1.00  0.00     0.198 A 
ATOM     88  F   UNL A   1      44.045  31.048  35.163  1.00  0.00    -0.203 F 
ATOM     89  F   UNL A   1      41.489  26.245  34.792  1.00  0.00    -0.200 F 
ATOM     90  C   UNL A   1      42.780  27.774  36.038  1.00  0.00     0.200 A 
ATOM     91  F   UNL A   1      44.119  29.313  37.228  1.00  0.00    -0.200 F 
ATOM     92  F   UNL A   1      42.828  26.916  37.067  1.00  0.00    -0.200 F 
ENDBRANCH  59  82
ENDBRANCH  33  34
ENDBRANCH  26  28
ENDBRANCH  25  26
ENDBRANCH  24  25
ENDBRANCH   1  24
TORSDOF 14
ENDMDL
