MODEL 1
REMARK VINA RESULT:     -11.6      0.000      0.000
REMARK SMILES [NH3+][C@@H](Cc1c[nH]c2ccccc12)C(=O)N[C@@H](CS)C(=O)N[C@@H](CO)C(=O)OCCOC(=O)c1ccc(-c2c3nc(c(-c4c(F)c(F)c(F)c(F)c4F)c4ccc([nH]4)c(-c4c(F)c(F)c(F)c(F)c4F)c4nc(c(-c5c(F)c(F)c(F)c(F)c5F)c5ccc2[nH]5)C=C4)C=C3)cc1
REMARK SMILES IDX 25 1 26 2 22 3 21 4 19 5 20 6 16 8 15 9 13 10 14 11 2 13
REMARK SMILES IDX 1 14 3 18 4 19 5 20 12 21 6 22 7 23 11 24 8 26 10 27 9 28
REMARK SMILES IDX 17 29 18 30 23 32 24 33 27 35 28 36 29 37 30 38 31 39 32 40
REMARK SMILES IDX 33 41 34 42 95 43 35 44 94 45 36 46 37 47 38 48 88 49 39 50
REMARK SMILES IDX 93 51 87 52 89 53 40 54 92 55 86 56 85 57 41 59 73 60 53 61
REMARK SMILES IDX 72 62 54 63 57 64 71 65 90 66 55 67 56 68 70 70 91 71 58 72
REMARK SMILES IDX 42 73 43 74 51 75 44 76 45 77 49 78 52 79 46 80 47 81 50 82
REMARK SMILES IDX 48 83 74 84 75 85 83 86 76 87 77 88 81 89 84 90 78 91 79 92
REMARK SMILES IDX 82 93 80 94 59 95 60 96 68 97 61 98 62 99 66 100 69 101
REMARK SMILES IDX 63 102 64 103 67 104 65 105
REMARK H PARENT 21 7 15 12 1 15 1 16 1 17 6 25 18 31 24 34 89 58 57 69
REMARK Flexibility Score: inf
ROOT
ATOM      1  C   UNL A   1      32.370  27.950  23.791  1.00  0.00     0.331 C 
ATOM      2  O   UNL A   1      33.564  27.823  24.037  1.00  0.00    -0.250 OA
ENDROOT
BRANCH   1   3
ATOM      3  C   UNL A   1      31.824  28.009  22.365  1.00  0.00     0.218 C 
BRANCH   3   4
ATOM      4  N   UNL A   1      31.510  26.700  21.764  1.00  0.00    -0.339 N 
ATOM      5  C   UNL A   1      32.552  25.843  21.520  1.00  0.00     0.244 C 
ATOM      6  O   UNL A   1      33.184  25.978  20.470  1.00  0.00    -0.273 OA
ATOM      7  H   UNL A   1      30.583  26.450  21.544  1.00  0.00     0.164 HD
BRANCH   5   8
ATOM      8  C   UNL A   1      32.834  24.712  22.549  1.00  0.00     0.181 C 
BRANCH   8   9
ATOM      9  N   UNL A   1      31.715  24.675  23.492  1.00  0.00    -0.338 N 
ATOM     10  C   UNL A   1      31.631  24.594  24.840  1.00  0.00     0.279 C 
ATOM     11  O   UNL A   1      30.485  24.571  25.308  1.00  0.00    -0.268 OA
ATOM     12  H   UNL A   1      30.835  24.717  23.051  1.00  0.00     0.164 HD
BRANCH  10  13
ATOM     13  C   UNL A   1      32.844  24.527  25.792  1.00  0.00     0.275 C 
BRANCH  13  14
ATOM     14  N   UNL A   1      33.100  25.838  26.428  1.00  0.00    -0.347 N 
ATOM     15  H   UNL A   1      33.726  25.713  27.224  1.00  0.00     0.345 HD
ATOM     16  H   UNL A   1      32.219  26.239  26.749  1.00  0.00     0.345 HD
ATOM     17  H   UNL A   1      33.533  26.466  25.750  1.00  0.00     0.345 HD
ENDBRANCH  13  14
BRANCH  13  18
ATOM     18  C   UNL A   1      32.897  23.271  26.697  1.00  0.00     0.113 C 
BRANCH  18  19
ATOM     19  C   UNL A   1      33.853  22.179  26.300  1.00  0.00    -0.016 A 
ATOM     20  C   UNL A   1      33.562  20.836  26.129  1.00  0.00     0.087 A 
ATOM     21  C   UNL A   1      35.256  22.325  26.022  1.00  0.00     0.003 A 
ATOM     22  N   UNL A   1      34.676  20.207  25.643  1.00  0.00    -0.361 N 
ATOM     23  C   UNL A   1      35.715  21.100  25.536  1.00  0.00     0.046 A 
ATOM     24  C   UNL A   1      36.158  23.408  26.065  1.00  0.00     0.010 A 
ATOM     25  H   UNL A   1      34.727  19.253  25.404  1.00  0.00     0.166 HD
ATOM     26  C   UNL A   1      37.012  20.916  25.045  1.00  0.00     0.026 A 
ATOM     27  C   UNL A   1      37.466  23.235  25.596  1.00  0.00     0.001 A 
ATOM     28  C   UNL A   1      37.879  22.010  25.080  1.00  0.00     0.002 A 
ENDBRANCH  18  19
ENDBRANCH  13  18
ENDBRANCH  10  13
ENDBRANCH   8   9
BRANCH   8  29
ATOM     29  C   UNL A   1      33.191  23.347  21.953  1.00  0.00     0.101 C 
BRANCH  29  30
ATOM     30  S   UNL A   1      32.307  21.954  22.730  1.00  0.00    -0.177 SA
ATOM     31  H   UNL A   1      31.349  22.436  23.567  1.00  0.00     0.102 HD
ENDBRANCH  29  30
ENDBRANCH   8  29
ENDBRANCH   5   8
ENDBRANCH   3   4
BRANCH   3  32
ATOM     32  C   UNL A   1      30.592  28.931  22.366  1.00  0.00     0.193 C 
BRANCH  32  33
ATOM     33  O   UNL A   1      30.726  29.946  21.365  1.00  0.00    -0.394 OA
ATOM     34  H   UNL A   1      30.782  30.815  21.792  1.00  0.00     0.210 HD
ENDBRANCH  32  33
ENDBRANCH   3  32
ENDBRANCH   1   3
BRANCH   1  35
ATOM     35  O   UNL A   1      31.394  28.118  24.726  1.00  0.00    -0.460 OA
BRANCH  35  36
ATOM     36  C   UNL A   1      31.824  28.625  26.006  1.00  0.00     0.274 C 
BRANCH  36  37
ATOM     37  C   UNL A   1      31.823  30.148  25.965  1.00  0.00     0.275 C 
BRANCH  37  38
ATOM     38  O   UNL A   1      32.208  30.638  27.264  1.00  0.00    -0.458 OA
BRANCH  38  39
ATOM     39  C   UNL A   1      33.029  31.714  27.268  1.00  0.00     0.338 C 
ATOM     40  O   UNL A   1      32.737  32.862  26.981  1.00  0.00    -0.246 OA
BRANCH  39  41
ATOM     41  C   UNL A   1      34.384  31.320  27.718  1.00  0.00     0.060 A 
ATOM     42  C   UNL A   1      34.686  29.994  28.018  1.00  0.00     0.016 A 
ATOM     43  C   UNL A   1      35.338  32.311  27.962  1.00  0.00     0.016 A 
ATOM     44  C   UNL A   1      35.892  29.687  28.658  1.00  0.00     0.010 A 
ATOM     45  C   UNL A   1      36.580  31.977  28.522  1.00  0.00     0.010 A 
ATOM     46  C   UNL A   1      36.861  30.663  28.938  1.00  0.00    -0.014 A 
BRANCH  46  47
ATOM     47  C   UNL A   1      38.099  30.346  29.736  1.00  0.00     0.031 A 
ATOM     48  C   UNL A   1      39.204  29.508  29.127  1.00  0.00     0.074 A 
ATOM     49  C   UNL A   1      38.306  30.823  30.982  1.00  0.00     0.049 A 
ATOM     50  N   UNL A   1      40.186  28.866  29.715  1.00  0.00    -0.248 NA
ATOM     51  C   UNL A   1      39.194  29.356  27.664  1.00  0.00     0.031 C 
ATOM     52  C   UNL A   1      37.412  31.711  31.722  1.00  0.00     0.029 A 
ATOM     53  N   UNL A   1      39.365  30.637  31.847  1.00  0.00    -0.354 N 
ATOM     54  C   UNL A   1      40.834  28.152  28.713  1.00  0.00     0.074 A 
ATOM     55  C   UNL A   1      40.154  28.461  27.473  1.00  0.00     0.031 C 
ATOM     56  C   UNL A   1      37.994  32.067  32.875  1.00  0.00     0.029 A 
ATOM     57  C   UNL A   1      39.233  31.313  33.036  1.00  0.00     0.049 A 
ATOM     58  H   UNL A   1      40.143  30.074  31.631  1.00  0.00     0.167 HD
ATOM     59  C   UNL A   1      41.889  27.307  28.821  1.00  0.00     0.037 A 
ATOM     60  C   UNL A   1      39.971  31.286  34.164  1.00  0.00     0.037 A 
ATOM     61  C   UNL A   1      42.653  27.098  30.025  1.00  0.00     0.049 A 
ATOM     62  C   UNL A   1      41.139  30.348  34.271  1.00  0.00     0.074 A 
ATOM     63  C   UNL A   1      43.747  26.270  30.223  1.00  0.00     0.029 A 
ATOM     64  N   UNL A   1      42.439  27.763  31.223  1.00  0.00    -0.354 N 
ATOM     65  N   UNL A   1      41.629  29.533  33.372  1.00  0.00    -0.248 NA
ATOM     66  C   UNL A   1      41.823  30.288  35.571  1.00  0.00     0.031 C 
ATOM     67  C   UNL A   1      44.180  26.417  31.546  1.00  0.00     0.029 A 
ATOM     68  C   UNL A   1      43.380  27.364  32.160  1.00  0.00     0.049 A 
ATOM     69  H   UNL A   1      41.724  28.420  31.384  1.00  0.00     0.167 HD
ATOM     70  C   UNL A   1      42.667  28.857  33.997  1.00  0.00     0.074 A 
ATOM     71  C   UNL A   1      42.760  29.379  35.344  1.00  0.00     0.031 C 
ATOM     72  C   UNL A   1      43.461  27.877  33.501  1.00  0.00     0.037 A 
BRANCH  59  73
ATOM     73  C   UNL A   1      42.269  26.495  27.616  1.00  0.00     0.064 A 
ATOM     74  C   UNL A   1      43.299  26.873  26.745  1.00  0.00     0.173 A 
ATOM     75  C   UNL A   1      41.628  25.266  27.379  1.00  0.00     0.173 A 
ATOM     76  F   UNL A   1      43.930  28.044  26.914  1.00  0.00    -0.203 F 
ATOM     77  C   UNL A   1      43.665  26.059  25.674  1.00  0.00     0.198 A 
ATOM     78  C   UNL A   1      42.016  24.442  26.326  1.00  0.00     0.198 A 
ATOM     79  F   UNL A   1      40.640  24.852  28.187  1.00  0.00    -0.203 F 
ATOM     80  F   UNL A   1      44.627  26.459  24.831  1.00  0.00    -0.200 F 
ATOM     81  C   UNL A   1      43.032  24.841  25.472  1.00  0.00     0.200 A 
ATOM     82  F   UNL A   1      41.411  23.261  26.143  1.00  0.00    -0.200 F 
ATOM     83  F   UNL A   1      43.397  24.055  24.450  1.00  0.00    -0.200 F 
ENDBRANCH  59  73
BRANCH  60  84
ATOM     84  C   UNL A   1      39.560  32.116  35.328  1.00  0.00     0.064 A 
ATOM     85  C   UNL A   1      40.021  33.431  35.482  1.00  0.00     0.173 A 
ATOM     86  C   UNL A   1      38.680  31.615  36.300  1.00  0.00     0.173 A 
ATOM     87  F   UNL A   1      40.896  33.941  34.603  1.00  0.00    -0.203 F 
ATOM     88  C   UNL A   1      39.608  34.214  36.558  1.00  0.00     0.198 A 
ATOM     89  C   UNL A   1      38.240  32.411  37.353  1.00  0.00     0.198 A 
ATOM     90  F   UNL A   1      38.222  30.358  36.208  1.00  0.00    -0.203 F 
ATOM     91  F   UNL A   1      40.089  35.456  36.703  1.00  0.00    -0.200 F 
ATOM     92  C   UNL A   1      38.707  33.710  37.483  1.00  0.00     0.200 A 
ATOM     93  F   UNL A   1      37.357  31.922  38.235  1.00  0.00    -0.200 F 
ATOM     94  F   UNL A   1      38.292  34.472  38.504  1.00  0.00    -0.200 F 
ENDBRANCH  60  84
BRANCH  72  95
ATOM     95  C   UNL A   1      44.507  27.316  34.417  1.00  0.00     0.064 A 
ATOM     96  C   UNL A   1      44.253  26.185  35.208  1.00  0.00     0.173 A 
ATOM     97  C   UNL A   1      45.777  27.905  34.498  1.00  0.00     0.173 A 
ATOM     98  F   UNL A   1      43.049  25.595  35.176  1.00  0.00    -0.203 F 
ATOM     99  C   UNL A   1      45.226  25.681  36.068  1.00  0.00     0.198 A 
ATOM    100  C   UNL A   1      46.754  27.386  35.343  1.00  0.00     0.198 A 
ATOM    101  F   UNL A   1      46.068  28.984  33.758  1.00  0.00    -0.203 F 
ATOM    102  F   UNL A   1      44.948  24.628  36.848  1.00  0.00    -0.200 F 
ATOM    103  C   UNL A   1      46.476  26.280  36.132  1.00  0.00     0.200 A 
ATOM    104  F   UNL A   1      47.963  27.960  35.399  1.00  0.00    -0.200 F 
ATOM    105  F   UNL A   1      47.410  25.797  36.964  1.00  0.00    -0.200 F 
ENDBRANCH  72  95
ENDBRANCH  46  47
ENDBRANCH  39  41
ENDBRANCH  38  39
ENDBRANCH  37  38
ENDBRANCH  36  37
ENDBRANCH  35  36
ENDBRANCH   1  35
TORSDOF 22
ENDMDL
MODEL 2
REMARK VINA RESULT:     -11.5      4.144      9.789
REMARK SMILES [NH3+][C@@H](Cc1c[nH]c2ccccc12)C(=O)N[C@@H](CS)C(=O)N[C@@H](CO)C(=O)OCCOC(=O)c1ccc(-c2c3nc(c(-c4c(F)c(F)c(F)c(F)c4F)c4ccc([nH]4)c(-c4c(F)c(F)c(F)c(F)c4F)c4nc(c(-c5c(F)c(F)c(F)c(F)c5F)c5ccc2[nH]5)C=C4)C=C3)cc1
REMARK SMILES IDX 25 1 26 2 22 3 21 4 19 5 20 6 16 8 15 9 13 10 14 11 2 13
REMARK SMILES IDX 1 14 3 18 4 19 5 20 12 21 6 22 7 23 11 24 8 26 10 27 9 28
REMARK SMILES IDX 17 29 18 30 23 32 24 33 27 35 28 36 29 37 30 38 31 39 32 40
REMARK SMILES IDX 33 41 34 42 95 43 35 44 94 45 36 46 37 47 38 48 88 49 39 50
REMARK SMILES IDX 93 51 87 52 89 53 40 54 92 55 86 56 85 57 41 59 73 60 53 61
REMARK SMILES IDX 72 62 54 63 57 64 71 65 90 66 55 67 56 68 70 70 91 71 58 72
REMARK SMILES IDX 42 73 43 74 51 75 44 76 45 77 49 78 52 79 46 80 47 81 50 82
REMARK SMILES IDX 48 83 74 84 75 85 83 86 76 87 77 88 81 89 84 90 78 91 79 92
REMARK SMILES IDX 82 93 80 94 59 95 60 96 68 97 61 98 62 99 66 100 69 101
REMARK SMILES IDX 63 102 64 103 67 104 65 105
REMARK H PARENT 21 7 15 12 1 15 1 16 1 17 6 25 18 31 24 34 89 58 57 69
REMARK Flexibility Score: inf
ROOT
ATOM      1  C   UNL A   1      32.717  21.318  25.328  1.00  0.00     0.331 C 
ATOM      2  O   UNL A   1      31.637  20.739  25.367  1.00  0.00    -0.250 OA
ENDROOT
BRANCH   1   3
ATOM      3  C   UNL A   1      32.903  22.748  25.832  1.00  0.00     0.218 C 
BRANCH   3   4
ATOM      4  N   UNL A   1      32.036  23.753  25.190  1.00  0.00    -0.339 N 
ATOM      5  C   UNL A   1      32.024  25.017  25.721  1.00  0.00     0.244 C 
ATOM      6  O   UNL A   1      31.278  25.239  26.678  1.00  0.00    -0.273 OA
ATOM      7  H   UNL A   1      31.484  23.524  24.407  1.00  0.00     0.164 HD
BRANCH   5   8
ATOM      8  C   UNL A   1      32.898  26.110  25.046  1.00  0.00     0.181 C 
BRANCH   8   9
ATOM      9  N   UNL A   1      33.486  26.932  26.106  1.00  0.00    -0.338 N 
ATOM     10  C   UNL A   1      33.565  28.266  26.318  1.00  0.00     0.279 C 
ATOM     11  O   UNL A   1      34.167  28.612  27.343  1.00  0.00    -0.268 OA
ATOM     12  H   UNL A   1      33.917  26.400  26.814  1.00  0.00     0.164 HD
BRANCH  10  13
ATOM     13  C   UNL A   1      32.971  29.340  25.384  1.00  0.00     0.275 C 
BRANCH  13  14
ATOM     14  N   UNL A   1      33.705  29.401  24.101  1.00  0.00    -0.347 N 
ATOM     15  H   UNL A   1      33.260  28.781  23.425  1.00  0.00     0.345 HD
ATOM     16  H   UNL A   1      34.670  29.107  24.247  1.00  0.00     0.345 HD
ATOM     17  H   UNL A   1      33.691  30.357  23.746  1.00  0.00     0.345 HD
ENDBRANCH  13  14
BRANCH  13  18
ATOM     18  C   UNL A   1      31.424  29.374  25.324  1.00  0.00     0.113 C 
BRANCH  18  19
ATOM     19  C   UNL A   1      30.788  29.318  23.962  1.00  0.00    -0.016 A 
ATOM     20  C   UNL A   1      31.054  28.408  22.953  1.00  0.00     0.087 A 
ATOM     21  C   UNL A   1      29.776  30.202  23.450  1.00  0.00     0.003 A 
ATOM     22  N   UNL A   1      30.172  28.623  21.929  1.00  0.00    -0.361 N 
ATOM     23  C   UNL A   1      29.357  29.691  22.221  1.00  0.00     0.046 A 
ATOM     24  C   UNL A   1      29.123  31.344  23.957  1.00  0.00     0.010 A 
ATOM     25  H   UNL A   1      30.126  28.091  21.101  1.00  0.00     0.166 HD
ATOM     26  C   UNL A   1      28.290  30.233  21.497  1.00  0.00     0.026 A 
ATOM     27  C   UNL A   1      28.066  31.911  23.235  1.00  0.00     0.001 A 
ATOM     28  C   UNL A   1      27.647  31.352  22.031  1.00  0.00     0.002 A 
ENDBRANCH  18  19
ENDBRANCH  13  18
ENDBRANCH  10  13
ENDBRANCH   8   9
BRANCH   8  29
ATOM     29  C   UNL A   1      33.912  25.607  24.014  1.00  0.00     0.101 C 
BRANCH  29  30
ATOM     30  S   UNL A   1      33.333  25.745  22.290  1.00  0.00    -0.177 SA
ATOM     31  H   UNL A   1      33.949  26.799  21.689  1.00  0.00     0.102 HD
ENDBRANCH  29  30
ENDBRANCH   8  29
ENDBRANCH   5   8
ENDBRANCH   3   4
BRANCH   3  32
ATOM     32  C   UNL A   1      32.711  22.742  27.359  1.00  0.00     0.193 C 
BRANCH  32  33
ATOM     33  O   UNL A   1      31.340  22.500  27.690  1.00  0.00    -0.394 OA
ATOM     34  H   UNL A   1      30.989  23.257  28.186  1.00  0.00     0.210 HD
ENDBRANCH  32  33
ENDBRANCH   3  32
ENDBRANCH   1   3
BRANCH   1  35
ATOM     35  O   UNL A   1      33.857  20.808  24.785  1.00  0.00    -0.460 OA
BRANCH  35  36
ATOM     36  C   UNL A   1      35.003  21.684  24.781  1.00  0.00     0.274 C 
BRANCH  36  37
ATOM     37  C   UNL A   1      36.253  20.872  25.093  1.00  0.00     0.275 C 
BRANCH  37  38
ATOM     38  O   UNL A   1      37.400  21.731  24.954  1.00  0.00    -0.458 OA
BRANCH  38  39
ATOM     39  C   UNL A   1      38.495  21.372  25.665  1.00  0.00     0.338 C 
ATOM     40  O   UNL A   1      38.996  20.264  25.733  1.00  0.00    -0.246 OA
BRANCH  39  41
ATOM     41  C   UNL A   1      39.062  22.553  26.358  1.00  0.00     0.060 A 
ATOM     42  C   UNL A   1      38.545  23.828  26.147  1.00  0.00     0.016 A 
ATOM     43  C   UNL A   1      40.210  22.399  27.140  1.00  0.00     0.016 A 
ATOM     44  C   UNL A   1      39.239  24.944  26.627  1.00  0.00     0.010 A 
ATOM     45  C   UNL A   1      40.846  23.521  27.691  1.00  0.00     0.010 A 
ATOM     46  C   UNL A   1      40.409  24.825  27.396  1.00  0.00    -0.014 A 
BRANCH  46  47
ATOM     47  C   UNL A   1      41.216  26.029  27.803  1.00  0.00     0.031 A 
ATOM     48  C   UNL A   1      40.606  27.092  28.694  1.00  0.00     0.074 A 
ATOM     49  C   UNL A   1      42.509  26.195  27.448  1.00  0.00     0.049 A 
ATOM     50  N   UNL A   1      40.993  28.327  28.907  1.00  0.00    -0.248 NA
ATOM     51  C   UNL A   1      39.386  26.722  29.428  1.00  0.00     0.031 C 
ATOM     52  C   UNL A   1      43.312  25.258  26.665  1.00  0.00     0.029 A 
ATOM     53  N   UNL A   1      43.389  27.220  27.727  1.00  0.00    -0.354 N 
ATOM     54  C   UNL A   1      40.011  28.907  29.703  1.00  0.00     0.074 A 
ATOM     55  C   UNL A   1      39.023  27.881  29.961  1.00  0.00     0.031 C 
ATOM     56  C   UNL A   1      44.576  25.698  26.607  1.00  0.00     0.029 A 
ATOM     57  C   UNL A   1      44.648  27.024  27.211  1.00  0.00     0.049 A 
ATOM     58  H   UNL A   1      43.138  28.017  28.248  1.00  0.00     0.167 HD
ATOM     59  C   UNL A   1      39.936  30.180  30.163  1.00  0.00     0.037 A 
ATOM     60  C   UNL A   1      45.725  27.833  27.155  1.00  0.00     0.037 A 
ATOM     61  C   UNL A   1      40.978  31.166  30.023  1.00  0.00     0.049 A 
ATOM     62  C   UNL A   1      45.630  29.241  27.670  1.00  0.00     0.074 A 
ATOM     63  C   UNL A   1      40.993  32.478  30.470  1.00  0.00     0.029 A 
ATOM     64  N   UNL A   1      42.213  30.935  29.436  1.00  0.00    -0.354 N 
ATOM     65  N   UNL A   1      44.624  29.841  28.256  1.00  0.00    -0.248 NA
ATOM     66  C   UNL A   1      46.806  30.100  27.468  1.00  0.00     0.031 C 
ATOM     67  C   UNL A   1      42.227  33.046  30.134  1.00  0.00     0.029 A 
ATOM     68  C   UNL A   1      42.994  32.077  29.512  1.00  0.00     0.049 A 
ATOM     69  H   UNL A   1      42.492  30.085  29.027  1.00  0.00     0.167 HD
ATOM     70  C   UNL A   1      45.039  31.146  28.480  1.00  0.00     0.074 A 
ATOM     71  C   UNL A   1      46.400  31.245  27.998  1.00  0.00     0.031 C 
ATOM     72  C   UNL A   1      44.342  32.175  29.022  1.00  0.00     0.037 A 
BRANCH  59  73
ATOM     73  C   UNL A   1      38.663  30.615  30.831  1.00  0.00     0.064 A 
ATOM     74  C   UNL A   1      38.528  30.689  32.223  1.00  0.00     0.173 A 
ATOM     75  C   UNL A   1      37.578  31.041  30.043  1.00  0.00     0.173 A 
ATOM     76  F   UNL A   1      39.524  30.278  33.020  1.00  0.00    -0.203 F 
ATOM     77  C   UNL A   1      37.350  31.160  32.803  1.00  0.00     0.198 A 
ATOM     78  C   UNL A   1      36.416  31.538  30.625  1.00  0.00     0.198 A 
ATOM     79  F   UNL A   1      37.658  30.997  28.704  1.00  0.00    -0.203 F 
ATOM     80  F   UNL A   1      37.229  31.185  34.138  1.00  0.00    -0.200 F 
ATOM     81  C   UNL A   1      36.302  31.593  32.005  1.00  0.00     0.200 A 
ATOM     82  F   UNL A   1      35.410  31.967  29.851  1.00  0.00    -0.200 F 
ATOM     83  F   UNL A   1      35.177  32.059  32.566  1.00  0.00    -0.200 F 
ENDBRANCH  59  73
BRANCH  60  84
ATOM     84  C   UNL A   1      46.967  27.354  26.493  1.00  0.00     0.064 A 
ATOM     85  C   UNL A   1      48.006  26.771  27.231  1.00  0.00     0.173 A 
ATOM     86  C   UNL A   1      47.130  27.451  25.102  1.00  0.00     0.173 A 
ATOM     87  F   UNL A   1      47.917  26.694  28.567  1.00  0.00    -0.203 F 
ATOM     88  C   UNL A   1      49.154  26.295  26.601  1.00  0.00     0.198 A 
ATOM     89  C   UNL A   1      48.261  26.942  24.471  1.00  0.00     0.198 A 
ATOM     90  F   UNL A   1      46.172  28.014  24.351  1.00  0.00    -0.203 F 
ATOM     91  F   UNL A   1      50.150  25.775  27.332  1.00  0.00    -0.200 F 
ATOM     92  C   UNL A   1      49.274  26.367  25.221  1.00  0.00     0.200 A 
ATOM     93  F   UNL A   1      48.363  27.001  23.136  1.00  0.00    -0.200 F 
ATOM     94  F   UNL A   1      50.368  25.888  24.614  1.00  0.00    -0.200 F 
ENDBRANCH  60  84
BRANCH  72  95
ATOM     95  C   UNL A   1      45.048  33.493  29.133  1.00  0.00     0.064 A 
ATOM     96  C   UNL A   1      45.830  33.809  30.255  1.00  0.00     0.173 A 
ATOM     97  C   UNL A   1      44.953  34.444  28.107  1.00  0.00     0.173 A 
ATOM     98  F   UNL A   1      45.940  32.937  31.268  1.00  0.00    -0.203 F 
ATOM     99  C   UNL A   1      46.469  35.042  30.356  1.00  0.00     0.198 A 
ATOM    100  C   UNL A   1      45.609  35.668  28.203  1.00  0.00     0.198 A 
ATOM    101  F   UNL A   1      44.221  34.186  27.014  1.00  0.00    -0.203 F 
ATOM    102  F   UNL A   1      47.173  35.342  31.456  1.00  0.00    -0.200 F 
ATOM    103  C   UNL A   1      46.361  35.969  29.329  1.00  0.00     0.200 A 
ATOM    104  F   UNL A   1      45.511  36.559  27.207  1.00  0.00    -0.200 F 
ATOM    105  F   UNL A   1      46.972  37.157  29.430  1.00  0.00    -0.200 F 
ENDBRANCH  72  95
ENDBRANCH  46  47
ENDBRANCH  39  41
ENDBRANCH  38  39
ENDBRANCH  37  38
ENDBRANCH  36  37
ENDBRANCH  35  36
ENDBRANCH   1  35
TORSDOF 22
ENDMDL
MODEL 3
REMARK VINA RESULT:     -11.2      4.539     10.101
REMARK SMILES [NH3+][C@@H](Cc1c[nH]c2ccccc12)C(=O)N[C@@H](CS)C(=O)N[C@@H](CO)C(=O)OCCOC(=O)c1ccc(-c2c3nc(c(-c4c(F)c(F)c(F)c(F)c4F)c4ccc([nH]4)c(-c4c(F)c(F)c(F)c(F)c4F)c4nc(c(-c5c(F)c(F)c(F)c(F)c5F)c5ccc2[nH]5)C=C4)C=C3)cc1
REMARK SMILES IDX 25 1 26 2 22 3 21 4 19 5 20 6 16 8 15 9 13 10 14 11 2 13
REMARK SMILES IDX 1 14 3 18 4 19 5 20 12 21 6 22 7 23 11 24 8 26 10 27 9 28
REMARK SMILES IDX 17 29 18 30 23 32 24 33 27 35 28 36 29 37 30 38 31 39 32 40
REMARK SMILES IDX 33 41 34 42 95 43 35 44 94 45 36 46 37 47 38 48 88 49 39 50
REMARK SMILES IDX 93 51 87 52 89 53 40 54 92 55 86 56 85 57 41 59 73 60 53 61
REMARK SMILES IDX 72 62 54 63 57 64 71 65 90 66 55 67 56 68 70 70 91 71 58 72
REMARK SMILES IDX 42 73 43 74 51 75 44 76 45 77 49 78 52 79 46 80 47 81 50 82
REMARK SMILES IDX 48 83 74 84 75 85 83 86 76 87 77 88 81 89 84 90 78 91 79 92
REMARK SMILES IDX 82 93 80 94 59 95 60 96 68 97 61 98 62 99 66 100 69 101
REMARK SMILES IDX 63 102 64 103 67 104 65 105
REMARK H PARENT 21 7 15 12 1 15 1 16 1 17 6 25 18 31 24 34 89 58 57 69
REMARK Flexibility Score: inf
ROOT
ATOM      1  C   UNL A   1      33.861  20.914  26.017  1.00  0.00     0.331 C 
ATOM      2  O   UNL A   1      33.534  21.298  27.134  1.00  0.00    -0.250 OA
ENDROOT
BRANCH   1   3
ATOM      3  C   UNL A   1      32.878  20.846  24.849  1.00  0.00     0.218 C 
BRANCH   3   4
ATOM      4  N   UNL A   1      33.332  21.508  23.613  1.00  0.00    -0.339 N 
ATOM      5  C   UNL A   1      32.380  22.088  22.815  1.00  0.00     0.244 C 
ATOM      6  O   UNL A   1      31.784  21.374  22.006  1.00  0.00    -0.273 OA
ATOM      7  H   UNL A   1      34.285  21.532  23.369  1.00  0.00     0.164 HD
BRANCH   5   8
ATOM      8  C   UNL A   1      32.157  23.622  22.928  1.00  0.00     0.181 C 
BRANCH   8   9
ATOM      9  N   UNL A   1      32.488  24.221  21.634  1.00  0.00    -0.338 N 
ATOM     10  C   UNL A   1      32.619  25.496  21.199  1.00  0.00     0.279 C 
ATOM     11  O   UNL A   1      32.901  25.629  20.001  1.00  0.00    -0.268 OA
ATOM     12  H   UNL A   1      32.650  23.553  20.928  1.00  0.00     0.164 HD
BRANCH  10  13
ATOM     13  C   UNL A   1      32.436  26.747  22.083  1.00  0.00     0.275 C 
BRANCH  13  14
ATOM     14  N   UNL A   1      33.404  27.806  21.721  1.00  0.00    -0.347 N 
ATOM     15  H   UNL A   1      32.919  28.700  21.647  1.00  0.00     0.345 HD
ATOM     16  H   UNL A   1      33.837  27.580  20.826  1.00  0.00     0.345 HD
ATOM     17  H   UNL A   1      34.124  27.868  22.441  1.00  0.00     0.345 HD
ENDBRANCH  13  14
BRANCH  13  18
ATOM     18  C   UNL A   1      30.967  27.173  22.320  1.00  0.00     0.113 C 
BRANCH  18  19
ATOM     19  C   UNL A   1      30.734  28.406  23.151  1.00  0.00    -0.016 A 
ATOM     20  C   UNL A   1      31.524  28.878  24.184  1.00  0.00     0.087 A 
ATOM     21  C   UNL A   1      29.641  29.331  23.025  1.00  0.00     0.003 A 
ATOM     22  N   UNL A   1      31.035  30.091  24.588  1.00  0.00    -0.361 N 
ATOM     23  C   UNL A   1      29.905  30.407  23.874  1.00  0.00     0.046 A 
ATOM     24  C   UNL A   1      28.492  29.389  22.210  1.00  0.00     0.010 A 
ATOM     25  H   UNL A   1      31.434  30.655  25.290  1.00  0.00     0.166 HD
ATOM     26  C   UNL A   1      29.108  31.557  23.913  1.00  0.00     0.026 A 
ATOM     27  C   UNL A   1      27.672  30.524  22.252  1.00  0.00     0.001 A 
ATOM     28  C   UNL A   1      27.987  31.597  23.080  1.00  0.00     0.002 A 
ENDBRANCH  18  19
ENDBRANCH  13  18
ENDBRANCH  10  13
ENDBRANCH   8   9
BRANCH   8  29
ATOM     29  C   UNL A   1      30.798  24.057  23.485  1.00  0.00     0.101 C 
BRANCH  29  30
ATOM     30  S   UNL A   1      30.786  24.281  25.295  1.00  0.00    -0.177 SA
ATOM     31  H   UNL A   1      31.812  25.098  25.658  1.00  0.00     0.102 HD
ENDBRANCH  29  30
ENDBRANCH   8  29
ENDBRANCH   5   8
ENDBRANCH   3   4
BRANCH   3  32
ATOM     32  C   UNL A   1      32.544  19.365  24.597  1.00  0.00     0.193 C 
BRANCH  32  33
ATOM     33  O   UNL A   1      32.158  18.724  25.817  1.00  0.00    -0.394 OA
ATOM     34  H   UNL A   1      32.703  19.061  26.545  1.00  0.00     0.210 HD
ENDBRANCH  32  33
ENDBRANCH   3  32
ENDBRANCH   1   3
BRANCH   1  35
ATOM     35  O   UNL A   1      35.095  20.445  25.683  1.00  0.00    -0.460 OA
BRANCH  35  36
ATOM     36  C   UNL A   1      36.169  21.407  25.725  1.00  0.00     0.274 C 
BRANCH  36  37
ATOM     37  C   UNL A   1      37.390  20.821  25.027  1.00  0.00     0.275 C 
BRANCH  37  38
ATOM     38  O   UNL A   1      38.493  21.731  25.200  1.00  0.00    -0.458 OA
BRANCH  38  39
ATOM     39  C   UNL A   1      39.296  21.488  26.262  1.00  0.00     0.338 C 
ATOM     40  O   UNL A   1      39.605  20.400  26.717  1.00  0.00    -0.246 OA
BRANCH  39  41
ATOM     41  C   UNL A   1      39.811  22.763  26.814  1.00  0.00     0.060 A 
ATOM     42  C   UNL A   1      39.285  23.987  26.409  1.00  0.00     0.016 A 
ATOM     43  C   UNL A   1      40.923  22.742  27.660  1.00  0.00     0.016 A 
ATOM     44  C   UNL A   1      39.938  25.172  26.765  1.00  0.00     0.010 A 
ATOM     45  C   UNL A   1      41.515  23.941  28.082  1.00  0.00     0.010 A 
ATOM     46  C   UNL A   1      41.071  25.183  27.594  1.00  0.00    -0.014 A 
BRANCH  46  47
ATOM     47  C   UNL A   1      41.839  26.449  27.870  1.00  0.00     0.031 A 
ATOM     48  C   UNL A   1      41.254  27.515  28.774  1.00  0.00     0.074 A 
ATOM     49  C   UNL A   1      43.079  26.671  27.382  1.00  0.00     0.049 A 
ATOM     50  N   UNL A   1      41.584  28.778  28.897  1.00  0.00    -0.248 NA
ATOM     51  C   UNL A   1      40.136  27.111  29.640  1.00  0.00     0.031 C 
ATOM     52  C   UNL A   1      43.858  25.746  26.562  1.00  0.00     0.029 A 
ATOM     53  N   UNL A   1      43.917  27.757  27.530  1.00  0.00    -0.354 N 
ATOM     54  C   UNL A   1      40.650  29.338  29.763  1.00  0.00     0.074 A 
ATOM     55  C   UNL A   1      39.756  28.270  30.159  1.00  0.00     0.031 C 
ATOM     56  C   UNL A   1      45.082  26.254  26.361  1.00  0.00     0.029 A 
ATOM     57  C   UNL A   1      45.130  27.609  26.901  1.00  0.00     0.049 A 
ATOM     58  H   UNL A   1      43.671  28.561  28.041  1.00  0.00     0.167 HD
ATOM     59  C   UNL A   1      40.543  30.624  30.177  1.00  0.00     0.037 A 
ATOM     60  C   UNL A   1      46.145  28.474  26.705  1.00  0.00     0.037 A 
ATOM     61  C   UNL A   1      41.504  31.661  29.895  1.00  0.00     0.049 A 
ATOM     62  C   UNL A   1      46.015  29.897  27.171  1.00  0.00     0.074 A 
ATOM     63  C   UNL A   1      41.482  32.991  30.285  1.00  0.00     0.029 A 
ATOM     64  N   UNL A   1      42.688  31.473  29.198  1.00  0.00    -0.354 N 
ATOM     65  N   UNL A   1      45.036  30.465  27.828  1.00  0.00    -0.248 NA
ATOM     66  C   UNL A   1      47.111  30.811  26.818  1.00  0.00     0.031 C 
ATOM     67  C   UNL A   1      42.641  33.612  29.805  1.00  0.00     0.029 A 
ATOM     68  C   UNL A   1      43.402  32.660  29.150  1.00  0.00     0.049 A 
ATOM     69  H   UNL A   1      42.978  30.622  28.797  1.00  0.00     0.167 HD
ATOM     70  C   UNL A   1      45.390  31.800  27.957  1.00  0.00     0.074 A 
ATOM     71  C   UNL A   1      46.690  31.954  27.339  1.00  0.00     0.031 C 
ATOM     72  C   UNL A   1      44.688  32.812  28.524  1.00  0.00     0.037 A 
BRANCH  59  73
ATOM     73  C   UNL A   1      39.316  31.017  30.950  1.00  0.00     0.064 A 
ATOM     74  C   UNL A   1      38.137  31.446  30.327  1.00  0.00     0.173 A 
ATOM     75  C   UNL A   1      39.307  30.883  32.350  1.00  0.00     0.173 A 
ATOM     76  F   UNL A   1      38.097  31.608  28.997  1.00  0.00    -0.203 F 
ATOM     77  C   UNL A   1      36.998  31.740  31.076  1.00  0.00     0.198 A 
ATOM     78  C   UNL A   1      38.160  31.149  33.092  1.00  0.00     0.198 A 
ATOM     79  F   UNL A   1      40.408  30.470  32.996  1.00  0.00    -0.203 F 
ATOM     80  F   UNL A   1      35.893  32.186  30.463  1.00  0.00    -0.200 F 
ATOM     81  C   UNL A   1      37.008  31.581  32.455  1.00  0.00     0.200 A 
ATOM     82  F   UNL A   1      38.169  30.983  34.421  1.00  0.00    -0.200 F 
ATOM     83  F   UNL A   1      35.907  31.851  33.170  1.00  0.00    -0.200 F 
ENDBRANCH  59  73
BRANCH  60  84
ATOM     84  C   UNL A   1      47.345  28.036  25.943  1.00  0.00     0.064 A 
ATOM     85  C   UNL A   1      48.547  27.728  26.593  1.00  0.00     0.173 A 
ATOM     86  C   UNL A   1      47.304  27.897  24.546  1.00  0.00     0.173 A 
ATOM     87  F   UNL A   1      48.650  27.886  27.921  1.00  0.00    -0.203 F 
ATOM     88  C   UNL A   1      49.658  27.288  25.876  1.00  0.00     0.198 A 
ATOM     89  C   UNL A   1      48.402  27.422  23.836  1.00  0.00     0.198 A 
ATOM     90  F   UNL A   1      46.182  28.194  23.874  1.00  0.00    -0.203 F 
ATOM     91  F   UNL A   1      50.808  27.034  26.516  1.00  0.00    -0.200 F 
ATOM     92  C   UNL A   1      49.580  27.121  24.502  1.00  0.00     0.200 A 
ATOM     93  F   UNL A   1      48.315  27.249  22.511  1.00  0.00    -0.200 F 
ATOM     94  F   UNL A   1      50.642  26.675  23.816  1.00  0.00    -0.200 F 
ENDBRANCH  60  84
BRANCH  72  95
ATOM     95  C   UNL A   1      45.320  34.172  28.512  1.00  0.00     0.064 A 
ATOM     96  C   UNL A   1      45.029  35.102  27.503  1.00  0.00     0.173 A 
ATOM     97  C   UNL A   1      46.214  34.553  29.523  1.00  0.00     0.173 A 
ATOM     98  F   UNL A   1      44.191  34.778  26.508  1.00  0.00    -0.203 F 
ATOM     99  C   UNL A   1      45.633  36.357  27.493  1.00  0.00     0.198 A 
ATOM    100  C   UNL A   1      46.800  35.815  29.520  1.00  0.00     0.198 A 
ATOM    101  F   UNL A   1      46.519  33.700  30.512  1.00  0.00    -0.203 F 
ATOM    102  F   UNL A   1      45.377  37.214  26.494  1.00  0.00    -0.200 F 
ATOM    103  C   UNL A   1      46.515  36.714  28.502  1.00  0.00     0.200 A 
ATOM    104  F   UNL A   1      47.646  36.162  30.500  1.00  0.00    -0.200 F 
ATOM    105  F   UNL A   1      47.100  37.919  28.488  1.00  0.00    -0.200 F 
ENDBRANCH  72  95
ENDBRANCH  46  47
ENDBRANCH  39  41
ENDBRANCH  38  39
ENDBRANCH  37  38
ENDBRANCH  36  37
ENDBRANCH  35  36
ENDBRANCH   1  35
TORSDOF 22
ENDMDL
