MODEL 1
REMARK VINA RESULT:     -12.0      0.000      0.000
REMARK SMILES C[C@H]1CC[C@@H]([C@H](C(=O)OCCOC(=O)c2ccc(-c3c4nc(c(-c5c(F)c(F)c(F)c(F)c5F)c5ccc([nH]5)c(-c5c(F)c(F)c(F)c(F)c5F)c5nc(c(-c6c(F)c(F)c(F)c(F)c6F)c6ccc3[nH]6)C=C5)C=C4)cc2)[C@@H]2CCS(=O)(=O)C2)C[C@@H]1C
REMARK SMILES IDX 11 1 10 2 9 3 7 4 8 5 6 6 5 7 1 8 2 9 3 10 86 11 4 12 85 13
REMARK SMILES IDX 87 14 78 15 79 16 84 17 80 18 81 19 82 20 83 21 12 22 13 23
REMARK SMILES IDX 14 24 15 25 16 26 77 27 17 28 76 29 18 30 19 31 20 32 70 33
REMARK SMILES IDX 21 34 75 35 69 36 71 37 22 38 74 39 68 40 67 41 23 43 55 44
REMARK SMILES IDX 35 45 54 46 36 47 39 48 53 49 72 50 37 51 38 52 52 54 73 55
REMARK SMILES IDX 40 56 24 57 25 58 33 59 26 60 27 61 31 62 34 63 28 64 29 65
REMARK SMILES IDX 32 66 30 67 56 68 57 69 65 70 58 71 59 72 63 73 66 74 60 75
REMARK SMILES IDX 61 76 64 77 62 78 41 79 42 80 50 81 43 82 44 83 48 84 51 85
REMARK SMILES IDX 45 86 46 87 49 88 47 89
REMARK H PARENT 71 42 39 53
REMARK Flexibility Score: inf
ROOT
ATOM      1  C   UNL A   1      32.085  29.843  25.388  1.00  0.00     0.275 C 
ENDROOT
BRANCH   1   2
ATOM      2  C   UNL A   1      33.212  29.208  24.589  1.00  0.00     0.274 C 
BRANCH   2   3
ATOM      3  O   UNL A   1      33.496  27.859  25.033  1.00  0.00    -0.462 OA
BRANCH   3   4
ATOM      4  C   UNL A   1      33.552  26.917  24.066  1.00  0.00     0.309 C 
ATOM      5  O   UNL A   1      33.777  27.142  22.883  1.00  0.00    -0.252 OA
BRANCH   4   6
ATOM      6  C   UNL A   1      33.237  25.511  24.576  1.00  0.00     0.106 C 
BRANCH   6   7
ATOM      7  C   UNL A   1      34.506  24.773  25.120  1.00  0.00     0.004 C 
ATOM      8  C   UNL A   1      33.811  20.486  24.676  1.00  0.00     0.008 C 
ATOM      9  C   UNL A   1      34.571  21.764  25.072  1.00  0.00    -0.011 C 
ATOM     10  C   UNL A   1      34.837  22.602  23.806  1.00  0.00     0.004 C 
ATOM     11  C   UNL A   1      33.865  22.526  26.226  1.00  0.00    -0.011 C 
ATOM     12  C   UNL A   1      35.328  24.012  24.074  1.00  0.00     0.005 C 
ATOM     13  C   UNL A   1      34.401  23.945  26.406  1.00  0.00     0.008 C 
ATOM     14  C   UNL A   1      33.973  21.758  27.552  1.00  0.00     0.008 C 
ENDBRANCH   6   7
BRANCH   6  15
ATOM     15  C   UNL A   1      31.783  25.274  25.104  1.00  0.00     0.019 C 
ATOM     16  C   UNL A   1      31.033  24.124  24.383  1.00  0.00     0.021 C 
ATOM     17  C   UNL A   1      30.733  26.377  25.203  1.00  0.00     0.141 C 
ATOM     18  C   UNL A   1      30.154  24.693  23.265  1.00  0.00     0.137 C 
ATOM     19  S   UNL A   1      29.762  26.366  23.723  1.00  0.00     0.150 S 
ATOM     20  O   UNL A   1      30.352  27.282  22.768  1.00  0.00    -0.229 OA
ATOM     21  O   UNL A   1      28.366  26.443  24.089  1.00  0.00    -0.229 OA
ENDBRANCH   6  15
ENDBRANCH   4   6
ENDBRANCH   3   4
ENDBRANCH   2   3
ENDBRANCH   1   2
BRANCH   1  22
ATOM     22  O   UNL A   1      32.495  29.960  26.756  1.00  0.00    -0.458 OA
BRANCH  22  23
ATOM     23  C   UNL A   1      33.049  31.141  27.096  1.00  0.00     0.338 C 
ATOM     24  O   UNL A   1      32.587  32.263  26.942  1.00  0.00    -0.246 OA
BRANCH  23  25
ATOM     25  C   UNL A   1      34.363  30.898  27.702  1.00  0.00     0.060 A 
ATOM     26  C   UNL A   1      34.768  29.599  28.015  1.00  0.00     0.016 A 
ATOM     27  C   UNL A   1      35.158  31.988  28.041  1.00  0.00     0.016 A 
ATOM     28  C   UNL A   1      35.942  29.390  28.731  1.00  0.00     0.010 A 
ATOM     29  C   UNL A   1      36.380  31.771  28.677  1.00  0.00     0.010 A 
ATOM     30  C   UNL A   1      36.772  30.474  29.049  1.00  0.00    -0.014 A 
BRANCH  30  31
ATOM     31  C   UNL A   1      38.055  30.273  29.769  1.00  0.00     0.031 A 
ATOM     32  C   UNL A   1      39.118  29.394  29.174  1.00  0.00     0.074 A 
ATOM     33  C   UNL A   1      38.239  30.833  30.979  1.00  0.00     0.049 A 
ATOM     34  N   UNL A   1      40.193  28.900  29.732  1.00  0.00    -0.248 NA
ATOM     35  C   UNL A   1      38.937  29.004  27.766  1.00  0.00     0.031 C 
ATOM     36  C   UNL A   1      37.298  31.730  31.652  1.00  0.00     0.029 A 
ATOM     37  N   UNL A   1      39.275  30.712  31.871  1.00  0.00    -0.354 N 
ATOM     38  C   UNL A   1      40.788  28.101  28.764  1.00  0.00     0.074 A 
ATOM     39  C   UNL A   1      39.956  28.175  27.583  1.00  0.00     0.031 C 
ATOM     40  C   UNL A   1      37.799  32.081  32.844  1.00  0.00     0.029 A 
ATOM     41  C   UNL A   1      39.057  31.373  33.054  1.00  0.00     0.049 A 
ATOM     42  H   UNL A   1      40.095  30.200  31.681  1.00  0.00     0.167 HD
ATOM     43  C   UNL A   1      41.924  27.371  28.862  1.00  0.00     0.037 A 
ATOM     44  C   UNL A   1      39.761  31.368  34.201  1.00  0.00     0.037 A 
ATOM     45  C   UNL A   1      42.767  27.339  30.029  1.00  0.00     0.049 A 
ATOM     46  C   UNL A   1      41.003  30.528  34.291  1.00  0.00     0.074 A 
ATOM     47  C   UNL A   1      43.958  26.659  30.216  1.00  0.00     0.029 A 
ATOM     48  N   UNL A   1      42.510  28.028  31.206  1.00  0.00    -0.354 N 
ATOM     49  N   UNL A   1      41.547  29.755  33.382  1.00  0.00    -0.248 NA
ATOM     50  C   UNL A   1      41.722  30.548  35.572  1.00  0.00     0.031 C 
ATOM     51  C   UNL A   1      44.403  26.905  31.520  1.00  0.00     0.029 A 
ATOM     52  C   UNL A   1      43.512  27.774  32.129  1.00  0.00     0.049 A 
ATOM     53  H   UNL A   1      41.731  28.609  31.362  1.00  0.00     0.167 HD
ATOM     54  C   UNL A   1      42.677  29.210  33.973  1.00  0.00     0.074 A 
ATOM     55  C   UNL A   1      42.752  29.755  35.314  1.00  0.00     0.031 C 
ATOM     56  C   UNL A   1      43.570  28.331  33.456  1.00  0.00     0.037 A 
BRANCH  43  57
ATOM     57  C   UNL A   1      42.313  26.522  27.688  1.00  0.00     0.064 A 
ATOM     58  C   UNL A   1      43.288  26.931  26.768  1.00  0.00     0.173 A 
ATOM     59  C   UNL A   1      41.738  25.253  27.515  1.00  0.00     0.173 A 
ATOM     60  F   UNL A   1      43.859  28.139  26.880  1.00  0.00    -0.203 F 
ATOM     61  C   UNL A   1      43.661  26.108  25.707  1.00  0.00     0.198 A 
ATOM     62  C   UNL A   1      42.131  24.422  26.470  1.00  0.00     0.198 A 
ATOM     63  F   UNL A   1      40.804  24.812  28.370  1.00  0.00    -0.203 F 
ATOM     64  F   UNL A   1      44.571  26.533  24.819  1.00  0.00    -0.200 F 
ATOM     65  C   UNL A   1      43.089  24.851  25.564  1.00  0.00     0.200 A 
ATOM     66  F   UNL A   1      41.586  23.205  26.340  1.00  0.00    -0.200 F 
ATOM     67  F   UNL A   1      43.459  24.057  24.550  1.00  0.00    -0.200 F 
ENDBRANCH  43  57
BRANCH  44  68
ATOM     68  C   UNL A   1      39.283  32.155  35.366  1.00  0.00     0.064 A 
ATOM     69  C   UNL A   1      38.491  31.564  36.357  1.00  0.00     0.173 A 
ATOM     70  C   UNL A   1      39.613  33.512  35.515  1.00  0.00     0.173 A 
ATOM     71  F   UNL A   1      38.129  30.277  36.246  1.00  0.00    -0.203 F 
ATOM     72  C   UNL A   1      38.036  32.301  37.449  1.00  0.00     0.198 A 
ATOM     73  C   UNL A   1      39.183  34.240  36.622  1.00  0.00     0.198 A 
ATOM     74  F   UNL A   1      40.370  34.124  34.593  1.00  0.00    -0.203 F 
ATOM     75  F   UNL A   1      37.245  31.722  38.362  1.00  0.00    -0.200 F 
ATOM     76  C   UNL A   1      38.389  33.636  37.584  1.00  0.00     0.200 A 
ATOM     77  F   UNL A   1      39.540  35.524  36.755  1.00  0.00    -0.200 F 
ATOM     78  F   UNL A   1      37.958  34.341  38.638  1.00  0.00    -0.200 F 
ENDBRANCH  44  68
BRANCH  56  79
ATOM     79  C   UNL A   1      44.720  27.933  34.333  1.00  0.00     0.064 A 
ATOM     80  C   UNL A   1      45.886  28.707  34.409  1.00  0.00     0.173 A 
ATOM     81  C   UNL A   1      44.642  26.777  35.123  1.00  0.00     0.173 A 
ATOM     82  F   UNL A   1      46.013  29.812  33.658  1.00  0.00    -0.203 F 
ATOM     83  C   UNL A   1      46.945  28.323  35.227  1.00  0.00     0.198 A 
ATOM     84  C   UNL A   1      45.692  26.411  35.960  1.00  0.00     0.198 A 
ATOM     85  F   UNL A   1      43.544  26.006  35.088  1.00  0.00    -0.203 F 
ATOM     86  F   UNL A   1      48.070  29.051  35.248  1.00  0.00    -0.200 F 
ATOM     87  C   UNL A   1      46.845  27.180  36.005  1.00  0.00     0.200 A 
ATOM     88  F   UNL A   1      45.590  25.312  36.719  1.00  0.00    -0.200 F 
ATOM     89  F   UNL A   1      47.865  26.814  36.793  1.00  0.00    -0.200 F 
ENDBRANCH  56  79
ENDBRANCH  30  31
ENDBRANCH  23  25
ENDBRANCH  22  23
ENDBRANCH   1  22
TORSDOF 13
ENDMDL
MODEL 2
REMARK VINA RESULT:     -11.8      0.878      2.213
REMARK SMILES C[C@H]1CC[C@@H]([C@H](C(=O)OCCOC(=O)c2ccc(-c3c4nc(c(-c5c(F)c(F)c(F)c(F)c5F)c5ccc([nH]5)c(-c5c(F)c(F)c(F)c(F)c5F)c5nc(c(-c6c(F)c(F)c(F)c(F)c6F)c6ccc3[nH]6)C=C5)C=C4)cc2)[C@@H]2CCS(=O)(=O)C2)C[C@@H]1C
REMARK SMILES IDX 11 1 10 2 9 3 7 4 8 5 6 6 5 7 1 8 2 9 3 10 86 11 4 12 85 13
REMARK SMILES IDX 87 14 78 15 79 16 84 17 80 18 81 19 82 20 83 21 12 22 13 23
REMARK SMILES IDX 14 24 15 25 16 26 77 27 17 28 76 29 18 30 19 31 20 32 70 33
REMARK SMILES IDX 21 34 75 35 69 36 71 37 22 38 74 39 68 40 67 41 23 43 55 44
REMARK SMILES IDX 35 45 54 46 36 47 39 48 53 49 72 50 37 51 38 52 52 54 73 55
REMARK SMILES IDX 40 56 24 57 25 58 33 59 26 60 27 61 31 62 34 63 28 64 29 65
REMARK SMILES IDX 32 66 30 67 56 68 57 69 65 70 58 71 59 72 63 73 66 74 60 75
REMARK SMILES IDX 61 76 64 77 62 78 41 79 42 80 50 81 43 82 44 83 48 84 51 85
REMARK SMILES IDX 45 86 46 87 49 88 47 89
REMARK H PARENT 71 42 39 53
REMARK Flexibility Score: inf
ROOT
ATOM      1  C   UNL A   1      31.805  29.199  26.098  1.00  0.00     0.275 C 
ENDROOT
BRANCH   1   2
ATOM      2  C   UNL A   1      31.768  28.005  27.039  1.00  0.00     0.274 C 
BRANCH   2   3
ATOM      3  O   UNL A   1      32.444  26.854  26.479  1.00  0.00    -0.462 OA
BRANCH   3   4
ATOM      4  C   UNL A   1      31.667  25.783  26.211  1.00  0.00     0.309 C 
ATOM      5  O   UNL A   1      30.479  25.690  26.501  1.00  0.00    -0.252 OA
BRANCH   4   6
ATOM      6  C   UNL A   1      32.429  24.633  25.552  1.00  0.00     0.106 C 
BRANCH   6   7
ATOM      7  C   UNL A   1      32.314  23.297  26.360  1.00  0.00     0.004 C 
ATOM      8  C   UNL A   1      35.524  20.670  25.001  1.00  0.00     0.008 C 
ATOM      9  C   UNL A   1      34.288  21.092  25.815  1.00  0.00    -0.011 C 
ATOM     10  C   UNL A   1      34.654  22.311  26.685  1.00  0.00     0.004 C 
ATOM     11  C   UNL A   1      33.037  21.279  24.916  1.00  0.00    -0.011 C 
ATOM     12  C   UNL A   1      33.467  23.005  27.326  1.00  0.00     0.005 C 
ATOM     13  C   UNL A   1      31.904  22.011  25.632  1.00  0.00     0.008 C 
ATOM     14  C   UNL A   1      32.527  19.932  24.380  1.00  0.00     0.008 C 
ENDBRANCH   6   7
BRANCH   6  15
ATOM     15  C   UNL A   1      32.601  24.714  24.000  1.00  0.00     0.019 C 
ATOM     16  C   UNL A   1      33.652  25.757  23.537  1.00  0.00     0.021 C 
ATOM     17  C   UNL A   1      31.438  24.930  23.034  1.00  0.00     0.141 C 
ATOM     18  C   UNL A   1      32.959  27.073  23.174  1.00  0.00     0.137 C 
ATOM     19  S   UNL A   1      31.294  26.662  22.702  1.00  0.00     0.150 S 
ATOM     20  O   UNL A   1      30.364  27.246  23.647  1.00  0.00    -0.229 OA
ATOM     21  O   UNL A   1      31.146  26.845  21.275  1.00  0.00    -0.229 OA
ENDBRANCH   6  15
ENDBRANCH   4   6
ENDBRANCH   3   4
ENDBRANCH   2   3
ENDBRANCH   1   2
BRANCH   1  22
ATOM     22  O   UNL A   1      33.127  29.751  26.101  1.00  0.00    -0.458 OA
BRANCH  22  23
ATOM     23  C   UNL A   1      33.290  30.862  26.847  1.00  0.00     0.338 C 
ATOM     24  O   UNL A   1      32.583  31.859  26.877  1.00  0.00    -0.246 OA
BRANCH  23  25
ATOM     25  C   UNL A   1      34.501  30.720  27.662  1.00  0.00     0.060 A 
ATOM     26  C   UNL A   1      35.381  31.792  27.815  1.00  0.00     0.016 A 
ATOM     27  C   UNL A   1      34.803  29.474  28.204  1.00  0.00     0.016 A 
ATOM     28  C   UNL A   1      36.603  31.605  28.456  1.00  0.00     0.010 A 
ATOM     29  C   UNL A   1      35.985  29.311  28.926  1.00  0.00     0.010 A 
ATOM     30  C   UNL A   1      36.906  30.367  29.038  1.00  0.00    -0.014 A 
BRANCH  30  31
ATOM     31  C   UNL A   1      38.180  30.154  29.770  1.00  0.00     0.031 A 
ATOM     32  C   UNL A   1      39.217  29.222  29.212  1.00  0.00     0.074 A 
ATOM     33  C   UNL A   1      38.377  30.753  30.959  1.00  0.00     0.049 A 
ATOM     34  N   UNL A   1      40.276  28.717  29.792  1.00  0.00    -0.248 NA
ATOM     35  C   UNL A   1      39.029  28.786  27.819  1.00  0.00     0.031 C 
ATOM     36  C   UNL A   1      37.461  31.702  31.594  1.00  0.00     0.029 A 
ATOM     37  N   UNL A   1      39.406  30.633  31.859  1.00  0.00    -0.354 N 
ATOM     38  C   UNL A   1      40.849  27.866  28.858  1.00  0.00     0.074 A 
ATOM     39  C   UNL A   1      40.023  27.920  27.671  1.00  0.00     0.031 C 
ATOM     40  C   UNL A   1      37.970  32.082  32.776  1.00  0.00     0.029 A 
ATOM     41  C   UNL A   1      39.205  31.344  33.017  1.00  0.00     0.049 A 
ATOM     42  H   UNL A   1      40.211  30.091  31.692  1.00  0.00     0.167 HD
ATOM     43  C   UNL A   1      41.962  27.105  28.987  1.00  0.00     0.037 A 
ATOM     44  C   UNL A   1      39.905  31.361  34.166  1.00  0.00     0.037 A 
ATOM     45  C   UNL A   1      42.801  27.091  30.157  1.00  0.00     0.049 A 
ATOM     46  C   UNL A   1      41.121  30.488  34.292  1.00  0.00     0.074 A 
ATOM     47  C   UNL A   1      43.970  26.383  30.374  1.00  0.00     0.029 A 
ATOM     48  N   UNL A   1      42.561  27.831  31.307  1.00  0.00    -0.354 N 
ATOM     49  N   UNL A   1      41.644  29.665  33.414  1.00  0.00    -0.248 NA
ATOM     50  C   UNL A   1      41.836  30.533  35.574  1.00  0.00     0.031 C 
ATOM     51  C   UNL A   1      44.418  26.664  31.670  1.00  0.00     0.029 A 
ATOM     52  C   UNL A   1      43.552  27.582  32.243  1.00  0.00     0.049 A 
ATOM     53  H   UNL A   1      41.800  28.441  31.438  1.00  0.00     0.167 HD
ATOM     54  C   UNL A   1      42.755  29.109  34.030  1.00  0.00     0.074 A 
ATOM     55  C   UNL A   1      42.843  29.700  35.349  1.00  0.00     0.031 C 
ATOM     56  C   UNL A   1      43.622  28.185  33.549  1.00  0.00     0.037 A 
BRANCH  43  57
ATOM     57  C   UNL A   1      42.329  26.202  27.846  1.00  0.00     0.064 A 
ATOM     58  C   UNL A   1      41.705  24.961  27.653  1.00  0.00     0.173 A 
ATOM     59  C   UNL A   1      43.282  26.612  26.901  1.00  0.00     0.173 A 
ATOM     60  F   UNL A   1      40.797  24.517  28.534  1.00  0.00    -0.203 F 
ATOM     61  C   UNL A   1      42.035  24.157  26.564  1.00  0.00     0.198 A 
ATOM     62  C   UNL A   1      43.591  25.818  25.801  1.00  0.00     0.198 A 
ATOM     63  F   UNL A   1      43.904  27.793  27.037  1.00  0.00    -0.203 F 
ATOM     64  F   UNL A   1      41.451  22.959  26.417  1.00  0.00    -0.200 F 
ATOM     65  C   UNL A   1      42.970  24.590  25.635  1.00  0.00     0.200 A 
ATOM     66  F   UNL A   1      44.485  26.243  24.897  1.00  0.00    -0.200 F 
ATOM     67  F   UNL A   1      43.276  23.819  24.582  1.00  0.00    -0.200 F 
ENDBRANCH  43  57
BRANCH  44  68
ATOM     68  C   UNL A   1      39.447  32.205  35.298  1.00  0.00     0.064 A 
ATOM     69  C   UNL A   1      39.863  33.537  35.417  1.00  0.00     0.173 A 
ATOM     70  C   UNL A   1      38.580  31.701  36.280  1.00  0.00     0.173 A 
ATOM     71  F   UNL A   1      40.710  34.056  34.517  1.00  0.00    -0.203 F 
ATOM     72  C   UNL A   1      39.439  34.330  36.482  1.00  0.00     0.198 A 
ATOM     73  C   UNL A   1      38.132  32.503  37.327  1.00  0.00     0.198 A 
ATOM     74  F   UNL A   1      38.151  30.431  36.211  1.00  0.00    -0.203 F 
ATOM     75  F   UNL A   1      39.885  35.588  36.595  1.00  0.00    -0.200 F 
ATOM     76  C   UNL A   1      38.568  33.815  37.430  1.00  0.00     0.200 A 
ATOM     77  F   UNL A   1      37.279  32.006  38.232  1.00  0.00    -0.200 F 
ATOM     78  F   UNL A   1      38.155  34.581  38.449  1.00  0.00    -0.200 F 
ENDBRANCH  44  68
BRANCH  56  79
ATOM     79  C   UNL A   1      44.757  27.785  34.445  1.00  0.00     0.064 A 
ATOM     80  C   UNL A   1      45.965  28.496  34.459  1.00  0.00     0.173 A 
ATOM     81  C   UNL A   1      44.623  26.693  35.314  1.00  0.00     0.173 A 
ATOM     82  F   UNL A   1      46.146  29.537  33.632  1.00  0.00    -0.203 F 
ATOM     83  C   UNL A   1      47.009  28.111  35.296  1.00  0.00     0.198 A 
ATOM     84  C   UNL A   1      45.660  26.328  36.169  1.00  0.00     0.198 A 
ATOM     85  F   UNL A   1      43.484  25.984  35.340  1.00  0.00    -0.203 F 
ATOM     86  F   UNL A   1      48.173  28.775  35.259  1.00  0.00    -0.200 F 
ATOM     87  C   UNL A   1      46.853  27.033  36.153  1.00  0.00     0.200 A 
ATOM     88  F   UNL A   1      45.504  25.292  37.003  1.00  0.00    -0.200 F 
ATOM     89  F   UNL A   1      47.860  26.666  36.959  1.00  0.00    -0.200 F 
ENDBRANCH  56  79
ENDBRANCH  30  31
ENDBRANCH  23  25
ENDBRANCH  22  23
ENDBRANCH   1  22
TORSDOF 13
ENDMDL
MODEL 3
REMARK VINA RESULT:     -11.8      1.471      3.202
REMARK SMILES C[C@H]1CC[C@@H]([C@H](C(=O)OCCOC(=O)c2ccc(-c3c4nc(c(-c5c(F)c(F)c(F)c(F)c5F)c5ccc([nH]5)c(-c5c(F)c(F)c(F)c(F)c5F)c5nc(c(-c6c(F)c(F)c(F)c(F)c6F)c6ccc3[nH]6)C=C5)C=C4)cc2)[C@@H]2CCS(=O)(=O)C2)C[C@@H]1C
REMARK SMILES IDX 11 1 10 2 9 3 7 4 8 5 6 6 5 7 1 8 2 9 3 10 86 11 4 12 85 13
REMARK SMILES IDX 87 14 78 15 79 16 84 17 80 18 81 19 82 20 83 21 12 22 13 23
REMARK SMILES IDX 14 24 15 25 16 26 77 27 17 28 76 29 18 30 19 31 20 32 70 33
REMARK SMILES IDX 21 34 75 35 69 36 71 37 22 38 74 39 68 40 67 41 23 43 55 44
REMARK SMILES IDX 35 45 54 46 36 47 39 48 53 49 72 50 37 51 38 52 52 54 73 55
REMARK SMILES IDX 40 56 24 57 25 58 33 59 26 60 27 61 31 62 34 63 28 64 29 65
REMARK SMILES IDX 32 66 30 67 56 68 57 69 65 70 58 71 59 72 63 73 66 74 60 75
REMARK SMILES IDX 61 76 64 77 62 78 41 79 42 80 50 81 43 82 44 83 48 84 51 85
REMARK SMILES IDX 45 86 46 87 49 88 47 89
REMARK H PARENT 71 42 39 53
REMARK Flexibility Score: inf
ROOT
ATOM      1  C   UNL A   1      31.783  29.580  26.225  1.00  0.00     0.275 C 
ENDROOT
BRANCH   1   2
ATOM      2  C   UNL A   1      31.935  28.135  26.675  1.00  0.00     0.274 C 
BRANCH   2   3
ATOM      3  O   UNL A   1      32.390  27.279  25.600  1.00  0.00    -0.462 OA
BRANCH   3   4
ATOM      4  C   UNL A   1      32.016  25.983  25.677  1.00  0.00     0.309 C 
ATOM      5  O   UNL A   1      31.417  25.483  26.622  1.00  0.00    -0.252 OA
BRANCH   4   6
ATOM      6  C   UNL A   1      32.472  25.152  24.478  1.00  0.00     0.106 C 
BRANCH   6   7
ATOM      7  C   UNL A   1      31.464  25.222  23.282  1.00  0.00     0.004 C 
ATOM      8  C   UNL A   1      29.707  29.218  23.289  1.00  0.00     0.008 C 
ATOM      9  C   UNL A   1      29.935  27.772  22.815  1.00  0.00    -0.011 C 
ATOM     10  C   UNL A   1      31.405  27.615  22.376  1.00  0.00     0.004 C 
ATOM     11  C   UNL A   1      29.448  26.734  23.861  1.00  0.00    -0.011 C 
ATOM     12  C   UNL A   1      31.845  26.181  22.150  1.00  0.00     0.005 C 
ATOM     13  C   UNL A   1      29.961  25.324  23.571  1.00  0.00     0.008 C 
ATOM     14  C   UNL A   1      27.915  26.717  23.961  1.00  0.00     0.008 C 
ENDBRANCH   6   7
BRANCH   6  15
ATOM     15  C   UNL A   1      34.016  24.951  24.321  1.00  0.00     0.019 C 
ATOM     16  C   UNL A   1      34.403  23.754  23.413  1.00  0.00     0.021 C 
ATOM     17  C   UNL A   1      34.973  24.825  25.502  1.00  0.00     0.141 C 
ATOM     18  C   UNL A   1      34.687  22.517  24.270  1.00  0.00     0.137 C 
ATOM     19  S   UNL A   1      35.195  23.107  25.869  1.00  0.00     0.150 S 
ATOM     20  O   UNL A   1      34.222  22.710  26.866  1.00  0.00    -0.229 OA
ATOM     21  O   UNL A   1      36.608  22.854  26.041  1.00  0.00    -0.229 OA
ENDBRANCH   6  15
ENDBRANCH   4   6
ENDBRANCH   3   4
ENDBRANCH   2   3
ENDBRANCH   1   2
BRANCH   1  22
ATOM     22  O   UNL A   1      33.085  30.166  26.100  1.00  0.00    -0.458 OA
BRANCH  22  23
ATOM     23  C   UNL A   1      33.358  31.161  26.967  1.00  0.00     0.338 C 
ATOM     24  O   UNL A   1      32.684  32.151  27.215  1.00  0.00    -0.246 OA
BRANCH  23  25
ATOM     25  C   UNL A   1      34.649  30.897  27.610  1.00  0.00     0.060 A 
ATOM     26  C   UNL A   1      35.003  29.598  27.979  1.00  0.00     0.016 A 
ATOM     27  C   UNL A   1      35.475  31.972  27.925  1.00  0.00     0.016 A 
ATOM     28  C   UNL A   1      36.155  29.376  28.727  1.00  0.00     0.010 A 
ATOM     29  C   UNL A   1      36.675  31.738  28.595  1.00  0.00     0.010 A 
ATOM     30  C   UNL A   1      37.015  30.442  29.023  1.00  0.00    -0.014 A 
BRANCH  30  31
ATOM     31  C   UNL A   1      38.275  30.226  29.777  1.00  0.00     0.031 A 
ATOM     32  C   UNL A   1      39.344  29.335  29.209  1.00  0.00     0.074 A 
ATOM     33  C   UNL A   1      38.433  30.782  30.992  1.00  0.00     0.049 A 
ATOM     34  N   UNL A   1      40.398  28.828  29.796  1.00  0.00    -0.248 NA
ATOM     35  C   UNL A   1      39.197  28.949  27.797  1.00  0.00     0.031 C 
ATOM     36  C   UNL A   1      37.485  31.689  31.641  1.00  0.00     0.029 A 
ATOM     37  N   UNL A   1      39.443  30.647  31.912  1.00  0.00    -0.354 N 
ATOM     38  C   UNL A   1      41.009  28.023  28.843  1.00  0.00     0.074 A 
ATOM     39  C   UNL A   1      40.210  28.108  27.640  1.00  0.00     0.031 C 
ATOM     40  C   UNL A   1      37.958  32.033  32.847  1.00  0.00     0.029 A 
ATOM     41  C   UNL A   1      39.200  31.309  33.090  1.00  0.00     0.049 A 
ATOM     42  H   UNL A   1      40.262  30.126  31.744  1.00  0.00     0.167 HD
ATOM     43  C   UNL A   1      42.133  27.280  28.971  1.00  0.00     0.037 A 
ATOM     44  C   UNL A   1      39.873  31.295  34.255  1.00  0.00     0.037 A 
ATOM     45  C   UNL A   1      42.944  27.236  30.160  1.00  0.00     0.049 A 
ATOM     46  C   UNL A   1      41.103  30.440  34.378  1.00  0.00     0.074 A 
ATOM     47  C   UNL A   1      44.121  26.542  30.378  1.00  0.00     0.029 A 
ATOM     48  N   UNL A   1      42.664  27.926  31.331  1.00  0.00    -0.354 N 
ATOM     49  N   UNL A   1      41.662  29.662  33.483  1.00  0.00    -0.248 NA
ATOM     50  C   UNL A   1      41.786  30.449  35.678  1.00  0.00     0.031 C 
ATOM     51  C   UNL A   1      44.534  26.781  31.694  1.00  0.00     0.029 A 
ATOM     52  C   UNL A   1      43.637  27.660  32.280  1.00  0.00     0.049 A 
ATOM     53  H   UNL A   1      41.888  28.517  31.466  1.00  0.00     0.167 HD
ATOM     54  C   UNL A   1      42.768  29.102  34.103  1.00  0.00     0.074 A 
ATOM     55  C   UNL A   1      42.814  29.645  35.446  1.00  0.00     0.031 C 
ATOM     56  C   UNL A   1      43.665  28.214  33.610  1.00  0.00     0.037 A 
BRANCH  43  57
ATOM     57  C   UNL A   1      42.544  26.427  27.806  1.00  0.00     0.064 A 
ATOM     58  C   UNL A   1      41.997  25.155  27.589  1.00  0.00     0.173 A 
ATOM     59  C   UNL A   1      43.461  26.918  26.863  1.00  0.00     0.173 A 
ATOM     60  F   UNL A   1      41.128  24.634  28.467  1.00  0.00    -0.203 F 
ATOM     61  C   UNL A   1      42.365  24.398  26.478  1.00  0.00     0.198 A 
ATOM     62  C   UNL A   1      43.807  26.170  25.741  1.00  0.00     0.198 A 
ATOM     63  F   UNL A   1      44.009  28.132  27.022  1.00  0.00    -0.203 F 
ATOM     64  F   UNL A   1      41.856  23.170  26.308  1.00  0.00    -0.200 F 
ATOM     65  C   UNL A   1      43.262  24.910  25.551  1.00  0.00     0.200 A 
ATOM     66  F   UNL A   1      44.664  26.671  24.840  1.00  0.00    -0.200 F 
ATOM     67  F   UNL A   1      43.605  24.184  24.478  1.00  0.00    -0.200 F 
ENDBRANCH  43  57
BRANCH  44  68
ATOM     68  C   UNL A   1      39.373  32.086  35.408  1.00  0.00     0.064 A 
ATOM     69  C   UNL A   1      39.718  33.435  35.559  1.00  0.00     0.173 A 
ATOM     70  C   UNL A   1      38.534  31.514  36.377  1.00  0.00     0.173 A 
ATOM     71  F   UNL A   1      40.537  34.019  34.672  1.00  0.00    -0.203 F 
ATOM     72  C   UNL A   1      39.254  34.179  36.642  1.00  0.00     0.198 A 
ATOM     73  C   UNL A   1      38.046  32.267  37.442  1.00  0.00     0.198 A 
ATOM     74  F   UNL A   1      38.172  30.226  36.277  1.00  0.00    -0.203 F 
ATOM     75  F   UNL A   1      39.634  35.456  36.785  1.00  0.00    -0.200 F 
ATOM     76  C   UNL A   1      38.412  33.597  37.578  1.00  0.00     0.200 A 
ATOM     77  F   UNL A   1      37.220  31.704  38.334  1.00  0.00    -0.200 F 
ATOM     78  F   UNL A   1      37.960  34.315  38.614  1.00  0.00    -0.200 F 
ENDBRANCH  44  68
BRANCH  56  79
ATOM     79  C   UNL A   1      44.786  27.802  34.517  1.00  0.00     0.064 A 
ATOM     80  C   UNL A   1      46.000  28.502  34.547  1.00  0.00     0.173 A 
ATOM     81  C   UNL A   1      44.633  26.708  35.381  1.00  0.00     0.173 A 
ATOM     82  F   UNL A   1      46.200  29.543  33.724  1.00  0.00    -0.203 F 
ATOM     83  C   UNL A   1      47.031  28.105  35.393  1.00  0.00     0.198 A 
ATOM     84  C   UNL A   1      45.656  26.331  36.246  1.00  0.00     0.198 A 
ATOM     85  F   UNL A   1      43.487  26.009  35.392  1.00  0.00    -0.203 F 
ATOM     86  F   UNL A   1      48.202  28.758  35.372  1.00  0.00    -0.200 F 
ATOM     87  C   UNL A   1      46.856  27.025  36.246  1.00  0.00     0.200 A 
ATOM     88  F   UNL A   1      45.482  25.294  37.075  1.00  0.00    -0.200 F 
ATOM     89  F   UNL A   1      47.850  26.646  37.061  1.00  0.00    -0.200 F 
ENDBRANCH  56  79
ENDBRANCH  30  31
ENDBRANCH  23  25
ENDBRANCH  22  23
ENDBRANCH   1  22
TORSDOF 13
ENDMDL
