MODEL 1
REMARK VINA RESULT:     -12.0      0.000      0.000
REMARK SMILES CC[C@@H](NC(=O)c1ccc(CNC(=O)[C@H]2CCCO2)cc1)C(=O)OCCOC(=O)c1ccc(-c2c3nc(c(-c4c(F)c(F)c(F)c(F)c4F)c4ccc([nH]4)c(-c4c(F)c(F)c(F)c(F)c4F)c4nc(c(-c5c(F)c(F)c(F)c(F)c5F)c5ccc2[nH]5)C=C4)C=C3)cc1
REMARK SMILES IDX 24 1 22 2 23 3 3 4 2 5 1 6 4 7 5 8 6 10 7 11 8 12 21 13 9 14
REMARK SMILES IDX 20 15 10 16 11 17 12 18 13 19 14 21 15 22 16 23 19 24 17 25
REMARK SMILES IDX 18 26 25 27 26 28 27 29 28 30 29 31 30 32 31 33 92 34 32 35
REMARK SMILES IDX 91 36 33 37 34 38 35 39 85 40 36 41 90 42 84 43 86 44 37 45
REMARK SMILES IDX 89 46 83 47 82 48 38 50 70 51 50 52 69 53 51 54 54 55 68 56
REMARK SMILES IDX 87 57 52 58 53 59 67 61 88 62 55 63 39 64 40 65 48 66 41 67
REMARK SMILES IDX 42 68 46 69 49 70 43 71 44 72 47 73 45 74 71 75 72 76 80 77
REMARK SMILES IDX 73 78 74 79 78 80 81 81 75 82 76 83 79 84 77 85 56 86 57 87
REMARK SMILES IDX 65 88 58 89 59 90 63 91 66 92 60 93 61 94 64 95 62 96
REMARK H PARENT 4 9 12 20 86 49 54 60
REMARK Flexibility Score: inf
ROOT
ATOM      1  O   UNL A   1      32.095  29.095  24.795  1.00  0.00    -0.461 OA
ENDROOT
BRANCH   1   2
ATOM      2  C   UNL A   1      31.657  28.005  24.112  1.00  0.00     0.328 C 
ATOM      3  O   UNL A   1      31.170  28.045  22.986  1.00  0.00    -0.250 OA
BRANCH   2   4
ATOM      4  C   UNL A   1      31.787  26.686  24.890  1.00  0.00     0.192 C 
BRANCH   4   5
ATOM      5  C   UNL A   1      32.756  26.871  26.074  1.00  0.00     0.033 C 
ATOM      6  C   UNL A   1      34.180  26.440  25.748  1.00  0.00     0.007 C 
ENDBRANCH   4   5
BRANCH   4   7
ATOM      7  N   UNL A   1      30.549  26.015  25.328  1.00  0.00    -0.339 N 
ATOM      8  C   UNL A   1      30.424  24.823  26.005  1.00  0.00     0.251 C 
ATOM      9  H   UNL A   1      29.708  26.475  25.107  1.00  0.00     0.164 HD
ATOM     10  O   UNL A   1      29.537  24.659  26.835  1.00  0.00    -0.269 OA
BRANCH   8  11
ATOM     11  C   UNL A   1      31.248  23.684  25.577  1.00  0.00     0.039 A 
ATOM     12  C   UNL A   1      32.040  23.062  26.543  1.00  0.00     0.014 A 
ATOM     13  C   UNL A   1      31.200  23.194  24.274  1.00  0.00     0.014 A 
ATOM     14  C   UNL A   1      32.709  21.880  26.230  1.00  0.00     0.006 A 
ATOM     15  C   UNL A   1      31.840  21.982  23.978  1.00  0.00     0.006 A 
ATOM     16  C   UNL A   1      32.570  21.292  24.962  1.00  0.00    -0.029 A 
BRANCH  16  17
ATOM     17  C   UNL A   1      33.105  19.901  24.691  1.00  0.00     0.151 C 
BRANCH  17  18
ATOM     18  N   UNL A   1      32.604  19.380  23.445  1.00  0.00    -0.350 N 
ATOM     19  C   UNL A   1      32.596  18.144  22.891  1.00  0.00     0.249 C 
ATOM     20  H   UNL A   1      32.180  20.065  22.877  1.00  0.00     0.163 HD
ATOM     21  O   UNL A   1      32.112  18.072  21.752  1.00  0.00    -0.272 OA
BRANCH  19  22
ATOM     22  C   UNL A   1      33.083  16.856  23.586  1.00  0.00     0.207 C 
ATOM     23  C   UNL A   1      34.573  16.542  23.690  1.00  0.00     0.044 C 
ATOM     24  O   UNL A   1      32.542  16.718  24.910  1.00  0.00    -0.368 OA
ATOM     25  C   UNL A   1      34.806  16.330  25.174  1.00  0.00     0.032 C 
ATOM     26  C   UNL A   1      33.443  15.891  25.649  1.00  0.00     0.161 C 
ENDBRANCH  19  22
ENDBRANCH  17  18
ENDBRANCH  16  17
ENDBRANCH   8  11
ENDBRANCH   4   7
ENDBRANCH   2   4
ENDBRANCH   1   2
BRANCH   1  27
ATOM     27  C   UNL A   1      31.098  30.107  25.043  1.00  0.00     0.274 C 
BRANCH  27  28
ATOM     28  C   UNL A   1      31.464  31.097  26.157  1.00  0.00     0.275 C 
BRANCH  28  29
ATOM     29  O   UNL A   1      32.723  30.782  26.781  1.00  0.00    -0.458 OA
BRANCH  29  30
ATOM     30  C   UNL A   1      33.389  31.849  27.283  1.00  0.00     0.338 C 
ATOM     31  O   UNL A   1      32.946  32.976  27.433  1.00  0.00    -0.246 OA
BRANCH  30  32
ATOM     32  C   UNL A   1      34.713  31.452  27.802  1.00  0.00     0.060 A 
ATOM     33  C   UNL A   1      34.879  30.114  28.187  1.00  0.00     0.016 A 
ATOM     34  C   UNL A   1      35.747  32.373  27.986  1.00  0.00     0.016 A 
ATOM     35  C   UNL A   1      36.063  29.696  28.784  1.00  0.00     0.010 A 
ATOM     36  C   UNL A   1      36.931  31.956  28.604  1.00  0.00     0.010 A 
ATOM     37  C   UNL A   1      37.081  30.623  29.031  1.00  0.00    -0.014 A 
BRANCH  37  38
ATOM     38  C   UNL A   1      38.234  30.224  29.871  1.00  0.00     0.031 A 
ATOM     39  C   UNL A   1      39.229  29.247  29.315  1.00  0.00     0.074 A 
ATOM     40  C   UNL A   1      38.415  30.759  31.091  1.00  0.00     0.049 A 
ATOM     41  N   UNL A   1      40.278  28.711  29.887  1.00  0.00    -0.248 NA
ATOM     42  C   UNL A   1      39.016  28.818  27.925  1.00  0.00     0.031 C 
ATOM     43  C   UNL A   1      37.552  31.764  31.706  1.00  0.00     0.029 A 
ATOM     44  N   UNL A   1      39.387  30.524  32.029  1.00  0.00    -0.354 N 
ATOM     45  C   UNL A   1      40.840  27.876  28.931  1.00  0.00     0.074 A 
ATOM     46  C   UNL A   1      40.010  27.960  27.750  1.00  0.00     0.031 C 
ATOM     47  C   UNL A   1      38.026  32.052  32.931  1.00  0.00     0.029 A 
ATOM     48  C   UNL A   1      39.203  31.224  33.194  1.00  0.00     0.049 A 
ATOM     49  H   UNL A   1      40.144  29.912  31.882  1.00  0.00     0.167 HD
ATOM     50  C   UNL A   1      41.952  27.110  29.032  1.00  0.00     0.037 A 
ATOM     51  C   UNL A   1      39.892  31.179  34.352  1.00  0.00     0.037 A 
ATOM     52  C   UNL A   1      42.775  27.029  30.209  1.00  0.00     0.049 A 
ATOM     53  C   UNL A   1      41.082  30.262  34.465  1.00  0.00     0.074 A 
ATOM     54  C   UNL A   1      43.921  26.280  30.414  1.00  0.00     0.029 A 
ATOM     55  N   UNL A   1      42.536  27.725  31.385  1.00  0.00    -0.354 N 
ATOM     56  N   UNL A   1      41.603  29.467  33.563  1.00  0.00    -0.248 NA
ATOM     57  C   UNL A   1      41.776  30.233  35.760  1.00  0.00     0.031 C 
ATOM     58  C   UNL A   1      44.351  26.491  31.728  1.00  0.00     0.029 A 
ATOM     59  C   UNL A   1      43.500  27.407  32.327  1.00  0.00     0.049 A 
ATOM     60  H   UNL A   1      41.791  28.352  31.528  1.00  0.00     0.167 HD
ATOM     61  C   UNL A   1      42.695  28.862  34.170  1.00  0.00     0.074 A 
ATOM     62  C   UNL A   1      42.770  29.391  35.516  1.00  0.00     0.031 C 
ATOM     63  C   UNL A   1      43.559  27.949  33.660  1.00  0.00     0.037 A 
BRANCH  50  64
ATOM     64  C   UNL A   1      42.318  26.269  27.846  1.00  0.00     0.064 A 
ATOM     65  C   UNL A   1      41.748  25.005  27.633  1.00  0.00     0.173 A 
ATOM     66  C   UNL A   1      43.240  26.742  26.900  1.00  0.00     0.173 A 
ATOM     67  F   UNL A   1      40.876  24.501  28.520  1.00  0.00    -0.203 F 
ATOM     68  C   UNL A   1      42.107  24.234  26.531  1.00  0.00     0.198 A 
ATOM     69  C   UNL A   1      43.577  25.980  25.785  1.00  0.00     0.198 A 
ATOM     70  F   UNL A   1      43.813  27.945  27.056  1.00  0.00    -0.203 F 
ATOM     71  F   UNL A   1      41.587  23.009  26.374  1.00  0.00    -0.200 F 
ATOM     72  C   UNL A   1      43.016  24.724  25.606  1.00  0.00     0.200 A 
ATOM     73  F   UNL A   1      44.451  26.458  24.888  1.00  0.00    -0.200 F 
ATOM     74  F   UNL A   1      43.361  23.981  24.544  1.00  0.00    -0.200 F 
ENDBRANCH  50  64
BRANCH  51  75
ATOM     75  C   UNL A   1      39.456  32.009  35.505  1.00  0.00     0.064 A 
ATOM     76  C   UNL A   1      38.585  31.499  36.476  1.00  0.00     0.173 A 
ATOM     77  C   UNL A   1      39.895  33.332  35.650  1.00  0.00     0.173 A 
ATOM     78  F   UNL A   1      38.116  30.248  36.364  1.00  0.00    -0.203 F 
ATOM     79  C   UNL A   1      38.161  32.287  37.545  1.00  0.00     0.198 A 
ATOM     80  C   UNL A   1      39.491  34.110  36.733  1.00  0.00     0.198 A 
ATOM     81  F   UNL A   1      40.725  33.868  34.743  1.00  0.00    -0.203 F 
ATOM     82  F   UNL A   1      37.295  31.788  38.439  1.00  0.00    -0.200 F 
ATOM     83  C   UNL A   1      38.619  33.589  37.676  1.00  0.00     0.200 A 
ATOM     84  F   UNL A   1      39.943  35.365  36.860  1.00  0.00    -0.200 F 
ATOM     85  F   UNL A   1      38.213  34.344  38.706  1.00  0.00    -0.200 F 
ENDBRANCH  51  75
BRANCH  63  86
ATOM     86  C   UNL A   1      44.675  27.486  34.551  1.00  0.00     0.064 A 
ATOM     87  C   UNL A   1      44.551  26.339  35.347  1.00  0.00     0.173 A 
ATOM     88  C   UNL A   1      45.897  28.175  34.571  1.00  0.00     0.173 A 
ATOM     89  F   UNL A   1      43.396  25.656  35.371  1.00  0.00    -0.203 F 
ATOM     90  C   UNL A   1      45.604  25.908  36.148  1.00  0.00     0.198 A 
ATOM     91  C   UNL A   1      46.957  27.726  35.353  1.00  0.00     0.198 A 
ATOM     92  F   UNL A   1      46.067  29.274  33.822  1.00  0.00    -0.203 F 
ATOM     93  F   UNL A   1      45.452  24.832  36.931  1.00  0.00    -0.200 F 
ATOM     94  C   UNL A   1      46.809  26.598  36.145  1.00  0.00     0.200 A 
ATOM     95  F   UNL A   1      48.123  28.387  35.342  1.00  0.00    -0.200 F 
ATOM     96  F   UNL A   1      47.824  26.177  36.912  1.00  0.00    -0.200 F 
ENDBRANCH  63  86
ENDBRANCH  37  38
ENDBRANCH  30  32
ENDBRANCH  29  30
ENDBRANCH  28  29
ENDBRANCH  27  28
ENDBRANCH   1  27
TORSDOF 17
ENDMDL
MODEL 2
REMARK VINA RESULT:     -12.0      4.365      9.922
REMARK SMILES CC[C@@H](NC(=O)c1ccc(CNC(=O)[C@H]2CCCO2)cc1)C(=O)OCCOC(=O)c1ccc(-c2c3nc(c(-c4c(F)c(F)c(F)c(F)c4F)c4ccc([nH]4)c(-c4c(F)c(F)c(F)c(F)c4F)c4nc(c(-c5c(F)c(F)c(F)c(F)c5F)c5ccc2[nH]5)C=C4)C=C3)cc1
REMARK SMILES IDX 24 1 22 2 23 3 3 4 2 5 1 6 4 7 5 8 6 10 7 11 8 12 21 13 9 14
REMARK SMILES IDX 20 15 10 16 11 17 12 18 13 19 14 21 15 22 16 23 19 24 17 25
REMARK SMILES IDX 18 26 25 27 26 28 27 29 28 30 29 31 30 32 31 33 92 34 32 35
REMARK SMILES IDX 91 36 33 37 34 38 35 39 85 40 36 41 90 42 84 43 86 44 37 45
REMARK SMILES IDX 89 46 83 47 82 48 38 50 70 51 50 52 69 53 51 54 54 55 68 56
REMARK SMILES IDX 87 57 52 58 53 59 67 61 88 62 55 63 39 64 40 65 48 66 41 67
REMARK SMILES IDX 42 68 46 69 49 70 43 71 44 72 47 73 45 74 71 75 72 76 80 77
REMARK SMILES IDX 73 78 74 79 78 80 81 81 75 82 76 83 79 84 77 85 56 86 57 87
REMARK SMILES IDX 65 88 58 89 59 90 63 91 66 92 60 93 61 94 64 95 62 96
REMARK H PARENT 4 9 12 20 86 49 54 60
REMARK Flexibility Score: inf
ROOT
ATOM      1  O   UNL A   1      35.109  21.242  25.579  1.00  0.00    -0.461 OA
ENDROOT
BRANCH   1   2
ATOM      2  C   UNL A   1      34.223  21.802  24.713  1.00  0.00     0.328 C 
ATOM      3  O   UNL A   1      34.543  22.445  23.718  1.00  0.00    -0.250 OA
BRANCH   2   4
ATOM      4  C   UNL A   1      32.751  21.598  25.106  1.00  0.00     0.192 C 
BRANCH   4   5
ATOM      5  C   UNL A   1      32.416  20.094  25.111  1.00  0.00     0.033 C 
ATOM      6  C   UNL A   1      32.478  19.467  23.723  1.00  0.00     0.007 C 
ENDBRANCH   4   5
BRANCH   4   7
ATOM      7  N   UNL A   1      32.265  22.246  26.337  1.00  0.00    -0.339 N 
ATOM      8  C   UNL A   1      31.156  23.045  26.495  1.00  0.00     0.251 C 
ATOM      9  H   UNL A   1      32.800  22.087  27.148  1.00  0.00     0.164 HD
ATOM     10  O   UNL A   1      30.495  23.012  27.527  1.00  0.00    -0.269 OA
BRANCH   8  11
ATOM     11  C   UNL A   1      30.890  24.081  25.486  1.00  0.00     0.039 A 
ATOM     12  C   UNL A   1      30.262  25.251  25.915  1.00  0.00     0.014 A 
ATOM     13  C   UNL A   1      31.302  23.938  24.164  1.00  0.00     0.014 A 
ATOM     14  C   UNL A   1      30.139  26.328  25.038  1.00  0.00     0.006 A 
ATOM     15  C   UNL A   1      31.215  25.039  23.300  1.00  0.00     0.006 A 
ATOM     16  C   UNL A   1      30.666  26.258  23.738  1.00  0.00    -0.029 A 
BRANCH  16  17
ATOM     17  C   UNL A   1      30.738  27.494  22.865  1.00  0.00     0.151 C 
BRANCH  17  18
ATOM     18  N   UNL A   1      31.989  27.561  22.154  1.00  0.00    -0.350 N 
ATOM     19  C   UNL A   1      33.247  27.905  22.518  1.00  0.00     0.249 C 
ATOM     20  H   UNL A   1      31.913  27.307  21.205  1.00  0.00     0.163 HD
ATOM     21  O   UNL A   1      34.088  27.897  21.608  1.00  0.00    -0.272 OA
BRANCH  19  22
ATOM     22  C   UNL A   1      33.696  28.239  23.956  1.00  0.00     0.207 C 
ATOM     23  C   UNL A   1      32.982  29.319  24.763  1.00  0.00     0.044 C 
ATOM     24  O   UNL A   1      33.750  27.071  24.791  1.00  0.00    -0.368 OA
ATOM     25  C   UNL A   1      32.569  28.616  26.042  1.00  0.00     0.032 C 
ATOM     26  C   UNL A   1      33.592  27.512  26.141  1.00  0.00     0.161 C 
ENDBRANCH  19  22
ENDBRANCH  17  18
ENDBRANCH  16  17
ENDBRANCH   8  11
ENDBRANCH   4   7
ENDBRANCH   2   4
ENDBRANCH   1   2
BRANCH   1  27
ATOM     27  C   UNL A   1      35.930  20.194  25.026  1.00  0.00     0.274 C 
BRANCH  27  28
ATOM     28  C   UNL A   1      37.390  20.596  24.779  1.00  0.00     0.275 C 
BRANCH  28  29
ATOM     29  O   UNL A   1      37.850  21.595  25.710  1.00  0.00    -0.458 OA
BRANCH  29  30
ATOM     30  C   UNL A   1      39.096  21.382  26.198  1.00  0.00     0.338 C 
ATOM     31  O   UNL A   1      39.756  20.363  26.083  1.00  0.00    -0.246 OA
BRANCH  30  32
ATOM     32  C   UNL A   1      39.660  22.621  26.770  1.00  0.00     0.060 A 
ATOM     33  C   UNL A   1      39.182  23.838  26.265  1.00  0.00     0.016 A 
ATOM     34  C   UNL A   1      40.686  22.603  27.717  1.00  0.00     0.016 A 
ATOM     35  C   UNL A   1      39.746  25.040  26.678  1.00  0.00     0.010 A 
ATOM     36  C   UNL A   1      41.265  23.812  28.119  1.00  0.00     0.010 A 
ATOM     37  C   UNL A   1      40.816  25.032  27.579  1.00  0.00    -0.014 A 
BRANCH  37  38
ATOM     38  C   UNL A   1      41.557  26.289  27.833  1.00  0.00     0.031 A 
ATOM     39  C   UNL A   1      40.879  27.385  28.605  1.00  0.00     0.074 A 
ATOM     40  C   UNL A   1      42.828  26.433  27.422  1.00  0.00     0.049 A 
ATOM     41  N   UNL A   1      41.309  28.587  28.895  1.00  0.00    -0.248 NA
ATOM     42  C   UNL A   1      39.537  27.083  29.124  1.00  0.00     0.031 C 
ATOM     43  C   UNL A   1      43.609  25.415  26.723  1.00  0.00     0.029 A 
ATOM     44  N   UNL A   1      43.683  27.500  27.533  1.00  0.00    -0.354 N 
ATOM     45  C   UNL A   1      40.286  29.186  29.618  1.00  0.00     0.074 A 
ATOM     46  C   UNL A   1      39.209  28.224  29.709  1.00  0.00     0.031 C 
ATOM     47  C   UNL A   1      44.829  25.913  26.454  1.00  0.00     0.029 A 
ATOM     48  C   UNL A   1      44.898  27.293  26.930  1.00  0.00     0.049 A 
ATOM     49  H   UNL A   1      43.448  28.335  28.000  1.00  0.00     0.167 HD
ATOM     50  C   UNL A   1      40.253  30.426  30.160  1.00  0.00     0.037 A 
ATOM     51  C   UNL A   1      45.936  28.136  26.759  1.00  0.00     0.037 A 
ATOM     52  C   UNL A   1      41.327  31.379  30.067  1.00  0.00     0.049 A 
ATOM     53  C   UNL A   1      45.845  29.536  27.306  1.00  0.00     0.074 A 
ATOM     54  C   UNL A   1      41.391  32.663  30.578  1.00  0.00     0.029 A 
ATOM     55  N   UNL A   1      42.530  31.147  29.415  1.00  0.00    -0.354 N 
ATOM     56  N   UNL A   1      44.873  30.102  27.980  1.00  0.00    -0.248 NA
ATOM     57  C   UNL A   1      46.996  30.419  27.063  1.00  0.00     0.031 C 
ATOM     58  C   UNL A   1      42.616  33.223  30.200  1.00  0.00     0.029 A 
ATOM     59  C   UNL A   1      43.334  32.272  29.493  1.00  0.00     0.049 A 
ATOM     60  H   UNL A   1      42.775  30.306  28.965  1.00  0.00     0.167 HD
ATOM     61  C   UNL A   1      45.300  31.392  28.260  1.00  0.00     0.074 A 
ATOM     62  C   UNL A   1      46.627  31.525  27.694  1.00  0.00     0.031 C 
ATOM     63  C   UNL A   1      44.653  32.381  28.926  1.00  0.00     0.037 A 
BRANCH  50  64
ATOM     64  C   UNL A   1      38.996  30.833  30.868  1.00  0.00     0.064 A 
ATOM     65  C   UNL A   1      38.848  30.682  32.254  1.00  0.00     0.173 A 
ATOM     66  C   UNL A   1      37.930  31.397  30.151  1.00  0.00     0.173 A 
ATOM     67  F   UNL A   1      39.832  30.130  32.981  1.00  0.00    -0.203 F 
ATOM     68  C   UNL A   1      37.669  31.057  32.894  1.00  0.00     0.198 A 
ATOM     69  C   UNL A   1      36.763  31.795  30.796  1.00  0.00     0.198 A 
ATOM     70  F   UNL A   1      38.021  31.564  28.823  1.00  0.00    -0.203 F 
ATOM     71  F   UNL A   1      37.532  30.859  34.212  1.00  0.00    -0.200 F 
ATOM     72  C   UNL A   1      36.631  31.617  32.166  1.00  0.00     0.200 A 
ATOM     73  F   UNL A   1      35.763  32.343  30.093  1.00  0.00    -0.200 F 
ATOM     74  F   UNL A   1      35.497  31.979  32.783  1.00  0.00    -0.200 F 
ENDBRANCH  50  64
BRANCH  51  75
ATOM     75  C   UNL A   1      47.139  27.684  26.015  1.00  0.00     0.064 A 
ATOM     76  C   UNL A   1      47.188  27.739  24.615  1.00  0.00     0.173 A 
ATOM     77  C   UNL A   1      48.260  27.178  26.689  1.00  0.00     0.173 A 
ATOM     78  F   UNL A   1      46.131  28.189  23.925  1.00  0.00    -0.203 F 
ATOM     79  C   UNL A   1      48.311  27.294  23.919  1.00  0.00     0.198 A 
ATOM     80  C   UNL A   1      49.391  26.757  25.992  1.00  0.00     0.198 A 
ATOM     81  F   UNL A   1      48.259  27.099  28.028  1.00  0.00    -0.203 F 
ATOM     82  F   UNL A   1      48.317  27.320  22.578  1.00  0.00    -0.200 F 
ATOM     83  C   UNL A   1      49.413  26.810  24.607  1.00  0.00     0.200 A 
ATOM     84  F   UNL A   1      50.456  26.299  26.662  1.00  0.00    -0.200 F 
ATOM     85  F   UNL A   1      50.492  26.386  23.936  1.00  0.00    -0.200 F 
ENDBRANCH  51  75
BRANCH  63  86
ATOM     86  C   UNL A   1      45.381  33.681  29.103  1.00  0.00     0.064 A 
ATOM     87  C   UNL A   1      46.230  33.903  30.197  1.00  0.00     0.173 A 
ATOM     88  C   UNL A   1      45.263  34.697  28.142  1.00  0.00     0.173 A 
ATOM     89  F   UNL A   1      46.364  32.967  31.148  1.00  0.00    -0.203 F 
ATOM     90  C   UNL A   1      46.919  35.105  30.333  1.00  0.00     0.198 A 
ATOM     91  C   UNL A   1      45.973  35.887  28.269  1.00  0.00     0.198 A 
ATOM     92  F   UNL A   1      44.469  34.528  27.075  1.00  0.00    -0.203 F 
ATOM     93  F   UNL A   1      47.693  35.313  31.406  1.00  0.00    -0.200 F 
ATOM     94  C   UNL A   1      46.795  36.092  29.366  1.00  0.00     0.200 A 
ATOM     95  F   UNL A   1      45.862  36.835  27.328  1.00  0.00    -0.200 F 
ATOM     96  F   UNL A   1      47.465  37.246  29.497  1.00  0.00    -0.200 F 
ENDBRANCH  63  86
ENDBRANCH  37  38
ENDBRANCH  30  32
ENDBRANCH  29  30
ENDBRANCH  28  29
ENDBRANCH  27  28
ENDBRANCH   1  27
TORSDOF 17
ENDMDL
MODEL 3
REMARK VINA RESULT:     -11.9      4.375     10.277
REMARK SMILES CC[C@@H](NC(=O)c1ccc(CNC(=O)[C@H]2CCCO2)cc1)C(=O)OCCOC(=O)c1ccc(-c2c3nc(c(-c4c(F)c(F)c(F)c(F)c4F)c4ccc([nH]4)c(-c4c(F)c(F)c(F)c(F)c4F)c4nc(c(-c5c(F)c(F)c(F)c(F)c5F)c5ccc2[nH]5)C=C4)C=C3)cc1
REMARK SMILES IDX 24 1 22 2 23 3 3 4 2 5 1 6 4 7 5 8 6 10 7 11 8 12 21 13 9 14
REMARK SMILES IDX 20 15 10 16 11 17 12 18 13 19 14 21 15 22 16 23 19 24 17 25
REMARK SMILES IDX 18 26 25 27 26 28 27 29 28 30 29 31 30 32 31 33 92 34 32 35
REMARK SMILES IDX 91 36 33 37 34 38 35 39 85 40 36 41 90 42 84 43 86 44 37 45
REMARK SMILES IDX 89 46 83 47 82 48 38 50 70 51 50 52 69 53 51 54 54 55 68 56
REMARK SMILES IDX 87 57 52 58 53 59 67 61 88 62 55 63 39 64 40 65 48 66 41 67
REMARK SMILES IDX 42 68 46 69 49 70 43 71 44 72 47 73 45 74 71 75 72 76 80 77
REMARK SMILES IDX 73 78 74 79 78 80 81 81 75 82 76 83 79 84 77 85 56 86 57 87
REMARK SMILES IDX 65 88 58 89 59 90 63 91 66 92 60 93 61 94 64 95 62 96
REMARK H PARENT 4 9 12 20 86 49 54 60
REMARK Flexibility Score: inf
ROOT
ATOM      1  O   UNL A   1      34.691  21.318  24.806  1.00  0.00    -0.461 OA
ENDROOT
BRANCH   1   2
ATOM      2  C   UNL A   1      34.014  21.697  25.922  1.00  0.00     0.328 C 
ATOM      3  O   UNL A   1      34.336  21.384  27.064  1.00  0.00    -0.250 OA
BRANCH   2   4
ATOM      4  C   UNL A   1      32.760  22.539  25.638  1.00  0.00     0.192 C 
BRANCH   4   5
ATOM      5  C   UNL A   1      32.025  21.980  24.404  1.00  0.00     0.033 C 
ATOM      6  C   UNL A   1      32.074  22.922  23.207  1.00  0.00     0.007 C 
ENDBRANCH   4   5
BRANCH   4   7
ATOM      7  N   UNL A   1      31.817  22.774  26.746  1.00  0.00    -0.339 N 
ATOM      8  C   UNL A   1      30.693  23.569  26.750  1.00  0.00     0.251 C 
ATOM      9  H   UNL A   1      32.015  22.304  27.588  1.00  0.00     0.164 HD
ATOM     10  O   UNL A   1      29.696  23.250  27.385  1.00  0.00    -0.269 OA
BRANCH   8  11
ATOM     11  C   UNL A   1      30.779  24.904  26.140  1.00  0.00     0.039 A 
ATOM     12  C   UNL A   1      31.786  25.757  26.595  1.00  0.00     0.014 A 
ATOM     13  C   UNL A   1      29.934  25.291  25.103  1.00  0.00     0.014 A 
ATOM     14  C   UNL A   1      32.016  26.964  25.937  1.00  0.00     0.006 A 
ATOM     15  C   UNL A   1      30.198  26.486  24.419  1.00  0.00     0.006 A 
ATOM     16  C   UNL A   1      31.265  27.318  24.804  1.00  0.00    -0.029 A 
BRANCH  16  17
ATOM     17  C   UNL A   1      31.658  28.510  23.957  1.00  0.00     0.151 C 
BRANCH  17  18
ATOM     18  N   UNL A   1      31.322  29.750  24.608  1.00  0.00    -0.350 N 
ATOM     19  C   UNL A   1      30.339  30.663  24.419  1.00  0.00     0.249 C 
ATOM     20  H   UNL A   1      31.935  29.984  25.343  1.00  0.00     0.163 HD
ATOM     21  O   UNL A   1      30.388  31.661  25.151  1.00  0.00    -0.272 OA
BRANCH  19  22
ATOM     22  C   UNL A   1      29.170  30.515  23.422  1.00  0.00     0.207 C 
ATOM     23  C   UNL A   1      28.043  31.544  23.385  1.00  0.00     0.044 C 
ATOM     24  O   UNL A   1      29.630  30.363  22.069  1.00  0.00    -0.368 OA
ATOM     25  C   UNL A   1      28.005  32.002  21.939  1.00  0.00     0.032 C 
ATOM     26  C   UNL A   1      28.576  30.810  21.214  1.00  0.00     0.161 C 
ENDBRANCH  19  22
ENDBRANCH  17  18
ENDBRANCH  16  17
ENDBRANCH   8  11
ENDBRANCH   4   7
ENDBRANCH   2   4
ENDBRANCH   1   2
BRANCH   1  27
ATOM     27  C   UNL A   1      35.710  20.319  25.014  1.00  0.00     0.274 C 
BRANCH  27  28
ATOM     28  C   UNL A   1      37.140  20.811  24.754  1.00  0.00     0.275 C 
BRANCH  28  29
ATOM     29  O   UNL A   1      37.636  21.648  25.815  1.00  0.00    -0.458 OA
BRANCH  29  30
ATOM     30  C   UNL A   1      38.944  21.469  26.114  1.00  0.00     0.338 C 
ATOM     31  O   UNL A   1      39.626  20.497  25.833  1.00  0.00    -0.246 OA
BRANCH  30  32
ATOM     32  C   UNL A   1      39.527  22.692  26.701  1.00  0.00     0.060 A 
ATOM     33  C   UNL A   1      39.090  23.922  26.191  1.00  0.00     0.016 A 
ATOM     34  C   UNL A   1      40.534  22.646  27.668  1.00  0.00     0.016 A 
ATOM     35  C   UNL A   1      39.675  25.108  26.619  1.00  0.00     0.010 A 
ATOM     36  C   UNL A   1      41.135  23.839  28.085  1.00  0.00     0.010 A 
ATOM     37  C   UNL A   1      40.727  25.071  27.540  1.00  0.00    -0.014 A 
BRANCH  37  38
ATOM     38  C   UNL A   1      41.494  26.308  27.813  1.00  0.00     0.031 A 
ATOM     39  C   UNL A   1      40.841  27.404  28.606  1.00  0.00     0.074 A 
ATOM     40  C   UNL A   1      42.766  26.435  27.398  1.00  0.00     0.049 A 
ATOM     41  N   UNL A   1      41.295  28.592  28.915  1.00  0.00    -0.248 NA
ATOM     42  C   UNL A   1      39.495  27.119  29.125  1.00  0.00     0.031 C 
ATOM     43  C   UNL A   1      43.524  25.414  26.679  1.00  0.00     0.029 A 
ATOM     44  N   UNL A   1      43.642  27.483  27.524  1.00  0.00    -0.354 N 
ATOM     45  C   UNL A   1      40.288  29.198  29.653  1.00  0.00     0.074 A 
ATOM     46  C   UNL A   1      39.192  28.257  29.732  1.00  0.00     0.031 C 
ATOM     47  C   UNL A   1      44.752  25.892  26.413  1.00  0.00     0.029 A 
ATOM     48  C   UNL A   1      44.850  27.262  26.912  1.00  0.00     0.049 A 
ATOM     49  H   UNL A   1      43.425  28.314  28.006  1.00  0.00     0.167 HD
ATOM     50  C   UNL A   1      40.281  30.430  30.215  1.00  0.00     0.037 A 
ATOM     51  C   UNL A   1      45.903  28.087  26.751  1.00  0.00     0.037 A 
ATOM     52  C   UNL A   1      41.374  31.362  30.134  1.00  0.00     0.049 A 
ATOM     53  C   UNL A   1      45.843  29.480  27.322  1.00  0.00     0.074 A 
ATOM     54  C   UNL A   1      41.464  32.637  30.667  1.00  0.00     0.029 A 
ATOM     55  N   UNL A   1      42.568  31.119  29.474  1.00  0.00    -0.354 N 
ATOM     56  N   UNL A   1      44.885  30.052  28.010  1.00  0.00    -0.248 NA
ATOM     57  C   UNL A   1      47.010  30.343  27.089  1.00  0.00     0.031 C 
ATOM     58  C   UNL A   1      42.699  33.179  30.294  1.00  0.00     0.029 A 
ATOM     59  C   UNL A   1      43.395  32.226  29.567  1.00  0.00     0.049 A 
ATOM     60  H   UNL A   1      42.795  30.281  29.007  1.00  0.00     0.167 HD
ATOM     61  C   UNL A   1      45.339  31.329  28.311  1.00  0.00     0.074 A 
ATOM     62  C   UNL A   1      46.665  31.445  27.741  1.00  0.00     0.031 C 
ATOM     63  C   UNL A   1      44.714  32.318  28.996  1.00  0.00     0.037 A 
BRANCH  50  64
ATOM     64  C   UNL A   1      39.035  30.849  30.936  1.00  0.00     0.064 A 
ATOM     65  C   UNL A   1      38.886  30.669  32.319  1.00  0.00     0.173 A 
ATOM     66  C   UNL A   1      37.981  31.455  30.235  1.00  0.00     0.173 A 
ATOM     67  F   UNL A   1      39.858  30.076  33.030  1.00  0.00    -0.203 F 
ATOM     68  C   UNL A   1      37.718  31.056  32.969  1.00  0.00     0.198 A 
ATOM     69  C   UNL A   1      36.825  31.864  30.892  1.00  0.00     0.198 A 
ATOM     70  F   UNL A   1      38.074  31.651  28.911  1.00  0.00    -0.203 F 
ATOM     71  F   UNL A   1      37.578  30.829  34.283  1.00  0.00    -0.200 F 
ATOM     72  C   UNL A   1      36.691  31.658  32.257  1.00  0.00     0.200 A 
ATOM     73  F   UNL A   1      35.837  32.452  30.204  1.00  0.00    -0.200 F 
ATOM     74  F   UNL A   1      35.567  32.031  32.885  1.00  0.00    -0.200 F 
ENDBRANCH  50  64
BRANCH  51  75
ATOM     75  C   UNL A   1      47.095  27.625  25.994  1.00  0.00     0.064 A 
ATOM     76  C   UNL A   1      48.212  27.095  26.654  1.00  0.00     0.173 A 
ATOM     77  C   UNL A   1      47.144  27.716  24.596  1.00  0.00     0.173 A 
ATOM     78  F   UNL A   1      48.224  27.015  27.992  1.00  0.00    -0.203 F 
ATOM     79  C   UNL A   1      49.337  26.683  25.942  1.00  0.00     0.198 A 
ATOM     80  C   UNL A   1      48.260  27.279  23.884  1.00  0.00     0.198 A 
ATOM     81  F   UNL A   1      46.102  28.221  23.918  1.00  0.00    -0.203 F 
ATOM     82  F   UNL A   1      50.409  26.217  26.600  1.00  0.00    -0.200 F 
ATOM     83  C   UNL A   1      49.358  26.769  24.558  1.00  0.00     0.200 A 
ATOM     84  F   UNL A   1      48.270  27.356  22.546  1.00  0.00    -0.200 F 
ATOM     85  F   UNL A   1      50.439  26.369  23.875  1.00  0.00    -0.200 F 
ENDBRANCH  51  75
BRANCH  63  86
ATOM     86  C   UNL A   1      45.468  33.601  29.192  1.00  0.00     0.064 A 
ATOM     87  C   UNL A   1      46.343  33.779  30.274  1.00  0.00     0.173 A 
ATOM     88  C   UNL A   1      45.349  34.644  28.262  1.00  0.00     0.173 A 
ATOM     89  F   UNL A   1      46.479  32.815  31.197  1.00  0.00    -0.203 F 
ATOM     90  C   UNL A   1      47.055  34.965  30.428  1.00  0.00     0.198 A 
ATOM     91  C   UNL A   1      46.082  35.818  28.404  1.00  0.00     0.198 A 
ATOM     92  F   UNL A   1      44.530  34.518  27.207  1.00  0.00    -0.203 F 
ATOM     93  F   UNL A   1      47.855  35.131  31.490  1.00  0.00    -0.200 F 
ATOM     94  C   UNL A   1      46.930  35.980  29.490  1.00  0.00     0.200 A 
ATOM     95  F   UNL A   1      45.969  36.793  27.492  1.00  0.00    -0.200 F 
ATOM     96  F   UNL A   1      47.622  37.118  29.637  1.00  0.00    -0.200 F 
ENDBRANCH  63  86
ENDBRANCH  37  38
ENDBRANCH  30  32
ENDBRANCH  29  30
ENDBRANCH  28  29
ENDBRANCH  27  28
ENDBRANCH   1  27
TORSDOF 17
ENDMDL
