MODEL 1
REMARK VINA RESULT:     -10.6      0.000      0.000
REMARK SMILES CCOc1ccc(-c2nn(-c3ccccc3)cc2/C=C2/SC(=S)N(CC(=O)OCCOC(=O)c3ccc(-c4c5nc(c(-c6c(F)c(F)c(F)c(F)c6F)c6ccc([nH]6)c(-c6c(F)c(F)c(F)c(F)c6F)c6nc(c(-c7c(F)c(F)c(F)c(F)c7F)c7ccc4[nH]7)C=C6)C=C5)cc3)C2=O)cc1F
REMARK SMILES IDX 28 1 26 2 27 3 25 4 24 5 19 6 20 7 21 8 97 9 22 10 98 11
REMARK SMILES IDX 23 12 18 13 8 14 9 15 10 16 17 17 7 18 4 19 5 20 100 21 6 22
REMARK SMILES IDX 99 23 101 24 3 25 2 26 1 27 11 28 12 29 16 30 13 31 15 32
REMARK SMILES IDX 14 33 29 34 30 35 31 36 32 37 33 38 34 39 35 40 96 41 36 42
REMARK SMILES IDX 95 43 37 44 38 45 39 46 89 47 40 48 94 49 88 50 90 51 41 52
REMARK SMILES IDX 93 53 87 54 86 55 42 57 74 58 54 59 73 60 55 61 58 62 72 63
REMARK SMILES IDX 91 64 56 65 57 66 71 68 92 69 59 70 43 71 44 72 52 73 45 74
REMARK SMILES IDX 46 75 50 76 53 77 47 78 48 79 51 80 49 81 75 82 76 83 84 84
REMARK SMILES IDX 77 85 78 86 82 87 85 88 79 89 80 90 83 91 81 92 60 93 61 94
REMARK SMILES IDX 69 95 62 96 63 97 67 98 70 99 64 100 65 101 68 102 66 103
REMARK H PARENT 90 56 58 67
REMARK Flexibility Score: inf
ROOT
ATOM      1  O   UNL A   1      48.288  31.370  26.760  1.00  0.00    -0.461 OA
ENDROOT
BRANCH   1   2
ATOM      2  C   UNL A   1      48.921  30.356  27.414  1.00  0.00     0.326 C 
ATOM      3  O   UNL A   1      49.978  29.853  27.042  1.00  0.00    -0.250 OA
BRANCH   2   4
ATOM      4  C   UNL A   1      48.195  29.867  28.669  1.00  0.00     0.250 C 
BRANCH   4   5
ATOM      5  N   UNL A   1      48.131  28.418  28.889  1.00  0.00    -0.282 N 
ATOM      6  C   UNL A   1      47.720  25.174  27.386  1.00  0.00     0.033 C 
ATOM      7  C   UNL A   1      47.679  26.198  28.254  1.00  0.00     0.081 C 
ATOM      8  S   UNL A   1      48.177  26.043  29.902  1.00  0.00    -0.054 SA
ATOM      9  C   UNL A   1      47.410  27.638  28.001  1.00  0.00     0.266 C 
ATOM     10  C   UNL A   1      48.590  27.761  30.006  1.00  0.00     0.148 C 
ATOM     11  O   UNL A   1      46.519  28.036  27.273  1.00  0.00    -0.268 OA
ATOM     12  S   UNL A   1      49.391  28.405  31.319  1.00  0.00    -0.052 S 
BRANCH   6  13
ATOM     13  C   UNL A   1      47.784  25.248  25.963  1.00  0.00     0.022 A 
ATOM     14  C   UNL A   1      47.097  24.552  24.923  1.00  0.00     0.100 A 
ATOM     15  N   UNL A   1      47.588  24.935  23.721  1.00  0.00    -0.167 NA
ATOM     16  N   UNL A   1      48.606  25.803  23.992  1.00  0.00    -0.240 N 
ATOM     17  C   UNL A   1      48.765  25.988  25.335  1.00  0.00     0.123 A 
BRANCH  14  18
ATOM     18  C   UNL A   1      46.057  23.506  25.050  1.00  0.00     0.006 A 
ATOM     19  C   UNL A   1      44.014  21.539  25.004  1.00  0.00     0.154 A 
ATOM     20  C   UNL A   1      45.352  21.156  24.947  1.00  0.00     0.050 A 
ATOM     21  C   UNL A   1      43.707  22.886  25.182  1.00  0.00     0.165 A 
ATOM     22  C   UNL A   1      46.363  22.134  24.970  1.00  0.00     0.014 A 
ATOM     23  C   UNL A   1      44.710  23.863  25.196  1.00  0.00     0.053 A 
ATOM     24  F   UNL A   1      42.433  23.270  25.349  1.00  0.00    -0.203 F 
BRANCH  19  25
ATOM     25  O   UNL A   1      43.046  20.571  25.020  1.00  0.00    -0.491 OA
BRANCH  25  26
ATOM     26  C   UNL A   1      43.539  19.276  25.399  1.00  0.00     0.226 C 
ATOM     27  C   UNL A   1      42.583  18.547  26.332  1.00  0.00     0.049 C 
ENDBRANCH  25  26
ENDBRANCH  19  25
ENDBRANCH  14  18
BRANCH  16  28
ATOM     28  C   UNL A   1      49.222  26.602  22.988  1.00  0.00     0.065 A 
ATOM     29  C   UNL A   1      50.361  27.317  23.335  1.00  0.00     0.028 A 
ATOM     30  C   UNL A   1      48.689  26.793  21.719  1.00  0.00     0.028 A 
ATOM     31  C   UNL A   1      50.922  28.302  22.520  1.00  0.00     0.002 A 
ATOM     32  C   UNL A   1      49.261  27.769  20.875  1.00  0.00     0.002 A 
ATOM     33  C   UNL A   1      50.351  28.545  21.287  1.00  0.00     0.000 A 
ENDBRANCH  16  28
ENDBRANCH   6  13
ENDBRANCH   4   5
ENDBRANCH   2   4
ENDBRANCH   1   2
BRANCH   1  34
ATOM     34  C   UNL A   1      48.921  32.665  26.862  1.00  0.00     0.274 C 
BRANCH  34  35
ATOM     35  C   UNL A   1      48.071  33.661  27.658  1.00  0.00     0.275 C 
BRANCH  35  36
ATOM     36  O   UNL A   1      47.133  34.395  26.841  1.00  0.00    -0.458 OA
BRANCH  36  37
ATOM     37  C   UNL A   1      46.731  35.567  27.383  1.00  0.00     0.338 C 
ATOM     38  O   UNL A   1      47.489  36.524  27.571  1.00  0.00    -0.246 OA
BRANCH  37  39
ATOM     39  C   UNL A   1      45.388  35.517  28.008  1.00  0.00     0.060 A 
ATOM     40  C   UNL A   1      45.351  35.443  29.412  1.00  0.00     0.016 A 
ATOM     41  C   UNL A   1      44.327  35.002  27.268  1.00  0.00     0.016 A 
ATOM     42  C   UNL A   1      44.461  34.578  30.046  1.00  0.00     0.010 A 
ATOM     43  C   UNL A   1      43.449  34.130  27.907  1.00  0.00     0.010 A 
ATOM     44  C   UNL A   1      43.608  33.797  29.270  1.00  0.00    -0.014 A 
BRANCH  44  45
ATOM     45  C   UNL A   1      42.707  32.812  29.898  1.00  0.00     0.031 A 
ATOM     46  C   UNL A   1      43.232  31.484  29.568  1.00  0.00     0.074 A 
ATOM     47  C   UNL A   1      41.626  32.942  30.710  1.00  0.00     0.049 A 
ATOM     48  N   UNL A   1      42.864  30.782  28.549  1.00  0.00    -0.248 NA
ATOM     49  C   UNL A   1      44.485  31.044  30.195  1.00  0.00     0.031 C 
ATOM     50  C   UNL A   1      40.987  34.145  31.212  1.00  0.00     0.029 A 
ATOM     51  N   UNL A   1      40.890  31.965  31.353  1.00  0.00    -0.354 N 
ATOM     52  C   UNL A   1      43.689  29.678  28.601  1.00  0.00     0.074 A 
ATOM     53  C   UNL A   1      44.849  30.077  29.350  1.00  0.00     0.031 C 
ATOM     54  C   UNL A   1      40.216  33.886  32.292  1.00  0.00     0.029 A 
ATOM     55  C   UNL A   1      40.110  32.451  32.422  1.00  0.00     0.049 A 
ATOM     56  H   UNL A   1      40.908  31.016  31.090  1.00  0.00     0.167 HD
ATOM     57  C   UNL A   1      43.146  28.439  28.486  1.00  0.00     0.037 A 
ATOM     58  C   UNL A   1      39.344  31.739  33.291  1.00  0.00     0.037 A 
ATOM     59  C   UNL A   1      41.798  28.513  27.976  1.00  0.00     0.049 A 
ATOM     60  C   UNL A   1      38.995  30.486  32.596  1.00  0.00     0.074 A 
ATOM     61  C   UNL A   1      41.201  28.910  26.798  1.00  0.00     0.029 A 
ATOM     62  N   UNL A   1      40.841  28.581  28.955  1.00  0.00    -0.354 N 
ATOM     63  N   UNL A   1      38.167  30.434  31.590  1.00  0.00    -0.248 NA
ATOM     64  C   UNL A   1      39.847  29.322  32.780  1.00  0.00     0.031 C 
ATOM     65  C   UNL A   1      39.890  29.353  27.137  1.00  0.00     0.029 A 
ATOM     66  C   UNL A   1      39.688  29.163  28.502  1.00  0.00     0.049 A 
ATOM     67  H   UNL A   1      40.967  28.251  29.874  1.00  0.00     0.167 HD
ATOM     68  C   UNL A   1      38.719  29.477  30.766  1.00  0.00     0.074 A 
ATOM     69  C   UNL A   1      39.623  28.709  31.616  1.00  0.00     0.031 C 
ATOM     70  C   UNL A   1      38.668  29.634  29.413  1.00  0.00     0.037 A 
BRANCH  57  71
ATOM     71  C   UNL A   1      43.627  27.262  29.299  1.00  0.00     0.064 A 
ATOM     72  C   UNL A   1      43.534  27.158  30.708  1.00  0.00     0.173 A 
ATOM     73  C   UNL A   1      43.982  26.080  28.633  1.00  0.00     0.173 A 
ATOM     74  F   UNL A   1      43.005  28.120  31.472  1.00  0.00    -0.203 F 
ATOM     75  C   UNL A   1      43.863  26.002  31.403  1.00  0.00     0.198 A 
ATOM     76  C   UNL A   1      44.237  24.895  29.328  1.00  0.00     0.198 A 
ATOM     77  F   UNL A   1      44.016  26.041  27.293  1.00  0.00    -0.203 F 
ATOM     78  F   UNL A   1      43.773  25.990  32.740  1.00  0.00    -0.200 F 
ATOM     79  C   UNL A   1      44.197  24.862  30.711  1.00  0.00     0.200 A 
ATOM     80  F   UNL A   1      44.476  23.766  28.650  1.00  0.00    -0.200 F 
ATOM     81  F   UNL A   1      44.423  23.722  31.378  1.00  0.00    -0.200 F 
ENDBRANCH  57  71
BRANCH  58  82
ATOM     82  C   UNL A   1      39.048  31.924  34.740  1.00  0.00     0.064 A 
ATOM     83  C   UNL A   1      37.820  32.450  35.177  1.00  0.00     0.173 A 
ATOM     84  C   UNL A   1      40.091  31.922  35.690  1.00  0.00     0.173 A 
ATOM     85  F   UNL A   1      36.767  32.513  34.350  1.00  0.00    -0.203 F 
ATOM     86  C   UNL A   1      37.672  33.021  36.448  1.00  0.00     0.198 A 
ATOM     87  C   UNL A   1      39.945  32.498  36.956  1.00  0.00     0.198 A 
ATOM     88  F   UNL A   1      41.302  31.443  35.368  1.00  0.00    -0.203 F 
ATOM     89  F   UNL A   1      36.509  33.592  36.789  1.00  0.00    -0.200 F 
ATOM     90  C   UNL A   1      38.742  33.072  37.325  1.00  0.00     0.200 A 
ATOM     91  F   UNL A   1      40.995  32.565  37.789  1.00  0.00    -0.200 F 
ATOM     92  F   UNL A   1      38.625  33.707  38.500  1.00  0.00    -0.200 F 
ENDBRANCH  58  82
BRANCH  70  93
ATOM     93  C   UNL A   1      37.556  30.465  28.844  1.00  0.00     0.064 A 
ATOM     94  C   UNL A   1      37.704  31.859  28.916  1.00  0.00     0.173 A 
ATOM     95  C   UNL A   1      36.344  29.968  28.337  1.00  0.00     0.173 A 
ATOM     96  F   UNL A   1      38.836  32.387  29.408  1.00  0.00    -0.203 F 
ATOM     97  C   UNL A   1      36.686  32.719  28.525  1.00  0.00     0.198 A 
ATOM     98  C   UNL A   1      35.338  30.836  27.907  1.00  0.00     0.198 A 
ATOM     99  F   UNL A   1      36.104  28.651  28.283  1.00  0.00    -0.203 F 
ATOM    100  F   UNL A   1      36.847  34.043  28.660  1.00  0.00    -0.200 F 
ATOM    101  C   UNL A   1      35.505  32.209  28.014  1.00  0.00     0.200 A 
ATOM    102  F   UNL A   1      34.193  30.345  27.407  1.00  0.00    -0.200 F 
ATOM    103  F   UNL A   1      34.526  33.042  27.633  1.00  0.00    -0.200 F 
ENDBRANCH  70  93
ENDBRANCH  44  45
ENDBRANCH  37  39
ENDBRANCH  36  37
ENDBRANCH  35  36
ENDBRANCH  34  35
ENDBRANCH   1  34
TORSDOF 17
ENDMDL
MODEL 2
REMARK VINA RESULT:     -10.4      4.415     10.654
REMARK SMILES CCOc1ccc(-c2nn(-c3ccccc3)cc2/C=C2/SC(=S)N(CC(=O)OCCOC(=O)c3ccc(-c4c5nc(c(-c6c(F)c(F)c(F)c(F)c6F)c6ccc([nH]6)c(-c6c(F)c(F)c(F)c(F)c6F)c6nc(c(-c7c(F)c(F)c(F)c(F)c7F)c7ccc4[nH]7)C=C6)C=C5)cc3)C2=O)cc1F
REMARK SMILES IDX 28 1 26 2 27 3 25 4 24 5 19 6 20 7 21 8 97 9 22 10 98 11
REMARK SMILES IDX 23 12 18 13 8 14 9 15 10 16 17 17 7 18 4 19 5 20 100 21 6 22
REMARK SMILES IDX 99 23 101 24 3 25 2 26 1 27 11 28 12 29 16 30 13 31 15 32
REMARK SMILES IDX 14 33 29 34 30 35 31 36 32 37 33 38 34 39 35 40 96 41 36 42
REMARK SMILES IDX 95 43 37 44 38 45 39 46 89 47 40 48 94 49 88 50 90 51 41 52
REMARK SMILES IDX 93 53 87 54 86 55 42 57 74 58 54 59 73 60 55 61 58 62 72 63
REMARK SMILES IDX 91 64 56 65 57 66 71 68 92 69 59 70 43 71 44 72 52 73 45 74
REMARK SMILES IDX 46 75 50 76 53 77 47 78 48 79 51 80 49 81 75 82 76 83 84 84
REMARK SMILES IDX 77 85 78 86 82 87 85 88 79 89 80 90 83 91 81 92 60 93 61 94
REMARK SMILES IDX 69 95 62 96 63 97 67 98 70 99 64 100 65 101 68 102 66 103
REMARK H PARENT 90 56 58 67
REMARK Flexibility Score: inf
ROOT
ATOM      1  O   UNL A   1      38.208  32.945  32.317  1.00  0.00    -0.461 OA
ENDROOT
BRANCH   1   2
ATOM      2  C   UNL A   1      37.798  31.998  33.205  1.00  0.00     0.326 C 
ATOM      3  O   UNL A   1      37.376  32.248  34.331  1.00  0.00    -0.250 OA
BRANCH   2   4
ATOM      4  C   UNL A   1      37.920  30.561  32.693  1.00  0.00     0.250 C 
BRANCH   4   5
ATOM      5  N   UNL A   1      38.053  30.370  31.244  1.00  0.00    -0.282 N 
ATOM      6  C   UNL A   1      36.515  30.772  28.016  1.00  0.00     0.033 C 
ATOM      7  C   UNL A   1      37.244  30.292  29.036  1.00  0.00     0.081 C 
ATOM      8  S   UNL A   1      38.904  29.841  28.864  1.00  0.00    -0.054 SA
ATOM      9  C   UNL A   1      36.907  30.218  30.482  1.00  0.00     0.266 C 
ATOM     10  C   UNL A   1      39.234  30.159  30.574  1.00  0.00     0.148 C 
ATOM     11  O   UNL A   1      35.823  29.853  30.900  1.00  0.00    -0.268 OA
ATOM     12  S   UNL A   1      40.780  30.152  31.196  1.00  0.00    -0.052 S 
BRANCH   6  13
ATOM     13  C   UNL A   1      35.343  31.582  28.095  1.00  0.00     0.022 A 
ATOM     14  C   UNL A   1      33.988  31.370  27.697  1.00  0.00     0.100 A 
ATOM     15  N   UNL A   1      33.270  32.496  27.917  1.00  0.00    -0.167 NA
ATOM     16  N   UNL A   1      34.159  33.421  28.381  1.00  0.00    -0.240 N 
ATOM     17  C   UNL A   1      35.421  32.907  28.471  1.00  0.00     0.123 A 
BRANCH  14  18
ATOM     18  C   UNL A   1      33.395  30.171  27.064  1.00  0.00     0.006 A 
ATOM     19  C   UNL A   1      32.439  27.921  25.623  1.00  0.00     0.154 A 
ATOM     20  C   UNL A   1      33.387  27.754  26.628  1.00  0.00     0.050 A 
ATOM     21  C   UNL A   1      31.904  29.190  25.408  1.00  0.00     0.165 A 
ATOM     22  C   UNL A   1      33.859  28.871  27.342  1.00  0.00     0.014 A 
ATOM     23  C   UNL A   1      32.377  30.306  26.110  1.00  0.00     0.053 A 
ATOM     24  F   UNL A   1      30.912  29.361  24.522  1.00  0.00    -0.203 F 
BRANCH  19  25
ATOM     25  O   UNL A   1      31.964  26.818  24.967  1.00  0.00    -0.491 OA
BRANCH  25  26
ATOM     26  C   UNL A   1      30.672  26.392  25.428  1.00  0.00     0.226 C 
ATOM     27  C   UNL A   1      29.752  26.000  24.282  1.00  0.00     0.049 C 
ENDBRANCH  25  26
ENDBRANCH  19  25
ENDBRANCH  14  18
BRANCH  16  28
ATOM     28  C   UNL A   1      33.751  34.663  28.945  1.00  0.00     0.065 A 
ATOM     29  C   UNL A   1      33.891  35.806  28.169  1.00  0.00     0.028 A 
ATOM     30  C   UNL A   1      33.326  34.811  30.259  1.00  0.00     0.028 A 
ATOM     31  C   UNL A   1      33.743  37.097  28.677  1.00  0.00     0.002 A 
ATOM     32  C   UNL A   1      33.150  36.111  30.781  1.00  0.00     0.002 A 
ATOM     33  C   UNL A   1      33.392  37.250  30.004  1.00  0.00     0.000 A 
ENDBRANCH  16  28
ENDBRANCH   6  13
ENDBRANCH   4   5
ENDBRANCH   2   4
ENDBRANCH   1   2
BRANCH   1  34
ATOM     34  C   UNL A   1      39.513  33.512  32.571  1.00  0.00     0.274 C 
BRANCH  34  35
ATOM     35  C   UNL A   1      40.273  33.817  31.275  1.00  0.00     0.275 C 
BRANCH  35  36
ATOM     36  O   UNL A   1      41.657  34.168  31.492  1.00  0.00    -0.458 OA
BRANCH  36  37
ATOM     37  C   UNL A   1      42.323  34.497  30.362  1.00  0.00     0.338 C 
ATOM     38  O   UNL A   1      41.887  35.290  29.523  1.00  0.00    -0.246 OA
BRANCH  37  39
ATOM     39  C   UNL A   1      43.476  33.614  30.060  1.00  0.00     0.060 A 
ATOM     40  C   UNL A   1      43.492  33.017  28.787  1.00  0.00     0.016 A 
ATOM     41  C   UNL A   1      44.135  32.992  31.117  1.00  0.00     0.016 A 
ATOM     42  C   UNL A   1      43.848  31.677  28.646  1.00  0.00     0.010 A 
ATOM     43  C   UNL A   1      44.478  31.650  30.971  1.00  0.00     0.010 A 
ATOM     44  C   UNL A   1      44.194  30.946  29.780  1.00  0.00    -0.014 A 
BRANCH  44  45
ATOM     45  C   UNL A   1      44.500  29.506  29.685  1.00  0.00     0.031 A 
ATOM     46  C   UNL A   1      45.444  29.344  28.576  1.00  0.00     0.074 A 
ATOM     47  C   UNL A   1      44.135  28.437  30.439  1.00  0.00     0.049 A 
ATOM     48  N   UNL A   1      45.106  29.087  27.356  1.00  0.00    -0.248 NA
ATOM     49  C   UNL A   1      46.819  29.835  28.739  1.00  0.00     0.031 C 
ATOM     50  C   UNL A   1      43.277  28.379  31.608  1.00  0.00     0.029 A 
ATOM     51  N   UNL A   1      44.551  27.121  30.354  1.00  0.00    -0.354 N 
ATOM     52  C   UNL A   1      46.304  29.125  26.673  1.00  0.00     0.074 A 
ATOM     53  C   UNL A   1      47.192  29.934  27.462  1.00  0.00     0.031 C 
ATOM     54  C   UNL A   1      43.471  27.244  32.315  1.00  0.00     0.029 A 
ATOM     55  C   UNL A   1      44.301  26.369  31.520  1.00  0.00     0.049 A 
ATOM     56  H   UNL A   1      44.982  26.743  29.553  1.00  0.00     0.167 HD
ATOM     57  C   UNL A   1      46.617  28.111  25.826  1.00  0.00     0.037 A 
ATOM     58  C   UNL A   1      44.657  25.082  31.778  1.00  0.00     0.037 A 
ATOM     59  C   UNL A   1      45.452  27.311  25.527  1.00  0.00     0.049 A 
ATOM     60  C   UNL A   1      44.812  24.430  30.465  1.00  0.00     0.074 A 
ATOM     61  C   UNL A   1      44.249  27.511  24.882  1.00  0.00     0.029 A 
ATOM     62  N   UNL A   1      45.286  26.241  26.368  1.00  0.00    -0.354 N 
ATOM     63  N   UNL A   1      43.808  24.153  29.681  1.00  0.00    -0.248 NA
ATOM     64  C   UNL A   1      46.128  24.407  29.845  1.00  0.00     0.031 C 
ATOM     65  C   UNL A   1      43.319  26.608  25.474  1.00  0.00     0.029 A 
ATOM     66  C   UNL A   1      43.982  25.835  26.424  1.00  0.00     0.049 A 
ATOM     67  H   UNL A   1      46.019  25.817  26.870  1.00  0.00     0.167 HD
ATOM     68  C   UNL A   1      44.307  24.393  28.419  1.00  0.00     0.074 A 
ATOM     69  C   UNL A   1      45.758  24.362  28.563  1.00  0.00     0.031 C 
ATOM     70  C   UNL A   1      43.507  24.951  27.467  1.00  0.00     0.037 A 
BRANCH  57  71
ATOM     71  C   UNL A   1      48.016  27.557  25.703  1.00  0.00     0.064 A 
ATOM     72  C   UNL A   1      48.730  26.919  26.746  1.00  0.00     0.173 A 
ATOM     73  C   UNL A   1      48.586  27.443  24.426  1.00  0.00     0.173 A 
ATOM     74  F   UNL A   1      48.224  26.748  27.971  1.00  0.00    -0.203 F 
ATOM     75  C   UNL A   1      49.959  26.304  26.550  1.00  0.00     0.198 A 
ATOM     76  C   UNL A   1      49.786  26.756  24.219  1.00  0.00     0.198 A 
ATOM     77  F   UNL A   1      47.952  27.935  23.353  1.00  0.00    -0.203 F 
ATOM     78  F   UNL A   1      50.586  25.743  27.594  1.00  0.00    -0.200 F 
ATOM     79  C   UNL A   1      50.480  26.205  25.282  1.00  0.00     0.200 A 
ATOM     80  F   UNL A   1      50.245  26.585  22.974  1.00  0.00    -0.200 F 
ATOM     81  F   UNL A   1      51.619  25.530  25.082  1.00  0.00    -0.200 F 
ENDBRANCH  57  71
BRANCH  58  82
ATOM     82  C   UNL A   1      45.082  24.399  33.033  1.00  0.00     0.064 A 
ATOM     83  C   UNL A   1      46.311  24.693  33.648  1.00  0.00     0.173 A 
ATOM     84  C   UNL A   1      44.456  23.203  33.444  1.00  0.00     0.173 A 
ATOM     85  F   UNL A   1      46.997  25.796  33.320  1.00  0.00    -0.203 F 
ATOM     86  C   UNL A   1      46.918  23.804  34.545  1.00  0.00     0.198 A 
ATOM     87  C   UNL A   1      45.067  22.313  34.334  1.00  0.00     0.198 A 
ATOM     88  F   UNL A   1      43.281  22.834  32.913  1.00  0.00    -0.203 F 
ATOM     89  F   UNL A   1      48.133  24.083  35.039  1.00  0.00    -0.200 F 
ATOM     90  C   UNL A   1      46.310  22.602  34.864  1.00  0.00     0.200 A 
ATOM     91  F   UNL A   1      44.480  21.139  34.618  1.00  0.00    -0.200 F 
ATOM     92  F   UNL A   1      46.940  21.711  35.644  1.00  0.00    -0.200 F 
ENDBRANCH  58  82
BRANCH  70  93
ATOM     93  C   UNL A   1      42.025  24.748  27.587  1.00  0.00     0.064 A 
ATOM     94  C   UNL A   1      41.468  23.690  26.853  1.00  0.00     0.173 A 
ATOM     95  C   UNL A   1      41.143  25.583  28.293  1.00  0.00     0.173 A 
ATOM     96  F   UNL A   1      42.265  22.872  26.147  1.00  0.00    -0.203 F 
ATOM     97  C   UNL A   1      40.095  23.485  26.801  1.00  0.00     0.198 A 
ATOM     98  C   UNL A   1      39.766  25.350  28.271  1.00  0.00     0.198 A 
ATOM     99  F   UNL A   1      41.591  26.644  28.976  1.00  0.00    -0.203 F 
ATOM    100  F   UNL A   1      39.599  22.496  26.045  1.00  0.00    -0.200 F 
ATOM    101  C   UNL A   1      39.243  24.310  27.515  1.00  0.00     0.200 A 
ATOM    102  F   UNL A   1      38.937  26.145  28.966  1.00  0.00    -0.200 F 
ATOM    103  F   UNL A   1      37.919  24.107  27.468  1.00  0.00    -0.200 F 
ENDBRANCH  70  93
ENDBRANCH  44  45
ENDBRANCH  37  39
ENDBRANCH  36  37
ENDBRANCH  35  36
ENDBRANCH  34  35
ENDBRANCH   1  34
TORSDOF 17
ENDMDL
MODEL 3
REMARK VINA RESULT:     -10.2      3.154      7.616
REMARK SMILES CCOc1ccc(-c2nn(-c3ccccc3)cc2/C=C2/SC(=S)N(CC(=O)OCCOC(=O)c3ccc(-c4c5nc(c(-c6c(F)c(F)c(F)c(F)c6F)c6ccc([nH]6)c(-c6c(F)c(F)c(F)c(F)c6F)c6nc(c(-c7c(F)c(F)c(F)c(F)c7F)c7ccc4[nH]7)C=C6)C=C5)cc3)C2=O)cc1F
REMARK SMILES IDX 28 1 26 2 27 3 25 4 24 5 19 6 20 7 21 8 97 9 22 10 98 11
REMARK SMILES IDX 23 12 18 13 8 14 9 15 10 16 17 17 7 18 4 19 5 20 100 21 6 22
REMARK SMILES IDX 99 23 101 24 3 25 2 26 1 27 11 28 12 29 16 30 13 31 15 32
REMARK SMILES IDX 14 33 29 34 30 35 31 36 32 37 33 38 34 39 35 40 96 41 36 42
REMARK SMILES IDX 95 43 37 44 38 45 39 46 89 47 40 48 94 49 88 50 90 51 41 52
REMARK SMILES IDX 93 53 87 54 86 55 42 57 74 58 54 59 73 60 55 61 58 62 72 63
REMARK SMILES IDX 91 64 56 65 57 66 71 68 92 69 59 70 43 71 44 72 52 73 45 74
REMARK SMILES IDX 46 75 50 76 53 77 47 78 48 79 51 80 49 81 75 82 76 83 84 84
REMARK SMILES IDX 77 85 78 86 82 87 85 88 79 89 80 90 83 91 81 92 60 93 61 94
REMARK SMILES IDX 69 95 62 96 63 97 67 98 70 99 64 100 65 101 68 102 66 103
REMARK H PARENT 90 56 58 67
REMARK Flexibility Score: inf
ROOT
ATOM      1  O   UNL A   1      49.034  25.533  30.517  1.00  0.00    -0.461 OA
ENDROOT
BRANCH   1   2
ATOM      2  C   UNL A   1      48.774  25.801  29.207  1.00  0.00     0.326 C 
ATOM      3  O   UNL A   1      49.323  25.232  28.267  1.00  0.00    -0.250 OA
BRANCH   2   4
ATOM      4  C   UNL A   1      47.731  26.899  28.985  1.00  0.00     0.250 C 
BRANCH   4   5
ATOM      5  N   UNL A   1      47.242  27.097  27.616  1.00  0.00    -0.282 N 
ATOM      6  C   UNL A   1      44.433  26.871  25.377  1.00  0.00     0.033 C 
ATOM      7  C   UNL A   1      45.682  26.859  25.870  1.00  0.00     0.081 C 
ATOM      8  S   UNL A   1      46.989  27.704  25.119  1.00  0.00    -0.054 SA
ATOM      9  C   UNL A   1      46.177  26.333  27.170  1.00  0.00     0.266 C 
ATOM     10  C   UNL A   1      47.851  27.869  26.656  1.00  0.00     0.148 C 
ATOM     11  O   UNL A   1      45.831  25.262  27.635  1.00  0.00    -0.268 OA
ATOM     12  S   UNL A   1      49.212  28.819  26.813  1.00  0.00    -0.052 S 
BRANCH   6  13
ATOM     13  C   UNL A   1      43.219  26.629  26.087  1.00  0.00     0.022 A 
ATOM     14  C   UNL A   1      42.517  25.435  26.429  1.00  0.00     0.100 A 
ATOM     15  N   UNL A   1      41.353  25.754  27.043  1.00  0.00    -0.167 NA
ATOM     16  N   UNL A   1      41.287  27.117  27.034  1.00  0.00    -0.240 N 
ATOM     17  C   UNL A   1      42.384  27.670  26.438  1.00  0.00     0.123 A 
BRANCH  14  18
ATOM     18  C   UNL A   1      42.888  24.033  26.128  1.00  0.00     0.006 A 
ATOM     19  C   UNL A   1      43.333  21.320  25.430  1.00  0.00     0.154 A 
ATOM     20  C   UNL A   1      43.837  22.338  24.626  1.00  0.00     0.050 A 
ATOM     21  C   UNL A   1      42.697  21.658  26.623  1.00  0.00     0.165 A 
ATOM     22  C   UNL A   1      43.616  23.683  24.975  1.00  0.00     0.014 A 
ATOM     23  C   UNL A   1      42.467  22.994  26.970  1.00  0.00     0.053 A 
ATOM     24  F   UNL A   1      42.299  20.696  27.469  1.00  0.00    -0.203 F 
BRANCH  19  25
ATOM     25  O   UNL A   1      43.593  20.018  25.095  1.00  0.00    -0.491 OA
BRANCH  25  26
ATOM     26  C   UNL A   1      44.915  19.816  24.573  1.00  0.00     0.226 C 
ATOM     27  C   UNL A   1      44.903  19.058  23.254  1.00  0.00     0.049 C 
ENDBRANCH  25  26
ENDBRANCH  19  25
ENDBRANCH  14  18
BRANCH  16  28
ATOM     28  C   UNL A   1      40.325  27.844  27.790  1.00  0.00     0.065 A 
ATOM     29  C   UNL A   1      39.972  27.349  29.038  1.00  0.00     0.028 A 
ATOM     30  C   UNL A   1      39.643  28.953  27.307  1.00  0.00     0.028 A 
ATOM     31  C   UNL A   1      38.889  27.834  29.774  1.00  0.00     0.002 A 
ATOM     32  C   UNL A   1      38.560  29.470  28.051  1.00  0.00     0.002 A 
ATOM     33  C   UNL A   1      38.163  28.891  29.262  1.00  0.00     0.000 A 
ENDBRANCH  16  28
ENDBRANCH   6  13
ENDBRANCH   4   5
ENDBRANCH   2   4
ENDBRANCH   1   2
BRANCH   1  34
ATOM     34  C   UNL A   1      48.509  26.490  31.463  1.00  0.00     0.274 C 
BRANCH  34  35
ATOM     35  C   UNL A   1      47.602  25.831  32.508  1.00  0.00     0.275 C 
BRANCH  35  36
ATOM     36  O   UNL A   1      46.402  25.256  31.944  1.00  0.00    -0.458 OA
BRANCH  36  37
ATOM     37  C   UNL A   1      45.456  24.950  32.860  1.00  0.00     0.338 C 
ATOM     38  O   UNL A   1      45.567  24.022  33.666  1.00  0.00    -0.246 OA
BRANCH  37  39
ATOM     39  C   UNL A   1      44.153  25.620  32.633  1.00  0.00     0.060 A 
ATOM     40  C   UNL A   1      43.812  25.892  31.297  1.00  0.00     0.016 A 
ATOM     41  C   UNL A   1      43.623  26.411  33.649  1.00  0.00     0.016 A 
ATOM     42  C   UNL A   1      43.247  27.118  30.952  1.00  0.00     0.010 A 
ATOM     43  C   UNL A   1      43.070  27.640  33.297  1.00  0.00     0.010 A 
ATOM     44  C   UNL A   1      43.021  28.062  31.951  1.00  0.00    -0.014 A 
BRANCH  44  45
ATOM     45  C   UNL A   1      42.498  29.402  31.618  1.00  0.00     0.031 A 
ATOM     46  C   UNL A   1      43.472  30.027  30.719  1.00  0.00     0.074 A 
ATOM     47  C   UNL A   1      41.340  30.039  31.927  1.00  0.00     0.049 A 
ATOM     48  N   UNL A   1      44.443  30.787  31.103  1.00  0.00    -0.248 NA
ATOM     49  C   UNL A   1      43.602  29.513  29.349  1.00  0.00     0.031 C 
ATOM     50  C   UNL A   1      40.221  29.585  32.734  1.00  0.00     0.029 A 
ATOM     51  N   UNL A   1      40.867  31.262  31.488  1.00  0.00    -0.354 N 
ATOM     52  C   UNL A   1      45.131  31.048  29.937  1.00  0.00     0.074 A 
ATOM     53  C   UNL A   1      44.813  29.976  29.033  1.00  0.00     0.031 C 
ATOM     54  C   UNL A   1      39.103  30.302  32.485  1.00  0.00     0.029 A 
ATOM     55  C   UNL A   1      39.480  31.435  31.671  1.00  0.00     0.049 A 
ATOM     56  H   UNL A   1      41.445  31.949  31.084  1.00  0.00     0.167 HD
ATOM     57  C   UNL A   1      45.470  32.328  29.639  1.00  0.00     0.037 A 
ATOM     58  C   UNL A   1      38.708  32.482  31.278  1.00  0.00     0.037 A 
ATOM     59  C   UNL A   1      45.338  33.179  30.798  1.00  0.00     0.049 A 
ATOM     60  C   UNL A   1      39.616  33.639  31.165  1.00  0.00     0.074 A 
ATOM     61  C   UNL A   1      45.947  33.279  32.031  1.00  0.00     0.029 A 
ATOM     62  N   UNL A   1      44.110  33.780  30.904  1.00  0.00    -0.354 N 
ATOM     63  N   UNL A   1      40.154  34.229  32.195  1.00  0.00    -0.248 NA
ATOM     64  C   UNL A   1      40.227  33.927  29.876  1.00  0.00     0.031 C 
ATOM     65  C   UNL A   1      44.980  33.838  32.916  1.00  0.00     0.029 A 
ATOM     66  C   UNL A   1      43.822  34.123  32.197  1.00  0.00     0.049 A 
ATOM     67  H   UNL A   1      43.509  33.945  30.143  1.00  0.00     0.167 HD
ATOM     68  C   UNL A   1      41.418  34.559  31.756  1.00  0.00     0.074 A 
ATOM     69  C   UNL A   1      41.343  34.523  30.299  1.00  0.00     0.031 C 
ATOM     70  C   UNL A   1      42.478  34.468  32.608  1.00  0.00     0.037 A 
BRANCH  57  71
ATOM     71  C   UNL A   1      45.409  32.879  28.235  1.00  0.00     0.064 A 
ATOM     72  C   UNL A   1      44.219  33.241  27.557  1.00  0.00     0.173 A 
ATOM     73  C   UNL A   1      46.600  33.290  27.618  1.00  0.00     0.173 A 
ATOM     74  F   UNL A   1      43.006  33.119  28.107  1.00  0.00    -0.203 F 
ATOM     75  C   UNL A   1      44.218  33.872  26.320  1.00  0.00     0.198 A 
ATOM     76  C   UNL A   1      46.594  33.994  26.410  1.00  0.00     0.198 A 
ATOM     77  F   UNL A   1      47.781  33.077  28.214  1.00  0.00    -0.203 F 
ATOM     78  F   UNL A   1      43.050  34.159  25.730  1.00  0.00    -0.200 F 
ATOM     79  C   UNL A   1      45.407  34.265  25.753  1.00  0.00     0.200 A 
ATOM     80  F   UNL A   1      47.746  34.453  25.906  1.00  0.00    -0.200 F 
ATOM     81  F   UNL A   1      45.399  34.956  24.606  1.00  0.00    -0.200 F 
ENDBRANCH  57  71
BRANCH  58  82
ATOM     82  C   UNL A   1      37.303  32.555  30.785  1.00  0.00     0.064 A 
ATOM     83  C   UNL A   1      37.011  32.676  29.415  1.00  0.00     0.173 A 
ATOM     84  C   UNL A   1      36.249  32.864  31.671  1.00  0.00     0.173 A 
ATOM     85  F   UNL A   1      37.945  32.421  28.489  1.00  0.00    -0.203 F 
ATOM     86  C   UNL A   1      35.777  33.163  28.965  1.00  0.00     0.198 A 
ATOM     87  C   UNL A   1      35.019  33.357  31.219  1.00  0.00     0.198 A 
ATOM     88  F   UNL A   1      36.430  32.781  32.997  1.00  0.00    -0.203 F 
ATOM     89  F   UNL A   1      35.574  33.348  27.653  1.00  0.00    -0.200 F 
ATOM     90  C   UNL A   1      34.794  33.531  29.867  1.00  0.00     0.200 A 
ATOM     91  F   UNL A   1      34.082  33.734  32.103  1.00  0.00    -0.200 F 
ATOM     92  F   UNL A   1      33.654  34.090  29.435  1.00  0.00    -0.200 F 
ENDBRANCH  58  82
BRANCH  70  93
ATOM     93  C   UNL A   1      42.211  34.600  34.078  1.00  0.00     0.064 A 
ATOM     94  C   UNL A   1      41.957  33.415  34.785  1.00  0.00     0.173 A 
ATOM     95  C   UNL A   1      42.101  35.811  34.782  1.00  0.00     0.173 A 
ATOM     96  F   UNL A   1      42.032  32.230  34.157  1.00  0.00    -0.203 F 
ATOM     97  C   UNL A   1      41.584  33.432  36.124  1.00  0.00     0.198 A 
ATOM     98  C   UNL A   1      41.766  35.823  36.138  1.00  0.00     0.198 A 
ATOM     99  F   UNL A   1      42.278  36.987  34.166  1.00  0.00    -0.203 F 
ATOM    100  F   UNL A   1      41.298  32.282  36.749  1.00  0.00    -0.200 F 
ATOM    101  C   UNL A   1      41.495  34.635  36.803  1.00  0.00     0.200 A 
ATOM    102  F   UNL A   1      41.683  36.987  36.800  1.00  0.00    -0.200 F 
ATOM    103  F   UNL A   1      41.141  34.650  38.096  1.00  0.00    -0.200 F 
ENDBRANCH  70  93
ENDBRANCH  44  45
ENDBRANCH  37  39
ENDBRANCH  36  37
ENDBRANCH  35  36
ENDBRANCH  34  35
ENDBRANCH   1  34
TORSDOF 17
ENDMDL
