MODEL 1
REMARK VINA RESULT:     -13.4      0.000      0.000
REMARK SMILES CC(C)=C1[C@H]2CC[C@@H]1[C@@H](C(=O)Nc1cc(C)cc(C)c1)[C@@H]2C(=O)OCCOC(=O)c1ccc(-c2c3nc(c(-c4c(F)c(F)c(F)c(F)c4F)c4ccc([nH]4)c(-c4c(F)c(F)c(F)c(F)c4F)c4nc(c(-c5c(F)c(F)c(F)c(F)c5F)c5ccc2[nH]5)C=C4)C=C3)cc1
REMARK SMILES IDX 25 1 24 2 22 3 23 4 21 5 1 6 2 7 3 8 4 9 5 10 8 11 6 12 7 13
REMARK SMILES IDX 9 14 10 15 11 16 12 17 13 19 14 20 20 21 15 22 18 23 16 24
REMARK SMILES IDX 17 25 19 26 26 27 27 28 28 29 29 30 30 31 31 32 92 33 32 34
REMARK SMILES IDX 91 35 33 36 34 37 35 38 85 39 36 40 90 41 84 42 86 43 37 44
REMARK SMILES IDX 89 45 83 46 82 47 38 49 70 50 50 51 69 52 51 53 54 54 68 55
REMARK SMILES IDX 87 56 52 57 53 58 67 60 88 61 55 62 39 63 40 64 48 65 41 66
REMARK SMILES IDX 42 67 46 68 49 69 43 70 44 71 47 72 45 73 71 74 72 75 80 76
REMARK SMILES IDX 73 77 74 78 78 79 81 80 75 81 76 82 79 83 77 84 56 85 57 86
REMARK SMILES IDX 65 87 58 88 59 89 63 90 66 91 60 92 61 93 64 94 62 95
REMARK H PARENT 12 18 86 48 54 59
REMARK Flexibility Score: inf
ROOT
ATOM      1  C   UNL A   1      32.684  28.723  24.879  1.00  0.00     0.274 C 
ENDROOT
BRANCH   1   2
ATOM      2  O   UNL A   1      32.969  27.728  25.886  1.00  0.00    -0.462 OA
BRANCH   2   3
ATOM      3  C   UNL A   1      31.982  26.835  26.126  1.00  0.00     0.310 C 
ATOM      4  O   UNL A   1      31.046  27.021  26.896  1.00  0.00    -0.252 OA
BRANCH   3   5
ATOM      5  C   UNL A   1      32.126  25.534  25.373  1.00  0.00     0.119 C 
ATOM      6  C   UNL A   1      32.130  21.666  22.934  1.00  0.00     0.039 C 
ATOM      7  C   UNL A   1      32.668  23.069  23.033  1.00  0.00    -0.077 C 
ATOM      8  C   UNL A   1      34.032  23.262  22.438  1.00  0.00     0.039 C 
ATOM      9  C   UNL A   1      31.976  24.064  23.608  1.00  0.00    -0.064 C 
ATOM     10  C   UNL A   1      32.290  25.527  23.844  1.00  0.00     0.030 C 
ATOM     11  C   UNL A   1      30.603  24.055  24.220  1.00  0.00     0.029 C 
ATOM     12  C   UNL A   1      31.102  26.135  23.091  1.00  0.00     0.009 C 
ATOM     13  C   UNL A   1      29.954  25.145  23.350  1.00  0.00     0.009 C 
ATOM     14  C   UNL A   1      30.907  24.632  25.619  1.00  0.00     0.101 C 
BRANCH  14  15
ATOM     15  C   UNL A   1      30.846  23.530  26.688  1.00  0.00     0.228 C 
ATOM     16  O   UNL A   1      29.804  23.451  27.360  1.00  0.00    -0.274 OA
ATOM     17  N   UNL A   1      31.691  22.484  26.845  1.00  0.00    -0.326 N 
ATOM     18  H   UNL A   1      31.299  21.743  27.362  1.00  0.00     0.169 HD
BRANCH  17  19
ATOM     19  C   UNL A   1      32.995  22.234  26.429  1.00  0.00     0.041 A 
ATOM     20  C   UNL A   1      34.009  23.177  26.535  1.00  0.00     0.029 A 
ATOM     21  C   UNL A   1      33.293  20.956  25.961  1.00  0.00     0.029 A 
ATOM     22  C   UNL A   1      35.262  22.938  25.962  1.00  0.00    -0.049 A 
ATOM     23  C   UNL A   1      34.555  20.673  25.427  1.00  0.00    -0.049 A 
ATOM     24  C   UNL A   1      36.264  24.049  25.844  1.00  0.00     0.044 C 
ATOM     25  C   UNL A   1      35.522  21.685  25.396  1.00  0.00     0.007 A 
ATOM     26  C   UNL A   1      34.821  19.347  24.781  1.00  0.00     0.044 C 
ENDBRANCH  17  19
ENDBRANCH  14  15
ENDBRANCH   3   5
ENDBRANCH   2   3
ENDBRANCH   1   2
BRANCH   1  27
ATOM     27  C   UNL A   1      31.951  29.916  25.492  1.00  0.00     0.275 C 
BRANCH  27  28
ATOM     28  O   UNL A   1      32.358  30.092  26.861  1.00  0.00    -0.458 OA
BRANCH  28  29
ATOM     29  C   UNL A   1      33.004  31.245  27.146  1.00  0.00     0.338 C 
ATOM     30  O   UNL A   1      32.580  32.379  27.001  1.00  0.00    -0.246 OA
BRANCH  29  31
ATOM     31  C   UNL A   1      34.357  30.963  27.669  1.00  0.00     0.060 A 
ATOM     32  C   UNL A   1      34.756  29.660  27.960  1.00  0.00     0.016 A 
ATOM     33  C   UNL A   1      35.201  32.030  27.988  1.00  0.00     0.016 A 
ATOM     34  C   UNL A   1      35.937  29.435  28.666  1.00  0.00     0.010 A 
ATOM     35  C   UNL A   1      36.434  31.789  28.605  1.00  0.00     0.010 A 
ATOM     36  C   UNL A   1      36.802  30.489  28.991  1.00  0.00    -0.014 A 
BRANCH  36  37
ATOM     37  C   UNL A   1      38.055  30.238  29.761  1.00  0.00     0.031 A 
ATOM     38  C   UNL A   1      39.170  29.423  29.157  1.00  0.00     0.074 A 
ATOM     39  C   UNL A   1      38.215  30.749  30.998  1.00  0.00     0.049 A 
ATOM     40  N   UNL A   1      40.232  28.912  29.732  1.00  0.00    -0.248 NA
ATOM     41  C   UNL A   1      39.072  29.129  27.720  1.00  0.00     0.031 C 
ATOM     42  C   UNL A   1      37.256  31.607  31.694  1.00  0.00     0.029 A 
ATOM     43  N   UNL A   1      39.255  30.627  31.890  1.00  0.00    -0.354 N 
ATOM     44  C   UNL A   1      40.885  28.183  28.747  1.00  0.00     0.074 A 
ATOM     45  C   UNL A   1      40.110  28.325  27.533  1.00  0.00     0.031 C 
ATOM     46  C   UNL A   1      37.767  31.972  32.878  1.00  0.00     0.029 A 
ATOM     47  C   UNL A   1      39.046  31.298  33.070  1.00  0.00     0.049 A 
ATOM     48  H   UNL A   1      40.070  30.109  31.701  1.00  0.00     0.167 HD
ATOM     49  C   UNL A   1      42.025  27.456  28.850  1.00  0.00     0.037 A 
ATOM     50  C   UNL A   1      39.776  31.335  34.201  1.00  0.00     0.037 A 
ATOM     51  C   UNL A   1      42.838  27.377  30.038  1.00  0.00     0.049 A 
ATOM     52  C   UNL A   1      41.033  30.521  34.294  1.00  0.00     0.074 A 
ATOM     53  C   UNL A   1      44.010  26.670  30.239  1.00  0.00     0.029 A 
ATOM     54  N   UNL A   1      42.574  28.055  31.219  1.00  0.00    -0.354 N 
ATOM     55  N   UNL A   1      41.589  29.753  33.389  1.00  0.00    -0.248 NA
ATOM     56  C   UNL A   1      41.749  30.556  35.577  1.00  0.00     0.031 C 
ATOM     57  C   UNL A   1      44.445  26.901  31.549  1.00  0.00     0.029 A 
ATOM     58  C   UNL A   1      43.561  27.780  32.152  1.00  0.00     0.049 A 
ATOM     59  H   UNL A   1      41.800  28.645  31.371  1.00  0.00     0.167 HD
ATOM     60  C   UNL A   1      42.717  29.213  33.990  1.00  0.00     0.074 A 
ATOM     61  C   UNL A   1      42.782  29.761  35.329  1.00  0.00     0.031 C 
ATOM     62  C   UNL A   1      43.609  28.331  33.481  1.00  0.00     0.037 A 
BRANCH  49  63
ATOM     63  C   UNL A   1      42.449  26.651  27.658  1.00  0.00     0.064 A 
ATOM     64  C   UNL A   1      43.433  27.101  26.766  1.00  0.00     0.173 A 
ATOM     65  C   UNL A   1      41.892  25.382  27.436  1.00  0.00     0.173 A 
ATOM     66  F   UNL A   1      43.987  28.311  26.928  1.00  0.00    -0.203 F 
ATOM     67  C   UNL A   1      43.830  26.317  25.685  1.00  0.00     0.198 A 
ATOM     68  C   UNL A   1      42.308  24.591  26.368  1.00  0.00     0.198 A 
ATOM     69  F   UNL A   1      40.952  24.901  28.264  1.00  0.00    -0.203 F 
ATOM     70  F   UNL A   1      44.747  26.780  24.825  1.00  0.00    -0.200 F 
ATOM     71  C   UNL A   1      43.273  25.061  25.491  1.00  0.00     0.200 A 
ATOM     72  F   UNL A   1      41.778  23.373  26.191  1.00  0.00    -0.200 F 
ATOM     73  F   UNL A   1      43.664  24.304  24.456  1.00  0.00    -0.200 F 
ENDBRANCH  49  63
BRANCH  50  74
ATOM     74  C   UNL A   1      39.301  32.143  35.354  1.00  0.00     0.064 A 
ATOM     75  C   UNL A   1      38.532  31.563  36.370  1.00  0.00     0.173 A 
ATOM     76  C   UNL A   1      39.627  33.503  35.474  1.00  0.00     0.173 A 
ATOM     77  F   UNL A   1      38.171  30.274  36.284  1.00  0.00    -0.203 F 
ATOM     78  C   UNL A   1      38.104  32.312  37.463  1.00  0.00     0.198 A 
ATOM     79  C   UNL A   1      39.224  34.243  36.581  1.00  0.00     0.198 A 
ATOM     80  F   UNL A   1      40.358  34.104  34.525  1.00  0.00    -0.203 F 
ATOM     81  F   UNL A   1      37.341  31.744  38.407  1.00  0.00    -0.200 F 
ATOM     82  C   UNL A   1      38.459  33.649  37.573  1.00  0.00     0.200 A 
ATOM     83  F   UNL A   1      39.580  35.530  36.689  1.00  0.00    -0.200 F 
ATOM     84  F   UNL A   1      38.059  34.366  38.632  1.00  0.00    -0.200 F 
ENDBRANCH  50  74
BRANCH  62  85
ATOM     85  C   UNL A   1      44.740  27.919  34.373  1.00  0.00     0.064 A 
ATOM     86  C   UNL A   1      44.642  26.786  35.196  1.00  0.00     0.173 A 
ATOM     87  C   UNL A   1      45.935  28.650  34.395  1.00  0.00     0.173 A 
ATOM     88  F   UNL A   1      43.512  26.066  35.221  1.00  0.00    -0.203 F 
ATOM     89  C   UNL A   1      45.697  26.415  36.026  1.00  0.00     0.198 A 
ATOM     90  C   UNL A   1      46.995  28.264  35.211  1.00  0.00     0.198 A 
ATOM     91  F   UNL A   1      46.075  29.739  33.625  1.00  0.00    -0.203 F 
ATOM     92  F   UNL A   1      45.568  25.355  36.835  1.00  0.00    -0.200 F 
ATOM     93  C   UNL A   1      46.872  27.151  36.030  1.00  0.00     0.200 A 
ATOM     94  F   UNL A   1      48.132  28.972  35.210  1.00  0.00    -0.200 F 
ATOM     95  F   UNL A   1      47.885  26.794  36.832  1.00  0.00    -0.200 F 
ENDBRANCH  62  85
ENDBRANCH  36  37
ENDBRANCH  29  31
ENDBRANCH  28  29
ENDBRANCH  27  28
ENDBRANCH   1  27
TORSDOF 13
ENDMDL
MODEL 2
REMARK VINA RESULT:     -13.4      0.506      1.211
REMARK SMILES CC(C)=C1[C@H]2CC[C@@H]1[C@@H](C(=O)Nc1cc(C)cc(C)c1)[C@@H]2C(=O)OCCOC(=O)c1ccc(-c2c3nc(c(-c4c(F)c(F)c(F)c(F)c4F)c4ccc([nH]4)c(-c4c(F)c(F)c(F)c(F)c4F)c4nc(c(-c5c(F)c(F)c(F)c(F)c5F)c5ccc2[nH]5)C=C4)C=C3)cc1
REMARK SMILES IDX 25 1 24 2 22 3 23 4 21 5 1 6 2 7 3 8 4 9 5 10 8 11 6 12 7 13
REMARK SMILES IDX 9 14 10 15 11 16 12 17 13 19 14 20 20 21 15 22 18 23 16 24
REMARK SMILES IDX 17 25 19 26 26 27 27 28 28 29 29 30 30 31 31 32 92 33 32 34
REMARK SMILES IDX 91 35 33 36 34 37 35 38 85 39 36 40 90 41 84 42 86 43 37 44
REMARK SMILES IDX 89 45 83 46 82 47 38 49 70 50 50 51 69 52 51 53 54 54 68 55
REMARK SMILES IDX 87 56 52 57 53 58 67 60 88 61 55 62 39 63 40 64 48 65 41 66
REMARK SMILES IDX 42 67 46 68 49 69 43 70 44 71 47 72 45 73 71 74 72 75 80 76
REMARK SMILES IDX 73 77 74 78 78 79 81 80 75 81 76 82 79 83 77 84 56 85 57 86
REMARK SMILES IDX 65 87 58 88 59 89 63 90 66 91 60 92 61 93 64 94 62 95
REMARK H PARENT 12 18 86 48 54 59
REMARK Flexibility Score: inf
ROOT
ATOM      1  C   UNL A   1      31.582  28.888  25.139  1.00  0.00     0.274 C 
ENDROOT
BRANCH   1   2
ATOM      2  O   UNL A   1      32.519  27.870  25.553  1.00  0.00    -0.462 OA
BRANCH   2   3
ATOM      3  C   UNL A   1      31.980  26.785  26.154  1.00  0.00     0.310 C 
ATOM      4  O   UNL A   1      31.428  26.798  27.250  1.00  0.00    -0.252 OA
BRANCH   3   5
ATOM      5  C   UNL A   1      32.131  25.503  25.372  1.00  0.00     0.119 C 
ATOM      6  C   UNL A   1      32.154  21.690  22.847  1.00  0.00     0.039 C 
ATOM      7  C   UNL A   1      32.679  23.096  22.973  1.00  0.00    -0.077 C 
ATOM      8  C   UNL A   1      34.036  23.317  22.371  1.00  0.00     0.039 C 
ATOM      9  C   UNL A   1      31.981  24.071  23.576  1.00  0.00    -0.064 C 
ATOM     10  C   UNL A   1      32.282  25.531  23.841  1.00  0.00     0.030 C 
ATOM     11  C   UNL A   1      30.614  24.034  24.199  1.00  0.00     0.029 C 
ATOM     12  C   UNL A   1      31.082  26.143  23.112  1.00  0.00     0.009 C 
ATOM     13  C   UNL A   1      29.947  25.136  23.358  1.00  0.00     0.009 C 
ATOM     14  C   UNL A   1      30.924  24.583  25.608  1.00  0.00     0.101 C 
BRANCH  14  15
ATOM     15  C   UNL A   1      30.883  23.457  26.652  1.00  0.00     0.228 C 
ATOM     16  O   UNL A   1      29.849  23.354  27.333  1.00  0.00    -0.274 OA
ATOM     17  N   UNL A   1      31.738  22.415  26.777  1.00  0.00    -0.326 N 
ATOM     18  H   UNL A   1      31.359  21.660  27.281  1.00  0.00     0.169 HD
BRANCH  17  19
ATOM     19  C   UNL A   1      33.040  22.185  26.343  1.00  0.00     0.041 A 
ATOM     20  C   UNL A   1      34.046  23.138  26.452  1.00  0.00     0.029 A 
ATOM     21  C   UNL A   1      33.346  20.918  25.849  1.00  0.00     0.029 A 
ATOM     22  C   UNL A   1      35.295  22.921  25.861  1.00  0.00    -0.049 A 
ATOM     23  C   UNL A   1      34.604  20.657  25.297  1.00  0.00    -0.049 A 
ATOM     24  C   UNL A   1      36.283  24.044  25.750  1.00  0.00     0.044 C 
ATOM     25  C   UNL A   1      35.561  21.680  25.271  1.00  0.00     0.007 A 
ATOM     26  C   UNL A   1      34.877  19.345  24.626  1.00  0.00     0.044 C 
ENDBRANCH  17  19
ENDBRANCH  14  15
ENDBRANCH   3   5
ENDBRANCH   2   3
ENDBRANCH   1   2
BRANCH   1  27
ATOM     27  C   UNL A   1      31.766  30.159  25.968  1.00  0.00     0.275 C 
BRANCH  27  28
ATOM     28  O   UNL A   1      33.167  30.462  26.097  1.00  0.00    -0.458 OA
BRANCH  28  29
ATOM     29  C   UNL A   1      33.503  31.310  27.096  1.00  0.00     0.338 C 
ATOM     30  O   UNL A   1      32.852  32.256  27.506  1.00  0.00    -0.246 OA
BRANCH  29  31
ATOM     31  C   UNL A   1      34.822  30.949  27.657  1.00  0.00     0.060 A 
ATOM     32  C   UNL A   1      35.133  29.626  27.964  1.00  0.00     0.016 A 
ATOM     33  C   UNL A   1      35.720  31.965  27.994  1.00  0.00     0.016 A 
ATOM     34  C   UNL A   1      36.279  29.334  28.702  1.00  0.00     0.010 A 
ATOM     35  C   UNL A   1      36.920  31.654  28.645  1.00  0.00     0.010 A 
ATOM     36  C   UNL A   1      37.197  30.336  29.046  1.00  0.00    -0.014 A 
BRANCH  36  37
ATOM     37  C   UNL A   1      38.412  30.014  29.851  1.00  0.00     0.031 A 
ATOM     38  C   UNL A   1      39.500  29.145  29.273  1.00  0.00     0.074 A 
ATOM     39  C   UNL A   1      38.562  30.508  31.096  1.00  0.00     0.049 A 
ATOM     40  N   UNL A   1      40.516  28.575  29.875  1.00  0.00    -0.248 NA
ATOM     41  C   UNL A   1      39.430  28.866  27.831  1.00  0.00     0.031 C 
ATOM     42  C   UNL A   1      37.628  31.410  31.771  1.00  0.00     0.029 A 
ATOM     43  N   UNL A   1      39.566  30.325  32.017  1.00  0.00    -0.354 N 
ATOM     44  C   UNL A   1      41.160  27.819  28.903  1.00  0.00     0.074 A 
ATOM     45  C   UNL A   1      40.429  28.010  27.668  1.00  0.00     0.031 C 
ATOM     46  C   UNL A   1      38.122  31.739  32.972  1.00  0.00     0.029 A 
ATOM     47  C   UNL A   1      39.358  30.997  33.196  1.00  0.00     0.049 A 
ATOM     48  H   UNL A   1      40.358  29.766  31.848  1.00  0.00     0.167 HD
ATOM     49  C   UNL A   1      42.255  27.032  29.034  1.00  0.00     0.037 A 
ATOM     50  C   UNL A   1      40.055  30.988  34.348  1.00  0.00     0.037 A 
ATOM     51  C   UNL A   1      43.027  26.903  30.245  1.00  0.00     0.049 A 
ATOM     52  C   UNL A   1      41.264  30.108  34.472  1.00  0.00     0.074 A 
ATOM     53  C   UNL A   1      44.154  26.133  30.474  1.00  0.00     0.029 A 
ATOM     54  N   UNL A   1      42.764  27.585  31.423  1.00  0.00    -0.354 N 
ATOM     55  N   UNL A   1      41.806  29.319  33.577  1.00  0.00    -0.248 NA
ATOM     56  C   UNL A   1      41.942  30.096  35.775  1.00  0.00     0.031 C 
ATOM     57  C   UNL A   1      44.561  26.332  31.798  1.00  0.00     0.029 A 
ATOM     58  C   UNL A   1      43.707  27.253  32.383  1.00  0.00     0.049 A 
ATOM     59  H   UNL A   1      42.018  28.214  31.557  1.00  0.00     0.167 HD
ATOM     60  C   UNL A   1      42.885  28.715  34.207  1.00  0.00     0.074 A 
ATOM     61  C   UNL A   1      42.939  29.251  35.552  1.00  0.00     0.031 C 
ATOM     62  C   UNL A   1      43.745  27.791  33.716  1.00  0.00     0.037 A 
BRANCH  49  63
ATOM     63  C   UNL A   1      42.672  26.214  27.849  1.00  0.00     0.064 A 
ATOM     64  C   UNL A   1      43.653  26.653  26.947  1.00  0.00     0.173 A 
ATOM     65  C   UNL A   1      42.112  24.944  27.642  1.00  0.00     0.173 A 
ATOM     66  F   UNL A   1      44.211  27.863  27.095  1.00  0.00    -0.203 F 
ATOM     67  C   UNL A   1      44.043  25.857  25.872  1.00  0.00     0.198 A 
ATOM     68  C   UNL A   1      42.521  24.141  26.580  1.00  0.00     0.198 A 
ATOM     69  F   UNL A   1      41.174  24.474  28.479  1.00  0.00    -0.203 F 
ATOM     70  F   UNL A   1      44.958  26.309  25.003  1.00  0.00    -0.200 F 
ATOM     71  C   UNL A   1      43.483  24.600  25.694  1.00  0.00     0.200 A 
ATOM     72  F   UNL A   1      41.987  22.923  26.418  1.00  0.00    -0.200 F 
ATOM     73  F   UNL A   1      43.867  23.832  24.665  1.00  0.00    -0.200 F 
ENDBRANCH  49  63
BRANCH  50  74
ATOM     74  C   UNL A   1      39.588  31.812  35.493  1.00  0.00     0.064 A 
ATOM     75  C   UNL A   1      40.066  33.114  35.685  1.00  0.00     0.173 A 
ATOM     76  C   UNL A   1      38.639  31.322  36.404  1.00  0.00     0.173 A 
ATOM     77  F   UNL A   1      40.996  33.615  34.858  1.00  0.00    -0.203 F 
ATOM     78  C   UNL A   1      39.614  33.896  36.745  1.00  0.00     0.198 A 
ATOM     79  C   UNL A   1      38.166  32.115  37.445  1.00  0.00     0.198 A 
ATOM     80  F   UNL A   1      38.154  30.079  36.264  1.00  0.00    -0.203 F 
ATOM     81  F   UNL A   1      40.110  35.128  36.928  1.00  0.00    -0.200 F 
ATOM     82  C   UNL A   1      38.657  33.400  37.618  1.00  0.00     0.200 A 
ATOM     83  F   UNL A   1      37.232  31.635  38.278  1.00  0.00    -0.200 F 
ATOM     84  F   UNL A   1      38.211  34.157  38.630  1.00  0.00    -0.200 F 
ENDBRANCH  50  74
BRANCH  62  85
ATOM     85  C   UNL A   1      44.824  27.314  34.639  1.00  0.00     0.064 A 
ATOM     86  C   UNL A   1      44.659  26.159  35.419  1.00  0.00     0.173 A 
ATOM     87  C   UNL A   1      46.040  28.005  34.732  1.00  0.00     0.173 A 
ATOM     88  F   UNL A   1      43.506  25.475  35.374  1.00  0.00    -0.203 F 
ATOM     89  C   UNL A   1      45.666  25.727  36.277  1.00  0.00     0.198 A 
ATOM     90  C   UNL A   1      47.053  27.558  35.576  1.00  0.00     0.198 A 
ATOM     91  F   UNL A   1      46.245  29.113  34.005  1.00  0.00    -0.203 F 
ATOM     92  F   UNL A   1      45.472  24.646  37.044  1.00  0.00    -0.200 F 
ATOM     93  C   UNL A   1      46.863  26.424  36.351  1.00  0.00     0.200 A 
ATOM     94  F   UNL A   1      48.211  28.229  35.643  1.00  0.00    -0.200 F 
ATOM     95  F   UNL A   1      47.831  26.009  37.180  1.00  0.00    -0.200 F 
ENDBRANCH  62  85
ENDBRANCH  36  37
ENDBRANCH  29  31
ENDBRANCH  28  29
ENDBRANCH  27  28
ENDBRANCH   1  27
TORSDOF 13
ENDMDL
MODEL 3
REMARK VINA RESULT:     -13.2      4.208      9.478
REMARK SMILES CC(C)=C1[C@H]2CC[C@@H]1[C@@H](C(=O)Nc1cc(C)cc(C)c1)[C@@H]2C(=O)OCCOC(=O)c1ccc(-c2c3nc(c(-c4c(F)c(F)c(F)c(F)c4F)c4ccc([nH]4)c(-c4c(F)c(F)c(F)c(F)c4F)c4nc(c(-c5c(F)c(F)c(F)c(F)c5F)c5ccc2[nH]5)C=C4)C=C3)cc1
REMARK SMILES IDX 25 1 24 2 22 3 23 4 21 5 1 6 2 7 3 8 4 9 5 10 8 11 6 12 7 13
REMARK SMILES IDX 9 14 10 15 11 16 12 17 13 19 14 20 20 21 15 22 18 23 16 24
REMARK SMILES IDX 17 25 19 26 26 27 27 28 28 29 29 30 30 31 31 32 92 33 32 34
REMARK SMILES IDX 91 35 33 36 34 37 35 38 85 39 36 40 90 41 84 42 86 43 37 44
REMARK SMILES IDX 89 45 83 46 82 47 38 49 70 50 50 51 69 52 51 53 54 54 68 55
REMARK SMILES IDX 87 56 52 57 53 58 67 60 88 61 55 62 39 63 40 64 48 65 41 66
REMARK SMILES IDX 42 67 46 68 49 69 43 70 44 71 47 72 45 73 71 74 72 75 80 76
REMARK SMILES IDX 73 77 74 78 78 79 81 80 75 81 76 82 79 83 77 84 56 85 57 86
REMARK SMILES IDX 65 87 58 88 59 89 63 90 66 91 60 92 61 93 64 94 62 95
REMARK H PARENT 12 18 86 48 54 59
REMARK Flexibility Score: inf
ROOT
ATOM      1  C   UNL A   1      35.299  21.617  24.388  1.00  0.00     0.274 C 
ENDROOT
BRANCH   1   2
ATOM      2  O   UNL A   1      35.066  22.821  23.625  1.00  0.00    -0.462 OA
BRANCH   2   3
ATOM      3  C   UNL A   1      34.931  23.958  24.346  1.00  0.00     0.310 C 
ATOM      4  O   UNL A   1      35.814  24.453  25.038  1.00  0.00    -0.252 OA
BRANCH   3   5
ATOM      5  C   UNL A   1      33.561  24.587  24.261  1.00  0.00     0.119 C 
ATOM      6  C   UNL A   1      29.265  26.090  23.821  1.00  0.00     0.039 C 
ATOM      7  C   UNL A   1      30.325  25.631  24.788  1.00  0.00    -0.077 C 
ATOM      8  C   UNL A   1      30.232  26.240  26.157  1.00  0.00     0.039 C 
ATOM      9  C   UNL A   1      31.273  24.745  24.447  1.00  0.00    -0.064 C 
ATOM     10  C   UNL A   1      32.434  24.144  25.210  1.00  0.00     0.030 C 
ATOM     11  C   UNL A   1      31.493  24.022  23.148  1.00  0.00     0.029 C 
ATOM     12  C   UNL A   1      32.053  22.667  25.071  1.00  0.00     0.009 C 
ATOM     13  C   UNL A   1      31.422  22.578  23.672  1.00  0.00     0.009 C 
ATOM     14  C   UNL A   1      32.965  24.389  22.860  1.00  0.00     0.101 C 
BRANCH  14  15
ATOM     15  C   UNL A   1      33.056  25.421  21.725  1.00  0.00     0.228 C 
ATOM     16  O   UNL A   1      33.278  24.987  20.582  1.00  0.00    -0.274 OA
ATOM     17  N   UNL A   1      32.703  26.727  21.766  1.00  0.00    -0.326 N 
ATOM     18  H   UNL A   1      32.537  27.113  20.876  1.00  0.00     0.169 HD
BRANCH  17  19
ATOM     19  C   UNL A   1      32.524  27.640  22.801  1.00  0.00     0.041 A 
ATOM     20  C   UNL A   1      33.449  27.803  23.825  1.00  0.00     0.029 A 
ATOM     21  C   UNL A   1      31.404  28.467  22.750  1.00  0.00     0.029 A 
ATOM     22  C   UNL A   1      33.154  28.617  24.923  1.00  0.00    -0.049 A 
ATOM     23  C   UNL A   1      31.110  29.328  23.813  1.00  0.00    -0.049 A 
ATOM     24  C   UNL A   1      34.028  28.586  26.142  1.00  0.00     0.044 C 
ATOM     25  C   UNL A   1      31.972  29.367  24.916  1.00  0.00     0.007 A 
ATOM     26  C   UNL A   1      29.823  30.098  23.827  1.00  0.00     0.044 C 
ENDBRANCH  17  19
ENDBRANCH  14  15
ENDBRANCH   3   5
ENDBRANCH   2   3
ENDBRANCH   1   2
BRANCH   1  27
ATOM     27  C   UNL A   1      36.791  21.290  24.436  1.00  0.00     0.275 C 
BRANCH  27  28
ATOM     28  O   UNL A   1      37.287  21.458  25.776  1.00  0.00    -0.458 OA
BRANCH  28  29
ATOM     29  C   UNL A   1      38.622  21.311  25.938  1.00  0.00     0.338 C 
ATOM     30  O   UNL A   1      39.289  20.323  25.682  1.00  0.00    -0.246 OA
BRANCH  29  31
ATOM     31  C   UNL A   1      39.211  22.545  26.501  1.00  0.00     0.060 A 
ATOM     32  C   UNL A   1      38.718  23.800  26.150  1.00  0.00     0.016 A 
ATOM     33  C   UNL A   1      40.353  22.451  27.301  1.00  0.00     0.016 A 
ATOM     34  C   UNL A   1      39.426  24.949  26.501  1.00  0.00     0.010 A 
ATOM     35  C   UNL A   1      41.001  23.613  27.738  1.00  0.00     0.010 A 
ATOM     36  C   UNL A   1      40.570  24.879  27.307  1.00  0.00    -0.014 A 
BRANCH  36  37
ATOM     37  C   UNL A   1      41.329  26.114  27.663  1.00  0.00     0.031 A 
ATOM     38  C   UNL A   1      40.694  27.178  28.523  1.00  0.00     0.074 A 
ATOM     39  C   UNL A   1      42.595  26.289  27.237  1.00  0.00     0.049 A 
ATOM     40  N   UNL A   1      41.094  28.404  28.760  1.00  0.00    -0.248 NA
ATOM     41  C   UNL A   1      39.433  26.823  29.192  1.00  0.00     0.031 C 
ATOM     42  C   UNL A   1      43.368  25.327  26.451  1.00  0.00     0.029 A 
ATOM     43  N   UNL A   1      43.463  27.341  27.415  1.00  0.00    -0.354 N 
ATOM     44  C   UNL A   1      40.104  28.983  29.544  1.00  0.00     0.074 A 
ATOM     45  C   UNL A   1      39.088  27.974  29.754  1.00  0.00     0.031 C 
ATOM     46  C   UNL A   1      44.604  25.807  26.254  1.00  0.00     0.029 A 
ATOM     47  C   UNL A   1      44.684  27.152  26.815  1.00  0.00     0.049 A 
ATOM     48  H   UNL A   1      43.232  28.151  27.923  1.00  0.00     0.167 HD
ATOM     49  C   UNL A   1      40.048  30.245  30.036  1.00  0.00     0.037 A 
ATOM     50  C   UNL A   1      45.738  27.979  26.687  1.00  0.00     0.037 A 
ATOM     51  C   UNL A   1      41.095  31.224  29.892  1.00  0.00     0.049 A 
ATOM     52  C   UNL A   1      45.653  29.373  27.237  1.00  0.00     0.074 A 
ATOM     53  C   UNL A   1      41.131  32.527  30.358  1.00  0.00     0.029 A 
ATOM     54  N   UNL A   1      42.305  30.995  29.255  1.00  0.00    -0.354 N 
ATOM     55  N   UNL A   1      44.671  29.944  27.890  1.00  0.00    -0.248 NA
ATOM     56  C   UNL A   1      46.813  30.245  27.010  1.00  0.00     0.031 C 
ATOM     57  C   UNL A   1      42.353  33.095  29.983  1.00  0.00     0.029 A 
ATOM     58  C   UNL A   1      43.093  32.134  29.314  1.00  0.00     0.049 A 
ATOM     59  H   UNL A   1      42.566  30.149  28.825  1.00  0.00     0.167 HD
ATOM     60  C   UNL A   1      45.091  31.241  28.149  1.00  0.00     0.074 A 
ATOM     61  C   UNL A   1      46.428  31.365  27.607  1.00  0.00     0.031 C 
ATOM     62  C   UNL A   1      44.420  32.242  28.768  1.00  0.00     0.037 A 
BRANCH  49  63
ATOM     63  C   UNL A   1      38.795  30.659  30.749  1.00  0.00     0.064 A 
ATOM     64  C   UNL A   1      38.675  30.596  32.144  1.00  0.00     0.173 A 
ATOM     65  C   UNL A   1      37.713  31.177  30.020  1.00  0.00     0.173 A 
ATOM     66  F   UNL A   1      39.676  30.098  32.885  1.00  0.00    -0.203 F 
ATOM     67  C   UNL A   1      37.510  31.019  32.782  1.00  0.00     0.198 A 
ATOM     68  C   UNL A   1      36.560  31.621  30.662  1.00  0.00     0.198 A 
ATOM     69  F   UNL A   1      37.779  31.266  28.683  1.00  0.00    -0.203 F 
ATOM     70  F   UNL A   1      37.403  30.918  34.114  1.00  0.00    -0.200 F 
ATOM     71  C   UNL A   1      36.458  31.537  32.042  1.00  0.00     0.200 A 
ATOM     72  F   UNL A   1      35.550  32.133  29.945  1.00  0.00    -0.200 F 
ATOM     73  F   UNL A   1      35.343  31.952  32.658  1.00  0.00    -0.200 F 
ENDBRANCH  49  63
BRANCH  50  74
ATOM     74  C   UNL A   1      46.950  27.517  25.962  1.00  0.00     0.064 A 
ATOM     75  C   UNL A   1      47.062  27.675  24.574  1.00  0.00     0.173 A 
ATOM     76  C   UNL A   1      48.027  26.930  26.643  1.00  0.00     0.173 A 
ATOM     77  F   UNL A   1      46.046  28.203  23.876  1.00  0.00    -0.203 F 
ATOM     78  C   UNL A   1      48.206  27.262  23.895  1.00  0.00     0.198 A 
ATOM     79  C   UNL A   1      49.181  26.545  25.968  1.00  0.00     0.198 A 
ATOM     80  F   UNL A   1      47.965  26.754  27.971  1.00  0.00    -0.203 F 
ATOM     81  F   UNL A   1      48.277  27.394  22.563  1.00  0.00    -0.200 F 
ATOM     82  C   UNL A   1      49.268  26.708  24.594  1.00  0.00     0.200 A 
ATOM     83  F   UNL A   1      50.210  26.022  26.648  1.00  0.00    -0.200 F 
ATOM     84  F   UNL A   1      50.375  26.324  23.941  1.00  0.00    -0.200 F 
ENDBRANCH  50  74
BRANCH  62  85
ATOM     85  C   UNL A   1      45.133  33.552  28.903  1.00  0.00     0.064 A 
ATOM     86  C   UNL A   1      45.007  34.555  27.929  1.00  0.00     0.173 A 
ATOM     87  C   UNL A   1      45.935  33.816  30.023  1.00  0.00     0.173 A 
ATOM     88  F   UNL A   1      44.264  34.341  26.834  1.00  0.00    -0.203 F 
ATOM     89  C   UNL A   1      45.679  35.767  28.062  1.00  0.00     0.198 A 
ATOM     90  C   UNL A   1      46.588  35.037  30.162  1.00  0.00     0.198 A 
ATOM     91  F   UNL A   1      46.084  32.889  30.980  1.00  0.00    -0.203 F 
ATOM     92  F   UNL A   1      45.579  36.695  27.101  1.00  0.00    -0.200 F 
ATOM     93  C   UNL A   1      46.465  36.008  29.180  1.00  0.00     0.200 A 
ATOM     94  F   UNL A   1      47.343  35.271  31.244  1.00  0.00    -0.200 F 
ATOM     95  F   UNL A   1      47.113  37.175  29.305  1.00  0.00    -0.200 F 
ENDBRANCH  62  85
ENDBRANCH  36  37
ENDBRANCH  29  31
ENDBRANCH  28  29
ENDBRANCH  27  28
ENDBRANCH   1  27
TORSDOF 13
ENDMDL
