MODEL 1
REMARK VINA RESULT:     -11.5      0.000      0.000
REMARK SMILES C/C=C/c1cncc(-c2ccc([C@@H](C)C(=O)OCCOC(=O)c3ccc(-c4c5nc(c(-c6c(F)c(F)c(F)c(F)c6F)c6ccc([nH]6)c(-c6c(F)c(F)c(F)c(F)c6F)c6nc(c(-c7c(F)c(F)c(F)c(F)c7F)c7ccc4[nH]7)C=C6)C=C5)cc3)cc2)c1
REMARK SMILES IDX 18 1 17 2 15 3 16 4 13 5 14 6 12 7 9 8 10 9 87 10 11 11
REMARK SMILES IDX 86 12 8 13 4 14 5 15 88 16 6 17 7 18 3 19 1 20 2 21 19 22
REMARK SMILES IDX 20 23 21 24 22 25 23 26 24 27 85 28 25 29 84 30 26 31 27 32
REMARK SMILES IDX 28 33 78 34 29 35 83 36 77 37 79 38 30 39 82 40 76 41 75 42
REMARK SMILES IDX 31 44 63 45 43 46 62 47 44 48 47 49 61 50 80 51 45 52 46 53
REMARK SMILES IDX 60 55 81 56 48 57 32 58 33 59 41 60 34 61 35 62 39 63 42 64
REMARK SMILES IDX 36 65 37 66 40 67 38 68 64 69 65 70 73 71 66 72 67 73 71 74
REMARK SMILES IDX 74 75 68 76 69 77 72 78 70 79 49 80 50 81 58 82 51 83 52 84
REMARK SMILES IDX 56 85 59 86 53 87 54 88 57 89 55 90
REMARK H PARENT 79 43 47 54
REMARK Flexibility Score: inf
ROOT
ATOM      1  C   UNL A   1      42.393  18.496  26.355  1.00  0.00     0.274 C 
ENDROOT
BRANCH   1   2
ATOM      2  O   UNL A   1      41.971  19.863  26.196  1.00  0.00    -0.462 OA
BRANCH   2   3
ATOM      3  C   UNL A   1      41.283  20.415  27.228  1.00  0.00     0.313 C 
ATOM      4  O   UNL A   1      40.821  19.779  28.171  1.00  0.00    -0.252 OA
BRANCH   3   5
ATOM      5  C   UNL A   1      41.080  21.918  27.094  1.00  0.00     0.126 C 
ATOM      6  C   UNL A   1      41.439  22.607  28.410  1.00  0.00     0.025 C 
BRANCH   5   7
ATOM      7  C   UNL A   1      39.732  22.366  26.550  1.00  0.00    -0.034 A 
ATOM      8  C   UNL A   1      37.273  23.211  25.388  1.00  0.00    -0.017 A 
ATOM      9  C   UNL A   1      38.021  24.064  26.215  1.00  0.00     0.009 A 
ATOM     10  C   UNL A   1      37.755  21.910  25.192  1.00  0.00     0.009 A 
ATOM     11  C   UNL A   1      39.231  23.652  26.783  1.00  0.00     0.005 A 
ATOM     12  C   UNL A   1      38.966  21.493  25.761  1.00  0.00     0.005 A 
BRANCH   8  13
ATOM     13  C   UNL A   1      36.071  23.698  24.693  1.00  0.00     0.001 A 
ATOM     14  C   UNL A   1      34.069  25.079  24.530  1.00  0.00    -0.007 A 
ATOM     15  C   UNL A   1      33.812  24.455  23.311  1.00  0.00     0.119 A 
ATOM     16  C   UNL A   1      35.219  24.680  25.226  1.00  0.00     0.020 A 
ATOM     17  N   UNL A   1      34.598  23.509  22.753  1.00  0.00    -0.263 NA
ATOM     18  C   UNL A   1      35.698  23.158  23.458  1.00  0.00     0.119 A 
BRANCH  14  19
ATOM     19  C   UNL A   1      33.105  26.059  25.043  1.00  0.00     0.005 C 
ATOM     20  C   UNL A   1      32.151  27.604  26.753  1.00  0.00     0.035 C 
ATOM     21  C   UNL A   1      33.120  26.567  26.284  1.00  0.00    -0.030 C 
ENDBRANCH  14  19
ENDBRANCH   8  13
ENDBRANCH   5   7
ENDBRANCH   3   5
ENDBRANCH   2   3
ENDBRANCH   1   2
BRANCH   1  22
ATOM     22  C   UNL A   1      43.679  18.219  25.573  1.00  0.00     0.275 C 
BRANCH  22  23
ATOM     23  O   UNL A   1      43.780  19.076  24.421  1.00  0.00    -0.458 OA
BRANCH  23  24
ATOM     24  C   UNL A   1      44.993  19.639  24.224  1.00  0.00     0.338 C 
ATOM     25  O   UNL A   1      45.955  19.163  23.649  1.00  0.00    -0.246 OA
BRANCH  24  26
ATOM     26  C   UNL A   1      44.977  21.016  24.737  1.00  0.00     0.060 A 
ATOM     27  C   UNL A   1      44.719  22.055  23.840  1.00  0.00     0.016 A 
ATOM     28  C   UNL A   1      45.300  21.285  26.066  1.00  0.00     0.016 A 
ATOM     29  C   UNL A   1      44.793  23.378  24.265  1.00  0.00     0.010 A 
ATOM     30  C   UNL A   1      45.367  22.614  26.495  1.00  0.00     0.010 A 
ATOM     31  C   UNL A   1      45.128  23.667  25.593  1.00  0.00    -0.014 A 
BRANCH  31  32
ATOM     32  C   UNL A   1      45.276  25.075  26.029  1.00  0.00     0.031 A 
ATOM     33  C   UNL A   1      46.614  25.747  25.934  1.00  0.00     0.074 A 
ATOM     34  C   UNL A   1      44.210  25.748  26.497  1.00  0.00     0.049 A 
ATOM     35  N   UNL A   1      46.976  26.935  26.346  1.00  0.00    -0.248 NA
ATOM     36  C   UNL A   1      47.692  24.979  25.291  1.00  0.00     0.031 C 
ATOM     37  C   UNL A   1      42.851  25.216  26.592  1.00  0.00     0.029 A 
ATOM     38  N   UNL A   1      44.106  27.025  26.988  1.00  0.00    -0.354 N 
ATOM     39  C   UNL A   1      48.325  27.046  26.038  1.00  0.00     0.074 A 
ATOM     40  C   UNL A   1      48.721  25.805  25.409  1.00  0.00     0.031 C 
ATOM     41  C   UNL A   1      42.048  26.160  27.111  1.00  0.00     0.029 A 
ATOM     42  C   UNL A   1      42.843  27.342  27.426  1.00  0.00     0.049 A 
ATOM     43  H   UNL A   1      44.863  27.653  27.022  1.00  0.00     0.167 HD
ATOM     44  C   UNL A   1      49.155  28.093  26.265  1.00  0.00     0.037 A 
ATOM     45  C   UNL A   1      42.391  28.453  28.039  1.00  0.00     0.037 A 
ATOM     46  C   UNL A   1      48.749  29.337  26.863  1.00  0.00     0.049 A 
ATOM     47  C   UNL A   1      43.348  29.578  28.323  1.00  0.00     0.074 A 
ATOM     48  C   UNL A   1      49.508  30.470  27.099  1.00  0.00     0.029 A 
ATOM     49  N   UNL A   1      47.468  29.611  27.321  1.00  0.00    -0.354 N 
ATOM     50  N   UNL A   1      44.620  29.679  28.024  1.00  0.00    -0.248 NA
ATOM     51  C   UNL A   1      42.807  30.743  29.039  1.00  0.00     0.031 C 
ATOM     52  C   UNL A   1      48.697  31.416  27.734  1.00  0.00     0.029 A 
ATOM     53  C   UNL A   1      47.423  30.887  27.859  1.00  0.00     0.049 A 
ATOM     54  H   UNL A   1      46.706  28.991  27.270  1.00  0.00     0.167 HD
ATOM     55  C   UNL A   1      45.025  30.921  28.492  1.00  0.00     0.074 A 
ATOM     56  C   UNL A   1      43.862  31.544  29.087  1.00  0.00     0.031 C 
ATOM     57  C   UNL A   1      46.253  31.494  28.435  1.00  0.00     0.037 A 
BRANCH  44  58
ATOM     58  C   UNL A   1      50.596  27.931  25.890  1.00  0.00     0.064 A 
ATOM     59  C   UNL A   1      51.042  28.116  24.574  1.00  0.00     0.173 A 
ATOM     60  C   UNL A   1      51.551  27.640  26.876  1.00  0.00     0.173 A 
ATOM     61  F   UNL A   1      50.164  28.382  23.595  1.00  0.00    -0.203 F 
ATOM     62  C   UNL A   1      52.392  28.001  24.255  1.00  0.00     0.198 A 
ATOM     63  C   UNL A   1      52.902  27.546  26.557  1.00  0.00     0.198 A 
ATOM     64  F   UNL A   1      51.173  27.457  28.150  1.00  0.00    -0.203 F 
ATOM     65  F   UNL A   1      52.795  28.151  22.986  1.00  0.00    -0.200 F 
ATOM     66  C   UNL A   1      53.322  27.724  25.247  1.00  0.00     0.200 A 
ATOM     67  F   UNL A   1      53.800  27.288  27.518  1.00  0.00    -0.200 F 
ATOM     68  F   UNL A   1      54.623  27.624  24.940  1.00  0.00    -0.200 F 
ENDBRANCH  44  58
BRANCH  45  69
ATOM     69  C   UNL A   1      40.966  28.549  28.447  1.00  0.00     0.064 A 
ATOM     70  C   UNL A   1      39.997  29.041  27.563  1.00  0.00     0.173 A 
ATOM     71  C   UNL A   1      40.551  28.174  29.733  1.00  0.00     0.173 A 
ATOM     72  F   UNL A   1      40.353  29.438  26.332  1.00  0.00    -0.203 F 
ATOM     73  C   UNL A   1      38.666  29.168  27.955  1.00  0.00     0.198 A 
ATOM     74  C   UNL A   1      39.216  28.279  30.115  1.00  0.00     0.198 A 
ATOM     75  F   UNL A   1      41.442  27.703  30.617  1.00  0.00    -0.203 F 
ATOM     76  F   UNL A   1      37.767  29.684  27.106  1.00  0.00    -0.200 F 
ATOM     77  C   UNL A   1      38.276  28.782  29.228  1.00  0.00     0.200 A 
ATOM     78  F   UNL A   1      38.840  27.897  31.344  1.00  0.00    -0.200 F 
ATOM     79  F   UNL A   1      36.996  28.906  29.605  1.00  0.00    -0.200 F 
ENDBRANCH  45  69
BRANCH  57  80
ATOM     80  C   UNL A   1      46.389  32.876  28.998  1.00  0.00     0.064 A 
ATOM     81  C   UNL A   1      46.764  33.090  30.331  1.00  0.00     0.173 A 
ATOM     82  C   UNL A   1      46.180  33.998  28.182  1.00  0.00     0.173 A 
ATOM     83  F   UNL A   1      46.958  32.048  31.153  1.00  0.00    -0.203 F 
ATOM     84  C   UNL A   1      46.907  34.381  30.834  1.00  0.00     0.198 A 
ATOM     85  C   UNL A   1      46.346  35.286  28.681  1.00  0.00     0.198 A 
ATOM     86  F   UNL A   1      45.824  33.843  26.897  1.00  0.00    -0.203 F 
ATOM     87  F   UNL A   1      47.228  34.564  32.122  1.00  0.00    -0.200 F 
ATOM     88  C   UNL A   1      46.704  35.476  30.008  1.00  0.00     0.200 A 
ATOM     89  F   UNL A   1      46.160  36.344  27.880  1.00  0.00    -0.200 F 
ATOM     90  F   UNL A   1      46.847  36.718  30.493  1.00  0.00    -0.200 F 
ENDBRANCH  57  80
ENDBRANCH  31  32
ENDBRANCH  24  26
ENDBRANCH  23  24
ENDBRANCH  22  23
ENDBRANCH   1  22
TORSDOF 14
ENDMDL
MODEL 2
REMARK VINA RESULT:     -11.4      5.111      9.696
REMARK SMILES C/C=C/c1cncc(-c2ccc([C@@H](C)C(=O)OCCOC(=O)c3ccc(-c4c5nc(c(-c6c(F)c(F)c(F)c(F)c6F)c6ccc([nH]6)c(-c6c(F)c(F)c(F)c(F)c6F)c6nc(c(-c7c(F)c(F)c(F)c(F)c7F)c7ccc4[nH]7)C=C6)C=C5)cc3)cc2)c1
REMARK SMILES IDX 18 1 17 2 15 3 16 4 13 5 14 6 12 7 9 8 10 9 87 10 11 11
REMARK SMILES IDX 86 12 8 13 4 14 5 15 88 16 6 17 7 18 3 19 1 20 2 21 19 22
REMARK SMILES IDX 20 23 21 24 22 25 23 26 24 27 85 28 25 29 84 30 26 31 27 32
REMARK SMILES IDX 28 33 78 34 29 35 83 36 77 37 79 38 30 39 82 40 76 41 75 42
REMARK SMILES IDX 31 44 63 45 43 46 62 47 44 48 47 49 61 50 80 51 45 52 46 53
REMARK SMILES IDX 60 55 81 56 48 57 32 58 33 59 41 60 34 61 35 62 39 63 42 64
REMARK SMILES IDX 36 65 37 66 40 67 38 68 64 69 65 70 73 71 66 72 67 73 71 74
REMARK SMILES IDX 74 75 68 76 69 77 72 78 70 79 49 80 50 81 58 82 51 83 52 84
REMARK SMILES IDX 56 85 59 86 53 87 54 88 57 89 55 90
REMARK H PARENT 79 43 47 54
REMARK Flexibility Score: inf
ROOT
ATOM      1  C   UNL A   1      43.746  21.810  25.147  1.00  0.00     0.274 C 
ENDROOT
BRANCH   1   2
ATOM      2  O   UNL A   1      42.341  21.946  25.432  1.00  0.00    -0.462 OA
BRANCH   2   3
ATOM      3  C   UNL A   1      41.945  21.672  26.701  1.00  0.00     0.313 C 
ATOM      4  O   UNL A   1      42.614  21.914  27.702  1.00  0.00    -0.252 OA
BRANCH   3   5
ATOM      5  C   UNL A   1      40.593  20.978  26.785  1.00  0.00     0.126 C 
ATOM      6  C   UNL A   1      40.710  19.552  26.248  1.00  0.00     0.025 C 
BRANCH   5   7
ATOM      7  C   UNL A   1      39.415  21.732  26.185  1.00  0.00    -0.034 A 
ATOM      8  C   UNL A   1      37.139  23.134  25.205  1.00  0.00    -0.017 A 
ATOM      9  C   UNL A   1      37.416  21.818  24.801  1.00  0.00     0.009 A 
ATOM     10  C   UNL A   1      38.050  23.753  26.071  1.00  0.00     0.009 A 
ATOM     11  C   UNL A   1      38.531  21.126  25.286  1.00  0.00     0.005 A 
ATOM     12  C   UNL A   1      39.169  23.063  26.557  1.00  0.00     0.005 A 
BRANCH   8  13
ATOM     13  C   UNL A   1      35.896  23.804  24.790  1.00  0.00     0.001 A 
ATOM     14  C   UNL A   1      33.857  25.063  25.235  1.00  0.00    -0.007 A 
ATOM     15  C   UNL A   1      33.561  24.946  23.879  1.00  0.00     0.119 A 
ATOM     16  C   UNL A   1      35.045  24.472  25.687  1.00  0.00     0.020 A 
ATOM     17  N   UNL A   1      34.344  24.318  22.975  1.00  0.00    -0.263 NA
ATOM     18  C   UNL A   1      35.482  23.767  23.454  1.00  0.00     0.119 A 
BRANCH  14  19
ATOM     19  C   UNL A   1      32.893  25.732  26.116  1.00  0.00     0.005 C 
ATOM     20  C   UNL A   1      31.614  27.688  26.990  1.00  0.00     0.035 C 
ATOM     21  C   UNL A   1      32.643  27.050  26.112  1.00  0.00    -0.030 C 
ENDBRANCH  14  19
ENDBRANCH   8  13
ENDBRANCH   5   7
ENDBRANCH   3   5
ENDBRANCH   2   3
ENDBRANCH   1   2
BRANCH   1  22
ATOM     22  C   UNL A   1      44.252  22.973  24.291  1.00  0.00     0.275 C 
BRANCH  22  23
ATOM     23  O   UNL A   1      43.573  24.198  24.627  1.00  0.00    -0.458 OA
BRANCH  23  24
ATOM     24  C   UNL A   1      44.362  25.180  25.118  1.00  0.00     0.338 C 
ATOM     25  O   UNL A   1      45.453  25.537  24.713  1.00  0.00    -0.246 OA
BRANCH  24  26
ATOM     26  C   UNL A   1      43.656  25.868  26.208  1.00  0.00     0.060 A 
ATOM     27  C   UNL A   1      44.048  27.167  26.536  1.00  0.00     0.016 A 
ATOM     28  C   UNL A   1      42.682  25.206  26.956  1.00  0.00     0.016 A 
ATOM     29  C   UNL A   1      43.473  27.815  27.626  1.00  0.00     0.010 A 
ATOM     30  C   UNL A   1      42.100  25.860  28.046  1.00  0.00     0.010 A 
ATOM     31  C   UNL A   1      42.503  27.162  28.394  1.00  0.00    -0.014 A 
BRANCH  31  32
ATOM     32  C   UNL A   1      41.942  27.824  29.596  1.00  0.00     0.031 A 
ATOM     33  C   UNL A   1      40.661  28.597  29.490  1.00  0.00     0.074 A 
ATOM     34  C   UNL A   1      42.579  27.722  30.776  1.00  0.00     0.049 A 
ATOM     35  N   UNL A   1      40.055  29.324  30.393  1.00  0.00    -0.248 NA
ATOM     36  C   UNL A   1      39.968  28.548  28.192  1.00  0.00     0.031 C 
ATOM     37  C   UNL A   1      43.804  26.960  31.011  1.00  0.00     0.029 A 
ATOM     38  N   UNL A   1      42.284  28.268  31.999  1.00  0.00    -0.354 N 
ATOM     39  C   UNL A   1      38.928  29.840  29.769  1.00  0.00     0.074 A 
ATOM     40  C   UNL A   1      38.933  29.348  28.408  1.00  0.00     0.031 C 
ATOM     41  C   UNL A   1      44.158  27.088  32.300  1.00  0.00     0.029 A 
ATOM     42  C   UNL A   1      43.211  27.976  32.969  1.00  0.00     0.049 A 
ATOM     43  H   UNL A   1      41.483  28.817  32.166  1.00  0.00     0.167 HD
ATOM     44  C   UNL A   1      37.977  30.653  30.289  1.00  0.00     0.037 A 
ATOM     45  C   UNL A   1      43.299  28.402  34.243  1.00  0.00     0.037 A 
ATOM     46  C   UNL A   1      37.959  31.114  31.652  1.00  0.00     0.049 A 
ATOM     47  C   UNL A   1      42.255  29.345  34.777  1.00  0.00     0.074 A 
ATOM     48  C   UNL A   1      37.017  31.909  32.281  1.00  0.00     0.029 A 
ATOM     49  N   UNL A   1      38.931  30.820  32.596  1.00  0.00    -0.354 N 
ATOM     50  N   UNL A   1      41.189  29.823  34.183  1.00  0.00    -0.248 NA
ATOM     51  C   UNL A   1      42.432  29.815  36.159  1.00  0.00     0.031 C 
ATOM     52  C   UNL A   1      37.438  32.128  33.597  1.00  0.00     0.029 A 
ATOM     53  C   UNL A   1      38.623  31.438  33.797  1.00  0.00     0.049 A 
ATOM     54  H   UNL A   1      39.722  30.257  32.436  1.00  0.00     0.167 HD
ATOM     55  C   UNL A   1      40.558  30.628  35.120  1.00  0.00     0.074 A 
ATOM     56  C   UNL A   1      41.354  30.567  36.328  1.00  0.00     0.031 C 
ATOM     57  C   UNL A   1      39.421  31.355  34.992  1.00  0.00     0.037 A 
BRANCH  44  58
ATOM     58  C   UNL A   1      36.887  31.121  29.374  1.00  0.00     0.064 A 
ATOM     59  C   UNL A   1      35.840  30.277  28.979  1.00  0.00     0.173 A 
ATOM     60  C   UNL A   1      36.864  32.453  28.931  1.00  0.00     0.173 A 
ATOM     61  F   UNL A   1      35.827  28.992  29.365  1.00  0.00    -0.203 F 
ATOM     62  C   UNL A   1      34.815  30.744  28.162  1.00  0.00     0.198 A 
ATOM     63  C   UNL A   1      35.826  32.922  28.131  1.00  0.00     0.198 A 
ATOM     64  F   UNL A   1      37.842  33.299  29.285  1.00  0.00    -0.203 F 
ATOM     65  F   UNL A   1      33.840  29.913  27.770  1.00  0.00    -0.200 F 
ATOM     66  C   UNL A   1      34.805  32.068  27.745  1.00  0.00     0.200 A 
ATOM     67  F   UNL A   1      35.813  34.203  27.738  1.00  0.00    -0.200 F 
ATOM     68  F   UNL A   1      33.812  32.519  26.966  1.00  0.00    -0.200 F 
ENDBRANCH  44  58
BRANCH  45  69
ATOM     69  C   UNL A   1      44.428  27.959  35.099  1.00  0.00     0.064 A 
ATOM     70  C   UNL A   1      44.344  26.777  35.847  1.00  0.00     0.173 A 
ATOM     71  C   UNL A   1      45.603  28.718  35.204  1.00  0.00     0.173 A 
ATOM     72  F   UNL A   1      43.228  26.033  35.799  1.00  0.00    -0.203 F 
ATOM     73  C   UNL A   1      45.387  26.378  36.680  1.00  0.00     0.198 A 
ATOM     74  C   UNL A   1      46.654  28.305  36.019  1.00  0.00     0.198 A 
ATOM     75  F   UNL A   1      45.730  29.860  34.514  1.00  0.00    -0.203 F 
ATOM     76  F   UNL A   1      45.263  25.268  37.420  1.00  0.00    -0.200 F 
ATOM     77  C   UNL A   1      46.543  27.139  36.761  1.00  0.00     0.200 A 
ATOM     78  F   UNL A   1      47.773  29.040  36.089  1.00  0.00    -0.200 F 
ATOM     79  F   UNL A   1      47.544  26.756  37.564  1.00  0.00    -0.200 F 
ENDBRANCH  45  69
BRANCH  57  80
ATOM     80  C   UNL A   1      38.953  32.111  36.198  1.00  0.00     0.064 A 
ATOM     81  C   UNL A   1      38.128  31.515  37.161  1.00  0.00     0.173 A 
ATOM     82  C   UNL A   1      39.368  33.434  36.411  1.00  0.00     0.173 A 
ATOM     83  F   UNL A   1      37.692  30.258  36.991  1.00  0.00    -0.203 F 
ATOM     84  C   UNL A   1      37.718  32.224  38.288  1.00  0.00     0.198 A 
ATOM     85  C   UNL A   1      38.976  34.132  37.549  1.00  0.00     0.198 A 
ATOM     86  F   UNL A   1      40.163  34.045  35.519  1.00  0.00    -0.203 F 
ATOM     87  F   UNL A   1      36.898  31.650  39.177  1.00  0.00    -0.200 F 
ATOM     88  C   UNL A   1      38.148  33.528  38.483  1.00  0.00     0.200 A 
ATOM     89  F   UNL A   1      39.399  35.389  37.742  1.00  0.00    -0.200 F 
ATOM     90  F   UNL A   1      37.756  34.207  39.571  1.00  0.00    -0.200 F 
ENDBRANCH  57  80
ENDBRANCH  31  32
ENDBRANCH  24  26
ENDBRANCH  23  24
ENDBRANCH  22  23
ENDBRANCH   1  22
TORSDOF 14
ENDMDL
MODEL 3
REMARK VINA RESULT:     -11.4      7.467     12.802
REMARK SMILES C/C=C/c1cncc(-c2ccc([C@@H](C)C(=O)OCCOC(=O)c3ccc(-c4c5nc(c(-c6c(F)c(F)c(F)c(F)c6F)c6ccc([nH]6)c(-c6c(F)c(F)c(F)c(F)c6F)c6nc(c(-c7c(F)c(F)c(F)c(F)c7F)c7ccc4[nH]7)C=C6)C=C5)cc3)cc2)c1
REMARK SMILES IDX 18 1 17 2 15 3 16 4 13 5 14 6 12 7 9 8 10 9 87 10 11 11
REMARK SMILES IDX 86 12 8 13 4 14 5 15 88 16 6 17 7 18 3 19 1 20 2 21 19 22
REMARK SMILES IDX 20 23 21 24 22 25 23 26 24 27 85 28 25 29 84 30 26 31 27 32
REMARK SMILES IDX 28 33 78 34 29 35 83 36 77 37 79 38 30 39 82 40 76 41 75 42
REMARK SMILES IDX 31 44 63 45 43 46 62 47 44 48 47 49 61 50 80 51 45 52 46 53
REMARK SMILES IDX 60 55 81 56 48 57 32 58 33 59 41 60 34 61 35 62 39 63 42 64
REMARK SMILES IDX 36 65 37 66 40 67 38 68 64 69 65 70 73 71 66 72 67 73 71 74
REMARK SMILES IDX 74 75 68 76 69 77 72 78 70 79 49 80 50 81 58 82 51 83 52 84
REMARK SMILES IDX 56 85 59 86 53 87 54 88 57 89 55 90
REMARK H PARENT 79 43 47 54
REMARK Flexibility Score: inf
ROOT
ATOM      1  C   UNL A   1      33.713  36.098  29.024  1.00  0.00     0.274 C 
ENDROOT
BRANCH   1   2
ATOM      2  O   UNL A   1      34.251  34.784  29.263  1.00  0.00    -0.462 OA
BRANCH   2   3
ATOM      3  C   UNL A   1      34.871  34.178  28.219  1.00  0.00     0.313 C 
ATOM      4  O   UNL A   1      34.850  34.594  27.065  1.00  0.00    -0.252 OA
BRANCH   3   5
ATOM      5  C   UNL A   1      35.572  32.879  28.595  1.00  0.00     0.126 C 
ATOM      6  C   UNL A   1      37.068  32.995  28.302  1.00  0.00     0.025 C 
BRANCH   5   7
ATOM      7  C   UNL A   1      34.965  31.603  28.030  1.00  0.00    -0.034 A 
ATOM      8  C   UNL A   1      33.757  29.193  27.113  1.00  0.00    -0.017 A 
ATOM      9  C   UNL A   1      35.135  29.267  27.370  1.00  0.00     0.009 A 
ATOM     10  C   UNL A   1      33.002  30.362  27.278  1.00  0.00     0.009 A 
ATOM     11  C   UNL A   1      35.729  30.449  27.825  1.00  0.00     0.005 A 
ATOM     12  C   UNL A   1      33.595  31.548  27.731  1.00  0.00     0.005 A 
BRANCH   8  13
ATOM     13  C   UNL A   1      33.124  27.912  26.761  1.00  0.00     0.001 A 
ATOM     14  C   UNL A   1      33.125  25.700  25.738  1.00  0.00    -0.007 A 
ATOM     15  C   UNL A   1      31.783  25.598  26.100  1.00  0.00     0.119 A 
ATOM     16  C   UNL A   1      33.794  26.885  26.075  1.00  0.00     0.020 A 
ATOM     17  N   UNL A   1      31.094  26.553  26.761  1.00  0.00    -0.263 NA
ATOM     18  C   UNL A   1      31.780  27.677  27.069  1.00  0.00     0.119 A 
BRANCH  14  19
ATOM     19  C   UNL A   1      33.740  24.605  24.979  1.00  0.00     0.005 C 
ATOM     20  C   UNL A   1      35.649  23.327  24.006  1.00  0.00     0.035 C 
ATOM     21  C   UNL A   1      35.055  24.487  24.739  1.00  0.00    -0.030 C 
ENDBRANCH  14  19
ENDBRANCH   8  13
ENDBRANCH   5   7
ENDBRANCH   3   5
ENDBRANCH   2   3
ENDBRANCH   1   2
BRANCH   1  22
ATOM     22  C   UNL A   1      32.578  36.417  29.999  1.00  0.00     0.275 C 
BRANCH  22  23
ATOM     23  O   UNL A   1      33.079  36.598  31.336  1.00  0.00    -0.458 OA
BRANCH  23  24
ATOM     24  C   UNL A   1      32.693  35.658  32.229  1.00  0.00     0.338 C 
ATOM     25  O   UNL A   1      31.561  35.355  32.556  1.00  0.00    -0.246 OA
BRANCH  24  26
ATOM     26  C   UNL A   1      33.879  34.940  32.717  1.00  0.00     0.060 A 
ATOM     27  C   UNL A   1      35.129  35.543  32.562  1.00  0.00     0.016 A 
ATOM     28  C   UNL A   1      33.768  33.651  33.237  1.00  0.00     0.016 A 
ATOM     29  C   UNL A   1      36.285  34.854  32.919  1.00  0.00     0.010 A 
ATOM     30  C   UNL A   1      34.929  32.962  33.602  1.00  0.00     0.010 A 
ATOM     31  C   UNL A   1      36.193  33.554  33.432  1.00  0.00    -0.014 A 
BRANCH  31  32
ATOM     32  C   UNL A   1      37.426  32.795  33.745  1.00  0.00     0.031 A 
ATOM     33  C   UNL A   1      38.154  33.055  35.030  1.00  0.00     0.074 A 
ATOM     34  C   UNL A   1      37.881  31.869  32.882  1.00  0.00     0.049 A 
ATOM     35  N   UNL A   1      39.295  32.570  35.450  1.00  0.00    -0.248 NA
ATOM     36  C   UNL A   1      37.515  33.990  35.971  1.00  0.00     0.031 C 
ATOM     37  C   UNL A   1      37.234  31.497  31.625  1.00  0.00     0.029 A 
ATOM     38  N   UNL A   1      39.001  31.079  32.930  1.00  0.00    -0.354 N 
ATOM     39  C   UNL A   1      39.524  33.158  36.686  1.00  0.00     0.074 A 
ATOM     40  C   UNL A   1      38.408  34.041  36.950  1.00  0.00     0.031 C 
ATOM     41  C   UNL A   1      37.968  30.549  31.019  1.00  0.00     0.029 A 
ATOM     42  C   UNL A   1      39.158  30.283  31.822  1.00  0.00     0.049 A 
ATOM     43  H   UNL A   1      39.632  31.081  33.687  1.00  0.00     0.167 HD
ATOM     44  C   UNL A   1      40.574  32.976  37.521  1.00  0.00     0.037 A 
ATOM     45  C   UNL A   1      40.165  29.455  31.483  1.00  0.00     0.037 A 
ATOM     46  C   UNL A   1      41.667  32.074  37.269  1.00  0.00     0.049 A 
ATOM     47  C   UNL A   1      41.343  29.313  32.409  1.00  0.00     0.074 A 
ATOM     48  C   UNL A   1      42.757  31.793  38.073  1.00  0.00     0.029 A 
ATOM     49  N   UNL A   1      41.806  31.306  36.122  1.00  0.00    -0.354 N 
ATOM     50  N   UNL A   1      41.549  29.867  33.578  1.00  0.00    -0.248 NA
ATOM     51  C   UNL A   1      42.434  28.434  31.961  1.00  0.00     0.031 C 
ATOM     52  C   UNL A   1      43.577  30.883  37.397  1.00  0.00     0.029 A 
ATOM     53  C   UNL A   1      42.976  30.568  36.188  1.00  0.00     0.049 A 
ATOM     54  H   UNL A   1      41.167  31.288  35.374  1.00  0.00     0.167 HD
ATOM     55  C   UNL A   1      42.777  29.389  34.016  1.00  0.00     0.074 A 
ATOM     56  C   UNL A   1      43.266  28.491  32.991  1.00  0.00     0.031 C 
ATOM     57  C   UNL A   1      43.440  29.670  35.164  1.00  0.00     0.037 A 
BRANCH  44  58
ATOM     58  C   UNL A   1      40.611  33.789  38.779  1.00  0.00     0.064 A 
ATOM     59  C   UNL A   1      39.987  33.355  39.957  1.00  0.00     0.173 A 
ATOM     60  C   UNL A   1      41.329  34.994  38.818  1.00  0.00     0.173 A 
ATOM     61  F   UNL A   1      39.278  32.216  39.966  1.00  0.00    -0.203 F 
ATOM     62  C   UNL A   1      40.069  34.106  41.127  1.00  0.00     0.198 A 
ATOM     63  C   UNL A   1      41.425  35.732  39.994  1.00  0.00     0.198 A 
ATOM     64  F   UNL A   1      41.944  35.449  37.717  1.00  0.00    -0.203 F 
ATOM     65  F   UNL A   1      39.440  33.689  42.235  1.00  0.00    -0.200 F 
ATOM     66  C   UNL A   1      40.793  35.289  41.146  1.00  0.00     0.200 A 
ATOM     67  F   UNL A   1      42.133  36.869  40.013  1.00  0.00    -0.200 F 
ATOM     68  F   UNL A   1      40.879  36.006  42.275  1.00  0.00    -0.200 F 
ENDBRANCH  44  58
BRANCH  45  69
ATOM     69  C   UNL A   1      40.117  28.712  30.199  1.00  0.00     0.064 A 
ATOM     70  C   UNL A   1      39.499  27.457  30.117  1.00  0.00     0.173 A 
ATOM     71  C   UNL A   1      40.706  29.230  29.036  1.00  0.00     0.173 A 
ATOM     72  F   UNL A   1      38.947  26.910  31.211  1.00  0.00    -0.203 F 
ATOM     73  C   UNL A   1      39.485  26.740  28.922  1.00  0.00     0.198 A 
ATOM     74  C   UNL A   1      40.669  28.523  27.837  1.00  0.00     0.198 A 
ATOM     75  F   UNL A   1      41.314  30.424  29.065  1.00  0.00    -0.203 F 
ATOM     76  F   UNL A   1      38.928  25.522  28.881  1.00  0.00    -0.200 F 
ATOM     77  C   UNL A   1      40.064  27.276  27.782  1.00  0.00     0.200 A 
ATOM     78  F   UNL A   1      41.223  29.047  26.735  1.00  0.00    -0.200 F 
ATOM     79  F   UNL A   1      40.052  26.585  26.634  1.00  0.00    -0.200 F 
ENDBRANCH  45  69
BRANCH  57  80
ATOM     80  C   UNL A   1      44.747  28.971  35.387  1.00  0.00     0.064 A 
ATOM     81  C   UNL A   1      45.960  29.535  34.968  1.00  0.00     0.173 A 
ATOM     82  C   UNL A   1      44.788  27.744  36.065  1.00  0.00     0.173 A 
ATOM     83  F   UNL A   1      45.968  30.699  34.302  1.00  0.00    -0.203 F 
ATOM     84  C   UNL A   1      47.168  28.883  35.202  1.00  0.00     0.198 A 
ATOM     85  C   UNL A   1      45.998  27.106  36.318  1.00  0.00     0.198 A 
ATOM     86  F   UNL A   1      43.652  27.168  36.490  1.00  0.00    -0.203 F 
ATOM     87  F   UNL A   1      48.313  29.419  34.759  1.00  0.00    -0.200 F 
ATOM     88  C   UNL A   1      47.186  27.674  35.882  1.00  0.00     0.200 A 
ATOM     89  F   UNL A   1      46.016  25.943  36.982  1.00  0.00    -0.200 F 
ATOM     90  F   UNL A   1      48.351  27.051  36.110  1.00  0.00    -0.200 F 
ENDBRANCH  57  80
ENDBRANCH  31  32
ENDBRANCH  24  26
ENDBRANCH  23  24
ENDBRANCH  22  23
ENDBRANCH   1  22
TORSDOF 14
ENDMDL
