MODEL 1
REMARK VINA RESULT:     -11.7      0.000      0.000
REMARK SMILES CNc1cc(C(=O)N2CCC[C@@](CCOC)(C(=O)OCCOC(=O)c3ccc(-c4c5nc(c(-c6c(F)c(F)c(F)c(F)c6F)c6ccc([nH]6)c(-c6c(F)c(F)c(F)c(F)c6F)c6nc(c(-c7c(F)c(F)c(F)c(F)c7F)c7ccc4[nH]7)C=C6)C=C5)cc3)C2)ccn1
REMARK SMILES IDX 20 1 19 2 17 3 18 4 12 5 8 6 9 7 88 8 10 9 11 10 6 11 7 12
REMARK SMILES IDX 5 13 3 14 4 15 91 16 90 17 89 18 2 19 1 20 13 22 14 23 15 24
REMARK SMILES IDX 16 25 21 26 22 27 23 28 24 29 25 30 26 31 87 32 27 33 86 34
REMARK SMILES IDX 28 35 29 36 30 37 80 38 31 39 85 40 79 41 81 42 32 43 84 44
REMARK SMILES IDX 78 45 77 46 33 48 65 49 45 50 64 51 46 52 49 53 63 54 82 55
REMARK SMILES IDX 47 56 48 57 62 59 83 60 50 61 34 62 35 63 43 64 36 65 37 66
REMARK SMILES IDX 41 67 44 68 38 69 39 70 42 71 40 72 66 73 67 74 75 75 68 76
REMARK SMILES IDX 69 77 73 78 76 79 70 80 71 81 74 82 72 83 51 84 52 85 60 86
REMARK SMILES IDX 53 87 54 88 58 89 61 90 55 91 56 92 59 93 57 94
REMARK H PARENT 2 21 81 47 49 58
REMARK Flexibility Score: inf
ROOT
ATOM      1  C   UNL A   1      31.106  30.596  25.367  1.00  0.00     0.274 C 
ENDROOT
BRANCH   1   2
ATOM      2  O   UNL A   1      31.740  29.338  25.682  1.00  0.00    -0.462 OA
BRANCH   2   3
ATOM      3  C   UNL A   1      32.457  28.734  24.695  1.00  0.00     0.314 C 
ATOM      4  O   UNL A   1      33.110  29.336  23.848  1.00  0.00    -0.252 OA
BRANCH   3   5
ATOM      5  C   UNL A   1      32.366  27.202  24.739  1.00  0.00     0.088 C 
ATOM      6  N   UNL A   1      33.876  25.196  24.716  1.00  0.00    -0.337 N 
ATOM      7  C   UNL A   1      33.291  24.632  25.925  1.00  0.00     0.120 C 
ATOM      8  C   UNL A   1      33.812  26.654  24.557  1.00  0.00     0.138 C 
ATOM      9  C   UNL A   1      31.889  25.154  26.186  1.00  0.00     0.023 C 
ATOM     10  C   UNL A   1      31.843  26.678  26.099  1.00  0.00     0.022 C 
BRANCH   6  11
ATOM     11  C   UNL A   1      34.515  24.337  23.829  1.00  0.00     0.254 C 
ATOM     12  O   UNL A   1      34.366  24.394  22.612  1.00  0.00    -0.269 OA
BRANCH  11  13
ATOM     13  C   UNL A   1      35.301  23.211  24.382  1.00  0.00     0.045 A 
ATOM     14  C   UNL A   1      35.443  20.879  24.909  1.00  0.00     0.126 A 
ATOM     15  C   UNL A   1      34.674  21.979  24.575  1.00  0.00     0.060 A 
ATOM     16  N   UNL A   1      36.771  20.981  25.111  1.00  0.00    -0.240 NA
ATOM     17  C   UNL A   1      37.362  22.176  24.885  1.00  0.00     0.114 A 
ATOM     18  C   UNL A   1      36.679  23.314  24.507  1.00  0.00     0.034 A 
BRANCH  14  19
ATOM     19  N   UNL A   1      34.921  19.613  25.011  1.00  0.00    -0.373 N 
ATOM     20  C   UNL A   1      33.507  19.366  24.872  1.00  0.00     0.141 C 
ATOM     21  H   UNL A   1      35.527  18.855  25.182  1.00  0.00     0.161 HD
ENDBRANCH  14  19
ENDBRANCH  11  13
ENDBRANCH   6  11
BRANCH   5  22
ATOM     22  C   UNL A   1      31.498  26.747  23.525  1.00  0.00     0.049 C 
BRANCH  22  23
ATOM     23  C   UNL A   1      30.182  27.503  23.342  1.00  0.00     0.161 C 
BRANCH  23  24
ATOM     24  O   UNL A   1      30.196  28.201  22.102  1.00  0.00    -0.385 OA
ATOM     25  C   UNL A   1      29.533  29.455  22.183  1.00  0.00     0.194 C 
ENDBRANCH  23  24
ENDBRANCH  22  23
ENDBRANCH   5  22
ENDBRANCH   3   5
ENDBRANCH   2   3
ENDBRANCH   1   2
BRANCH   1  26
ATOM     26  C   UNL A   1      31.364  31.614  26.475  1.00  0.00     0.275 C 
BRANCH  26  27
ATOM     27  O   UNL A   1      32.661  31.362  27.042  1.00  0.00    -0.458 OA
BRANCH  27  28
ATOM     28  C   UNL A   1      33.338  32.451  27.456  1.00  0.00     0.338 C 
ATOM     29  O   UNL A   1      32.922  33.589  27.620  1.00  0.00    -0.246 OA
BRANCH  28  30
ATOM     30  C   UNL A   1      34.673  32.021  27.874  1.00  0.00     0.060 A 
ATOM     31  C   UNL A   1      34.848  30.665  28.138  1.00  0.00     0.016 A 
ATOM     32  C   UNL A   1      35.701  32.929  28.111  1.00  0.00     0.016 A 
ATOM     33  C   UNL A   1      36.019  30.214  28.726  1.00  0.00     0.010 A 
ATOM     34  C   UNL A   1      36.916  32.461  28.629  1.00  0.00     0.010 A 
ATOM     35  C   UNL A   1      37.071  31.105  28.978  1.00  0.00    -0.014 A 
BRANCH  35  36
ATOM     36  C   UNL A   1      38.276  30.614  29.699  1.00  0.00     0.031 A 
ATOM     37  C   UNL A   1      38.458  30.951  31.155  1.00  0.00     0.074 A 
ATOM     38  C   UNL A   1      39.119  29.743  29.109  1.00  0.00     0.049 A 
ATOM     39  N   UNL A   1      39.445  30.648  31.961  1.00  0.00    -0.248 NA
ATOM     40  C   UNL A   1      37.367  31.699  31.805  1.00  0.00     0.031 C 
ATOM     41  C   UNL A   1      38.971  29.220  27.751  1.00  0.00     0.029 A 
ATOM     42  N   UNL A   1      40.218  29.080  29.601  1.00  0.00    -0.354 N 
ATOM     43  C   UNL A   1      39.124  31.216  33.187  1.00  0.00     0.074 A 
ATOM     44  C   UNL A   1      37.840  31.863  33.032  1.00  0.00     0.031 C 
ATOM     45  C   UNL A   1      39.871  28.243  27.557  1.00  0.00     0.029 A 
ATOM     46  C   UNL A   1      40.725  28.140  28.735  1.00  0.00     0.049 A 
ATOM     47  H   UNL A   1      40.605  29.261  30.488  1.00  0.00     0.167 HD
ATOM     48  C   UNL A   1      39.841  31.201  34.334  1.00  0.00     0.037 A 
ATOM     49  C   UNL A   1      41.768  27.300  28.871  1.00  0.00     0.037 A 
ATOM     50  C   UNL A   1      41.094  30.513  34.500  1.00  0.00     0.049 A 
ATOM     51  C   UNL A   1      42.593  27.368  30.128  1.00  0.00     0.074 A 
ATOM     52  C   UNL A   1      41.940  30.508  35.595  1.00  0.00     0.029 A 
ATOM     53  N   UNL A   1      41.666  29.683  33.548  1.00  0.00    -0.354 N 
ATOM     54  N   UNL A   1      42.360  28.025  31.238  1.00  0.00    -0.248 NA
ATOM     55  C   UNL A   1      43.851  26.608  30.132  1.00  0.00     0.031 C 
ATOM     56  C   UNL A   1      43.040  29.696  35.294  1.00  0.00     0.029 A 
ATOM     57  C   UNL A   1      42.859  29.167  34.027  1.00  0.00     0.049 A 
ATOM     58  H   UNL A   1      41.281  29.489  32.663  1.00  0.00     0.167 HD
ATOM     59  C   UNL A   1      43.444  27.767  32.067  1.00  0.00     0.074 A 
ATOM     60  C   UNL A   1      44.312  26.855  31.350  1.00  0.00     0.031 C 
ATOM     61  C   UNL A   1      43.710  28.262  33.299  1.00  0.00     0.037 A 
BRANCH  48  62
ATOM     62  C   UNL A   1      39.321  32.014  35.479  1.00  0.00     0.064 A 
ATOM     63  C   UNL A   1      38.497  31.466  36.470  1.00  0.00     0.173 A 
ATOM     64  C   UNL A   1      39.675  33.368  35.591  1.00  0.00     0.173 A 
ATOM     65  F   UNL A   1      38.112  30.183  36.393  1.00  0.00    -0.203 F 
ATOM     66  C   UNL A   1      38.030  32.249  37.525  1.00  0.00     0.198 A 
ATOM     67  C   UNL A   1      39.225  34.142  36.657  1.00  0.00     0.198 A 
ATOM     68  F   UNL A   1      40.460  33.939  34.665  1.00  0.00    -0.203 F 
ATOM     69  F   UNL A   1      37.209  31.717  38.441  1.00  0.00    -0.200 F 
ATOM     70  C   UNL A   1      38.400  33.583  37.620  1.00  0.00     0.200 A 
ATOM     71  F   UNL A   1      39.588  35.429  36.748  1.00  0.00    -0.200 F 
ATOM     72  F   UNL A   1      37.951  34.334  38.635  1.00  0.00    -0.200 F 
ENDBRANCH  48  62
BRANCH  49  73
ATOM     73  C   UNL A   1      42.123  26.347  27.784  1.00  0.00     0.064 A 
ATOM     74  C   UNL A   1      43.084  26.682  26.819  1.00  0.00     0.173 A 
ATOM     75  C   UNL A   1      41.494  25.099  27.665  1.00  0.00     0.173 A 
ATOM     76  F   UNL A   1      43.684  27.881  26.860  1.00  0.00    -0.203 F 
ATOM     77  C   UNL A   1      43.396  25.809  25.778  1.00  0.00     0.198 A 
ATOM     78  C   UNL A   1      41.832  24.212  26.645  1.00  0.00     0.198 A 
ATOM     79  F   UNL A   1      40.551  24.734  28.546  1.00  0.00    -0.203 F 
ATOM     80  F   UNL A   1      44.279  26.177  24.839  1.00  0.00    -0.200 F 
ATOM     81  C   UNL A   1      42.778  24.571  25.698  1.00  0.00     0.200 A 
ATOM     82  F   UNL A   1      41.234  23.015  26.575  1.00  0.00    -0.200 F 
ATOM     83  F   UNL A   1      43.079  23.732  24.698  1.00  0.00    -0.200 F 
ENDBRANCH  49  73
BRANCH  61  84
ATOM     84  C   UNL A   1      44.992  27.834  33.948  1.00  0.00     0.064 A 
ATOM     85  C   UNL A   1      45.061  26.660  34.714  1.00  0.00     0.173 A 
ATOM     86  C   UNL A   1      46.170  28.573  33.767  1.00  0.00     0.173 A 
ATOM     87  F   UNL A   1      43.958  25.927  34.926  1.00  0.00    -0.203 F 
ATOM     88  C   UNL A   1      46.259  26.254  35.293  1.00  0.00     0.198 A 
ATOM     89  C   UNL A   1      47.373  28.150  34.326  1.00  0.00     0.198 A 
ATOM     90  F   UNL A   1      46.157  29.698  33.036  1.00  0.00    -0.203 F 
ATOM     91  F   UNL A   1      46.295  25.151  36.053  1.00  0.00    -0.200 F 
ATOM     92  C   UNL A   1      47.416  26.995  35.093  1.00  0.00     0.200 A 
ATOM     93  F   UNL A   1      48.491  28.860  34.122  1.00  0.00    -0.200 F 
ATOM     94  F   UNL A   1      48.570  26.598  35.645  1.00  0.00    -0.200 F 
ENDBRANCH  61  84
ENDBRANCH  35  36
ENDBRANCH  28  30
ENDBRANCH  27  28
ENDBRANCH  26  27
ENDBRANCH   1  26
TORSDOF 17
ENDMDL
MODEL 2
REMARK VINA RESULT:     -11.7      1.263      7.620
REMARK SMILES CNc1cc(C(=O)N2CCC[C@@](CCOC)(C(=O)OCCOC(=O)c3ccc(-c4c5nc(c(-c6c(F)c(F)c(F)c(F)c6F)c6ccc([nH]6)c(-c6c(F)c(F)c(F)c(F)c6F)c6nc(c(-c7c(F)c(F)c(F)c(F)c7F)c7ccc4[nH]7)C=C6)C=C5)cc3)C2)ccn1
REMARK SMILES IDX 20 1 19 2 17 3 18 4 12 5 8 6 9 7 88 8 10 9 11 10 6 11 7 12
REMARK SMILES IDX 5 13 3 14 4 15 91 16 90 17 89 18 2 19 1 20 13 22 14 23 15 24
REMARK SMILES IDX 16 25 21 26 22 27 23 28 24 29 25 30 26 31 87 32 27 33 86 34
REMARK SMILES IDX 28 35 29 36 30 37 80 38 31 39 85 40 79 41 81 42 32 43 84 44
REMARK SMILES IDX 78 45 77 46 33 48 65 49 45 50 64 51 46 52 49 53 63 54 82 55
REMARK SMILES IDX 47 56 48 57 62 59 83 60 50 61 34 62 35 63 43 64 36 65 37 66
REMARK SMILES IDX 41 67 44 68 38 69 39 70 42 71 40 72 66 73 67 74 75 75 68 76
REMARK SMILES IDX 69 77 73 78 76 79 70 80 71 81 74 82 72 83 51 84 52 85 60 86
REMARK SMILES IDX 53 87 54 88 58 89 61 90 55 91 56 92 59 93 57 94
REMARK H PARENT 2 21 81 47 49 58
REMARK Flexibility Score: inf
ROOT
ATOM      1  C   UNL A   1      31.652  29.156  26.783  1.00  0.00     0.274 C 
ENDROOT
BRANCH   1   2
ATOM      2  O   UNL A   1      31.727  28.371  25.573  1.00  0.00    -0.462 OA
BRANCH   2   3
ATOM      3  C   UNL A   1      32.830  27.594  25.400  1.00  0.00     0.314 C 
ATOM      4  O   UNL A   1      33.983  28.012  25.435  1.00  0.00    -0.252 OA
BRANCH   3   5
ATOM      5  C   UNL A   1      32.491  26.118  25.147  1.00  0.00     0.088 C 
ATOM      6  N   UNL A   1      32.049  24.009  26.436  1.00  0.00    -0.337 N 
ATOM      7  C   UNL A   1      30.781  23.759  25.764  1.00  0.00     0.120 C 
ATOM      8  C   UNL A   1      32.494  25.406  26.531  1.00  0.00     0.138 C 
ATOM      9  C   UNL A   1      30.693  24.458  24.419  1.00  0.00     0.023 C 
ATOM     10  C   UNL A   1      31.079  25.931  24.536  1.00  0.00     0.022 C 
BRANCH   6  11
ATOM     11  C   UNL A   1      32.720  22.932  27.004  1.00  0.00     0.254 C 
ATOM     12  O   UNL A   1      32.526  22.549  28.154  1.00  0.00    -0.269 OA
BRANCH  11  13
ATOM     13  C   UNL A   1      33.821  22.306  26.239  1.00  0.00     0.045 A 
ATOM     14  C   UNL A   1      36.170  22.131  25.804  1.00  0.00     0.126 A 
ATOM     15  C   UNL A   1      35.111  22.824  26.362  1.00  0.00     0.060 A 
ATOM     16  N   UNL A   1      35.979  21.002  25.094  1.00  0.00    -0.240 NA
ATOM     17  C   UNL A   1      34.725  20.500  25.016  1.00  0.00     0.114 A 
ATOM     18  C   UNL A   1      33.619  21.101  25.581  1.00  0.00     0.034 A 
BRANCH  14  19
ATOM     19  N   UNL A   1      37.478  22.515  25.971  1.00  0.00    -0.373 N 
ATOM     20  C   UNL A   1      38.570  21.605  25.729  1.00  0.00     0.141 C 
ATOM     21  H   UNL A   1      37.674  23.435  26.263  1.00  0.00     0.161 HD
ENDBRANCH  14  19
ENDBRANCH  11  13
ENDBRANCH   6  11
BRANCH   5  22
ATOM     22  C   UNL A   1      33.630  25.518  24.267  1.00  0.00     0.049 C 
BRANCH  22  23
ATOM     23  C   UNL A   1      33.600  25.920  22.792  1.00  0.00     0.161 C 
BRANCH  23  24
ATOM     24  O   UNL A   1      33.514  24.756  21.978  1.00  0.00    -0.385 OA
ATOM     25  C   UNL A   1      33.892  23.580  22.679  1.00  0.00     0.194 C 
ENDBRANCH  23  24
ENDBRANCH  22  23
ENDBRANCH   5  22
ENDBRANCH   3   5
ENDBRANCH   2   3
ENDBRANCH   1   2
BRANCH   1  26
ATOM     26  C   UNL A   1      31.707  30.646  26.455  1.00  0.00     0.275 C 
BRANCH  26  27
ATOM     27  O   UNL A   1      33.083  31.043  26.339  1.00  0.00    -0.458 OA
BRANCH  27  28
ATOM     28  C   UNL A   1      33.499  31.972  27.222  1.00  0.00     0.338 C 
ATOM     29  O   UNL A   1      32.902  32.960  27.626  1.00  0.00    -0.246 OA
BRANCH  28  30
ATOM     30  C   UNL A   1      34.764  31.513  27.799  1.00  0.00     0.060 A 
ATOM     31  C   UNL A   1      34.849  30.167  28.148  1.00  0.00     0.016 A 
ATOM     32  C   UNL A   1      35.803  32.391  28.094  1.00  0.00     0.016 A 
ATOM     33  C   UNL A   1      35.934  29.703  28.876  1.00  0.00     0.010 A 
ATOM     34  C   UNL A   1      36.936  31.904  28.759  1.00  0.00     0.010 A 
ATOM     35  C   UNL A   1      36.994  30.565  29.190  1.00  0.00    -0.014 A 
BRANCH  35  36
ATOM     36  C   UNL A   1      38.096  30.067  30.057  1.00  0.00     0.031 A 
ATOM     37  C   UNL A   1      39.207  29.251  29.448  1.00  0.00     0.074 A 
ATOM     38  C   UNL A   1      38.194  30.471  31.339  1.00  0.00     0.049 A 
ATOM     39  N   UNL A   1      40.244  28.699  30.027  1.00  0.00    -0.248 NA
ATOM     40  C   UNL A   1      39.167  29.061  27.988  1.00  0.00     0.031 C 
ATOM     41  C   UNL A   1      37.264  31.381  32.007  1.00  0.00     0.029 A 
ATOM     42  N   UNL A   1      39.163  30.235  32.285  1.00  0.00    -0.354 N 
ATOM     43  C   UNL A   1      40.942  28.050  29.018  1.00  0.00     0.074 A 
ATOM     44  C   UNL A   1      40.228  28.293  27.783  1.00  0.00     0.031 C 
ATOM     45  C   UNL A   1      37.761  31.712  33.208  1.00  0.00     0.029 A 
ATOM     46  C   UNL A   1      38.990  30.961  33.440  1.00  0.00     0.049 A 
ATOM     47  H   UNL A   1      39.909  29.607  32.149  1.00  0.00     0.167 HD
ATOM     48  C   UNL A   1      42.072  27.313  29.117  1.00  0.00     0.037 A 
ATOM     49  C   UNL A   1      39.731  31.005  34.563  1.00  0.00     0.037 A 
ATOM     50  C   UNL A   1      42.809  27.115  30.336  1.00  0.00     0.049 A 
ATOM     51  C   UNL A   1      40.937  30.111  34.670  1.00  0.00     0.074 A 
ATOM     52  C   UNL A   1      43.917  26.317  30.559  1.00  0.00     0.029 A 
ATOM     53  N   UNL A   1      42.523  27.747  31.538  1.00  0.00    -0.354 N 
ATOM     54  N   UNL A   1      41.512  29.379  33.746  1.00  0.00    -0.248 NA
ATOM     55  C   UNL A   1      41.571  30.016  35.992  1.00  0.00     0.031 C 
ATOM     56  C   UNL A   1      44.285  26.444  31.903  1.00  0.00     0.029 A 
ATOM     57  C   UNL A   1      43.429  27.350  32.507  1.00  0.00     0.049 A 
ATOM     58  H   UNL A   1      41.785  28.384  31.680  1.00  0.00     0.167 HD
ATOM     59  C   UNL A   1      42.566  28.732  34.375  1.00  0.00     0.074 A 
ATOM     60  C   UNL A   1      42.582  29.193  35.749  1.00  0.00     0.031 C 
ATOM     61  C   UNL A   1      43.428  27.818  33.868  1.00  0.00     0.037 A 
BRANCH  48  62
ATOM     62  C   UNL A   1      42.541  26.606  27.882  1.00  0.00     0.064 A 
ATOM     63  C   UNL A   1      43.466  27.179  27.000  1.00  0.00     0.173 A 
ATOM     64  C   UNL A   1      42.064  25.318  27.592  1.00  0.00     0.173 A 
ATOM     65  F   UNL A   1      43.932  28.417  27.222  1.00  0.00    -0.203 F 
ATOM     66  C   UNL A   1      43.884  26.494  25.860  1.00  0.00     0.198 A 
ATOM     67  C   UNL A   1      42.499  24.628  26.464  1.00  0.00     0.198 A 
ATOM     68  F   UNL A   1      41.174  24.729  28.405  1.00  0.00    -0.203 F 
ATOM     69  F   UNL A   1      44.738  27.076  25.006  1.00  0.00    -0.200 F 
ATOM     70  C   UNL A   1      43.406  25.218  25.597  1.00  0.00     0.200 A 
ATOM     71  F   UNL A   1      42.038  23.394  26.216  1.00  0.00    -0.200 F 
ATOM     72  F   UNL A   1      43.809  24.562  24.501  1.00  0.00    -0.200 F 
ENDBRANCH  48  62
BRANCH  49  73
ATOM     73  C   UNL A   1      39.345  31.892  35.694  1.00  0.00     0.064 A 
ATOM     74  C   UNL A   1      38.382  31.487  36.630  1.00  0.00     0.173 A 
ATOM     75  C   UNL A   1      39.902  33.170  35.850  1.00  0.00     0.173 A 
ATOM     76  F   UNL A   1      37.786  30.292  36.502  1.00  0.00    -0.203 F 
ATOM     77  C   UNL A   1      37.989  32.327  37.672  1.00  0.00     0.198 A 
ATOM     78  C   UNL A   1      39.535  33.995  36.912  1.00  0.00     0.198 A 
ATOM     79  F   UNL A   1      40.811  33.620  34.972  1.00  0.00    -0.203 F 
ATOM     80  F   UNL A   1      37.029  31.936  38.520  1.00  0.00    -0.200 F 
ATOM     81  C   UNL A   1      38.574  33.576  37.817  1.00  0.00     0.200 A 
ATOM     82  F   UNL A   1      40.107  35.199  37.049  1.00  0.00    -0.200 F 
ATOM     83  F   UNL A   1      38.198  34.382  38.818  1.00  0.00    -0.200 F 
ENDBRANCH  49  73
BRANCH  61  84
ATOM     84  C   UNL A   1      44.454  27.251  34.804  1.00  0.00     0.064 A 
ATOM     85  C   UNL A   1      45.685  27.894  35.006  1.00  0.00     0.173 A 
ATOM     86  C   UNL A   1      44.190  26.086  35.537  1.00  0.00     0.173 A 
ATOM     87  F   UNL A   1      45.987  29.004  34.317  1.00  0.00    -0.203 F 
ATOM     88  C   UNL A   1      46.624  27.377  35.893  1.00  0.00     0.198 A 
ATOM     89  C   UNL A   1      45.121  25.585  36.444  1.00  0.00     0.198 A 
ATOM     90  F   UNL A   1      43.024  25.440  35.385  1.00  0.00    -0.203 F 
ATOM     91  F   UNL A   1      47.809  27.985  36.042  1.00  0.00    -0.200 F 
ATOM     92  C   UNL A   1      46.338  26.228  36.617  1.00  0.00     0.200 A 
ATOM     93  F   UNL A   1      44.840  24.482  37.151  1.00  0.00    -0.200 F 
ATOM     94  F   UNL A   1      47.241  25.736  37.477  1.00  0.00    -0.200 F 
ENDBRANCH  61  84
ENDBRANCH  35  36
ENDBRANCH  28  30
ENDBRANCH  27  28
ENDBRANCH  26  27
ENDBRANCH   1  26
TORSDOF 17
ENDMDL
MODEL 3
REMARK VINA RESULT:     -11.6      4.136      9.540
REMARK SMILES CNc1cc(C(=O)N2CCC[C@@](CCOC)(C(=O)OCCOC(=O)c3ccc(-c4c5nc(c(-c6c(F)c(F)c(F)c(F)c6F)c6ccc([nH]6)c(-c6c(F)c(F)c(F)c(F)c6F)c6nc(c(-c7c(F)c(F)c(F)c(F)c7F)c7ccc4[nH]7)C=C6)C=C5)cc3)C2)ccn1
REMARK SMILES IDX 20 1 19 2 17 3 18 4 12 5 8 6 9 7 88 8 10 9 11 10 6 11 7 12
REMARK SMILES IDX 5 13 3 14 4 15 91 16 90 17 89 18 2 19 1 20 13 22 14 23 15 24
REMARK SMILES IDX 16 25 21 26 22 27 23 28 24 29 25 30 26 31 87 32 27 33 86 34
REMARK SMILES IDX 28 35 29 36 30 37 80 38 31 39 85 40 79 41 81 42 32 43 84 44
REMARK SMILES IDX 78 45 77 46 33 48 65 49 45 50 64 51 46 52 49 53 63 54 82 55
REMARK SMILES IDX 47 56 48 57 62 59 83 60 50 61 34 62 35 63 43 64 36 65 37 66
REMARK SMILES IDX 41 67 44 68 38 69 39 70 42 71 40 72 66 73 67 74 75 75 68 76
REMARK SMILES IDX 69 77 73 78 76 79 70 80 71 81 74 82 72 83 51 84 52 85 60 86
REMARK SMILES IDX 53 87 54 88 58 89 61 90 55 91 56 92 59 93 57 94
REMARK H PARENT 2 21 81 47 49 58
REMARK Flexibility Score: inf
ROOT
ATOM      1  C   UNL A   1      36.403  20.827  24.643  1.00  0.00     0.274 C 
ENDROOT
BRANCH   1   2
ATOM      2  O   UNL A   1      35.472  21.269  25.654  1.00  0.00    -0.462 OA
BRANCH   2   3
ATOM      3  C   UNL A   1      35.304  22.611  25.804  1.00  0.00     0.314 C 
ATOM      4  O   UNL A   1      36.017  23.323  26.504  1.00  0.00    -0.252 OA
BRANCH   3   5
ATOM      5  C   UNL A   1      34.113  23.159  25.005  1.00  0.00     0.088 C 
ATOM      6  N   UNL A   1      33.656  24.622  23.016  1.00  0.00    -0.337 N 
ATOM      7  C   UNL A   1      32.822  23.624  22.362  1.00  0.00     0.120 C 
ATOM      8  C   UNL A   1      34.691  24.132  23.936  1.00  0.00     0.138 C 
ATOM      9  C   UNL A   1      32.252  22.615  23.344  1.00  0.00     0.023 C 
ATOM     10  C   UNL A   1      33.345  22.047  24.247  1.00  0.00     0.022 C 
BRANCH   6  11
ATOM     11  C   UNL A   1      33.475  25.958  22.679  1.00  0.00     0.254 C 
ATOM     12  O   UNL A   1      33.884  26.450  21.631  1.00  0.00    -0.269 OA
BRANCH  11  13
ATOM     13  C   UNL A   1      32.889  26.866  23.690  1.00  0.00     0.045 A 
ATOM     14  C   UNL A   1      33.188  28.658  25.252  1.00  0.00     0.126 A 
ATOM     15  C   UNL A   1      33.737  27.677  24.445  1.00  0.00     0.060 A 
ATOM     16  N   UNL A   1      31.855  28.809  25.371  1.00  0.00    -0.240 NA
ATOM     17  C   UNL A   1      31.053  28.036  24.604  1.00  0.00     0.114 A 
ATOM     18  C   UNL A   1      31.516  27.065  23.740  1.00  0.00     0.034 A 
BRANCH  14  19
ATOM     19  N   UNL A   1      33.955  29.564  25.942  1.00  0.00    -0.373 N 
ATOM     20  C   UNL A   1      34.872  29.147  26.973  1.00  0.00     0.141 C 
ATOM     21  H   UNL A   1      33.876  30.522  25.727  1.00  0.00     0.161 HD
ENDBRANCH  14  19
ENDBRANCH  11  13
ENDBRANCH   6  11
BRANCH   5  22
ATOM     22  C   UNL A   1      33.217  23.968  25.991  1.00  0.00     0.049 C 
BRANCH  22  23
ATOM     23  C   UNL A   1      32.474  23.134  27.036  1.00  0.00     0.161 C 
BRANCH  23  24
ATOM     24  O   UNL A   1      31.237  23.757  27.358  1.00  0.00    -0.385 OA
ATOM     25  C   UNL A   1      30.591  24.296  26.213  1.00  0.00     0.194 C 
ENDBRANCH  23  24
ENDBRANCH  22  23
ENDBRANCH   5  22
ENDBRANCH   3   5
ENDBRANCH   2   3
ENDBRANCH   1   2
BRANCH   1  26
ATOM     26  C   UNL A   1      37.641  20.213  25.292  1.00  0.00     0.275 C 
BRANCH  26  27
ATOM     27  O   UNL A   1      38.649  21.230  25.419  1.00  0.00    -0.458 OA
BRANCH  27  28
ATOM     28  C   UNL A   1      39.664  20.943  26.258  1.00  0.00     0.338 C 
ATOM     29  O   UNL A   1      40.269  19.889  26.388  1.00  0.00    -0.246 OA
BRANCH  28  30
ATOM     30  C   UNL A   1      40.082  22.189  26.903  1.00  0.00     0.060 A 
ATOM     31  C   UNL A   1      39.485  23.366  26.455  1.00  0.00     0.016 A 
ATOM     32  C   UNL A   1      41.108  22.227  27.842  1.00  0.00     0.016 A 
ATOM     33  C   UNL A   1      39.968  24.596  26.874  1.00  0.00     0.010 A 
ATOM     34  C   UNL A   1      41.542  23.468  28.327  1.00  0.00     0.010 A 
ATOM     35  C   UNL A   1      41.002  24.664  27.818  1.00  0.00    -0.014 A 
BRANCH  35  36
ATOM     36  C   UNL A   1      41.567  25.994  28.173  1.00  0.00     0.031 A 
ATOM     37  C   UNL A   1      42.943  26.369  27.688  1.00  0.00     0.074 A 
ATOM     38  C   UNL A   1      40.802  26.921  28.784  1.00  0.00     0.049 A 
ATOM     39  N   UNL A   1      43.630  27.462  27.907  1.00  0.00    -0.248 NA
ATOM     40  C   UNL A   1      43.623  25.402  26.809  1.00  0.00     0.031 C 
ATOM     41  C   UNL A   1      39.405  26.734  29.173  1.00  0.00     0.029 A 
ATOM     42  N   UNL A   1      41.065  28.229  29.112  1.00  0.00    -0.354 N 
ATOM     43  C   UNL A   1      44.840  27.288  27.247  1.00  0.00     0.074 A 
ATOM     44  C   UNL A   1      44.789  25.997  26.598  1.00  0.00     0.031 C 
ATOM     45  C   UNL A   1      38.903  27.909  29.582  1.00  0.00     0.029 A 
ATOM     46  C   UNL A   1      39.966  28.908  29.583  1.00  0.00     0.049 A 
ATOM     47  H   UNL A   1      41.954  28.642  29.017  1.00  0.00     0.167 HD
ATOM     48  C   UNL A   1      45.897  28.131  27.194  1.00  0.00     0.037 A 
ATOM     49  C   UNL A   1      39.834  30.187  29.983  1.00  0.00     0.037 A 
ATOM     50  C   UNL A   1      45.927  29.436  27.797  1.00  0.00     0.049 A 
ATOM     51  C   UNL A   1      41.050  31.072  29.988  1.00  0.00     0.074 A 
ATOM     52  C   UNL A   1      46.979  30.331  27.874  1.00  0.00     0.029 A 
ATOM     53  N   UNL A   1      44.839  30.045  28.406  1.00  0.00    -0.354 N 
ATOM     54  N   UNL A   1      42.242  30.848  29.490  1.00  0.00    -0.248 NA
ATOM     55  C   UNL A   1      40.912  32.377  30.652  1.00  0.00     0.031 C 
ATOM     56  C   UNL A   1      46.536  31.471  28.555  1.00  0.00     0.029 A 
ATOM     57  C   UNL A   1      45.198  31.300  28.868  1.00  0.00     0.049 A 
ATOM     58  H   UNL A   1      43.944  29.644  28.495  1.00  0.00     0.167 HD
ATOM     59  C   UNL A   1      42.997  31.974  29.788  1.00  0.00     0.074 A 
ATOM     60  C   UNL A   1      42.116  32.902  30.468  1.00  0.00     0.031 C 
ATOM     61  C   UNL A   1      44.309  32.208  29.544  1.00  0.00     0.037 A 
BRANCH  48  62
ATOM     62  C   UNL A   1      47.139  27.633  26.519  1.00  0.00     0.064 A 
ATOM     63  C   UNL A   1      48.163  26.986  27.223  1.00  0.00     0.173 A 
ATOM     64  C   UNL A   1      47.292  27.796  25.133  1.00  0.00     0.173 A 
ATOM     65  F   UNL A   1      48.073  26.829  28.552  1.00  0.00    -0.203 F 
ATOM     66  C   UNL A   1      49.305  26.533  26.565  1.00  0.00     0.198 A 
ATOM     67  C   UNL A   1      48.424  27.323  24.476  1.00  0.00     0.198 A 
ATOM     68  F   UNL A   1      46.340  28.412  24.417  1.00  0.00    -0.203 F 
ATOM     69  F   UNL A   1      50.292  25.953  27.262  1.00  0.00    -0.200 F 
ATOM     70  C   UNL A   1      49.431  26.696  25.193  1.00  0.00     0.200 A 
ATOM     71  F   UNL A   1      48.541  27.478  23.150  1.00  0.00    -0.200 F 
ATOM     72  F   UNL A   1      50.530  26.260  24.563  1.00  0.00    -0.200 F 
ENDBRANCH  48  62
BRANCH  49  73
ATOM     73  C   UNL A   1      38.518  30.706  30.448  1.00  0.00     0.064 A 
ATOM     74  C   UNL A   1      38.218  30.782  31.816  1.00  0.00     0.173 A 
ATOM     75  C   UNL A   1      37.524  31.107  29.544  1.00  0.00     0.173 A 
ATOM     76  F   UNL A   1      39.117  30.370  32.722  1.00  0.00    -0.203 F 
ATOM     77  C   UNL A   1      36.975  31.234  32.258  1.00  0.00     0.198 A 
ATOM     78  C   UNL A   1      36.295  31.592  29.987  1.00  0.00     0.198 A 
ATOM     79  F   UNL A   1      37.747  31.034  28.223  1.00  0.00    -0.203 F 
ATOM     80  F   UNL A   1      36.696  31.247  33.569  1.00  0.00    -0.200 F 
ATOM     81  C   UNL A   1      36.019  31.648  31.343  1.00  0.00     0.200 A 
ATOM     82  F   UNL A   1      35.377  31.995  29.098  1.00  0.00    -0.200 F 
ATOM     83  F   UNL A   1      34.825  32.084  31.768  1.00  0.00    -0.200 F 
ENDBRANCH  49  73
BRANCH  61  84
ATOM     84  C   UNL A   1      44.872  33.514  30.021  1.00  0.00     0.064 A 
ATOM     85  C   UNL A   1      44.805  34.667  29.223  1.00  0.00     0.173 A 
ATOM     86  C   UNL A   1      45.439  33.627  31.298  1.00  0.00     0.173 A 
ATOM     87  F   UNL A   1      44.284  34.604  27.989  1.00  0.00    -0.203 F 
ATOM     88  C   UNL A   1      45.308  35.881  29.680  1.00  0.00     0.198 A 
ATOM     89  C   UNL A   1      45.917  34.850  31.762  1.00  0.00     0.198 A 
ATOM     90  F   UNL A   1      45.517  32.555  32.101  1.00  0.00    -0.203 F 
ATOM     91  F   UNL A   1      45.270  36.961  28.888  1.00  0.00    -0.200 F 
ATOM     92  C   UNL A   1      45.856  35.974  30.952  1.00  0.00     0.200 A 
ATOM     93  F   UNL A   1      46.435  34.940  32.995  1.00  0.00    -0.200 F 
ATOM     94  F   UNL A   1      46.332  37.146  31.393  1.00  0.00    -0.200 F 
ENDBRANCH  61  84
ENDBRANCH  35  36
ENDBRANCH  28  30
ENDBRANCH  27  28
ENDBRANCH  26  27
ENDBRANCH   1  26
TORSDOF 17
ENDMDL
