MODEL 1
REMARK VINA RESULT:     -13.2      0.000      0.000
REMARK SMILES CC(C)[C@@H](NC(=O)[C@H]1CCCO1)C(=O)OCCOC(=O)c1ccc(-c2c3nc(c(-c4c(F)c(F)c(F)c(F)c4F)c4ccc([nH]4)c(-c4c(F)c(F)c(F)c(F)c4F)c4nc(c(-c5c(F)c(F)c(F)c(F)c5F)c5ccc2[nH]5)C=C4)C=C3)cc1
REMARK SMILES IDX 16 1 15 2 13 3 14 4 4 5 2 6 1 7 3 8 5 9 6 10 7 12 8 13 9 14
REMARK SMILES IDX 12 15 10 16 11 17 17 18 18 19 19 20 20 21 21 22 22 23 83 24
REMARK SMILES IDX 23 25 82 26 24 27 25 28 26 29 76 30 27 31 81 32 75 33 77 34
REMARK SMILES IDX 28 35 80 36 74 37 73 38 29 40 61 41 41 42 60 43 42 44 45 45
REMARK SMILES IDX 59 46 78 47 43 48 44 49 58 51 79 52 46 53 30 54 31 55 39 56
REMARK SMILES IDX 32 57 33 58 37 59 40 60 34 61 35 62 38 63 36 64 62 65 63 66
REMARK SMILES IDX 71 67 64 68 65 69 69 70 72 71 66 72 67 73 70 74 68 75 47 76
REMARK SMILES IDX 48 77 56 78 49 79 50 80 54 81 57 82 51 83 52 84 55 85 53 86
REMARK H PARENT 5 11 77 39 45 50
REMARK Flexibility Score: inf
ROOT
ATOM      1  C   UNL A   1      31.491  28.324  27.702  1.00  0.00     0.274 C 
ENDROOT
BRANCH   1   2
ATOM      2  O   UNL A   1      31.457  26.452  26.899  1.00  0.00    -0.461 OA
BRANCH   2   3
ATOM      3  C   UNL A   1      32.209  25.515  26.032  1.00  0.00     0.329 C 
ATOM      4  O   UNL A   1      33.058  24.673  26.315  1.00  0.00    -0.250 OA
BRANCH   3   5
ATOM      5  C   UNL A   1      31.848  25.712  24.613  1.00  0.00     0.194 C 
BRANCH   5   6
ATOM      6  C   UNL A   1      30.744  26.804  24.541  1.00  0.00     0.017 C 
ATOM      7  C   UNL A   1      31.197  27.958  23.646  1.00  0.00     0.010 C 
ATOM      8  C   UNL A   1      29.403  26.310  23.926  1.00  0.00     0.010 C 
ENDBRANCH   5   6
BRANCH   5   9
ATOM      9  N   UNL A   1      33.112  25.870  23.898  1.00  0.00    -0.340 N 
ATOM     10  C   UNL A   1      33.244  25.397  22.581  1.00  0.00     0.249 C 
ATOM     11  H   UNL A   1      33.874  26.310  24.341  1.00  0.00     0.164 HD
ATOM     12  O   UNL A   1      33.771  26.126  21.740  1.00  0.00    -0.272 OA
BRANCH  10  13
ATOM     13  C   UNL A   1      32.977  23.826  22.284  1.00  0.00     0.207 C 
ATOM     14  C   UNL A   1      34.652  23.053  22.998  1.00  0.00     0.044 C 
ATOM     15  O   UNL A   1      31.560  22.855  23.133  1.00  0.00    -0.368 OA
ATOM     16  C   UNL A   1      34.221  21.917  24.538  1.00  0.00     0.032 C 
ATOM     17  C   UNL A   1      32.247  21.765  24.613  1.00  0.00     0.161 C 
ENDBRANCH  10  13
ENDBRANCH   5   9
ENDBRANCH   3   5
ENDBRANCH   2   3
ENDBRANCH   1   2
BRANCH   1  18
ATOM     18  C   UNL A   1      31.735  29.848  26.902  1.00  0.00     0.275 C 
BRANCH  18  19
ATOM     19  O   UNL A   1      33.073  30.325  26.605  1.00  0.00    -0.458 OA
BRANCH  19  20
ATOM     20  C   UNL A   1      33.603  31.352  27.329  1.00  0.00     0.338 C 
ATOM     21  O   UNL A   1      33.030  32.372  27.675  1.00  0.00    -0.246 OA
BRANCH  20  22
ATOM     22  C   UNL A   1      34.984  31.002  27.767  1.00  0.00     0.060 A 
ATOM     23  C   UNL A   1      35.903  32.021  28.009  1.00  0.00     0.016 A 
ATOM     24  C   UNL A   1      35.411  29.684  27.896  1.00  0.00     0.016 A 
ATOM     25  C   UNL A   1      37.208  31.773  28.421  1.00  0.00     0.010 A 
ATOM     26  C   UNL A   1      36.701  29.420  28.394  1.00  0.00     0.010 A 
ATOM     27  C   UNL A   1      37.593  30.466  28.700  1.00  0.00    -0.014 A 
BRANCH  27  28
ATOM     28  C   UNL A   1      38.850  30.197  29.444  1.00  0.00     0.031 A 
ATOM     29  C   UNL A   1      39.865  29.235  28.918  1.00  0.00     0.074 A 
ATOM     30  C   UNL A   1      39.039  30.776  30.648  1.00  0.00     0.049 A 
ATOM     31  N   UNL A   1      40.843  28.639  29.548  1.00  0.00    -0.248 NA
ATOM     32  C   UNL A   1      39.769  28.904  27.490  1.00  0.00     0.031 C 
ATOM     33  C   UNL A   1      38.184  31.807  31.241  1.00  0.00     0.029 A 
ATOM     34  N   UNL A   1      39.992  30.545  31.611  1.00  0.00    -0.354 N 
ATOM     35  C   UNL A   1      41.462  27.830  28.606  1.00  0.00     0.074 A 
ATOM     36  C   UNL A   1      40.752  28.022  27.356  1.00  0.00     0.031 C 
ATOM     37  C   UNL A   1      38.625  32.089  32.475  1.00  0.00     0.029 A 
ATOM     38  C   UNL A   1      39.740  31.204  32.789  1.00  0.00     0.049 A 
ATOM     39  H   UNL A   1      40.776  29.965  31.470  1.00  0.00     0.167 HD
ATOM     40  C   UNL A   1      42.515  26.996  28.782  1.00  0.00     0.037 A 
ATOM     41  C   UNL A   1      40.290  31.061  34.010  1.00  0.00     0.037 A 
ATOM     42  C   UNL A   1      43.215  26.821  30.029  1.00  0.00     0.049 A 
ATOM     43  C   UNL A   1      41.371  30.036  34.213  1.00  0.00     0.074 A 
ATOM     44  C   UNL A   1      44.295  25.998  30.307  1.00  0.00     0.029 A 
ATOM     45  N   UNL A   1      42.902  27.476  31.212  1.00  0.00    -0.354 N 
ATOM     46  N   UNL A   1      41.924  29.231  33.339  1.00  0.00    -0.248 NA
ATOM     47  C   UNL A   1      41.891  29.886  35.579  1.00  0.00     0.031 C 
ATOM     48  C   UNL A   1      44.600  26.118  31.666  1.00  0.00     0.029 A 
ATOM     49  C   UNL A   1      43.747  27.053  32.227  1.00  0.00     0.049 A 
ATOM     50  H   UNL A   1      42.185  28.143  31.315  1.00  0.00     0.167 HD
ATOM     51  C   UNL A   1      42.868  28.495  34.042  1.00  0.00     0.074 A 
ATOM     52  C   UNL A   1      42.824  28.959  35.412  1.00  0.00     0.031 C 
ATOM     53  C   UNL A   1      43.694  27.520  33.589  1.00  0.00     0.037 A 
BRANCH  40  54
ATOM     54  C   UNL A   1      42.943  26.165  27.610  1.00  0.00     0.064 A 
ATOM     55  C   UNL A   1      42.355  24.925  27.325  1.00  0.00     0.173 A 
ATOM     56  C   UNL A   1      43.932  26.641  26.734  1.00  0.00     0.173 A 
ATOM     57  F   UNL A   1      41.414  24.420  28.137  1.00  0.00    -0.203 F 
ATOM     58  C   UNL A   1      42.757  24.181  26.217  1.00  0.00     0.198 A 
ATOM     59  C   UNL A   1      44.311  25.908  25.614  1.00  0.00     0.198 A 
ATOM     60  F   UNL A   1      44.522  27.824  26.961  1.00  0.00    -0.203 F 
ATOM     61  F   UNL A   1      42.210  22.981  25.983  1.00  0.00    -0.200 F 
ATOM     62  C   UNL A   1      43.728  24.677  25.359  1.00  0.00     0.200 A 
ATOM     63  F   UNL A   1      45.241  26.394  24.780  1.00  0.00    -0.200 F 
ATOM     64  F   UNL A   1      44.107  23.964  24.289  1.00  0.00    -0.200 F 
ENDBRANCH  40  54
BRANCH  41  65
ATOM     65  C   UNL A   1      39.776  31.859  35.154  1.00  0.00     0.064 A 
ATOM     66  C   UNL A   1      40.300  33.126  35.438  1.00  0.00     0.173 A 
ATOM     67  C   UNL A   1      38.765  31.366  35.993  1.00  0.00     0.173 A 
ATOM     68  F   UNL A   1      41.291  33.626  34.684  1.00  0.00    -0.203 F 
ATOM     69  C   UNL A   1      39.842  33.866  36.526  1.00  0.00     0.198 A 
ATOM     70  C   UNL A   1      38.287  32.120  37.062  1.00  0.00     0.198 A 
ATOM     71  F   UNL A   1      38.236  30.154  35.770  1.00  0.00    -0.203 F 
ATOM     72  F   UNL A   1      40.395  35.055  36.805  1.00  0.00    -0.200 F 
ATOM     73  C   UNL A   1      38.831  33.365  37.332  1.00  0.00     0.200 A 
ATOM     74  F   UNL A   1      37.304  31.636  37.834  1.00  0.00    -0.200 F 
ATOM     75  F   UNL A   1      38.390  34.079  38.378  1.00  0.00    -0.200 F 
ENDBRANCH  41  65
BRANCH  53  76
ATOM     76  C   UNL A   1      44.640  26.910  34.582  1.00  0.00     0.064 A 
ATOM     77  C   UNL A   1      45.890  27.486  34.854  1.00  0.00     0.173 A 
ATOM     78  C   UNL A   1      44.282  25.753  35.289  1.00  0.00     0.173 A 
ATOM     79  F   UNL A   1      46.288  28.582  34.190  1.00  0.00    -0.203 F 
ATOM     80  C   UNL A   1      46.755  26.913  35.783  1.00  0.00     0.198 A 
ATOM     81  C   UNL A   1      45.137  25.199  36.238  1.00  0.00     0.198 A 
ATOM     82  F   UNL A   1      43.097  25.164  35.067  1.00  0.00    -0.203 F 
ATOM     83  F   UNL A   1      47.963  27.454  35.995  1.00  0.00    -0.200 F 
ATOM     84  C   UNL A   1      46.375  25.775  36.479  1.00  0.00     0.200 A 
ATOM     85  F   UNL A   1      44.763  24.106  36.917  1.00  0.00    -0.200 F 
ATOM     86  F   UNL A   1      47.206  25.229  37.378  1.00  0.00    -0.200 F 
ENDBRANCH  53  76
ENDBRANCH  27  28
ENDBRANCH  20  22
ENDBRANCH  19  20
ENDBRANCH  18  19
ENDBRANCH   1  18
TORSDOF 14
ENDMDL
MODEL 2
REMARK VINA RESULT:     -13.0      4.211      9.798
REMARK SMILES CC(C)[C@@H](NC(=O)[C@H]1CCCO1)C(=O)OCCOC(=O)c1ccc(-c2c3nc(c(-c4c(F)c(F)c(F)c(F)c4F)c4ccc([nH]4)c(-c4c(F)c(F)c(F)c(F)c4F)c4nc(c(-c5c(F)c(F)c(F)c(F)c5F)c5ccc2[nH]5)C=C4)C=C3)cc1
REMARK SMILES IDX 16 1 15 2 13 3 14 4 4 5 2 6 1 7 3 8 5 9 6 10 7 12 8 13 9 14
REMARK SMILES IDX 12 15 10 16 11 17 17 18 18 19 19 20 20 21 21 22 22 23 83 24
REMARK SMILES IDX 23 25 82 26 24 27 25 28 26 29 76 30 27 31 81 32 75 33 77 34
REMARK SMILES IDX 28 35 80 36 74 37 73 38 29 40 61 41 41 42 60 43 42 44 45 45
REMARK SMILES IDX 59 46 78 47 43 48 44 49 58 51 79 52 46 53 30 54 31 55 39 56
REMARK SMILES IDX 32 57 33 58 37 59 40 60 34 61 35 62 38 63 36 64 62 65 63 66
REMARK SMILES IDX 71 67 64 68 65 69 69 70 72 71 66 72 67 73 70 74 68 75 47 76
REMARK SMILES IDX 48 77 56 78 49 79 50 80 54 81 57 82 51 83 52 84 55 85 53 86
REMARK H PARENT 5 11 77 39 45 50
REMARK Flexibility Score: inf
ROOT
ATOM      1  C   UNL A   1      36.712  22.610  23.314  1.00  0.00     0.274 C 
ENDROOT
BRANCH   1   2
ATOM      2  O   UNL A   1      35.057  23.782  23.110  1.00  0.00    -0.461 OA
BRANCH   2   3
ATOM      3  C   UNL A   1      34.089  24.615  23.860  1.00  0.00     0.329 C 
ATOM      4  O   UNL A   1      34.099  25.818  24.112  1.00  0.00    -0.250 OA
BRANCH   3   5
ATOM      5  C   UNL A   1      32.983  23.788  24.385  1.00  0.00     0.194 C 
BRANCH   5   6
ATOM      6  C   UNL A   1      33.247  22.312  23.975  1.00  0.00     0.017 C 
ATOM      7  C   UNL A   1      33.328  21.423  25.217  1.00  0.00     0.010 C 
ATOM      8  C   UNL A   1      32.124  21.687  23.097  1.00  0.00     0.010 C 
ENDBRANCH   5   6
BRANCH   5   9
ATOM      9  N   UNL A   1      32.833  24.166  25.787  1.00  0.00    -0.340 N 
ATOM     10  C   UNL A   1      31.561  24.179  26.385  1.00  0.00     0.249 C 
ATOM     11  H   UNL A   1      33.627  24.410  26.317  1.00  0.00     0.164 HD
ATOM     12  O   UNL A   1      31.421  23.663  27.493  1.00  0.00    -0.272 OA
BRANCH  10  13
ATOM     13  C   UNL A   1      30.405  25.118  25.742  1.00  0.00     0.207 C 
ATOM     14  C   UNL A   1      31.021  26.892  26.364  1.00  0.00     0.044 C 
ATOM     15  O   UNL A   1      30.170  25.290  23.848  1.00  0.00    -0.368 OA
ATOM     16  C   UNL A   1      31.518  27.974  24.805  1.00  0.00     0.032 C 
ATOM     17  C   UNL A   1      30.953  26.968  23.196  1.00  0.00     0.161 C 
ENDBRANCH  10  13
ENDBRANCH   5   9
ENDBRANCH   3   5
ENDBRANCH   2   3
ENDBRANCH   1   2
BRANCH   1  18
ATOM     18  C   UNL A   1      37.041  21.389  24.506  1.00  0.00     0.275 C 
BRANCH  18  19
ATOM     19  O   UNL A   1      37.562  21.747  25.813  1.00  0.00    -0.458 OA
BRANCH  19  20
ATOM     20  C   UNL A   1      38.894  21.613  26.072  1.00  0.00     0.338 C 
ATOM     21  O   UNL A   1      39.612  20.685  25.736  1.00  0.00    -0.246 OA
BRANCH  20  22
ATOM     22  C   UNL A   1      39.409  22.847  26.731  1.00  0.00     0.060 A 
ATOM     23  C   UNL A   1      40.441  22.744  27.661  1.00  0.00     0.016 A 
ATOM     24  C   UNL A   1      38.859  24.102  26.489  1.00  0.00     0.016 A 
ATOM     25  C   UNL A   1      40.974  23.850  28.316  1.00  0.00     0.010 A 
ATOM     26  C   UNL A   1      39.445  25.238  27.078  1.00  0.00     0.010 A 
ATOM     27  C   UNL A   1      40.534  25.122  27.964  1.00  0.00    -0.014 A 
BRANCH  27  28
ATOM     28  C   UNL A   1      41.296  26.323  28.391  1.00  0.00     0.031 A 
ATOM     29  C   UNL A   1      40.628  27.431  29.139  1.00  0.00     0.074 A 
ATOM     30  C   UNL A   1      42.590  26.445  28.032  1.00  0.00     0.049 A 
ATOM     31  N   UNL A   1      41.024  28.665  29.315  1.00  0.00    -0.248 NA
ATOM     32  C   UNL A   1      39.347  27.106  29.778  1.00  0.00     0.031 C 
ATOM     33  C   UNL A   1      43.397  25.404  27.389  1.00  0.00     0.029 A 
ATOM     34  N   UNL A   1      43.445  27.517  28.119  1.00  0.00    -0.354 N 
ATOM     35  C   UNL A   1      40.024  29.280  30.055  1.00  0.00     0.074 A 
ATOM     36  C   UNL A   1      39.007  28.276  30.302  1.00  0.00     0.031 C 
ATOM     37  C   UNL A   1      44.609  25.899  27.105  1.00  0.00     0.029 A 
ATOM     38  C   UNL A   1      44.638  27.311  27.470  1.00  0.00     0.049 A 
ATOM     39  H   UNL A   1      43.224  28.349  28.597  1.00  0.00     0.167 HD
ATOM     40  C   UNL A   1      39.964  30.568  30.470  1.00  0.00     0.037 A 
ATOM     41  C   UNL A   1      45.616  28.174  27.135  1.00  0.00     0.037 A 
ATOM     42  C   UNL A   1      40.986  31.553  30.221  1.00  0.00     0.049 A 
ATOM     43  C   UNL A   1      45.467  29.626  27.492  1.00  0.00     0.074 A 
ATOM     44  C   UNL A   1      41.015  32.885  30.602  1.00  0.00     0.029 A 
ATOM     45  N   UNL A   1      42.161  31.315  29.523  1.00  0.00    -0.354 N 
ATOM     46  N   UNL A   1      44.501  30.224  28.145  1.00  0.00    -0.248 NA
ATOM     47  C   UNL A   1      46.539  30.529  27.049  1.00  0.00     0.031 C 
ATOM     48  C   UNL A   1      42.181  33.463  30.090  1.00  0.00     0.029 A 
ATOM     49  C   UNL A   1      42.906  32.482  29.435  1.00  0.00     0.049 A 
ATOM     50  H   UNL A   1      42.427  30.446  29.145  1.00  0.00     0.167 HD
ATOM     51  C   UNL A   1      44.855  31.565  28.207  1.00  0.00     0.074 A 
ATOM     52  C   UNL A   1      46.133  31.691  27.541  1.00  0.00     0.031 C 
ATOM     53  C   UNL A   1      44.177  32.597  28.767  1.00  0.00     0.037 A 
BRANCH  40  54
ATOM     54  C   UNL A   1      38.723  31.006  31.191  1.00  0.00     0.064 A 
ATOM     55  C   UNL A   1      38.634  30.995  32.589  1.00  0.00     0.173 A 
ATOM     56  C   UNL A   1      37.621  31.485  30.465  1.00  0.00     0.173 A 
ATOM     57  F   UNL A   1      39.655  30.535  33.328  1.00  0.00    -0.203 F 
ATOM     58  C   UNL A   1      37.478  31.427  33.235  1.00  0.00     0.198 A 
ATOM     59  C   UNL A   1      36.478  31.941  31.115  1.00  0.00     0.198 A 
ATOM     60  F   UNL A   1      37.658  31.521  29.124  1.00  0.00    -0.203 F 
ATOM     61  F   UNL A   1      37.398  31.371  34.571  1.00  0.00    -0.200 F 
ATOM     62  C   UNL A   1      36.405  31.906  32.498  1.00  0.00     0.200 A 
ATOM     63  F   UNL A   1      35.447  32.415  30.401  1.00  0.00    -0.200 F 
ATOM     64  F   UNL A   1      35.296  32.329  33.121  1.00  0.00    -0.200 F 
ENDBRANCH  40  54
BRANCH  41  65
ATOM     65  C   UNL A   1      46.788  27.700  26.355  1.00  0.00     0.064 A 
ATOM     66  C   UNL A   1      46.770  27.710  24.954  1.00  0.00     0.173 A 
ATOM     67  C   UNL A   1      47.941  27.214  26.990  1.00  0.00     0.173 A 
ATOM     68  F   UNL A   1      45.678  28.135  24.302  1.00  0.00    -0.203 F 
ATOM     69  C   UNL A   1      47.856  27.240  24.218  1.00  0.00     0.198 A 
ATOM     70  C   UNL A   1      49.038  26.774  26.253  1.00  0.00     0.198 A 
ATOM     71  F   UNL A   1      48.006  27.175  28.329  1.00  0.00    -0.203 F 
ATOM     72  F   UNL A   1      47.794  27.216  22.879  1.00  0.00    -0.200 F 
ATOM     73  C   UNL A   1      48.991  26.780  24.868  1.00  0.00     0.200 A 
ATOM     74  F   UNL A   1      50.136  26.338  26.884  1.00  0.00    -0.200 F 
ATOM     75  F   UNL A   1      50.036  26.330  24.158  1.00  0.00    -0.200 F 
ENDBRANCH  41  65
BRANCH  53  76
ATOM     76  C   UNL A   1      44.822  33.951  28.707  1.00  0.00     0.064 A 
ATOM     77  C   UNL A   1      45.721  34.381  29.695  1.00  0.00     0.173 A 
ATOM     78  C   UNL A   1      44.562  34.818  27.635  1.00  0.00     0.173 A 
ATOM     79  F   UNL A   1      45.989  33.598  30.751  1.00  0.00    -0.203 F 
ATOM     80  C   UNL A   1      46.318  35.637  29.622  1.00  0.00     0.198 A 
ATOM     81  C   UNL A   1      45.182  36.061  27.550  1.00  0.00     0.198 A 
ATOM     82  F   UNL A   1      43.711  34.453  26.663  1.00  0.00    -0.203 F 
ATOM     83  F   UNL A   1      47.137  36.045  30.601  1.00  0.00    -0.200 F 
ATOM     84  C   UNL A   1      46.053  36.473  28.547  1.00  0.00     0.200 A 
ATOM     85  F   UNL A   1      44.933  36.862  26.505  1.00  0.00    -0.200 F 
ATOM     86  F   UNL A   1      46.633  37.679  28.475  1.00  0.00    -0.200 F 
ENDBRANCH  53  76
ENDBRANCH  27  28
ENDBRANCH  20  22
ENDBRANCH  19  20
ENDBRANCH  18  19
ENDBRANCH   1  18
TORSDOF 14
ENDMDL
MODEL 3
REMARK VINA RESULT:     -13.0      0.708      1.836
REMARK SMILES CC(C)[C@@H](NC(=O)[C@H]1CCCO1)C(=O)OCCOC(=O)c1ccc(-c2c3nc(c(-c4c(F)c(F)c(F)c(F)c4F)c4ccc([nH]4)c(-c4c(F)c(F)c(F)c(F)c4F)c4nc(c(-c5c(F)c(F)c(F)c(F)c5F)c5ccc2[nH]5)C=C4)C=C3)cc1
REMARK SMILES IDX 16 1 15 2 13 3 14 4 4 5 2 6 1 7 3 8 5 9 6 10 7 12 8 13 9 14
REMARK SMILES IDX 12 15 10 16 11 17 17 18 18 19 19 20 20 21 21 22 22 23 83 24
REMARK SMILES IDX 23 25 82 26 24 27 25 28 26 29 76 30 27 31 81 32 75 33 77 34
REMARK SMILES IDX 28 35 80 36 74 37 73 38 29 40 61 41 41 42 60 43 42 44 45 45
REMARK SMILES IDX 59 46 78 47 43 48 44 49 58 51 79 52 46 53 30 54 31 55 39 56
REMARK SMILES IDX 32 57 33 58 37 59 40 60 34 61 35 62 38 63 36 64 62 65 63 66
REMARK SMILES IDX 71 67 64 68 65 69 69 70 72 71 66 72 67 73 70 74 68 75 47 76
REMARK SMILES IDX 48 77 56 78 49 79 50 80 54 81 57 82 51 83 52 84 55 85 53 86
REMARK H PARENT 5 11 77 39 45 50
REMARK Flexibility Score: inf
ROOT
ATOM      1  C   UNL A   1      31.807  28.241  27.626  1.00  0.00     0.274 C 
ENDROOT
BRANCH   1   2
ATOM      2  O   UNL A   1      32.282  26.552  26.590  1.00  0.00    -0.461 OA
BRANCH   2   3
ATOM      3  C   UNL A   1      33.221  25.994  25.590  1.00  0.00     0.329 C 
ATOM      4  O   UNL A   1      34.277  25.384  25.740  1.00  0.00    -0.250 OA
BRANCH   3   5
ATOM      5  C   UNL A   1      32.761  26.291  24.218  1.00  0.00     0.194 C 
BRANCH   5   6
ATOM      6  C   UNL A   1      32.835  27.829  24.004  1.00  0.00     0.017 C 
ATOM      7  C   UNL A   1      34.027  28.184  23.114  1.00  0.00     0.010 C 
ATOM      8  C   UNL A   1      31.593  28.430  23.285  1.00  0.00     0.010 C 
ENDBRANCH   5   6
BRANCH   5   9
ATOM      9  N   UNL A   1      33.488  25.373  23.345  1.00  0.00    -0.340 N 
ATOM     10  C   UNL A   1      32.804  24.646  22.355  1.00  0.00     0.249 C 
ATOM     11  H   UNL A   1      34.461  25.264  23.451  1.00  0.00     0.164 HD
ATOM     12  O   UNL A   1      33.281  24.597  21.221  1.00  0.00    -0.272 OA
BRANCH  10  13
ATOM     13  C   UNL A   1      31.591  23.668  22.801  1.00  0.00     0.207 C 
ATOM     14  C   UNL A   1      32.522  21.923  22.751  1.00  0.00     0.044 C 
ATOM     15  O   UNL A   1      30.784  23.771  24.537  1.00  0.00    -0.368 OA
ATOM     16  C   UNL A   1      32.592  21.189  24.569  1.00  0.00     0.032 C 
ATOM     17  C   UNL A   1      31.463  22.350  25.708  1.00  0.00     0.161 C 
ENDBRANCH  10  13
ENDBRANCH   5   9
ENDBRANCH   3   5
ENDBRANCH   2   3
ENDBRANCH   1   2
BRANCH   1  18
ATOM     18  C   UNL A   1      31.771  29.887  27.067  1.00  0.00     0.275 C 
BRANCH  18  19
ATOM     19  O   UNL A   1      32.977  30.534  26.583  1.00  0.00    -0.458 OA
BRANCH  19  20
ATOM     20  C   UNL A   1      33.534  31.552  27.298  1.00  0.00     0.338 C 
ATOM     21  O   UNL A   1      32.991  32.595  27.627  1.00  0.00    -0.246 OA
BRANCH  20  22
ATOM     22  C   UNL A   1      34.900  31.164  27.752  1.00  0.00     0.060 A 
ATOM     23  C   UNL A   1      35.850  32.157  27.985  1.00  0.00     0.016 A 
ATOM     24  C   UNL A   1      35.282  29.835  27.905  1.00  0.00     0.016 A 
ATOM     25  C   UNL A   1      37.143  31.873  28.410  1.00  0.00     0.010 A 
ATOM     26  C   UNL A   1      36.559  29.537  28.417  1.00  0.00     0.010 A 
ATOM     27  C   UNL A   1      37.483  30.558  28.713  1.00  0.00    -0.014 A 
BRANCH  27  28
ATOM     28  C   UNL A   1      38.725  30.260  29.471  1.00  0.00     0.031 A 
ATOM     29  C   UNL A   1      39.732  29.289  28.946  1.00  0.00     0.074 A 
ATOM     30  C   UNL A   1      38.907  30.821  30.684  1.00  0.00     0.049 A 
ATOM     31  N   UNL A   1      40.692  28.669  29.582  1.00  0.00    -0.248 NA
ATOM     32  C   UNL A   1      39.650  28.976  27.514  1.00  0.00     0.031 C 
ATOM     33  C   UNL A   1      38.061  31.859  31.277  1.00  0.00     0.029 A 
ATOM     34  N   UNL A   1      39.843  30.563  31.656  1.00  0.00    -0.354 N 
ATOM     35  C   UNL A   1      41.310  27.862  28.639  1.00  0.00     0.074 A 
ATOM     36  C   UNL A   1      40.620  28.080  27.382  1.00  0.00     0.031 C 
ATOM     37  C   UNL A   1      38.489  32.119  32.521  1.00  0.00     0.029 A 
ATOM     38  C   UNL A   1      39.585  31.212  32.839  1.00  0.00     0.049 A 
ATOM     39  H   UNL A   1      40.619  29.973  31.519  1.00  0.00     0.167 HD
ATOM     40  C   UNL A   1      42.347  27.009  28.819  1.00  0.00     0.037 A 
ATOM     41  C   UNL A   1      40.117  31.046  34.065  1.00  0.00     0.037 A 
ATOM     42  C   UNL A   1      43.027  26.807  30.073  1.00  0.00     0.049 A 
ATOM     43  C   UNL A   1      41.177  30.001  34.270  1.00  0.00     0.074 A 
ATOM     44  C   UNL A   1      44.090  25.964  30.355  1.00  0.00     0.029 A 
ATOM     45  N   UNL A   1      42.709  27.453  31.259  1.00  0.00    -0.354 N 
ATOM     46  N   UNL A   1      41.730  29.198  33.394  1.00  0.00    -0.248 NA
ATOM     47  C   UNL A   1      41.677  29.826  35.642  1.00  0.00     0.031 C 
ATOM     48  C   UNL A   1      44.379  26.062  31.720  1.00  0.00     0.029 A 
ATOM     49  C   UNL A   1      43.533  27.004  32.281  1.00  0.00     0.049 A 
ATOM     50  H   UNL A   1      42.001  28.130  31.360  1.00  0.00     0.167 HD
ATOM     51  C   UNL A   1      42.652  28.439  34.101  1.00  0.00     0.074 A 
ATOM     52  C   UNL A   1      42.597  28.887  35.476  1.00  0.00     0.031 C 
ATOM     53  C   UNL A   1      43.468  27.456  33.647  1.00  0.00     0.037 A 
BRANCH  40  54
ATOM     54  C   UNL A   1      42.778  26.184  27.643  1.00  0.00     0.064 A 
ATOM     55  C   UNL A   1      43.808  26.594  26.786  1.00  0.00     0.173 A 
ATOM     56  C   UNL A   1      42.174  24.941  27.397  1.00  0.00     0.173 A 
ATOM     57  F   UNL A   1      44.410  27.779  26.970  1.00  0.00    -0.203 F 
ATOM     58  C   UNL A   1      44.204  25.800  25.712  1.00  0.00     0.198 A 
ATOM     59  C   UNL A   1      42.590  24.138  26.340  1.00  0.00     0.198 A 
ATOM     60  F   UNL A   1      41.187  24.501  28.192  1.00  0.00    -0.203 F 
ATOM     61  F   UNL A   1      45.164  26.227  24.881  1.00  0.00    -0.200 F 
ATOM     62  C   UNL A   1      43.600  24.569  25.495  1.00  0.00     0.200 A 
ATOM     63  F   UNL A   1      42.014  22.944  26.140  1.00  0.00    -0.200 F 
ATOM     64  F   UNL A   1      43.988  23.802  24.466  1.00  0.00    -0.200 F 
ENDBRANCH  40  54
BRANCH  41  65
ATOM     65  C   UNL A   1      39.600  31.838  35.212  1.00  0.00     0.064 A 
ATOM     66  C   UNL A   1      40.076  33.131  35.464  1.00  0.00     0.173 A 
ATOM     67  C   UNL A   1      38.634  31.315  36.086  1.00  0.00     0.173 A 
ATOM     68  F   UNL A   1      41.023  33.661  34.675  1.00  0.00    -0.203 F 
ATOM     69  C   UNL A   1      39.616  33.866  36.554  1.00  0.00     0.198 A 
ATOM     70  C   UNL A   1      38.153  32.064  37.157  1.00  0.00     0.198 A 
ATOM     71  F   UNL A   1      38.152  30.079  35.894  1.00  0.00    -0.203 F 
ATOM     72  F   UNL A   1      40.124  35.082  36.800  1.00  0.00    -0.200 F 
ATOM     73  C   UNL A   1      38.650  33.335  37.395  1.00  0.00     0.200 A 
ATOM     74  F   UNL A   1      37.213  31.550  37.962  1.00  0.00    -0.200 F 
ATOM     75  F   UNL A   1      38.207  34.045  38.442  1.00  0.00    -0.200 F 
ENDBRANCH  41  65
BRANCH  53  76
ATOM     76  C   UNL A   1      44.391  26.819  34.645  1.00  0.00     0.064 A 
ATOM     77  C   UNL A   1      44.035  25.651  35.335  1.00  0.00     0.173 A 
ATOM     78  C   UNL A   1      45.659  27.367  34.893  1.00  0.00     0.173 A 
ATOM     79  F   UNL A   1      42.826  25.099  35.149  1.00  0.00    -0.203 F 
ATOM     80  C   UNL A   1      44.905  25.067  36.253  1.00  0.00     0.198 A 
ATOM     81  C   UNL A   1      46.538  26.765  35.789  1.00  0.00     0.198 A 
ATOM     82  F   UNL A   1      46.050  28.482  34.257  1.00  0.00    -0.203 F 
ATOM     83  F   UNL A   1      44.525  23.977  36.934  1.00  0.00    -0.200 F 
ATOM     84  C   UNL A   1      46.158  25.620  36.473  1.00  0.00     0.200 A 
ATOM     85  F   UNL A   1      47.752  27.295  35.993  1.00  0.00    -0.200 F 
ATOM     86  F   UNL A   1      46.997  25.054  37.352  1.00  0.00    -0.200 F 
ENDBRANCH  53  76
ENDBRANCH  27  28
ENDBRANCH  20  22
ENDBRANCH  19  20
ENDBRANCH  18  19
ENDBRANCH   1  18
TORSDOF 14
ENDMDL
