MODEL 1
REMARK VINA RESULT:     -12.4      0.000      0.000
REMARK SMILES CCOc1ccc(CNC(=O)Cc2c(C(=O)OCCOC(=O)c3ccc(-c4c5nc(c(-c6c(F)c(F)c(F)c(F)c6F)c6ccc([nH]6)c(-c6c(F)c(F)c(F)c(F)c6F)c6nc(c(-c7c(F)c(F)c(F)c(F)c7F)c7ccc4[nH]7)C=C6)C=C5)cc3)c(C)cn2C)cc1
REMARK SMILES IDX 15 1 16 2 14 3 13 4 89 5 86 6 88 7 90 8 87 9 12 10 10 11
REMARK SMILES IDX 9 12 11 14 8 15 7 16 4 17 5 18 92 19 6 20 91 21 3 22 2 23
REMARK SMILES IDX 1 24 17 25 18 26 19 27 20 28 21 29 22 30 23 31 24 32 85 33
REMARK SMILES IDX 25 34 84 35 26 36 27 37 28 38 78 39 29 40 83 41 77 42 79 43
REMARK SMILES IDX 30 44 82 45 76 46 75 47 31 49 63 50 43 51 62 52 44 53 47 54
REMARK SMILES IDX 61 55 80 56 45 57 46 58 60 60 81 61 48 62 32 63 33 64 41 65
REMARK SMILES IDX 34 66 35 67 39 68 42 69 36 70 37 71 40 72 38 73 64 74 65 75
REMARK SMILES IDX 73 76 66 77 67 78 71 79 74 80 68 81 69 82 72 83 70 84 49 85
REMARK SMILES IDX 50 86 58 87 51 88 52 89 56 90 59 91 53 92 54 93 57 94 55 95
REMARK H PARENT 9 13 79 48 47 59
REMARK Flexibility Score: inf
ROOT
ATOM      1  C   UNL A   1      34.573  21.529  26.496  1.00  0.00     0.340 C 
ATOM      2  O   UNL A   1      34.220  21.430  27.668  1.00  0.00    -0.246 OA
ENDROOT
BRANCH   1   3
ATOM      3  C   UNL A   1      33.621  21.646  25.376  1.00  0.00     0.084 A 
ATOM      4  C   UNL A   1      32.869  22.789  25.034  1.00  0.00     0.041 A 
ATOM      5  N   UNL A   1      32.122  22.458  23.914  1.00  0.00    -0.353 N 
ATOM      6  C   UNL A   1      33.189  20.589  24.485  1.00  0.00    -0.019 A 
ATOM      7  C   UNL A   1      32.266  21.135  23.622  1.00  0.00     0.089 A 
ATOM      8  C   UNL A   1      31.279  23.350  23.142  1.00  0.00     0.149 C 
ATOM      9  C   UNL A   1      33.572  19.150  24.497  1.00  0.00     0.047 C 
BRANCH   4  10
ATOM     10  C   UNL A   1      32.755  24.190  25.604  1.00  0.00     0.154 C 
BRANCH  10  11
ATOM     11  C   UNL A   1      31.686  24.463  26.644  1.00  0.00     0.226 C 
ATOM     12  N   UNL A   1      31.314  25.738  26.965  1.00  0.00    -0.352 N 
ATOM     13  H   UNL A   1      30.540  25.802  27.571  1.00  0.00     0.163 HD
ATOM     14  O   UNL A   1      31.199  23.533  27.297  1.00  0.00    -0.275 OA
BRANCH  12  15
ATOM     15  C   UNL A   1      31.873  27.011  26.557  1.00  0.00     0.151 C 
BRANCH  15  16
ATOM     16  C   UNL A   1      31.202  27.589  25.332  1.00  0.00    -0.029 A 
ATOM     17  C   UNL A   1      29.854  28.636  23.100  1.00  0.00     0.119 A 
ATOM     18  C   UNL A   1      29.510  27.386  23.585  1.00  0.00     0.047 A 
ATOM     19  C   UNL A   1      30.855  29.379  23.720  1.00  0.00     0.047 A 
ATOM     20  C   UNL A   1      30.225  26.850  24.654  1.00  0.00     0.009 A 
ATOM     21  C   UNL A   1      31.521  28.863  24.840  1.00  0.00     0.009 A 
BRANCH  17  22
ATOM     22  O   UNL A   1      29.191  29.170  22.031  1.00  0.00    -0.494 OA
BRANCH  22  23
ATOM     23  C   UNL A   1      27.826  29.466  22.358  1.00  0.00     0.226 C 
ATOM     24  C   UNL A   1      27.707  30.908  22.820  1.00  0.00     0.049 C 
ENDBRANCH  22  23
ENDBRANCH  17  22
ENDBRANCH  15  16
ENDBRANCH  12  15
ENDBRANCH  10  11
ENDBRANCH   4  10
ENDBRANCH   1   3
BRANCH   1  25
ATOM     25  O   UNL A   1      35.894  21.543  26.139  1.00  0.00    -0.458 OA
BRANCH  25  26
ATOM     26  C   UNL A   1      36.510  22.848  26.102  1.00  0.00     0.275 C 
BRANCH  26  27
ATOM     27  C   UNL A   1      38.012  22.809  25.810  1.00  0.00     0.275 C 
BRANCH  27  28
ATOM     28  O   UNL A   1      38.696  23.831  26.523  1.00  0.00    -0.458 OA
BRANCH  28  29
ATOM     29  C   UNL A   1      39.861  23.445  27.090  1.00  0.00     0.338 C 
ATOM     30  O   UNL A   1      40.128  22.341  27.539  1.00  0.00    -0.246 OA
BRANCH  29  31
ATOM     31  C   UNL A   1      40.779  24.589  27.140  1.00  0.00     0.060 A 
ATOM     32  C   UNL A   1      41.477  24.770  28.335  1.00  0.00     0.016 A 
ATOM     33  C   UNL A   1      40.664  25.601  26.178  1.00  0.00     0.016 A 
ATOM     34  C   UNL A   1      41.724  26.059  28.730  1.00  0.00     0.010 A 
ATOM     35  C   UNL A   1      40.909  26.886  26.571  1.00  0.00     0.010 A 
ATOM     36  C   UNL A   1      41.284  27.088  27.894  1.00  0.00    -0.014 A 
BRANCH  36  37
ATOM     37  C   UNL A   1      41.136  28.404  28.456  1.00  0.00     0.031 A 
ATOM     38  C   UNL A   1      42.237  29.307  28.097  1.00  0.00     0.074 A 
ATOM     39  C   UNL A   1      40.060  28.735  29.195  1.00  0.00     0.049 A 
ATOM     40  N   UNL A   1      43.214  29.670  28.854  1.00  0.00    -0.248 NA
ATOM     41  C   UNL A   1      42.382  29.679  26.685  1.00  0.00     0.031 C 
ATOM     42  C   UNL A   1      38.815  27.995  29.422  1.00  0.00     0.029 A 
ATOM     43  N   UNL A   1      39.859  29.888  29.885  1.00  0.00    -0.354 N 
ATOM     44  C   UNL A   1      44.008  30.482  28.058  1.00  0.00     0.074 A 
ATOM     45  C   UNL A   1      43.574  30.276  26.702  1.00  0.00     0.031 C 
ATOM     46  C   UNL A   1      37.912  28.810  30.020  1.00  0.00     0.029 A 
ATOM     47  C   UNL A   1      38.560  30.069  30.342  1.00  0.00     0.049 A 
ATOM     48  H   UNL A   1      40.577  30.541  30.050  1.00  0.00     0.167 HD
ATOM     49  C   UNL A   1      44.770  31.460  28.615  1.00  0.00     0.037 A 
ATOM     50  C   UNL A   1      38.081  31.226  30.866  1.00  0.00     0.037 A 
ATOM     51  C   UNL A   1      44.946  31.240  30.031  1.00  0.00     0.049 A 
ATOM     52  C   UNL A   1      39.263  31.996  31.352  1.00  0.00     0.074 A 
ATOM     53  C   UNL A   1      45.534  30.241  30.784  1.00  0.00     0.029 A 
ATOM     54  N   UNL A   1      44.122  31.920  30.895  1.00  0.00    -0.354 N 
ATOM     55  N   UNL A   1      40.004  31.601  32.355  1.00  0.00    -0.248 NA
ATOM     56  C   UNL A   1      39.920  32.894  30.409  1.00  0.00     0.031 C 
ATOM     57  C   UNL A   1      44.678  30.074  31.913  1.00  0.00     0.029 A 
ATOM     58  C   UNL A   1      43.657  31.020  31.822  1.00  0.00     0.049 A 
ATOM     59  H   UNL A   1      43.904  32.879  30.856  1.00  0.00     0.167 HD
ATOM     60  C   UNL A   1      41.310  31.850  31.955  1.00  0.00     0.074 A 
ATOM     61  C   UNL A   1      41.193  32.693  30.766  1.00  0.00     0.031 C 
ATOM     62  C   UNL A   1      42.352  31.108  32.435  1.00  0.00     0.037 A 
BRANCH  49  63
ATOM     63  C   UNL A   1      45.002  32.797  27.966  1.00  0.00     0.064 A 
ATOM     64  C   UNL A   1      46.301  33.121  27.534  1.00  0.00     0.173 A 
ATOM     65  C   UNL A   1      44.090  33.875  28.021  1.00  0.00     0.173 A 
ATOM     66  F   UNL A   1      47.249  32.175  27.452  1.00  0.00    -0.203 F 
ATOM     67  C   UNL A   1      46.679  34.438  27.267  1.00  0.00     0.198 A 
ATOM     68  C   UNL A   1      44.456  35.179  27.699  1.00  0.00     0.198 A 
ATOM     69  F   UNL A   1      42.846  33.745  28.496  1.00  0.00    -0.203 F 
ATOM     70  F   UNL A   1      47.959  34.717  26.989  1.00  0.00    -0.200 F 
ATOM     71  C   UNL A   1      45.759  35.466  27.359  1.00  0.00     0.200 A 
ATOM     72  F   UNL A   1      43.552  36.161  27.812  1.00  0.00    -0.200 F 
ATOM     73  F   UNL A   1      46.135  36.737  27.172  1.00  0.00    -0.200 F 
ENDBRANCH  49  63
BRANCH  50  74
ATOM     74  C   UNL A   1      36.765  31.855  30.588  1.00  0.00     0.064 A 
ATOM     75  C   UNL A   1      35.885  32.210  31.624  1.00  0.00     0.173 A 
ATOM     76  C   UNL A   1      36.460  32.368  29.311  1.00  0.00     0.173 A 
ATOM     77  F   UNL A   1      36.129  31.812  32.881  1.00  0.00    -0.203 F 
ATOM     78  C   UNL A   1      34.775  33.036  31.396  1.00  0.00     0.198 A 
ATOM     79  C   UNL A   1      35.354  33.188  29.085  1.00  0.00     0.198 A 
ATOM     80  F   UNL A   1      37.282  32.161  28.273  1.00  0.00    -0.203 F 
ATOM     81  F   UNL A   1      33.986  33.395  32.419  1.00  0.00    -0.200 F 
ATOM     82  C   UNL A   1      34.517  33.531  30.129  1.00  0.00     0.200 A 
ATOM     83  F   UNL A   1      35.140  33.694  27.861  1.00  0.00    -0.200 F 
ATOM     84  F   UNL A   1      33.489  34.366  29.921  1.00  0.00    -0.200 F 
ENDBRANCH  50  74
BRANCH  62  85
ATOM     85  C   UNL A   1      42.058  30.137  33.545  1.00  0.00     0.064 A 
ATOM     86  C   UNL A   1      41.676  28.800  33.329  1.00  0.00     0.173 A 
ATOM     87  C   UNL A   1      42.317  30.523  34.864  1.00  0.00     0.173 A 
ATOM     88  F   UNL A   1      41.512  28.326  32.089  1.00  0.00    -0.203 F 
ATOM     89  C   UNL A   1      41.519  27.907  34.389  1.00  0.00     0.198 A 
ATOM     90  C   UNL A   1      42.192  29.623  35.920  1.00  0.00     0.198 A 
ATOM     91  F   UNL A   1      42.745  31.768  35.126  1.00  0.00    -0.203 F 
ATOM     92  F   UNL A   1      41.149  26.639  34.154  1.00  0.00    -0.200 F 
ATOM     93  C   UNL A   1      41.784  28.319  35.684  1.00  0.00     0.200 A 
ATOM     94  F   UNL A   1      42.499  30.010  37.165  1.00  0.00    -0.200 F 
ATOM     95  F   UNL A   1      41.673  27.453  36.702  1.00  0.00    -0.200 F 
ENDBRANCH  62  85
ENDBRANCH  36  37
ENDBRANCH  29  31
ENDBRANCH  28  29
ENDBRANCH  27  28
ENDBRANCH  26  27
ENDBRANCH  25  26
ENDBRANCH   1  25
TORSDOF 17
ENDMDL
MODEL 2
REMARK VINA RESULT:     -12.0      3.351      8.279
REMARK SMILES CCOc1ccc(CNC(=O)Cc2c(C(=O)OCCOC(=O)c3ccc(-c4c5nc(c(-c6c(F)c(F)c(F)c(F)c6F)c6ccc([nH]6)c(-c6c(F)c(F)c(F)c(F)c6F)c6nc(c(-c7c(F)c(F)c(F)c(F)c7F)c7ccc4[nH]7)C=C6)C=C5)cc3)c(C)cn2C)cc1
REMARK SMILES IDX 15 1 16 2 14 3 13 4 89 5 86 6 88 7 90 8 87 9 12 10 10 11
REMARK SMILES IDX 9 12 11 14 8 15 7 16 4 17 5 18 92 19 6 20 91 21 3 22 2 23
REMARK SMILES IDX 1 24 17 25 18 26 19 27 20 28 21 29 22 30 23 31 24 32 85 33
REMARK SMILES IDX 25 34 84 35 26 36 27 37 28 38 78 39 29 40 83 41 77 42 79 43
REMARK SMILES IDX 30 44 82 45 76 46 75 47 31 49 63 50 43 51 62 52 44 53 47 54
REMARK SMILES IDX 61 55 80 56 45 57 46 58 60 60 81 61 48 62 32 63 33 64 41 65
REMARK SMILES IDX 34 66 35 67 39 68 42 69 36 70 37 71 40 72 38 73 64 74 65 75
REMARK SMILES IDX 73 76 66 77 67 78 71 79 74 80 68 81 69 82 72 83 70 84 49 85
REMARK SMILES IDX 50 86 58 87 51 88 52 89 56 90 59 91 53 92 54 93 57 94 55 95
REMARK H PARENT 9 13 79 48 47 59
REMARK Flexibility Score: inf
ROOT
ATOM      1  C   UNL A   1      32.491  28.025  25.469  1.00  0.00     0.340 C 
ATOM      2  O   UNL A   1      31.328  28.120  25.852  1.00  0.00    -0.246 OA
ENDROOT
BRANCH   1   3
ATOM      3  C   UNL A   1      32.895  27.184  24.328  1.00  0.00     0.084 A 
ATOM      4  C   UNL A   1      32.858  25.775  24.273  1.00  0.00     0.041 A 
ATOM      5  N   UNL A   1      33.312  25.410  23.015  1.00  0.00    -0.353 N 
ATOM      6  C   UNL A   1      33.510  27.626  23.093  1.00  0.00    -0.019 A 
ATOM      7  C   UNL A   1      33.756  26.504  22.334  1.00  0.00     0.089 A 
ATOM      8  C   UNL A   1      33.349  24.069  22.464  1.00  0.00     0.149 C 
ATOM      9  C   UNL A   1      33.901  29.006  22.693  1.00  0.00     0.047 C 
BRANCH   4  10
ATOM     10  C   UNL A   1      32.432  24.689  25.243  1.00  0.00     0.154 C 
BRANCH  10  11
ATOM     11  C   UNL A   1      31.081  24.813  25.920  1.00  0.00     0.226 C 
ATOM     12  N   UNL A   1      29.942  25.042  25.200  1.00  0.00    -0.352 N 
ATOM     13  H   UNL A   1      29.108  24.998  25.722  1.00  0.00     0.163 HD
ATOM     14  O   UNL A   1      30.999  24.809  27.154  1.00  0.00    -0.275 OA
BRANCH  12  15
ATOM     15  C   UNL A   1      29.764  25.336  23.793  1.00  0.00     0.151 C 
BRANCH  15  16
ATOM     16  C   UNL A   1      29.078  26.661  23.546  1.00  0.00    -0.029 A 
ATOM     17  C   UNL A   1      27.842  29.119  22.980  1.00  0.00     0.119 A 
ATOM     18  C   UNL A   1      29.156  28.908  22.597  1.00  0.00     0.047 A 
ATOM     19  C   UNL A   1      27.130  28.116  23.632  1.00  0.00     0.047 A 
ATOM     20  C   UNL A   1      29.779  27.709  22.936  1.00  0.00     0.009 A 
ATOM     21  C   UNL A   1      27.741  26.886  23.905  1.00  0.00     0.009 A 
BRANCH  17  22
ATOM     22  O   UNL A   1      27.219  30.300  22.689  1.00  0.00    -0.494 OA
BRANCH  22  23
ATOM     23  C   UNL A   1      27.668  31.354  23.552  1.00  0.00     0.226 C 
ATOM     24  C   UNL A   1      28.458  32.375  22.753  1.00  0.00     0.049 C 
ENDBRANCH  22  23
ENDBRANCH  17  22
ENDBRANCH  15  16
ENDBRANCH  12  15
ENDBRANCH  10  11
ENDBRANCH   4  10
ENDBRANCH   1   3
BRANCH   1  25
ATOM     25  O   UNL A   1      33.511  28.704  26.079  1.00  0.00    -0.458 OA
BRANCH  25  26
ATOM     26  C   UNL A   1      33.296  30.122  26.247  1.00  0.00     0.275 C 
BRANCH  26  27
ATOM     27  C   UNL A   1      33.879  30.681  27.546  1.00  0.00     0.275 C 
BRANCH  27  28
ATOM     28  O   UNL A   1      35.290  30.505  27.588  1.00  0.00    -0.458 OA
BRANCH  28  29
ATOM     29  C   UNL A   1      35.978  31.554  28.091  1.00  0.00     0.338 C 
ATOM     30  O   UNL A   1      35.947  32.709  27.696  1.00  0.00    -0.246 OA
BRANCH  29  31
ATOM     31  C   UNL A   1      36.837  31.090  29.187  1.00  0.00     0.060 A 
ATOM     32  C   UNL A   1      38.007  31.819  29.407  1.00  0.00     0.016 A 
ATOM     33  C   UNL A   1      36.646  29.804  29.708  1.00  0.00     0.016 A 
ATOM     34  C   UNL A   1      39.115  31.123  29.814  1.00  0.00     0.010 A 
ATOM     35  C   UNL A   1      37.750  29.109  30.114  1.00  0.00     0.010 A 
ATOM     36  C   UNL A   1      38.980  29.745  30.005  1.00  0.00    -0.014 A 
BRANCH  36  37
ATOM     37  C   UNL A   1      40.172  28.940  30.004  1.00  0.00     0.031 A 
ATOM     38  C   UNL A   1      40.771  28.804  31.338  1.00  0.00     0.074 A 
ATOM     39  C   UNL A   1      40.627  28.359  28.878  1.00  0.00     0.049 A 
ATOM     40  N   UNL A   1      41.819  29.412  31.778  1.00  0.00    -0.248 NA
ATOM     41  C   UNL A   1      40.007  28.078  32.359  1.00  0.00     0.031 C 
ATOM     42  C   UNL A   1      39.994  28.243  27.561  1.00  0.00     0.029 A 
ATOM     43  N   UNL A   1      41.797  27.688  28.713  1.00  0.00    -0.354 N 
ATOM     44  C   UNL A   1      41.956  28.992  33.092  1.00  0.00     0.074 A 
ATOM     45  C   UNL A   1      40.716  28.360  33.452  1.00  0.00     0.031 C 
ATOM     46  C   UNL A   1      40.695  27.365  26.802  1.00  0.00     0.029 A 
ATOM     47  C   UNL A   1      41.891  26.974  27.526  1.00  0.00     0.049 A 
ATOM     48  H   UNL A   1      42.520  27.709  29.381  1.00  0.00     0.167 HD
ATOM     49  C   UNL A   1      43.182  28.959  33.679  1.00  0.00     0.037 A 
ATOM     50  C   UNL A   1      42.867  26.073  27.243  1.00  0.00     0.037 A 
ATOM     51  C   UNL A   1      44.131  29.767  32.951  1.00  0.00     0.049 A 
ATOM     52  C   UNL A   1      44.025  26.406  28.123  1.00  0.00     0.074 A 
ATOM     53  C   UNL A   1      44.221  31.114  32.654  1.00  0.00     0.029 A 
ATOM     54  N   UNL A   1      44.964  29.134  32.060  1.00  0.00    -0.354 N 
ATOM     55  N   UNL A   1      44.715  27.510  27.999  1.00  0.00    -0.248 NA
ATOM     56  C   UNL A   1      44.071  25.788  29.442  1.00  0.00     0.031 C 
ATOM     57  C   UNL A   1      44.711  31.168  31.315  1.00  0.00     0.029 A 
ATOM     58  C   UNL A   1      44.956  29.860  30.895  1.00  0.00     0.049 A 
ATOM     59  H   UNL A   1      45.474  28.309  32.227  1.00  0.00     0.167 HD
ATOM     60  C   UNL A   1      44.932  27.944  29.300  1.00  0.00     0.074 A 
ATOM     61  C   UNL A   1      44.554  26.816  30.149  1.00  0.00     0.031 C 
ATOM     62  C   UNL A   1      45.106  29.270  29.585  1.00  0.00     0.037 A 
BRANCH  49  63
ATOM     63  C   UNL A   1      43.603  27.893  34.654  1.00  0.00     0.064 A 
ATOM     64  C   UNL A   1      43.513  26.546  34.261  1.00  0.00     0.173 A 
ATOM     65  C   UNL A   1      43.799  28.115  36.036  1.00  0.00     0.173 A 
ATOM     66  F   UNL A   1      43.318  26.222  32.973  1.00  0.00    -0.203 F 
ATOM     67  C   UNL A   1      43.527  25.507  35.193  1.00  0.00     0.198 A 
ATOM     68  C   UNL A   1      43.869  27.072  36.955  1.00  0.00     0.198 A 
ATOM     69  F   UNL A   1      43.815  29.338  36.576  1.00  0.00    -0.203 F 
ATOM     70  F   UNL A   1      43.304  24.249  34.788  1.00  0.00    -0.200 F 
ATOM     71  C   UNL A   1      43.695  25.771  36.539  1.00  0.00     0.200 A 
ATOM     72  F   UNL A   1      44.017  27.354  38.257  1.00  0.00    -0.200 F 
ATOM     73  F   UNL A   1      43.639  24.784  37.441  1.00  0.00    -0.200 F 
ENDBRANCH  49  63
BRANCH  50  74
ATOM     74  C   UNL A   1      42.697  24.746  26.599  1.00  0.00     0.064 A 
ATOM     75  C   UNL A   1      43.306  24.440  25.371  1.00  0.00     0.173 A 
ATOM     76  C   UNL A   1      42.153  23.657  27.310  1.00  0.00     0.173 A 
ATOM     77  F   UNL A   1      43.897  25.406  24.653  1.00  0.00    -0.203 F 
ATOM     78  C   UNL A   1      43.374  23.125  24.890  1.00  0.00     0.198 A 
ATOM     79  C   UNL A   1      42.220  22.348  26.831  1.00  0.00     0.198 A 
ATOM     80  F   UNL A   1      41.627  23.827  28.532  1.00  0.00    -0.203 F 
ATOM     81  F   UNL A   1      44.008  22.864  23.737  1.00  0.00    -0.200 F 
ATOM     82  C   UNL A   1      42.839  22.080  25.625  1.00  0.00     0.200 A 
ATOM     83  F   UNL A   1      41.734  21.343  27.573  1.00  0.00    -0.200 F 
ATOM     84  F   UNL A   1      42.954  20.816  25.195  1.00  0.00    -0.200 F 
ENDBRANCH  50  74
BRANCH  62  85
ATOM     85  C   UNL A   1      45.234  30.217  28.424  1.00  0.00     0.064 A 
ATOM     86  C   UNL A   1      44.137  30.852  27.813  1.00  0.00     0.173 A 
ATOM     87  C   UNL A   1      46.512  30.614  28.017  1.00  0.00     0.173 A 
ATOM     88  F   UNL A   1      42.888  30.605  28.220  1.00  0.00    -0.203 F 
ATOM     89  C   UNL A   1      44.314  31.806  26.811  1.00  0.00     0.198 A 
ATOM     90  C   UNL A   1      46.689  31.590  27.039  1.00  0.00     0.198 A 
ATOM     91  F   UNL A   1      47.597  30.089  28.608  1.00  0.00    -0.203 F 
ATOM     92  F   UNL A   1      43.250  32.392  26.241  1.00  0.00    -0.200 F 
ATOM     93  C   UNL A   1      45.592  32.178  26.429  1.00  0.00     0.200 A 
ATOM     94  F   UNL A   1      47.927  31.985  26.710  1.00  0.00    -0.200 F 
ATOM     95  F   UNL A   1      45.768  33.124  25.495  1.00  0.00    -0.200 F 
ENDBRANCH  62  85
ENDBRANCH  36  37
ENDBRANCH  29  31
ENDBRANCH  28  29
ENDBRANCH  27  28
ENDBRANCH  26  27
ENDBRANCH  25  26
ENDBRANCH   1  25
TORSDOF 17
ENDMDL
MODEL 3
REMARK VINA RESULT:     -11.9      1.395      4.277
REMARK SMILES CCOc1ccc(CNC(=O)Cc2c(C(=O)OCCOC(=O)c3ccc(-c4c5nc(c(-c6c(F)c(F)c(F)c(F)c6F)c6ccc([nH]6)c(-c6c(F)c(F)c(F)c(F)c6F)c6nc(c(-c7c(F)c(F)c(F)c(F)c7F)c7ccc4[nH]7)C=C6)C=C5)cc3)c(C)cn2C)cc1
REMARK SMILES IDX 15 1 16 2 14 3 13 4 89 5 86 6 88 7 90 8 87 9 12 10 10 11
REMARK SMILES IDX 9 12 11 14 8 15 7 16 4 17 5 18 92 19 6 20 91 21 3 22 2 23
REMARK SMILES IDX 1 24 17 25 18 26 19 27 20 28 21 29 22 30 23 31 24 32 85 33
REMARK SMILES IDX 25 34 84 35 26 36 27 37 28 38 78 39 29 40 83 41 77 42 79 43
REMARK SMILES IDX 30 44 82 45 76 46 75 47 31 49 63 50 43 51 62 52 44 53 47 54
REMARK SMILES IDX 61 55 80 56 45 57 46 58 60 60 81 61 48 62 32 63 33 64 41 65
REMARK SMILES IDX 34 66 35 67 39 68 42 69 36 70 37 71 40 72 38 73 64 74 65 75
REMARK SMILES IDX 73 76 66 77 67 78 71 79 74 80 68 81 69 82 72 83 70 84 49 85
REMARK SMILES IDX 50 86 58 87 51 88 52 89 56 90 59 91 53 92 54 93 57 94 55 95
REMARK H PARENT 9 13 79 48 47 59
REMARK Flexibility Score: inf
ROOT
ATOM      1  C   UNL A   1      33.960  25.200  25.598  1.00  0.00     0.340 C 
ATOM      2  O   UNL A   1      33.378  24.526  26.443  1.00  0.00    -0.246 OA
ENDROOT
BRANCH   1   3
ATOM      3  C   UNL A   1      33.396  26.439  25.030  1.00  0.00     0.084 A 
ATOM      4  C   UNL A   1      32.632  26.545  23.849  1.00  0.00     0.041 A 
ATOM      5  N   UNL A   1      32.302  27.884  23.703  1.00  0.00    -0.353 N 
ATOM      6  C   UNL A   1      33.608  27.792  25.504  1.00  0.00    -0.019 A 
ATOM      7  C   UNL A   1      32.930  28.634  24.652  1.00  0.00     0.089 A 
ATOM      8  C   UNL A   1      31.435  28.455  22.691  1.00  0.00     0.149 C 
ATOM      9  C   UNL A   1      34.450  28.255  26.641  1.00  0.00     0.047 C 
BRANCH   4  10
ATOM     10  C   UNL A   1      32.135  25.551  22.817  1.00  0.00     0.154 C 
BRANCH  10  11
ATOM     11  C   UNL A   1      31.095  24.531  23.237  1.00  0.00     0.226 C 
ATOM     12  N   UNL A   1      31.416  23.213  23.402  1.00  0.00    -0.352 N 
ATOM     13  H   UNL A   1      30.696  22.657  23.780  1.00  0.00     0.163 HD
ATOM     14  O   UNL A   1      29.907  24.859  23.343  1.00  0.00    -0.275 OA
BRANCH  12  15
ATOM     15  C   UNL A   1      32.645  22.503  23.113  1.00  0.00     0.151 C 
BRANCH  15  16
ATOM     16  C   UNL A   1      32.731  21.160  23.802  1.00  0.00    -0.029 A 
ATOM     17  C   UNL A   1      32.830  18.706  25.167  1.00  0.00     0.119 A 
ATOM     18  C   UNL A   1      33.080  19.883  25.853  1.00  0.00     0.047 A 
ATOM     19  C   UNL A   1      32.520  18.736  23.810  1.00  0.00     0.047 A 
ATOM     20  C   UNL A   1      33.088  21.089  25.155  1.00  0.00     0.009 A 
ATOM     21  C   UNL A   1      32.460  19.959  23.130  1.00  0.00     0.009 A 
BRANCH  17  22
ATOM     22  O   UNL A   1      32.850  17.507  25.822  1.00  0.00    -0.494 OA
BRANCH  22  23
ATOM     23  C   UNL A   1      32.997  16.414  24.905  1.00  0.00     0.226 C 
ATOM     24  C   UNL A   1      32.423  15.147  25.515  1.00  0.00     0.049 C 
ENDBRANCH  22  23
ENDBRANCH  17  22
ENDBRANCH  15  16
ENDBRANCH  12  15
ENDBRANCH  10  11
ENDBRANCH   4  10
ENDBRANCH   1   3
BRANCH   1  25
ATOM     25  O   UNL A   1      35.192  24.850  25.115  1.00  0.00    -0.458 OA
BRANCH  25  26
ATOM     26  C   UNL A   1      35.882  23.829  25.867  1.00  0.00     0.275 C 
BRANCH  26  27
ATOM     27  C   UNL A   1      37.382  23.760  25.573  1.00  0.00     0.275 C 
BRANCH  27  28
ATOM     28  O   UNL A   1      38.141  24.224  26.683  1.00  0.00    -0.458 OA
BRANCH  28  29
ATOM     29  C   UNL A   1      39.335  23.611  26.849  1.00  0.00     0.338 C 
ATOM     30  O   UNL A   1      39.540  22.409  26.905  1.00  0.00    -0.246 OA
BRANCH  29  31
ATOM     31  C   UNL A   1      40.382  24.627  27.010  1.00  0.00     0.060 A 
ATOM     32  C   UNL A   1      40.982  24.701  28.269  1.00  0.00     0.016 A 
ATOM     33  C   UNL A   1      40.487  25.656  26.067  1.00  0.00     0.016 A 
ATOM     34  C   UNL A   1      41.353  25.943  28.716  1.00  0.00     0.010 A 
ATOM     35  C   UNL A   1      40.857  26.894  26.512  1.00  0.00     0.010 A 
ATOM     36  C   UNL A   1      41.129  27.030  27.867  1.00  0.00    -0.014 A 
BRANCH  36  37
ATOM     37  C   UNL A   1      41.097  28.347  28.446  1.00  0.00     0.031 A 
ATOM     38  C   UNL A   1      42.270  29.155  28.091  1.00  0.00     0.074 A 
ATOM     39  C   UNL A   1      40.057  28.761  29.194  1.00  0.00     0.049 A 
ATOM     40  N   UNL A   1      43.279  29.424  28.847  1.00  0.00    -0.248 NA
ATOM     41  C   UNL A   1      42.441  29.531  26.682  1.00  0.00     0.031 C 
ATOM     42  C   UNL A   1      38.754  28.129  29.419  1.00  0.00     0.029 A 
ATOM     43  N   UNL A   1      39.960  29.918  29.898  1.00  0.00    -0.354 N 
ATOM     44  C   UNL A   1      44.136  30.174  28.055  1.00  0.00     0.074 A 
ATOM     45  C   UNL A   1      43.680  30.022  26.700  1.00  0.00     0.031 C 
ATOM     46  C   UNL A   1      37.927  29.012  30.032  1.00  0.00     0.029 A 
ATOM     47  C   UNL A   1      38.683  30.206  30.364  1.00  0.00     0.049 A 
ATOM     48  H   UNL A   1      40.732  30.505  30.066  1.00  0.00     0.167 HD
ATOM     49  C   UNL A   1      44.982  31.076  28.620  1.00  0.00     0.037 A 
ATOM     50  C   UNL A   1      38.308  31.394  30.904  1.00  0.00     0.037 A 
ATOM     51  C   UNL A   1      45.145  30.824  30.032  1.00  0.00     0.049 A 
ATOM     52  C   UNL A   1      39.555  32.053  31.393  1.00  0.00     0.074 A 
ATOM     53  C   UNL A   1      45.648  29.770  30.770  1.00  0.00     0.029 A 
ATOM     54  N   UNL A   1      44.386  31.563  30.908  1.00  0.00    -0.354 N 
ATOM     55  N   UNL A   1      40.263  31.583  32.386  1.00  0.00    -0.248 NA
ATOM     56  C   UNL A   1      40.282  32.902  30.456  1.00  0.00     0.031 C 
ATOM     57  C   UNL A   1      44.785  29.664  31.902  1.00  0.00     0.029 A 
ATOM     58  C   UNL A   1      43.850  30.696  31.827  1.00  0.00     0.049 A 
ATOM     59  H   UNL A   1      44.252  32.538  30.881  1.00  0.00     0.167 HD
ATOM     60  C   UNL A   1      41.584  31.724  31.982  1.00  0.00     0.074 A 
ATOM     61  C   UNL A   1      41.535  32.588  30.804  1.00  0.00     0.031 C 
ATOM     62  C   UNL A   1      42.560  30.889  32.449  1.00  0.00     0.037 A 
BRANCH  49  63
ATOM     63  C   UNL A   1      45.326  32.395  27.984  1.00  0.00     0.064 A 
ATOM     64  C   UNL A   1      44.300  33.336  27.784  1.00  0.00     0.173 A 
ATOM     65  C   UNL A   1      46.536  32.655  27.301  1.00  0.00     0.173 A 
ATOM     66  F   UNL A   1      43.107  33.182  28.378  1.00  0.00    -0.203 F 
ATOM     67  C   UNL A   1      44.445  34.402  26.895  1.00  0.00     0.198 A 
ATOM     68  C   UNL A   1      46.695  33.752  26.459  1.00  0.00     0.198 A 
ATOM     69  F   UNL A   1      47.571  31.809  27.319  1.00  0.00    -0.203 F 
ATOM     70  F   UNL A   1      43.398  35.195  26.633  1.00  0.00    -0.200 F 
ATOM     71  C   UNL A   1      45.639  34.604  26.226  1.00  0.00     0.200 A 
ATOM     72  F   UNL A   1      47.856  33.917  25.809  1.00  0.00    -0.200 F 
ATOM     73  F   UNL A   1      45.758  35.583  25.322  1.00  0.00    -0.200 F 
ENDBRANCH  49  63
BRANCH  50  74
ATOM     74  C   UNL A   1      37.050  32.137  30.641  1.00  0.00     0.064 A 
ATOM     75  C   UNL A   1      36.206  32.549  31.685  1.00  0.00     0.173 A 
ATOM     76  C   UNL A   1      36.789  32.696  29.373  1.00  0.00     0.173 A 
ATOM     77  F   UNL A   1      36.415  32.109  32.934  1.00  0.00    -0.203 F 
ATOM     78  C   UNL A   1      35.170  33.469  31.474  1.00  0.00     0.198 A 
ATOM     79  C   UNL A   1      35.756  33.612  29.164  1.00  0.00     0.198 A 
ATOM     80  F   UNL A   1      37.588  32.438  28.329  1.00  0.00    -0.203 F 
ATOM     81  F   UNL A   1      34.415  33.877  32.504  1.00  0.00    -0.200 F 
ATOM     82  C   UNL A   1      34.952  34.007  30.216  1.00  0.00     0.200 A 
ATOM     83  F   UNL A   1      35.585  34.154  27.949  1.00  0.00    -0.200 F 
ATOM     84  F   UNL A   1      34.000  34.930  30.025  1.00  0.00    -0.200 F 
ENDBRANCH  50  74
BRANCH  62  85
ATOM     85  C   UNL A   1      42.188  29.934  33.549  1.00  0.00     0.064 A 
ATOM     86  C   UNL A   1      41.693  28.637  33.320  1.00  0.00     0.173 A 
ATOM     87  C   UNL A   1      42.482  30.282  34.871  1.00  0.00     0.173 A 
ATOM     88  F   UNL A   1      41.487  28.192  32.075  1.00  0.00    -0.203 F 
ATOM     89  C   UNL A   1      41.465  27.748  34.370  1.00  0.00     0.198 A 
ATOM     90  C   UNL A   1      42.285  29.383  35.917  1.00  0.00     0.198 A 
ATOM     91  F   UNL A   1      43.016  31.483  35.145  1.00  0.00    -0.203 F 
ATOM     92  F   UNL A   1      40.988  26.519  34.123  1.00  0.00    -0.200 F 
ATOM     93  C   UNL A   1      41.767  28.122  35.669  1.00  0.00     0.200 A 
ATOM     94  F   UNL A   1      42.627  29.730  37.166  1.00  0.00    -0.200 F 
ATOM     95  F   UNL A   1      41.586  27.257  36.678  1.00  0.00    -0.200 F 
ENDBRANCH  62  85
ENDBRANCH  36  37
ENDBRANCH  29  31
ENDBRANCH  28  29
ENDBRANCH  27  28
ENDBRANCH  26  27
ENDBRANCH  25  26
ENDBRANCH   1  25
TORSDOF 17
ENDMDL
