MODEL 1
REMARK VINA RESULT:     -11.8      0.000      0.000
REMARK SMILES COC(=O)c1cscc1NS(=O)(=O)c1cc(C)c(C(=O)OCCOC(=O)c2ccc(-c3c4nc(c(-c5c(F)c(F)c(F)c(F)c5F)c5ccc([nH]5)c(-c5c(F)c(F)c(F)c(F)c5F)c5nc(c(-c6c(F)c(F)c(F)c(F)c6F)c6ccc3[nH]6)C=C5)C=C4)cc2)s1
REMARK SMILES IDX 21 1 19 2 20 3 18 4 14 5 15 6 90 7 16 8 17 9 11 10 12 11
REMARK SMILES IDX 13 12 10 13 9 15 5 16 6 17 7 18 8 19 3 20 4 21 2 22 1 23
REMARK SMILES IDX 22 24 23 25 24 26 25 27 26 28 27 29 28 30 89 31 29 32 88 33
REMARK SMILES IDX 30 34 31 35 32 36 82 37 33 38 87 39 81 40 83 41 34 42 86 43
REMARK SMILES IDX 80 44 79 45 35 47 67 48 47 49 66 50 48 51 51 52 65 53 84 54
REMARK SMILES IDX 49 55 50 56 64 58 85 59 52 60 36 61 37 62 45 63 38 64 39 65
REMARK SMILES IDX 43 66 46 67 40 68 41 69 44 70 42 71 68 72 69 73 77 74 70 75
REMARK SMILES IDX 71 76 75 77 78 78 72 79 73 80 76 81 74 82 53 83 54 84 62 85
REMARK SMILES IDX 55 86 56 87 60 88 63 89 57 90 58 91 61 92 59 93
REMARK H PARENT 10 14 83 46 51 57
REMARK Flexibility Score: inf
ROOT
ATOM      1  O   UNL A   1      30.211  29.491  23.881  1.00  0.00    -0.458 OA
ENDROOT
BRANCH   1   2
ATOM      2  C   UNL A   1      30.087  28.870  22.671  1.00  0.00     0.348 C 
ATOM      3  O   UNL A   1      29.853  29.461  21.623  1.00  0.00    -0.245 OA
BRANCH   2   4
ATOM      4  C   UNL A   1      30.317  27.434  22.798  1.00  0.00     0.116 A 
ATOM      5  C   UNL A   1      31.535  25.277  22.863  1.00  0.00     0.141 A 
ATOM      6  C   UNL A   1      30.225  25.153  23.280  1.00  0.00     0.038 A 
ATOM      7  S   UNL A   1      31.742  26.780  22.084  1.00  0.00    -0.115 S 
ATOM      8  C   UNL A   1      29.574  26.430  23.409  1.00  0.00    -0.024 A 
ATOM      9  C   UNL A   1      28.282  26.611  24.138  1.00  0.00     0.046 C 
BRANCH   5  10
ATOM     10  S   UNL A   1      32.991  24.252  22.950  1.00  0.00     0.271 S 
ATOM     11  O   UNL A   1      33.889  24.797  21.953  1.00  0.00    -0.200 OA
ATOM     12  O   UNL A   1      32.494  22.895  22.871  1.00  0.00    -0.200 OA
BRANCH  10  13
ATOM     13  N   UNL A   1      33.750  24.385  24.440  1.00  0.00    -0.277 N 
ATOM     14  H   UNL A   1      34.224  25.231  24.611  1.00  0.00     0.180 HD
BRANCH  13  15
ATOM     15  C   UNL A   1      33.789  23.435  25.472  1.00  0.00     0.074 A 
ATOM     16  C   UNL A   1      32.906  23.518  26.611  1.00  0.00     0.094 A 
ATOM     17  C   UNL A   1      33.288  22.626  27.599  1.00  0.00     0.082 A 
ATOM     18  S   UNL A   1      34.539  21.581  27.095  1.00  0.00    -0.149 S 
ATOM     19  C   UNL A   1      34.608  22.328  25.558  1.00  0.00     0.092 A 
BRANCH  16  20
ATOM     20  C   UNL A   1      31.772  24.433  26.732  1.00  0.00     0.340 C 
ATOM     21  O   UNL A   1      31.831  25.600  26.362  1.00  0.00    -0.246 OA
BRANCH  20  22
ATOM     22  O   UNL A   1      30.660  23.835  27.245  1.00  0.00    -0.465 OA
ATOM     23  C   UNL A   1      30.073  22.808  26.440  1.00  0.00     0.282 C 
ENDBRANCH  20  22
ENDBRANCH  16  20
ENDBRANCH  13  15
ENDBRANCH  10  13
ENDBRANCH   5  10
ENDBRANCH   2   4
ENDBRANCH   1   2
BRANCH   1  24
ATOM     24  C   UNL A   1      31.455  29.291  24.582  1.00  0.00     0.275 C 
BRANCH  24  25
ATOM     25  C   UNL A   1      31.659  30.285  25.730  1.00  0.00     0.275 C 
BRANCH  25  26
ATOM     26  O   UNL A   1      33.020  30.288  26.197  1.00  0.00    -0.458 OA
BRANCH  26  27
ATOM     27  C   UNL A   1      33.350  31.335  26.987  1.00  0.00     0.338 C 
ATOM     28  O   UNL A   1      32.647  32.286  27.285  1.00  0.00    -0.246 OA
BRANCH  27  29
ATOM     29  C   UNL A   1      34.664  31.098  27.603  1.00  0.00     0.060 A 
ATOM     30  C   UNL A   1      34.971  29.780  27.925  1.00  0.00     0.016 A 
ATOM     31  C   UNL A   1      35.525  32.129  27.969  1.00  0.00     0.016 A 
ATOM     32  C   UNL A   1      36.122  29.471  28.636  1.00  0.00     0.010 A 
ATOM     33  C   UNL A   1      36.704  31.818  28.663  1.00  0.00     0.010 A 
ATOM     34  C   UNL A   1      37.004  30.487  29.015  1.00  0.00    -0.014 A 
BRANCH  34  35
ATOM     35  C   UNL A   1      38.195  30.142  29.833  1.00  0.00     0.031 A 
ATOM     36  C   UNL A   1      39.262  29.250  29.265  1.00  0.00     0.074 A 
ATOM     37  C   UNL A   1      38.349  30.675  31.061  1.00  0.00     0.049 A 
ATOM     38  N   UNL A   1      40.319  28.743  29.848  1.00  0.00    -0.248 NA
ATOM     39  C   UNL A   1      39.115  28.871  27.852  1.00  0.00     0.031 C 
ATOM     40  C   UNL A   1      37.422  31.612  31.695  1.00  0.00     0.029 A 
ATOM     41  N   UNL A   1      39.347  30.512  31.990  1.00  0.00    -0.354 N 
ATOM     42  C   UNL A   1      40.940  27.957  28.886  1.00  0.00     0.074 A 
ATOM     43  C   UNL A   1      40.135  28.042  27.687  1.00  0.00     0.031 C 
ATOM     44  C   UNL A   1      37.903  31.956  32.899  1.00  0.00     0.029 A 
ATOM     45  C   UNL A   1      39.131  31.212  33.152  1.00  0.00     0.049 A 
ATOM     46  H   UNL A   1      40.139  29.949  31.837  1.00  0.00     0.167 HD
ATOM     47  C   UNL A   1      42.080  27.233  28.999  1.00  0.00     0.037 A 
ATOM     48  C   UNL A   1      39.826  31.221  34.306  1.00  0.00     0.037 A 
ATOM     49  C   UNL A   1      42.897  27.188  30.185  1.00  0.00     0.049 A 
ATOM     50  C   UNL A   1      41.057  30.365  34.425  1.00  0.00     0.074 A 
ATOM     51  C   UNL A   1      44.076  26.495  30.397  1.00  0.00     0.029 A 
ATOM     52  N   UNL A   1      42.622  27.876  31.359  1.00  0.00    -0.354 N 
ATOM     53  N   UNL A   1      41.616  29.590  33.528  1.00  0.00    -0.248 NA
ATOM     54  C   UNL A   1      41.746  30.376  35.722  1.00  0.00     0.031 C 
ATOM     55  C   UNL A   1      44.487  26.723  31.715  1.00  0.00     0.029 A 
ATOM     56  C   UNL A   1      43.595  27.604  32.307  1.00  0.00     0.049 A 
ATOM     57  H   UNL A   1      41.849  28.470  31.497  1.00  0.00     0.167 HD
ATOM     58  C   UNL A   1      42.730  29.035  34.141  1.00  0.00     0.074 A 
ATOM     59  C   UNL A   1      42.779  29.578  35.483  1.00  0.00     0.031 C 
ATOM     60  C   UNL A   1      43.630  28.154  33.639  1.00  0.00     0.037 A 
BRANCH  47  61
ATOM     61  C   UNL A   1      42.485  26.391  27.822  1.00  0.00     0.064 A 
ATOM     62  C   UNL A   1      41.962  25.107  27.606  1.00  0.00     0.173 A 
ATOM     63  C   UNL A   1      43.401  26.891  26.883  1.00  0.00     0.173 A 
ATOM     64  F   UNL A   1      41.093  24.576  28.479  1.00  0.00    -0.203 F 
ATOM     65  C   UNL A   1      42.368  24.343  26.514  1.00  0.00     0.198 A 
ATOM     66  C   UNL A   1      43.780  26.137  25.775  1.00  0.00     0.198 A 
ATOM     67  F   UNL A   1      43.927  28.116  27.036  1.00  0.00    -0.203 F 
ATOM     68  F   UNL A   1      41.898  23.097  26.357  1.00  0.00    -0.200 F 
ATOM     69  C   UNL A   1      43.271  24.859  25.597  1.00  0.00     0.200 A 
ATOM     70  F   UNL A   1      44.642  26.644  24.884  1.00  0.00    -0.200 F 
ATOM     71  F   UNL A   1      43.657  24.124  24.545  1.00  0.00    -0.200 F 
ENDBRANCH  47  61
BRANCH  48  72
ATOM     72  C   UNL A   1      39.347  32.042  35.450  1.00  0.00     0.064 A 
ATOM     73  C   UNL A   1      39.718  33.386  35.584  1.00  0.00     0.173 A 
ATOM     74  C   UNL A   1      38.503  31.498  36.430  1.00  0.00     0.173 A 
ATOM     75  F   UNL A   1      40.547  33.946  34.690  1.00  0.00    -0.203 F 
ATOM     76  C   UNL A   1      39.270  34.152  36.659  1.00  0.00     0.198 A 
ATOM     77  C   UNL A   1      38.031  32.273  37.486  1.00  0.00     0.198 A 
ATOM     78  F   UNL A   1      38.123  30.214  36.353  1.00  0.00    -0.203 F 
ATOM     79  F   UNL A   1      39.675  35.423  36.788  1.00  0.00    -0.200 F 
ATOM     80  C   UNL A   1      38.420  33.599  37.604  1.00  0.00     0.200 A 
ATOM     81  F   UNL A   1      37.198  31.736  38.389  1.00  0.00    -0.200 F 
ATOM     82  F   UNL A   1      37.983  34.337  38.633  1.00  0.00    -0.200 F 
ENDBRANCH  48  72
BRANCH  60  83
ATOM     83  C   UNL A   1      44.762  27.747  34.536  1.00  0.00     0.064 A 
ATOM     84  C   UNL A   1      44.682  26.610  35.355  1.00  0.00     0.173 A 
ATOM     85  C   UNL A   1      45.956  28.484  34.550  1.00  0.00     0.173 A 
ATOM     86  F   UNL A   1      43.556  25.882  35.389  1.00  0.00    -0.203 F 
ATOM     87  C   UNL A   1      45.746  26.243  36.174  1.00  0.00     0.198 A 
ATOM     88  C   UNL A   1      47.029  28.096  35.347  1.00  0.00     0.198 A 
ATOM     89  F   UNL A   1      46.087  29.575  33.781  1.00  0.00    -0.203 F 
ATOM     90  F   UNL A   1      45.630  25.182  36.985  1.00  0.00    -0.200 F 
ATOM     91  C   UNL A   1      46.920  26.981  36.164  1.00  0.00     0.200 A 
ATOM     92  F   UNL A   1      48.168  28.802  35.327  1.00  0.00    -0.200 F 
ATOM     93  F   UNL A   1      47.945  26.622  36.949  1.00  0.00    -0.200 F 
ENDBRANCH  60  83
ENDBRANCH  34  35
ENDBRANCH  27  29
ENDBRANCH  26  27
ENDBRANCH  25  26
ENDBRANCH  24  25
ENDBRANCH   1  24
TORSDOF 16
ENDMDL
MODEL 2
REMARK VINA RESULT:     -11.7      2.839      8.714
REMARK SMILES COC(=O)c1cscc1NS(=O)(=O)c1cc(C)c(C(=O)OCCOC(=O)c2ccc(-c3c4nc(c(-c5c(F)c(F)c(F)c(F)c5F)c5ccc([nH]5)c(-c5c(F)c(F)c(F)c(F)c5F)c5nc(c(-c6c(F)c(F)c(F)c(F)c6F)c6ccc3[nH]6)C=C5)C=C4)cc2)s1
REMARK SMILES IDX 21 1 19 2 20 3 18 4 14 5 15 6 90 7 16 8 17 9 11 10 12 11
REMARK SMILES IDX 13 12 10 13 9 15 5 16 6 17 7 18 8 19 3 20 4 21 2 22 1 23
REMARK SMILES IDX 22 24 23 25 24 26 25 27 26 28 27 29 28 30 89 31 29 32 88 33
REMARK SMILES IDX 30 34 31 35 32 36 82 37 33 38 87 39 81 40 83 41 34 42 86 43
REMARK SMILES IDX 80 44 79 45 35 47 67 48 47 49 66 50 48 51 51 52 65 53 84 54
REMARK SMILES IDX 49 55 50 56 64 58 85 59 52 60 36 61 37 62 45 63 38 64 39 65
REMARK SMILES IDX 43 66 46 67 40 68 41 69 44 70 42 71 68 72 69 73 77 74 70 75
REMARK SMILES IDX 71 76 75 77 78 78 72 79 73 80 76 81 74 82 53 83 54 84 62 85
REMARK SMILES IDX 55 86 56 87 60 88 63 89 57 90 58 91 61 92 59 93
REMARK H PARENT 10 14 83 46 51 57
REMARK Flexibility Score: inf
ROOT
ATOM      1  O   UNL A   1      34.060  33.578  28.855  1.00  0.00    -0.458 OA
ENDROOT
BRANCH   1   2
ATOM      2  C   UNL A   1      35.097  32.850  28.343  1.00  0.00     0.348 C 
ATOM      3  O   UNL A   1      36.269  33.206  28.395  1.00  0.00    -0.245 OA
BRANCH   2   4
ATOM      4  C   UNL A   1      34.620  31.591  27.780  1.00  0.00     0.116 A 
ATOM      5  C   UNL A   1      33.184  30.004  26.532  1.00  0.00     0.141 A 
ATOM      6  C   UNL A   1      34.376  29.432  26.928  1.00  0.00     0.038 A 
ATOM      7  S   UNL A   1      32.951  31.470  27.372  1.00  0.00    -0.115 S 
ATOM      8  C   UNL A   1      35.279  30.399  27.496  1.00  0.00    -0.024 A 
ATOM      9  C   UNL A   1      36.732  30.124  27.708  1.00  0.00     0.046 C 
BRANCH   5  10
ATOM     10  S   UNL A   1      31.888  29.561  25.390  1.00  0.00     0.271 S 
ATOM     11  O   UNL A   1      31.001  30.705  25.374  1.00  0.00    -0.200 OA
ATOM     12  O   UNL A   1      31.442  28.255  25.826  1.00  0.00    -0.200 OA
BRANCH  10  13
ATOM     13  N   UNL A   1      32.480  29.358  23.835  1.00  0.00    -0.277 N 
ATOM     14  H   UNL A   1      32.876  30.155  23.414  1.00  0.00     0.180 HD
BRANCH  13  15
ATOM     15  C   UNL A   1      32.479  28.187  23.062  1.00  0.00     0.074 A 
ATOM     16  C   UNL A   1      31.265  27.658  22.488  1.00  0.00     0.094 A 
ATOM     17  C   UNL A   1      31.470  26.386  21.981  1.00  0.00     0.082 A 
ATOM     18  S   UNL A   1      33.111  25.923  22.008  1.00  0.00    -0.149 S 
ATOM     19  C   UNL A   1      33.567  27.406  22.726  1.00  0.00     0.092 A 
BRANCH  16  20
ATOM     20  C   UNL A   1      29.977  28.349  22.461  1.00  0.00     0.340 C 
ATOM     21  O   UNL A   1      29.017  27.971  23.125  1.00  0.00    -0.246 OA
BRANCH  20  22
ATOM     22  O   UNL A   1      29.987  29.460  21.672  1.00  0.00    -0.465 OA
ATOM     23  C   UNL A   1      29.102  30.514  22.063  1.00  0.00     0.282 C 
ENDBRANCH  20  22
ENDBRANCH  16  20
ENDBRANCH  13  15
ENDBRANCH  10  13
ENDBRANCH   5  10
ENDBRANCH   2   4
ENDBRANCH   1   2
BRANCH   1  24
ATOM     24  C   UNL A   1      34.139  35.009  28.696  1.00  0.00     0.275 C 
BRANCH  24  25
ATOM     25  C   UNL A   1      32.925  35.740  29.278  1.00  0.00     0.275 C 
BRANCH  25  26
ATOM     26  O   UNL A   1      32.432  35.094  30.466  1.00  0.00    -0.458 OA
BRANCH  26  27
ATOM     27  C   UNL A   1      32.788  35.686  31.628  1.00  0.00     0.338 C 
ATOM     28  O   UNL A   1      32.217  36.605  32.194  1.00  0.00    -0.246 OA
BRANCH  27  29
ATOM     29  C   UNL A   1      33.903  34.951  32.240  1.00  0.00     0.060 A 
ATOM     30  C   UNL A   1      35.164  35.529  32.130  1.00  0.00     0.016 A 
ATOM     31  C   UNL A   1      33.759  33.684  32.798  1.00  0.00     0.016 A 
ATOM     32  C   UNL A   1      36.299  34.848  32.548  1.00  0.00     0.010 A 
ATOM     33  C   UNL A   1      34.900  33.003  33.249  1.00  0.00     0.010 A 
ATOM     34  C   UNL A   1      36.181  33.575  33.113  1.00  0.00    -0.014 A 
BRANCH  34  35
ATOM     35  C   UNL A   1      37.413  32.836  33.493  1.00  0.00     0.031 A 
ATOM     36  C   UNL A   1      38.051  33.079  34.831  1.00  0.00     0.074 A 
ATOM     37  C   UNL A   1      37.926  31.906  32.663  1.00  0.00     0.049 A 
ATOM     38  N   UNL A   1      39.181  32.623  35.308  1.00  0.00    -0.248 NA
ATOM     39  C   UNL A   1      37.321  33.961  35.753  1.00  0.00     0.031 C 
ATOM     40  C   UNL A   1      37.358  31.525  31.370  1.00  0.00     0.029 A 
ATOM     41  N   UNL A   1      39.034  31.107  32.790  1.00  0.00    -0.354 N 
ATOM     42  C   UNL A   1      39.316  33.191  36.568  1.00  0.00     0.074 A 
ATOM     43  C   UNL A   1      38.160  34.037  36.776  1.00  0.00     0.031 C 
ATOM     44  C   UNL A   1      38.109  30.553  30.832  1.00  0.00     0.029 A 
ATOM     45  C   UNL A   1      39.248  30.292  31.705  1.00  0.00     0.049 A 
ATOM     46  H   UNL A   1      39.618  31.115  33.583  1.00  0.00     0.167 HD
ATOM     47  C   UNL A   1      40.316  33.019  37.467  1.00  0.00     0.037 A 
ATOM     48  C   UNL A   1      40.269  29.458  31.427  1.00  0.00     0.037 A 
ATOM     49  C   UNL A   1      41.441  32.142  37.268  1.00  0.00     0.049 A 
ATOM     50  C   UNL A   1      41.395  29.327  32.417  1.00  0.00     0.074 A 
ATOM     51  C   UNL A   1      42.501  31.888  38.120  1.00  0.00     0.029 A 
ATOM     52  N   UNL A   1      41.647  31.367  36.134  1.00  0.00    -0.354 N 
ATOM     53  N   UNL A   1      41.540  29.900  33.586  1.00  0.00    -0.248 NA
ATOM     54  C   UNL A   1      42.506  28.443  32.040  1.00  0.00     0.031 C 
ATOM     55  C   UNL A   1      43.373  30.998  37.483  1.00  0.00     0.029 A 
ATOM     56  C   UNL A   1      42.829  30.654  36.255  1.00  0.00     0.049 A 
ATOM     57  H   UNL A   1      41.041  31.330  35.358  1.00  0.00     0.167 HD
ATOM     58  C   UNL A   1      42.744  29.434  34.095  1.00  0.00     0.074 A 
ATOM     59  C   UNL A   1      43.282  28.516  33.113  1.00  0.00     0.031 C 
ATOM     60  C   UNL A   1      43.349  29.742  35.268  1.00  0.00     0.037 A 
BRANCH  47  61
ATOM     61  C   UNL A   1      40.260  33.833  38.729  1.00  0.00     0.064 A 
ATOM     62  C   UNL A   1      39.578  33.393  39.873  1.00  0.00     0.173 A 
ATOM     63  C   UNL A   1      40.923  35.068  38.796  1.00  0.00     0.173 A 
ATOM     64  F   UNL A   1      38.918  32.225  39.859  1.00  0.00    -0.203 F 
ATOM     65  C   UNL A   1      39.531  34.177  41.024  1.00  0.00     0.198 A 
ATOM     66  C   UNL A   1      40.900  35.835  39.959  1.00  0.00     0.198 A 
ATOM     67  F   UNL A   1      41.598  35.534  37.734  1.00  0.00    -0.203 F 
ATOM     68  F   UNL A   1      38.826  33.763  42.087  1.00  0.00    -0.200 F 
ATOM     69  C   UNL A   1      40.196  35.393  41.069  1.00  0.00     0.200 A 
ATOM     70  F   UNL A   1      41.556  37.002  40.004  1.00  0.00    -0.200 F 
ATOM     71  F   UNL A   1      40.152  36.143  42.178  1.00  0.00    -0.200 F 
ENDBRANCH  47  61
BRANCH  48  72
ATOM     72  C   UNL A   1      40.287  28.716  30.139  1.00  0.00     0.064 A 
ATOM     73  C   UNL A   1      40.978  29.211  29.026  1.00  0.00     0.173 A 
ATOM     74  C   UNL A   1      39.617  27.491  29.998  1.00  0.00     0.173 A 
ATOM     75  F   UNL A   1      41.610  30.392  29.099  1.00  0.00    -0.203 F 
ATOM     76  C   UNL A   1      40.991  28.514  27.818  1.00  0.00     0.198 A 
ATOM     77  C   UNL A   1      39.657  26.780  28.801  1.00  0.00     0.198 A 
ATOM     78  F   UNL A   1      38.935  26.975  31.032  1.00  0.00    -0.203 F 
ATOM     79  F   UNL A   1      41.622  29.031  26.756  1.00  0.00    -0.200 F 
ATOM     80  C   UNL A   1      40.339  27.295  27.710  1.00  0.00     0.200 A 
ATOM     81  F   UNL A   1      39.035  25.596  28.707  1.00  0.00    -0.200 F 
ATOM     82  F   UNL A   1      40.358  26.622  26.552  1.00  0.00    -0.200 F 
ENDBRANCH  48  72
BRANCH  60  83
ATOM     83  C   UNL A   1      44.650  29.054  35.567  1.00  0.00     0.064 A 
ATOM     84  C   UNL A   1      45.883  29.617  35.206  1.00  0.00     0.173 A 
ATOM     85  C   UNL A   1      44.662  27.830  36.256  1.00  0.00     0.173 A 
ATOM     86  F   UNL A   1      45.923  30.776  34.533  1.00  0.00    -0.203 F 
ATOM     87  C   UNL A   1      47.079  28.968  35.500  1.00  0.00     0.198 A 
ATOM     88  C   UNL A   1      45.862  27.200  36.575  1.00  0.00     0.198 A 
ATOM     89  F   UNL A   1      43.512  27.252  36.629  1.00  0.00    -0.203 F 
ATOM     90  F   UNL A   1      48.243  29.501  35.102  1.00  0.00    -0.200 F 
ATOM     91  C   UNL A   1      47.068  27.765  36.189  1.00  0.00     0.200 A 
ATOM     92  F   UNL A   1      45.851  26.044  37.253  1.00  0.00    -0.200 F 
ATOM     93  F   UNL A   1      48.221  27.146  36.476  1.00  0.00    -0.200 F 
ENDBRANCH  60  83
ENDBRANCH  34  35
ENDBRANCH  27  29
ENDBRANCH  26  27
ENDBRANCH  25  26
ENDBRANCH  24  25
ENDBRANCH   1  24
TORSDOF 16
ENDMDL
MODEL 3
REMARK VINA RESULT:     -11.7      1.137      2.376
REMARK SMILES COC(=O)c1cscc1NS(=O)(=O)c1cc(C)c(C(=O)OCCOC(=O)c2ccc(-c3c4nc(c(-c5c(F)c(F)c(F)c(F)c5F)c5ccc([nH]5)c(-c5c(F)c(F)c(F)c(F)c5F)c5nc(c(-c6c(F)c(F)c(F)c(F)c6F)c6ccc3[nH]6)C=C5)C=C4)cc2)s1
REMARK SMILES IDX 21 1 19 2 20 3 18 4 14 5 15 6 90 7 16 8 17 9 11 10 12 11
REMARK SMILES IDX 13 12 10 13 9 15 5 16 6 17 7 18 8 19 3 20 4 21 2 22 1 23
REMARK SMILES IDX 22 24 23 25 24 26 25 27 26 28 27 29 28 30 89 31 29 32 88 33
REMARK SMILES IDX 30 34 31 35 32 36 82 37 33 38 87 39 81 40 83 41 34 42 86 43
REMARK SMILES IDX 80 44 79 45 35 47 67 48 47 49 66 50 48 51 51 52 65 53 84 54
REMARK SMILES IDX 49 55 50 56 64 58 85 59 52 60 36 61 37 62 45 63 38 64 39 65
REMARK SMILES IDX 43 66 46 67 40 68 41 69 44 70 42 71 68 72 69 73 77 74 70 75
REMARK SMILES IDX 71 76 75 77 78 78 72 79 73 80 76 81 74 82 53 83 54 84 62 85
REMARK SMILES IDX 55 86 56 87 60 88 63 89 57 90 58 91 61 92 59 93
REMARK H PARENT 10 14 83 46 51 57
REMARK Flexibility Score: inf
ROOT
ATOM      1  O   UNL A   1      30.320  29.328  23.852  1.00  0.00    -0.458 OA
ENDROOT
BRANCH   1   2
ATOM      2  C   UNL A   1      30.123  28.687  22.662  1.00  0.00     0.348 C 
ATOM      3  O   UNL A   1      29.760  29.252  21.636  1.00  0.00    -0.245 OA
BRANCH   2   4
ATOM      4  C   UNL A   1      30.448  27.269  22.776  1.00  0.00     0.116 A 
ATOM      5  C   UNL A   1      31.794  25.188  22.756  1.00  0.00     0.141 A 
ATOM      6  C   UNL A   1      30.529  24.990  23.272  1.00  0.00     0.038 A 
ATOM      7  S   UNL A   1      31.850  26.695  21.958  1.00  0.00    -0.115 S 
ATOM      8  C   UNL A   1      29.814  26.228  23.446  1.00  0.00    -0.024 A 
ATOM      9  C   UNL A   1      28.573  26.337  24.270  1.00  0.00     0.046 C 
BRANCH   5  10
ATOM     10  S   UNL A   1      33.311  24.253  22.735  1.00  0.00     0.271 S 
ATOM     11  O   UNL A   1      34.359  25.241  22.885  1.00  0.00    -0.200 OA
ATOM     12  O   UNL A   1      33.213  23.415  21.559  1.00  0.00    -0.200 OA
BRANCH  10  13
ATOM     13  N   UNL A   1      33.410  23.210  24.045  1.00  0.00    -0.277 N 
ATOM     14  H   UNL A   1      32.676  23.263  24.698  1.00  0.00     0.180 HD
BRANCH  13  15
ATOM     15  C   UNL A   1      34.413  22.269  24.319  1.00  0.00     0.074 A 
ATOM     16  C   UNL A   1      34.110  20.869  24.503  1.00  0.00     0.094 A 
ATOM     17  C   UNL A   1      35.208  20.185  24.996  1.00  0.00     0.082 A 
ATOM     18  S   UNL A   1      36.616  21.147  25.044  1.00  0.00    -0.149 S 
ATOM     19  C   UNL A   1      35.769  22.501  24.433  1.00  0.00     0.092 A 
BRANCH  16  20
ATOM     20  C   UNL A   1      32.814  20.247  24.234  1.00  0.00     0.340 C 
ATOM     21  O   UNL A   1      32.221  20.405  23.173  1.00  0.00    -0.246 OA
BRANCH  20  22
ATOM     22  O   UNL A   1      32.384  19.453  25.255  1.00  0.00    -0.465 OA
ATOM     23  C   UNL A   1      32.297  18.055  24.967  1.00  0.00     0.282 C 
ENDBRANCH  20  22
ENDBRANCH  16  20
ENDBRANCH  13  15
ENDBRANCH  10  13
ENDBRANCH   5  10
ENDBRANCH   2   4
ENDBRANCH   1   2
BRANCH   1  24
ATOM     24  C   UNL A   1      31.643  29.239  24.418  1.00  0.00     0.275 C 
BRANCH  24  25
ATOM     25  C   UNL A   1      31.800  30.066  25.699  1.00  0.00     0.275 C 
BRANCH  25  26
ATOM     26  O   UNL A   1      33.182  30.225  26.065  1.00  0.00    -0.458 OA
BRANCH  26  27
ATOM     27  C   UNL A   1      33.428  31.215  26.953  1.00  0.00     0.338 C 
ATOM     28  O   UNL A   1      32.659  32.089  27.315  1.00  0.00    -0.246 OA
BRANCH  27  29
ATOM     29  C   UNL A   1      34.741  31.005  27.580  1.00  0.00     0.060 A 
ATOM     30  C   UNL A   1      35.075  29.694  27.903  1.00  0.00     0.016 A 
ATOM     31  C   UNL A   1      35.576  32.054  27.957  1.00  0.00     0.016 A 
ATOM     32  C   UNL A   1      36.225  29.408  28.623  1.00  0.00     0.010 A 
ATOM     33  C   UNL A   1      36.755  31.768  28.660  1.00  0.00     0.010 A 
ATOM     34  C   UNL A   1      37.081  30.443  29.013  1.00  0.00    -0.014 A 
BRANCH  34  35
ATOM     35  C   UNL A   1      38.272  30.123  29.840  1.00  0.00     0.031 A 
ATOM     36  C   UNL A   1      39.367  29.261  29.278  1.00  0.00     0.074 A 
ATOM     37  C   UNL A   1      38.400  30.651  31.073  1.00  0.00     0.049 A 
ATOM     38  N   UNL A   1      40.430  28.777  29.868  1.00  0.00    -0.248 NA
ATOM     39  C   UNL A   1      39.244  28.888  27.861  1.00  0.00     0.031 C 
ATOM     40  C   UNL A   1      37.444  31.561  31.704  1.00  0.00     0.029 A 
ATOM     41  N   UNL A   1      39.392  30.507  32.011  1.00  0.00    -0.354 N 
ATOM     42  C   UNL A   1      41.081  28.013  28.909  1.00  0.00     0.074 A 
ATOM     43  C   UNL A   1      40.286  28.086  27.701  1.00  0.00     0.031 C 
ATOM     44  C   UNL A   1      37.903  31.909  32.915  1.00  0.00     0.029 A 
ATOM     45  C   UNL A   1      39.148  31.194  33.175  1.00  0.00     0.049 A 
ATOM     46  H   UNL A   1      40.200  29.965  31.863  1.00  0.00     0.167 HD
ATOM     47  C   UNL A   1      42.237  27.317  29.028  1.00  0.00     0.037 A 
ATOM     48  C   UNL A   1      39.830  31.214  34.337  1.00  0.00     0.037 A 
ATOM     49  C   UNL A   1      43.043  27.285  30.222  1.00  0.00     0.049 A 
ATOM     50  C   UNL A   1      41.081  30.388  34.463  1.00  0.00     0.074 A 
ATOM     51  C   UNL A   1      44.236  26.621  30.442  1.00  0.00     0.029 A 
ATOM     52  N   UNL A   1      42.739  27.958  31.398  1.00  0.00    -0.354 N 
ATOM     53  N   UNL A   1      41.668  29.633  33.567  1.00  0.00    -0.248 NA
ATOM     54  C   UNL A   1      41.757  30.407  35.767  1.00  0.00     0.031 C 
ATOM     55  C   UNL A   1      44.629  26.850  31.766  1.00  0.00     0.029 A 
ATOM     56  C   UNL A   1      43.709  27.704  32.354  1.00  0.00     0.049 A 
ATOM     57  H   UNL A   1      41.950  28.532  31.532  1.00  0.00     0.167 HD
ATOM     58  C   UNL A   1      42.790  29.102  34.188  1.00  0.00     0.074 A 
ATOM     59  C   UNL A   1      42.811  29.637  35.534  1.00  0.00     0.031 C 
ATOM     60  C   UNL A   1      43.716  28.247  33.689  1.00  0.00     0.037 A 
BRANCH  47  61
ATOM     61  C   UNL A   1      42.675  26.493  27.851  1.00  0.00     0.064 A 
ATOM     62  C   UNL A   1      43.565  26.983  26.884  1.00  0.00     0.173 A 
ATOM     63  C   UNL A   1      42.206  25.178  27.701  1.00  0.00     0.173 A 
ATOM     64  F   UNL A   1      44.034  28.237  26.971  1.00  0.00    -0.203 F 
ATOM     65  C   UNL A   1      43.941  26.201  25.793  1.00  0.00     0.198 A 
ATOM     66  C   UNL A   1      42.609  24.388  26.627  1.00  0.00     0.198 A 
ATOM     67  F   UNL A   1      41.359  24.655  28.601  1.00  0.00    -0.203 F 
ATOM     68  F   UNL A   1      44.749  26.709  24.852  1.00  0.00    -0.200 F 
ATOM     69  C   UNL A   1      43.468  24.903  25.669  1.00  0.00     0.200 A 
ATOM     70  F   UNL A   1      42.162  23.130  26.518  1.00  0.00    -0.200 F 
ATOM     71  F   UNL A   1      43.834  24.152  24.622  1.00  0.00    -0.200 F 
ENDBRANCH  47  61
BRANCH  48  72
ATOM     72  C   UNL A   1      39.319  32.014  35.480  1.00  0.00     0.064 A 
ATOM     73  C   UNL A   1      38.494  31.441  36.457  1.00  0.00     0.173 A 
ATOM     74  C   UNL A   1      39.651  33.370  35.623  1.00  0.00     0.173 A 
ATOM     75  F   UNL A   1      38.124  30.156  36.351  1.00  0.00    -0.203 F 
ATOM     76  C   UNL A   1      38.014  32.194  37.527  1.00  0.00     0.198 A 
ATOM     77  C   UNL A   1      39.197  34.114  36.709  1.00  0.00     0.198 A 
ATOM     78  F   UNL A   1      40.432  33.970  34.712  1.00  0.00    -0.203 F 
ATOM     79  F   UNL A   1      37.191  31.634  38.423  1.00  0.00    -0.200 F 
ATOM     80  C   UNL A   1      38.373  33.528  37.657  1.00  0.00     0.200 A 
ATOM     81  F   UNL A   1      39.557  35.399  36.836  1.00  0.00    -0.200 F 
ATOM     82  F   UNL A   1      37.918  34.250  38.690  1.00  0.00    -0.200 F 
ENDBRANCH  48  72
BRANCH  60  83
ATOM     83  C   UNL A   1      44.849  27.862  34.596  1.00  0.00     0.064 A 
ATOM     84  C   UNL A   1      46.016  28.635  34.687  1.00  0.00     0.173 A 
ATOM     85  C   UNL A   1      44.750  26.722  35.409  1.00  0.00     0.173 A 
ATOM     86  F   UNL A   1      46.166  29.724  33.918  1.00  0.00    -0.203 F 
ATOM     87  C   UNL A   1      47.053  28.267  35.540  1.00  0.00     0.198 A 
ATOM     88  C   UNL A   1      45.777  26.374  36.283  1.00  0.00     0.198 A 
ATOM     89  F   UNL A   1      43.654  25.952  35.364  1.00  0.00    -0.203 F 
ATOM     90  F   UNL A   1      48.179  28.993  35.575  1.00  0.00    -0.200 F 
ATOM     91  C   UNL A   1      46.929  27.142  36.342  1.00  0.00     0.200 A 
ATOM     92  F   UNL A   1      45.650  25.295  37.068  1.00  0.00    -0.200 F 
ATOM     93  F   UNL A   1      47.926  26.793  37.167  1.00  0.00    -0.200 F 
ENDBRANCH  60  83
ENDBRANCH  34  35
ENDBRANCH  27  29
ENDBRANCH  26  27
ENDBRANCH  25  26
ENDBRANCH  24  25
ENDBRANCH   1  24
TORSDOF 16
ENDMDL
