MODEL 1
REMARK VINA RESULT:     -14.1      0.000      0.000
REMARK SMILES C[C@@H](NC(=O)[C@H]1CC=CC[C@@H]1C(=O)OCCOC(=O)c1ccc(-c2c3nc(c(-c4c(F)c(F)c(F)c(F)c4F)c4ccc([nH]4)c(-c4c(F)c(F)c(F)c(F)c4F)c4nc(c(-c5c(F)c(F)c(F)c(F)c5F)c5ccc2[nH]5)C=C4)C=C3)cc1)c1ccc(-n2ccnc2)cc1
REMARK SMILES IDX 15 1 14 2 12 3 13 4 11 5 6 6 7 7 8 8 10 9 9 10 4 11 3 12
REMARK SMILES IDX 5 14 2 15 1 16 83 17 84 18 93 19 85 20 92 21 86 22 87 23
REMARK SMILES IDX 88 24 91 25 89 26 90 27 16 28 17 29 18 30 19 31 20 32 21 33
REMARK SMILES IDX 82 34 22 35 81 36 23 37 24 38 25 39 75 40 26 41 80 42 74 43
REMARK SMILES IDX 76 44 27 45 79 46 73 47 72 48 28 50 60 51 40 52 59 53 41 54
REMARK SMILES IDX 44 55 58 56 77 57 42 58 43 59 57 61 78 62 45 63 29 64 30 65
REMARK SMILES IDX 38 66 31 67 32 68 36 69 39 70 33 71 34 72 37 73 35 74 61 75
REMARK SMILES IDX 62 76 70 77 63 78 64 79 68 80 71 81 65 82 66 83 69 84 67 85
REMARK SMILES IDX 46 86 47 87 55 88 48 89 49 90 53 91 56 92 50 93 51 94 54 95
REMARK SMILES IDX 52 96
REMARK H PARENT 3 13 76 49 44 60
REMARK Flexibility Score: inf
ROOT
ATOM      1  C   UNL A   1      31.405  31.135  25.973  1.00  0.00     0.274 C 
ENDROOT
BRANCH   1   2
ATOM      2  O   UNL A   1      31.815  29.939  26.658  1.00  0.00    -0.462 OA
BRANCH   2   3
ATOM      3  C   UNL A   1      33.002  29.394  26.324  1.00  0.00     0.310 C 
ATOM      4  O   UNL A   1      34.096  29.877  26.584  1.00  0.00    -0.252 OA
BRANCH   3   5
ATOM      5  C   UNL A   1      32.834  28.063  25.609  1.00  0.00     0.115 C 
ATOM      6  C   UNL A   1      32.462  28.117  23.696  1.00  0.00     0.097 C 
ATOM      7  C   UNL A   1      30.768  27.557  23.106  1.00  0.00     0.041 C 
ATOM      8  C   UNL A   1      29.791  26.298  23.972  1.00  0.00    -0.030 C 
ATOM      9  C   UNL A   1      31.762  26.656  26.563  1.00  0.00     0.043 C 
ATOM     10  C   UNL A   1      30.131  25.850  25.369  1.00  0.00    -0.030 C 
BRANCH   6  11
ATOM     11  C   UNL A   1      33.436  26.953  22.801  1.00  0.00     0.224 C 
ATOM     12  N   UNL A   1      33.698  25.580  23.202  1.00  0.00    -0.349 N 
ATOM     13  H   UNL A   1      34.018  25.064  22.426  1.00  0.00     0.164 HD
ATOM     14  O   UNL A   1      33.859  27.293  21.689  1.00  0.00    -0.275 OA
BRANCH  12  15
ATOM     15  C   UNL A   1      33.633  24.578  24.565  1.00  0.00     0.109 C 
ATOM     16  C   UNL A   1      35.000  24.582  25.228  1.00  0.00     0.036 C 
BRANCH  15  17
ATOM     17  C   UNL A   1      33.267  23.131  24.256  1.00  0.00    -0.026 A 
ATOM     18  C   UNL A   1      32.158  22.141  23.396  1.00  0.00     0.008 A 
ATOM     19  C   UNL A   1      34.505  22.330  24.995  1.00  0.00     0.008 A 
ATOM     20  C   UNL A   1      32.267  20.349  23.371  1.00  0.00     0.027 A 
ATOM     21  C   UNL A   1      34.755  20.397  25.092  1.00  0.00     0.027 A 
ATOM     22  C   UNL A   1      33.501  19.440  24.263  1.00  0.00     0.046 A 
BRANCH  22  23
ATOM     23  N   UNL A   1      33.478  18.046  24.376  1.00  0.00    -0.306 N 
ATOM     24  C   UNL A   1      32.771  17.332  25.309  1.00  0.00     0.113 A 
ATOM     25  C   UNL A   1      34.134  17.124  23.605  1.00  0.00     0.204 A 
ATOM     26  C   UNL A   1      33.135  16.019  25.125  1.00  0.00     0.131 A 
ATOM     27  N   UNL A   1      34.000  15.900  24.072  1.00  0.00    -0.245 NA
ENDBRANCH  22  23
ENDBRANCH  15  17
ENDBRANCH  12  15
ENDBRANCH   6  11
ENDBRANCH   3   5
ENDBRANCH   2   3
ENDBRANCH   1   2
BRANCH   1  28
ATOM     28  C   UNL A   1      31.524  32.281  26.987  1.00  0.00     0.275 C 
BRANCH  28  29
ATOM     29  O   UNL A   1      32.754  33.073  27.033  1.00  0.00    -0.458 OA
BRANCH  29  30
ATOM     30  C   UNL A   1      33.051  33.864  28.085  1.00  0.00     0.338 C 
ATOM     31  O   UNL A   1      32.466  34.888  28.398  1.00  0.00    -0.246 OA
BRANCH  30  32
ATOM     32  C   UNL A   1      34.368  33.502  28.707  1.00  0.00     0.060 A 
ATOM     33  C   UNL A   1      34.336  32.387  29.550  1.00  0.00     0.016 A 
ATOM     34  C   UNL A   1      35.570  34.216  28.598  1.00  0.00     0.016 A 
ATOM     35  C   UNL A   1      35.426  32.060  30.362  1.00  0.00     0.010 A 
ATOM     36  C   UNL A   1      36.713  33.824  29.344  1.00  0.00     0.010 A 
ATOM     37  C   UNL A   1      36.655  32.738  30.236  1.00  0.00    -0.014 A 
BRANCH  37  38
ATOM     38  C   UNL A   1      37.883  32.030  30.718  1.00  0.00     0.031 A 
ATOM     39  C   UNL A   1      38.650  30.961  29.981  1.00  0.00     0.074 A 
ATOM     40  C   UNL A   1      38.309  32.441  31.930  1.00  0.00     0.049 A 
ATOM     41  N   UNL A   1      39.681  30.260  30.399  1.00  0.00    -0.248 NA
ATOM     42  C   UNL A   1      38.231  30.623  28.617  1.00  0.00     0.031 C 
ATOM     43  C   UNL A   1      37.643  33.479  32.728  1.00  0.00     0.029 A 
ATOM     44  N   UNL A   1      39.374  32.070  32.705  1.00  0.00    -0.354 N 
ATOM     45  C   UNL A   1      40.022  29.390  29.365  1.00  0.00     0.074 A 
ATOM     46  C   UNL A   1      39.089  29.658  28.289  1.00  0.00     0.031 C 
ATOM     47  C   UNL A   1      38.334  33.698  33.844  1.00  0.00     0.029 A 
ATOM     48  C   UNL A   1      39.387  32.706  33.921  1.00  0.00     0.049 A 
ATOM     49  H   UNL A   1      40.055  31.419  32.420  1.00  0.00     0.167 HD
ATOM     50  C   UNL A   1      41.006  28.449  29.340  1.00  0.00     0.037 A 
ATOM     51  C   UNL A   1      40.090  32.465  35.037  1.00  0.00     0.037 A 
ATOM     52  C   UNL A   1      41.903  28.188  30.450  1.00  0.00     0.049 A 
ATOM     53  C   UNL A   1      41.097  31.371  35.014  1.00  0.00     0.074 A 
ATOM     54  C   UNL A   1      42.944  27.276  30.530  1.00  0.00     0.029 A 
ATOM     55  N   UNL A   1      41.848  28.823  31.686  1.00  0.00    -0.354 N 
ATOM     56  N   UNL A   1      41.400  30.559  34.033  1.00  0.00    -0.248 NA
ATOM     57  C   UNL A   1      41.858  31.161  36.245  1.00  0.00     0.031 C 
ATOM     58  C   UNL A   1      43.462  27.303  31.830  1.00  0.00     0.029 A 
ATOM     59  C   UNL A   1      42.809  28.296  32.541  1.00  0.00     0.049 A 
ATOM     60  H   UNL A   1      41.219  29.543  31.921  1.00  0.00     0.167 HD
ATOM     61  C   UNL A   1      42.407  29.745  34.520  1.00  0.00     0.074 A 
ATOM     62  C   UNL A   1      42.674  30.186  35.877  1.00  0.00     0.031 C 
ATOM     63  C   UNL A   1      43.051  28.729  33.896  1.00  0.00     0.037 A 
BRANCH  50  64
ATOM     64  C   UNL A   1      41.161  27.585  28.106  1.00  0.00     0.064 A 
ATOM     65  C   UNL A   1      41.938  27.981  27.006  1.00  0.00     0.173 A 
ATOM     66  C   UNL A   1      40.600  26.294  28.062  1.00  0.00     0.173 A 
ATOM     67  F   UNL A   1      42.513  29.192  26.988  1.00  0.00    -0.203 F 
ATOM     68  C   UNL A   1      42.117  27.140  25.904  1.00  0.00     0.198 A 
ATOM     69  C   UNL A   1      40.810  25.444  26.975  1.00  0.00     0.198 A 
ATOM     70  F   UNL A   1      39.866  25.840  29.089  1.00  0.00    -0.203 F 
ATOM     71  F   UNL A   1      42.830  27.563  24.850  1.00  0.00    -0.200 F 
ATOM     72  C   UNL A   1      41.559  25.871  25.893  1.00  0.00     0.200 A 
ATOM     73  F   UNL A   1      40.291  24.207  26.982  1.00  0.00    -0.200 F 
ATOM     74  F   UNL A   1      41.743  25.062  24.839  1.00  0.00    -0.200 F 
ENDBRANCH  50  64
BRANCH  51  75
ATOM     75  C   UNL A   1      39.779  33.254  36.255  1.00  0.00     0.064 A 
ATOM     76  C   UNL A   1      40.405  34.480  36.494  1.00  0.00     0.173 A 
ATOM     77  C   UNL A   1      38.761  32.849  37.138  1.00  0.00     0.173 A 
ATOM     78  F   UNL A   1      41.379  34.906  35.678  1.00  0.00    -0.203 F 
ATOM     79  C   UNL A   1      40.028  35.275  37.575  1.00  0.00     0.198 A 
ATOM     80  C   UNL A   1      38.354  33.664  38.187  1.00  0.00     0.198 A 
ATOM     81  F   UNL A   1      38.109  31.695  36.928  1.00  0.00    -0.203 F 
ATOM     82  F   UNL A   1      40.657  36.435  37.799  1.00  0.00    -0.200 F 
ATOM     83  C   UNL A   1      38.993  34.873  38.410  1.00  0.00     0.200 A 
ATOM     84  F   UNL A   1      37.325  33.294  38.961  1.00  0.00    -0.200 F 
ATOM     85  F   UNL A   1      38.609  35.657  39.426  1.00  0.00    -0.200 F 
ENDBRANCH  51  75
BRANCH  63  86
ATOM     86  C   UNL A   1      44.140  28.058  34.680  1.00  0.00     0.064 A 
ATOM     87  C   UNL A   1      45.464  28.525  34.660  1.00  0.00     0.173 A 
ATOM     88  C   UNL A   1      43.859  26.913  35.441  1.00  0.00     0.173 A 
ATOM     89  F   UNL A   1      45.790  29.600  33.926  1.00  0.00    -0.203 F 
ATOM     90  C   UNL A   1      46.473  27.841  35.331  1.00  0.00     0.198 A 
ATOM     91  C   UNL A   1      44.863  26.258  36.147  1.00  0.00     0.198 A 
ATOM     92  F   UNL A   1      42.611  26.424  35.494  1.00  0.00    -0.203 F 
ATOM     93  F   UNL A   1      47.744  28.255  35.227  1.00  0.00    -0.200 F 
ATOM     94  C   UNL A   1      46.171  26.713  36.080  1.00  0.00     0.200 A 
ATOM     95  F   UNL A   1      44.566  25.177  36.881  1.00  0.00    -0.200 F 
ATOM     96  F   UNL A   1      47.144  26.055  36.724  1.00  0.00    -0.200 F 
ENDBRANCH  63  86
ENDBRANCH  37  38
ENDBRANCH  30  32
ENDBRANCH  29  30
ENDBRANCH  28  29
ENDBRANCH   1  28
TORSDOF 15
ENDMDL
MODEL 2
REMARK VINA RESULT:     -13.8      0.535      1.976
REMARK SMILES C[C@@H](NC(=O)[C@H]1CC=CC[C@@H]1C(=O)OCCOC(=O)c1ccc(-c2c3nc(c(-c4c(F)c(F)c(F)c(F)c4F)c4ccc([nH]4)c(-c4c(F)c(F)c(F)c(F)c4F)c4nc(c(-c5c(F)c(F)c(F)c(F)c5F)c5ccc2[nH]5)C=C4)C=C3)cc1)c1ccc(-n2ccnc2)cc1
REMARK SMILES IDX 15 1 14 2 12 3 13 4 11 5 6 6 7 7 8 8 10 9 9 10 4 11 3 12
REMARK SMILES IDX 5 14 2 15 1 16 83 17 84 18 93 19 85 20 92 21 86 22 87 23
REMARK SMILES IDX 88 24 91 25 89 26 90 27 16 28 17 29 18 30 19 31 20 32 21 33
REMARK SMILES IDX 82 34 22 35 81 36 23 37 24 38 25 39 75 40 26 41 80 42 74 43
REMARK SMILES IDX 76 44 27 45 79 46 73 47 72 48 28 50 60 51 40 52 59 53 41 54
REMARK SMILES IDX 44 55 58 56 77 57 42 58 43 59 57 61 78 62 45 63 29 64 30 65
REMARK SMILES IDX 38 66 31 67 32 68 36 69 39 70 33 71 34 72 37 73 35 74 61 75
REMARK SMILES IDX 62 76 70 77 63 78 64 79 68 80 71 81 65 82 66 83 69 84 67 85
REMARK SMILES IDX 46 86 47 87 55 88 48 89 49 90 53 91 56 92 50 93 51 94 54 95
REMARK SMILES IDX 52 96
REMARK H PARENT 3 13 76 49 44 60
REMARK Flexibility Score: inf
ROOT
ATOM      1  C   UNL A   1      32.206  30.721  27.197  1.00  0.00     0.274 C 
ENDROOT
BRANCH   1   2
ATOM      2  O   UNL A   1      32.525  30.072  25.954  1.00  0.00    -0.462 OA
BRANCH   2   3
ATOM      3  C   UNL A   1      33.537  29.181  25.947  1.00  0.00     0.310 C 
ATOM      4  O   UNL A   1      34.638  29.364  26.450  1.00  0.00    -0.252 OA
BRANCH   3   5
ATOM      5  C   UNL A   1      33.142  27.879  25.270  1.00  0.00     0.115 C 
ATOM      6  C   UNL A   1      32.644  27.966  23.388  1.00  0.00     0.097 C 
ATOM      7  C   UNL A   1      30.851  27.633  22.928  1.00  0.00     0.041 C 
ATOM      8  C   UNL A   1      29.781  26.524  23.884  1.00  0.00    -0.030 C 
ATOM      9  C   UNL A   1      31.965  26.636  26.323  1.00  0.00     0.043 C 
ATOM     10  C   UNL A   1      30.158  26.046  25.261  1.00  0.00    -0.030 C 
BRANCH   6  11
ATOM     11  C   UNL A   1      33.387  26.674  22.447  1.00  0.00     0.224 C 
ATOM     12  N   UNL A   1      33.539  25.293  22.875  1.00  0.00    -0.349 N 
ATOM     13  H   UNL A   1      33.718  24.722  22.093  1.00  0.00     0.164 HD
ATOM     14  O   UNL A   1      33.725  26.933  21.285  1.00  0.00    -0.275 OA
BRANCH  12  15
ATOM     15  C   UNL A   1      33.508  24.345  24.278  1.00  0.00     0.109 C 
ATOM     16  C   UNL A   1      34.877  24.419  24.935  1.00  0.00     0.036 C 
BRANCH  15  17
ATOM     17  C   UNL A   1      33.188  22.877  24.028  1.00  0.00    -0.026 A 
ATOM     18  C   UNL A   1      32.220  21.815  23.085  1.00  0.00     0.008 A 
ATOM     19  C   UNL A   1      34.292  22.143  25.010  1.00  0.00     0.008 A 
ATOM     20  C   UNL A   1      32.323  20.028  23.216  1.00  0.00     0.027 A 
ATOM     21  C   UNL A   1      34.513  20.225  25.293  1.00  0.00     0.027 A 
ATOM     22  C   UNL A   1      33.398  19.199  24.355  1.00  0.00     0.046 A 
BRANCH  22  23
ATOM     23  N   UNL A   1      33.352  17.817  24.570  1.00  0.00    -0.306 N 
ATOM     24  C   UNL A   1      32.701  17.192  25.603  1.00  0.00     0.113 A 
ATOM     25  C   UNL A   1      33.926  16.824  23.822  1.00  0.00     0.204 A 
ATOM     26  C   UNL A   1      33.018  15.859  25.488  1.00  0.00     0.131 A 
ATOM     27  N   UNL A   1      33.798  15.641  24.386  1.00  0.00    -0.245 NA
ENDBRANCH  22  23
ENDBRANCH  15  17
ENDBRANCH  12  15
ENDBRANCH   6  11
ENDBRANCH   3   5
ENDBRANCH   2   3
ENDBRANCH   1   2
BRANCH   1  28
ATOM     28  C   UNL A   1      31.862  32.177  26.853  1.00  0.00     0.275 C 
BRANCH  28  29
ATOM     29  O   UNL A   1      32.897  33.205  26.976  1.00  0.00    -0.458 OA
BRANCH  29  30
ATOM     30  C   UNL A   1      33.082  33.894  28.121  1.00  0.00     0.338 C 
ATOM     31  O   UNL A   1      32.405  34.831  28.510  1.00  0.00    -0.246 OA
BRANCH  30  32
ATOM     32  C   UNL A   1      34.393  33.561  28.772  1.00  0.00     0.060 A 
ATOM     33  C   UNL A   1      34.336  32.542  29.728  1.00  0.00     0.016 A 
ATOM     34  C   UNL A   1      35.614  34.224  28.581  1.00  0.00     0.016 A 
ATOM     35  C   UNL A   1      35.423  32.271  30.564  1.00  0.00     0.010 A 
ATOM     36  C   UNL A   1      36.751  33.880  29.360  1.00  0.00     0.010 A 
ATOM     37  C   UNL A   1      36.670  32.895  30.361  1.00  0.00    -0.014 A 
BRANCH  37  38
ATOM     38  C   UNL A   1      37.880  32.207  30.909  1.00  0.00     0.031 A 
ATOM     39  C   UNL A   1      38.675  31.117  30.235  1.00  0.00     0.074 A 
ATOM     40  C   UNL A   1      38.262  32.657  32.123  1.00  0.00     0.049 A 
ATOM     41  N   UNL A   1      39.692  30.433  30.711  1.00  0.00    -0.248 NA
ATOM     42  C   UNL A   1      38.306  30.735  28.868  1.00  0.00     0.031 C 
ATOM     43  C   UNL A   1      37.566  33.718  32.862  1.00  0.00     0.029 A 
ATOM     44  N   UNL A   1      39.299  32.314  32.946  1.00  0.00    -0.354 N 
ATOM     45  C   UNL A   1      40.071  29.531  29.719  1.00  0.00     0.074 A 
ATOM     46  C   UNL A   1      39.177  29.763  28.602  1.00  0.00     0.031 C 
ATOM     47  C   UNL A   1      38.215  33.974  33.995  1.00  0.00     0.029 A 
ATOM     48  C   UNL A   1      39.267  32.988  34.142  1.00  0.00     0.049 A 
ATOM     49  H   UNL A   1      39.991  31.656  32.708  1.00  0.00     0.167 HD
ATOM     50  C   UNL A   1      41.058  28.593  29.759  1.00  0.00     0.037 A 
ATOM     51  C   UNL A   1      39.930  32.784  35.290  1.00  0.00     0.037 A 
ATOM     52  C   UNL A   1      41.914  28.369  30.908  1.00  0.00     0.049 A 
ATOM     53  C   UNL A   1      40.938  31.693  35.337  1.00  0.00     0.074 A 
ATOM     54  C   UNL A   1      42.954  27.464  31.054  1.00  0.00     0.029 A 
ATOM     55  N   UNL A   1      41.814  29.044  32.120  1.00  0.00    -0.354 N 
ATOM     56  N   UNL A   1      41.279  30.851  34.394  1.00  0.00    -0.248 NA
ATOM     57  C   UNL A   1      41.655  31.524  36.601  1.00  0.00     0.031 C 
ATOM     58  C   UNL A   1      43.424  27.534  32.371  1.00  0.00     0.029 A 
ATOM     59  C   UNL A   1      42.744  28.547  33.026  1.00  0.00     0.049 A 
ATOM     60  H   UNL A   1      41.176  29.768  32.310  1.00  0.00     0.167 HD
ATOM     61  C   UNL A   1      42.269  30.056  34.942  1.00  0.00     0.074 A 
ATOM     62  C   UNL A   1      42.486  30.541  36.293  1.00  0.00     0.031 C 
ATOM     63  C   UNL A   1      42.936  29.022  34.374  1.00  0.00     0.037 A 
BRANCH  50  64
ATOM     64  C   UNL A   1      41.258  27.691  28.559  1.00  0.00     0.064 A 
ATOM     65  C   UNL A   1      40.491  26.534  28.355  1.00  0.00     0.173 A 
ATOM     66  C   UNL A   1      42.170  28.041  27.545  1.00  0.00     0.173 A 
ATOM     67  F   UNL A   1      39.593  26.148  29.275  1.00  0.00    -0.203 F 
ATOM     68  C   UNL A   1      40.650  25.750  27.209  1.00  0.00     0.198 A 
ATOM     69  C   UNL A   1      42.302  27.276  26.385  1.00  0.00     0.198 A 
ATOM     70  F   UNL A   1      42.919  29.148  27.661  1.00  0.00    -0.203 F 
ATOM     71  F   UNL A   1      39.933  24.627  27.063  1.00  0.00    -0.200 F 
ATOM     72  C   UNL A   1      41.550  26.125  26.223  1.00  0.00     0.200 A 
ATOM     73  F   UNL A   1      43.153  27.658  25.423  1.00  0.00    -0.200 F 
ATOM     74  F   UNL A   1      41.692  25.376  25.119  1.00  0.00    -0.200 F 
ENDBRANCH  50  64
BRANCH  51  75
ATOM     75  C   UNL A   1      39.574  33.610  36.470  1.00  0.00     0.064 A 
ATOM     76  C   UNL A   1      38.668  33.142  37.425  1.00  0.00     0.173 A 
ATOM     77  C   UNL A   1      40.228  34.830  36.723  1.00  0.00     0.173 A 
ATOM     78  F   UNL A   1      38.023  31.983  37.227  1.00  0.00    -0.203 F 
ATOM     79  C   UNL A   1      38.423  33.865  38.591  1.00  0.00     0.198 A 
ATOM     80  C   UNL A   1      40.018  35.526  37.907  1.00  0.00     0.198 A 
ATOM     81  F   UNL A   1      41.132  35.301  35.850  1.00  0.00    -0.203 F 
ATOM     82  F   UNL A   1      37.533  33.410  39.481  1.00  0.00    -0.200 F 
ATOM     83  C   UNL A   1      39.110  35.047  38.837  1.00  0.00     0.200 A 
ATOM     84  F   UNL A   1      40.718  36.640  38.160  1.00  0.00    -0.200 F 
ATOM     85  F   UNL A   1      38.899  35.720  39.976  1.00  0.00    -0.200 F 
ENDBRANCH  51  75
BRANCH  63  86
ATOM     86  C   UNL A   1      43.998  28.380  35.218  1.00  0.00     0.064 A 
ATOM     87  C   UNL A   1      43.722  27.281  36.047  1.00  0.00     0.173 A 
ATOM     88  C   UNL A   1      45.304  28.891  35.219  1.00  0.00     0.173 A 
ATOM     89  F   UNL A   1      42.482  26.771  36.103  1.00  0.00    -0.203 F 
ATOM     90  C   UNL A   1      44.702  26.751  36.881  1.00  0.00     0.198 A 
ATOM     91  C   UNL A   1      46.293  28.330  36.021  1.00  0.00     0.198 A 
ATOM     92  F   UNL A   1      45.621  29.941  34.446  1.00  0.00    -0.203 F 
ATOM     93  F   UNL A   1      44.394  25.758  37.727  1.00  0.00    -0.200 F 
ATOM     94  C   UNL A   1      45.988  27.271  36.862  1.00  0.00     0.200 A 
ATOM     95  F   UNL A   1      47.538  28.825  35.989  1.00  0.00    -0.200 F 
ATOM     96  F   UNL A   1      46.930  26.761  37.666  1.00  0.00    -0.200 F 
ENDBRANCH  63  86
ENDBRANCH  37  38
ENDBRANCH  30  32
ENDBRANCH  29  30
ENDBRANCH  28  29
ENDBRANCH   1  28
TORSDOF 15
ENDMDL
MODEL 3
REMARK VINA RESULT:     -13.7      5.516     11.129
REMARK SMILES C[C@@H](NC(=O)[C@H]1CC=CC[C@@H]1C(=O)OCCOC(=O)c1ccc(-c2c3nc(c(-c4c(F)c(F)c(F)c(F)c4F)c4ccc([nH]4)c(-c4c(F)c(F)c(F)c(F)c4F)c4nc(c(-c5c(F)c(F)c(F)c(F)c5F)c5ccc2[nH]5)C=C4)C=C3)cc1)c1ccc(-n2ccnc2)cc1
REMARK SMILES IDX 15 1 14 2 12 3 13 4 11 5 6 6 7 7 8 8 10 9 9 10 4 11 3 12
REMARK SMILES IDX 5 14 2 15 1 16 83 17 84 18 93 19 85 20 92 21 86 22 87 23
REMARK SMILES IDX 88 24 91 25 89 26 90 27 16 28 17 29 18 30 19 31 20 32 21 33
REMARK SMILES IDX 82 34 22 35 81 36 23 37 24 38 25 39 75 40 26 41 80 42 74 43
REMARK SMILES IDX 76 44 27 45 79 46 73 47 72 48 28 50 60 51 40 52 59 53 41 54
REMARK SMILES IDX 44 55 58 56 77 57 42 58 43 59 57 61 78 62 45 63 29 64 30 65
REMARK SMILES IDX 38 66 31 67 32 68 36 69 39 70 33 71 34 72 37 73 35 74 61 75
REMARK SMILES IDX 62 76 70 77 63 78 64 79 68 80 71 81 65 82 66 83 69 84 67 85
REMARK SMILES IDX 46 86 47 87 55 88 48 89 49 90 53 91 56 92 50 93 51 94 54 95
REMARK SMILES IDX 52 96
REMARK H PARENT 3 13 76 49 44 60
REMARK Flexibility Score: inf
ROOT
ATOM      1  C   UNL A   1      38.148  21.398  25.043  1.00  0.00     0.274 C 
ENDROOT
BRANCH   1   2
ATOM      2  O   UNL A   1      36.949  21.541  25.824  1.00  0.00    -0.462 OA
BRANCH   2   3
ATOM      3  C   UNL A   1      35.783  21.156  25.268  1.00  0.00     0.310 C 
ATOM      4  O   UNL A   1      35.525  20.020  24.889  1.00  0.00    -0.252 OA
BRANCH   3   5
ATOM      5  C   UNL A   1      34.782  22.298  25.198  1.00  0.00     0.115 C 
ATOM      6  C   UNL A   1      32.964  21.931  25.796  1.00  0.00     0.097 C 
ATOM      7  C   UNL A   1      31.592  21.922  24.511  1.00  0.00     0.041 C 
ATOM      8  C   UNL A   1      31.642  22.941  23.011  1.00  0.00    -0.030 C 
ATOM      9  C   UNL A   1      34.834  23.441  23.546  1.00  0.00     0.043 C 
ATOM     10  C   UNL A   1      32.906  23.618  22.552  1.00  0.00    -0.030 C 
BRANCH   6  11
ATOM     11  C   UNL A   1      32.335  23.217  26.823  1.00  0.00     0.224 C 
ATOM     12  N   UNL A   1      32.187  24.613  26.442  1.00  0.00    -0.349 N 
ATOM     13  H   UNL A   1      31.571  25.063  27.065  1.00  0.00     0.164 HD
ATOM     14  O   UNL A   1      31.890  22.899  27.933  1.00  0.00    -0.275 OA
BRANCH  12  15
ATOM     15  C   UNL A   1      32.727  25.716  25.276  1.00  0.00     0.109 C 
ATOM     16  C   UNL A   1      33.668  26.701  25.949  1.00  0.00     0.036 C 
BRANCH  15  17
ATOM     17  C   UNL A   1      31.611  26.514  24.612  1.00  0.00    -0.026 A 
ATOM     18  C   UNL A   1      30.145  26.366  23.727  1.00  0.00     0.008 A 
ATOM     19  C   UNL A   1      32.024  28.051  25.045  1.00  0.00     0.008 A 
ATOM     20  C   UNL A   1      29.168  27.783  23.216  1.00  0.00     0.027 A 
ATOM     21  C   UNL A   1      31.096  29.695  24.550  1.00  0.00     0.027 A 
ATOM     22  C   UNL A   1      29.646  29.459  23.542  1.00  0.00     0.046 A 
BRANCH  22  23
ATOM     23  N   UNL A   1      28.971  30.557  22.997  1.00  0.00    -0.306 N 
ATOM     24  C   UNL A   1      29.114  31.025  21.716  1.00  0.00     0.113 A 
ATOM     25  C   UNL A   1      28.053  31.372  23.604  1.00  0.00     0.204 A 
ATOM     26  C   UNL A   1      28.361  32.174  21.656  1.00  0.00     0.131 A 
ATOM     27  N   UNL A   1      27.718  32.394  22.844  1.00  0.00    -0.245 NA
ENDBRANCH  22  23
ENDBRANCH  15  17
ENDBRANCH  12  15
ENDBRANCH   6  11
ENDBRANCH   3   5
ENDBRANCH   2   3
ENDBRANCH   1   2
BRANCH   1  28
ATOM     28  C   UNL A   1      39.275  21.064  26.031  1.00  0.00     0.275 C 
BRANCH  28  29
ATOM     29  O   UNL A   1      39.988  19.792  25.902  1.00  0.00    -0.458 OA
BRANCH  29  30
ATOM     30  C   UNL A   1      41.334  19.723  25.967  1.00  0.00     0.338 C 
ATOM     31  O   UNL A   1      42.006  18.716  25.813  1.00  0.00    -0.246 OA
BRANCH  30  32
ATOM     32  C   UNL A   1      41.937  20.981  26.518  1.00  0.00     0.060 A 
ATOM     33  C   UNL A   1      42.227  21.963  25.565  1.00  0.00     0.016 A 
ATOM     34  C   UNL A   1      42.310  21.218  27.849  1.00  0.00     0.016 A 
ATOM     35  C   UNL A   1      42.981  23.093  25.895  1.00  0.00     0.010 A 
ATOM     36  C   UNL A   1      42.987  22.414  28.207  1.00  0.00     0.010 A 
ATOM     37  C   UNL A   1      43.329  23.369  27.233  1.00  0.00    -0.014 A 
BRANCH  37  38
ATOM     38  C   UNL A   1      43.649  24.789  27.580  1.00  0.00     0.031 A 
ATOM     39  C   UNL A   1      42.682  25.829  28.087  1.00  0.00     0.074 A 
ATOM     40  C   UNL A   1      44.950  25.111  27.419  1.00  0.00     0.049 A 
ATOM     41  N   UNL A   1      42.903  27.103  28.328  1.00  0.00    -0.248 NA
ATOM     42  C   UNL A   1      41.302  25.416  28.365  1.00  0.00     0.031 C 
ATOM     43  C   UNL A   1      45.975  24.175  26.940  1.00  0.00     0.029 A 
ATOM     44  N   UNL A   1      45.644  26.271  27.632  1.00  0.00    -0.354 N 
ATOM     45  C   UNL A   1      41.696  27.646  28.764  1.00  0.00     0.074 A 
ATOM     46  C   UNL A   1      40.742  26.556  28.766  1.00  0.00     0.031 C 
ATOM     47  C   UNL A   1      47.164  24.772  26.944  1.00  0.00     0.029 A 
ATOM     48  C   UNL A   1      46.961  26.172  27.260  1.00  0.00     0.049 A 
ATOM     49  H   UNL A   1      45.242  27.085  28.010  1.00  0.00     0.167 HD
ATOM     50  C   UNL A   1      41.422  28.936  29.105  1.00  0.00     0.037 A 
ATOM     51  C   UNL A   1      47.902  27.110  27.080  1.00  0.00     0.037 A 
ATOM     52  C   UNL A   1      42.397  30.008  29.062  1.00  0.00     0.049 A 
ATOM     53  C   UNL A   1      47.551  28.525  27.372  1.00  0.00     0.074 A 
ATOM     54  C   UNL A   1      42.237  31.343  29.402  1.00  0.00     0.029 A 
ATOM     55  N   UNL A   1      43.712  29.873  28.629  1.00  0.00    -0.354 N 
ATOM     56  N   UNL A   1      46.408  29.018  27.777  1.00  0.00    -0.248 NA
ATOM     57  C   UNL A   1      48.615  29.511  27.186  1.00  0.00     0.031 C 
ATOM     58  C   UNL A   1      43.422  32.025  29.100  1.00  0.00     0.029 A 
ATOM     59  C   UNL A   1      44.357  31.104  28.658  1.00  0.00     0.049 A 
ATOM     60  H   UNL A   1      44.127  29.027  28.344  1.00  0.00     0.167 HD
ATOM     61  C   UNL A   1      46.615  30.379  27.915  1.00  0.00     0.074 A 
ATOM     62  C   UNL A   1      48.005  30.621  27.573  1.00  0.00     0.031 C 
ATOM     63  C   UNL A   1      45.734  31.336  28.294  1.00  0.00     0.037 A 
BRANCH  50  64
ATOM     64  C   UNL A   1      40.009  29.300  29.514  1.00  0.00     0.064 A 
ATOM     65  C   UNL A   1      39.005  29.577  28.574  1.00  0.00     0.173 A 
ATOM     66  C   UNL A   1      39.629  29.277  30.870  1.00  0.00     0.173 A 
ATOM     67  F   UNL A   1      39.295  29.602  27.265  1.00  0.00    -0.203 F 
ATOM     68  C   UNL A   1      37.694  29.850  28.973  1.00  0.00     0.198 A 
ATOM     69  C   UNL A   1      38.311  29.515  31.262  1.00  0.00     0.198 A 
ATOM     70  F   UNL A   1      40.532  28.994  31.821  1.00  0.00    -0.203 F 
ATOM     71  F   UNL A   1      36.766  30.153  28.054  1.00  0.00    -0.200 F 
ATOM     72  C   UNL A   1      37.347  29.811  30.315  1.00  0.00     0.200 A 
ATOM     73  F   UNL A   1      37.975  29.449  32.558  1.00  0.00    -0.200 F 
ATOM     74  F   UNL A   1      36.084  30.062  30.693  1.00  0.00    -0.200 F 
ENDBRANCH  50  64
BRANCH  51  75
ATOM     75  C   UNL A   1      49.219  26.699  26.533  1.00  0.00     0.064 A 
ATOM     76  C   UNL A   1      49.509  26.848  25.174  1.00  0.00     0.173 A 
ATOM     77  C   UNL A   1      50.250  26.263  27.384  1.00  0.00     0.173 A 
ATOM     78  F   UNL A   1      48.556  27.263  24.326  1.00  0.00    -0.203 F 
ATOM     79  C   UNL A   1      50.783  26.571  24.682  1.00  0.00     0.198 A 
ATOM     80  C   UNL A   1      51.533  26.034  26.899  1.00  0.00     0.198 A 
ATOM     81  F   UNL A   1      50.027  26.139  28.701  1.00  0.00    -0.203 F 
ATOM     82  F   UNL A   1      51.031  26.698  23.373  1.00  0.00    -0.200 F 
ATOM     83  C   UNL A   1      51.796  26.180  25.547  1.00  0.00     0.200 A 
ATOM     84  F   UNL A   1      52.517  25.702  27.745  1.00  0.00    -0.200 F 
ATOM     85  F   UNL A   1      53.029  25.951  25.075  1.00  0.00    -0.200 F 
ENDBRANCH  51  75
BRANCH  63  86
ATOM     86  C   UNL A   1      46.278  32.731  28.394  1.00  0.00     0.064 A 
ATOM     87  C   UNL A   1      46.857  33.218  29.577  1.00  0.00     0.173 A 
ATOM     88  C   UNL A   1      46.192  33.602  27.297  1.00  0.00     0.173 A 
ATOM     89  F   UNL A   1      46.939  32.433  30.662  1.00  0.00    -0.203 F 
ATOM     90  C   UNL A   1      47.283  34.539  29.672  1.00  0.00     0.198 A 
ATOM     91  C   UNL A   1      46.660  34.909  27.383  1.00  0.00     0.198 A 
ATOM     92  F   UNL A   1      45.646  33.187  26.144  1.00  0.00    -0.203 F 
ATOM     93  F   UNL A   1      47.753  35.007  30.836  1.00  0.00    -0.200 F 
ATOM     94  C   UNL A   1      47.191  35.381  28.573  1.00  0.00     0.200 A 
ATOM     95  F   UNL A   1      46.583  35.716  26.315  1.00  0.00    -0.200 F 
ATOM     96  F   UNL A   1      47.600  36.654  28.667  1.00  0.00    -0.200 F 
ENDBRANCH  63  86
ENDBRANCH  37  38
ENDBRANCH  30  32
ENDBRANCH  29  30
ENDBRANCH  28  29
ENDBRANCH   1  28
TORSDOF 15
ENDMDL
