MODEL 1
REMARK VINA RESULT:     -12.6      0.000      0.000
REMARK SMILES O=C(OCCOC(=O)[C@@H](Cc1cccs1)c1ccccc1)c1ccc(-c2c3nc(c(-c4c(F)c(F)c(F)c(F)c4F)c4ccc([nH]4)c(-c4c(F)c(F)c(F)c(F)c4F)c4nc(c(-c5c(F)c(F)c(F)c(F)c5F)c5ccc2[nH]5)C=C4)C=C3)cc1
REMARK SMILES IDX 4 1 3 2 2 3 1 4 22 5 23 6 84 7 24 8 83 9 25 10 26 11 27 12
REMARK SMILES IDX 77 13 28 14 82 15 76 16 78 17 29 18 81 19 75 20 74 21 30 23
REMARK SMILES IDX 62 24 42 25 61 26 43 27 46 28 60 29 79 30 44 31 45 32 59 34
REMARK SMILES IDX 80 35 47 36 31 37 32 38 40 39 33 40 34 41 38 42 41 43 35 44
REMARK SMILES IDX 36 45 39 46 37 47 63 48 64 49 72 50 65 51 66 52 70 53 73 54
REMARK SMILES IDX 67 55 68 56 71 57 69 58 48 59 49 60 57 61 50 62 51 63 55 64
REMARK SMILES IDX 58 65 52 66 53 67 56 68 54 69 5 70 6 71 7 72 8 73 9 74 10 75
REMARK SMILES IDX 11 76 12 77 15 78 13 79 14 80 16 81 17 82 21 83 18 84 20 85
REMARK SMILES IDX 19 86
REMARK H PARENT 78 22 46 33
REMARK Flexibility Score: inf
ROOT
ATOM      1  C   UNL A   1      32.617  29.245  24.546  1.00  0.00     0.275 C 
ENDROOT
BRANCH   1   2
ATOM      2  O   UNL A   1      32.282  29.470  25.937  1.00  0.00    -0.458 OA
BRANCH   2   3
ATOM      3  C   UNL A   1      32.589  30.528  26.739  1.00  0.00     0.338 C 
ATOM      4  O   UNL A   1      31.772  31.428  26.909  1.00  0.00    -0.246 OA
BRANCH   3   5
ATOM      5  C   UNL A   1      33.998  30.799  27.144  1.00  0.00     0.060 A 
ATOM      6  C   UNL A   1      34.443  32.316  27.633  1.00  0.00     0.016 A 
ATOM      7  C   UNL A   1      34.961  29.361  27.399  1.00  0.00     0.016 A 
ATOM      8  C   UNL A   1      35.918  32.482  28.516  1.00  0.00     0.010 A 
ATOM      9  C   UNL A   1      36.395  29.286  28.352  1.00  0.00     0.010 A 
ATOM     10  C   UNL A   1      37.041  30.818  28.987  1.00  0.00    -0.014 A 
BRANCH  10  11
ATOM     11  C   UNL A   1      38.483  30.403  29.636  1.00  0.00     0.031 A 
ATOM     12  C   UNL A   1      38.821  30.926  31.019  1.00  0.00     0.074 A 
ATOM     13  C   UNL A   1      39.419  29.621  29.047  1.00  0.00     0.049 A 
ATOM     14  N   UNL A   1      39.577  30.380  31.939  1.00  0.00    -0.248 NA
ATOM     15  C   UNL A   1      38.224  32.201  31.442  1.00  0.00     0.031 C 
ATOM     16  C   UNL A   1      39.382  29.176  27.673  1.00  0.00     0.029 A 
ATOM     17  N   UNL A   1      40.546  28.989  29.532  1.00  0.00    -0.354 N 
ATOM     18  C   UNL A   1      39.418  31.169  33.069  1.00  0.00     0.074 A 
ATOM     19  C   UNL A   1      38.562  32.270  32.716  1.00  0.00     0.031 C 
ATOM     20  C   UNL A   1      40.289  28.223  27.449  1.00  0.00     0.029 A 
ATOM     21  C   UNL A   1      41.095  28.084  28.641  1.00  0.00     0.049 A 
ATOM     22  H   UNL A   1      40.923  29.165  30.424  1.00  0.00     0.167 HD
ATOM     23  C   UNL A   1      39.950  31.004  34.301  1.00  0.00     0.037 A 
ATOM     24  C   UNL A   1      42.128  27.226  28.744  1.00  0.00     0.037 A 
ATOM     25  C   UNL A   1      41.011  30.078  34.570  1.00  0.00     0.049 A 
ATOM     26  C   UNL A   1      42.804  27.134  30.074  1.00  0.00     0.074 A 
ATOM     27  C   UNL A   1      41.714  29.881  35.742  1.00  0.00     0.029 A 
ATOM     28  N   UNL A   1      41.588  29.259  33.607  1.00  0.00    -0.354 N 
ATOM     29  N   UNL A   1      42.502  27.761  31.186  1.00  0.00    -0.248 NA
ATOM     30  C   UNL A   1      43.941  26.217  30.181  1.00  0.00     0.031 C 
ATOM     31  C   UNL A   1      42.775  29.014  35.463  1.00  0.00     0.029 A 
ATOM     32  C   UNL A   1      42.677  28.596  34.143  1.00  0.00     0.049 A 
ATOM     33  H   UNL A   1      41.268  29.164  32.681  1.00  0.00     0.167 HD
ATOM     34  C   UNL A   1      43.393  27.300  32.135  1.00  0.00     0.074 A 
ATOM     35  C   UNL A   1      44.233  26.319  31.471  1.00  0.00     0.031 C 
ATOM     36  C   UNL A   1      43.506  27.650  33.439  1.00  0.00     0.037 A 
BRANCH  23  37
ATOM     37  C   UNL A   1      39.435  31.914  35.378  1.00  0.00     0.064 A 
ATOM     38  C   UNL A   1      39.964  33.207  35.545  1.00  0.00     0.173 A 
ATOM     39  C   UNL A   1      38.470  31.481  36.295  1.00  0.00     0.173 A 
ATOM     40  F   UNL A   1      40.918  33.660  34.715  1.00  0.00    -0.203 F 
ATOM     41  C   UNL A   1      39.562  34.017  36.603  1.00  0.00     0.198 A 
ATOM     42  C   UNL A   1      38.053  32.303  37.339  1.00  0.00     0.198 A 
ATOM     43  F   UNL A   1      37.950  30.248  36.197  1.00  0.00    -0.203 F 
ATOM     44  F   UNL A   1      40.124  35.222  36.776  1.00  0.00    -0.200 F 
ATOM     45  C   UNL A   1      38.606  33.565  37.498  1.00  0.00     0.200 A 
ATOM     46  F   UNL A   1      37.133  31.863  38.208  1.00  0.00    -0.200 F 
ATOM     47  F   UNL A   1      38.230  34.338  38.527  1.00  0.00    -0.200 F 
ENDBRANCH  23  37
BRANCH  24  48
ATOM     48  C   UNL A   1      42.547  26.398  27.570  1.00  0.00     0.064 A 
ATOM     49  C   UNL A   1      43.570  26.804  26.701  1.00  0.00     0.173 A 
ATOM     50  C   UNL A   1      41.955  25.147  27.319  1.00  0.00     0.173 A 
ATOM     51  F   UNL A   1      44.169  27.990  26.878  1.00  0.00    -0.203 F 
ATOM     52  C   UNL A   1      43.974  26.003  25.630  1.00  0.00     0.198 A 
ATOM     53  C   UNL A   1      42.384  24.331  26.273  1.00  0.00     0.198 A 
ATOM     54  F   UNL A   1      40.980  24.691  28.121  1.00  0.00    -0.203 F 
ATOM     55  F   UNL A   1      44.932  26.434  24.797  1.00  0.00    -0.200 F 
ATOM     56  C   UNL A   1      43.389  24.763  25.423  1.00  0.00     0.200 A 
ATOM     57  F   UNL A   1      41.834  23.122  26.099  1.00  0.00    -0.200 F 
ATOM     58  F   UNL A   1      43.792  23.986  24.409  1.00  0.00    -0.200 F 
ENDBRANCH  24  48
BRANCH  36  59
ATOM     59  C   UNL A   1      44.569  26.951  34.223  1.00  0.00     0.064 A 
ATOM     60  C   UNL A   1      45.861  27.479  34.351  1.00  0.00     0.173 A 
ATOM     61  C   UNL A   1      44.278  25.740  34.867  1.00  0.00     0.173 A 
ATOM     62  F   UNL A   1      46.187  28.627  33.737  1.00  0.00    -0.203 F 
ATOM     63  C   UNL A   1      46.839  26.795  35.063  1.00  0.00     0.198 A 
ATOM     64  C   UNL A   1      45.246  25.081  35.612  1.00  0.00     0.198 A 
ATOM     65  F   UNL A   1      43.053  25.202  34.775  1.00  0.00    -0.203 F 
ATOM     66  F   UNL A   1      48.088  27.278  35.114  1.00  0.00    -0.200 F 
ATOM     67  C   UNL A   1      46.529  25.601  35.699  1.00  0.00     0.200 A 
ATOM     68  F   UNL A   1      44.940  23.937  36.240  1.00  0.00    -0.200 F 
ATOM     69  F   UNL A   1      47.471  24.945  36.387  1.00  0.00    -0.200 F 
ENDBRANCH  36  59
ENDBRANCH  10  11
ENDBRANCH   3   5
ENDBRANCH   2   3
ENDBRANCH   1   2
BRANCH   1  70
ATOM     70  C   UNL A   1      32.513  27.782  24.071  1.00  0.00     0.274 C 
BRANCH  70  71
ATOM     71  O   UNL A   1      33.745  27.259  23.563  1.00  0.00    -0.462 OA
BRANCH  71  72
ATOM     72  C   UNL A   1      33.659  26.105  22.855  1.00  0.00     0.313 C 
ATOM     73  O   UNL A   1      33.709  26.039  21.633  1.00  0.00    -0.252 OA
BRANCH  72  74
ATOM     74  C   UNL A   1      33.513  24.890  23.750  1.00  0.00     0.134 C 
BRANCH  74  75
ATOM     75  C   UNL A   1      32.248  24.099  23.381  1.00  0.00     0.066 C 
BRANCH  75  76
ATOM     76  C   UNL A   1      32.111  22.457  23.745  1.00  0.00     0.006 A 
ATOM     77  C   UNL A   1      31.897  21.319  22.388  1.00  0.00     0.015 A 
ATOM     78  S   UNL A   1      32.825  21.087  25.751  1.00  0.00    -0.149 S 
ATOM     79  C   UNL A   1      32.359  19.545  22.809  1.00  0.00     0.012 A 
ATOM     80  C   UNL A   1      32.823  19.236  24.396  1.00  0.00     0.065 A 
ENDBRANCH  75  76
ENDBRANCH  74  75
BRANCH  74  81
ATOM     81  C   UNL A   1      34.771  24.141  24.156  1.00  0.00    -0.033 A 
ATOM     82  C   UNL A   1      35.357  24.352  25.417  1.00  0.00     0.004 A 
ATOM     83  C   UNL A   1      35.475  23.341  23.247  1.00  0.00     0.004 A 
ATOM     84  C   UNL A   1      36.520  23.681  25.806  1.00  0.00     0.000 A 
ATOM     85  C   UNL A   1      36.651  22.687  23.626  1.00  0.00     0.000 A 
ATOM     86  C   UNL A   1      37.156  22.828  24.915  1.00  0.00     0.000 A 
ENDBRANCH  74  81
ENDBRANCH  72  74
ENDBRANCH  71  72
ENDBRANCH  70  71
ENDBRANCH   1  70
TORSDOF 14
ENDMDL
MODEL 2
REMARK VINA RESULT:     -12.4      4.417      9.897
REMARK SMILES O=C(OCCOC(=O)[C@@H](Cc1cccs1)c1ccccc1)c1ccc(-c2c3nc(c(-c4c(F)c(F)c(F)c(F)c4F)c4ccc([nH]4)c(-c4c(F)c(F)c(F)c(F)c4F)c4nc(c(-c5c(F)c(F)c(F)c(F)c5F)c5ccc2[nH]5)C=C4)C=C3)cc1
REMARK SMILES IDX 4 1 3 2 2 3 1 4 22 5 23 6 84 7 24 8 83 9 25 10 26 11 27 12
REMARK SMILES IDX 77 13 28 14 82 15 76 16 78 17 29 18 81 19 75 20 74 21 30 23
REMARK SMILES IDX 62 24 42 25 61 26 43 27 46 28 60 29 79 30 44 31 45 32 59 34
REMARK SMILES IDX 80 35 47 36 31 37 32 38 40 39 33 40 34 41 38 42 41 43 35 44
REMARK SMILES IDX 36 45 39 46 37 47 63 48 64 49 72 50 65 51 66 52 70 53 73 54
REMARK SMILES IDX 67 55 68 56 71 57 69 58 48 59 49 60 57 61 50 62 51 63 55 64
REMARK SMILES IDX 58 65 52 66 53 67 56 68 54 69 5 70 6 71 7 72 8 73 9 74 10 75
REMARK SMILES IDX 11 76 12 77 15 78 13 79 14 80 16 81 17 82 21 83 18 84 20 85
REMARK SMILES IDX 19 86
REMARK H PARENT 78 22 46 33
REMARK Flexibility Score: inf
ROOT
ATOM      1  C   UNL A   1      35.184  21.495  26.126  1.00  0.00     0.275 C 
ENDROOT
BRANCH   1   2
ATOM      2  O   UNL A   1      36.279  21.789  25.226  1.00  0.00    -0.458 OA
BRANCH   2   3
ATOM      3  C   UNL A   1      37.603  21.491  25.350  1.00  0.00     0.338 C 
ATOM      4  O   UNL A   1      38.034  20.419  24.936  1.00  0.00    -0.246 OA
BRANCH   3   5
ATOM      5  C   UNL A   1      38.481  22.271  26.270  1.00  0.00     0.060 A 
ATOM      6  C   UNL A   1      39.863  21.588  26.873  1.00  0.00     0.016 A 
ATOM      7  C   UNL A   1      38.123  23.982  26.326  1.00  0.00     0.016 A 
ATOM      8  C   UNL A   1      41.062  22.639  27.535  1.00  0.00     0.010 A 
ATOM      9  C   UNL A   1      39.224  25.207  26.833  1.00  0.00     0.010 A 
ATOM     10  C   UNL A   1      40.784  24.683  27.509  1.00  0.00    -0.014 A 
BRANCH  10  11
ATOM     11  C   UNL A   1      41.459  26.061  28.069  1.00  0.00     0.031 A 
ATOM     12  C   UNL A   1      42.909  26.339  27.723  1.00  0.00     0.074 A 
ATOM     13  C   UNL A   1      40.835  26.998  28.823  1.00  0.00     0.049 A 
ATOM     14  N   UNL A   1      43.509  27.494  27.573  1.00  0.00    -0.248 NA
ATOM     15  C   UNL A   1      43.798  25.191  27.489  1.00  0.00     0.031 C 
ATOM     16  C   UNL A   1      39.526  26.846  29.415  1.00  0.00     0.029 A 
ATOM     17  N   UNL A   1      41.165  28.293  29.165  1.00  0.00    -0.354 N 
ATOM     18  C   UNL A   1      44.777  27.197  27.094  1.00  0.00     0.074 A 
ATOM     19  C   UNL A   1      44.901  25.764  27.044  1.00  0.00     0.031 C 
ATOM     20  C   UNL A   1      39.068  28.010  29.881  1.00  0.00     0.029 A 
ATOM     21  C   UNL A   1      40.126  28.988  29.758  1.00  0.00     0.049 A 
ATOM     22  H   UNL A   1      42.054  28.685  29.003  1.00  0.00     0.167 HD
ATOM     23  C   UNL A   1      45.768  28.042  26.734  1.00  0.00     0.037 A 
ATOM     24  C   UNL A   1      40.008  30.266  30.166  1.00  0.00     0.037 A 
ATOM     25  C   UNL A   1      45.746  29.442  27.045  1.00  0.00     0.049 A 
ATOM     26  C   UNL A   1      41.160  31.177  29.885  1.00  0.00     0.074 A 
ATOM     27  C   UNL A   1      46.724  30.393  26.836  1.00  0.00     0.029 A 
ATOM     28  N   UNL A   1      44.710  30.067  27.730  1.00  0.00    -0.354 N 
ATOM     29  N   UNL A   1      42.276  30.906  29.252  1.00  0.00    -0.248 NA
ATOM     30  C   UNL A   1      41.041  32.562  30.347  1.00  0.00     0.031 C 
ATOM     31  C   UNL A   1      46.320  31.568  27.479  1.00  0.00     0.029 A 
ATOM     32  C   UNL A   1      45.050  31.378  28.005  1.00  0.00     0.049 A 
ATOM     33  H   UNL A   1      43.860  29.638  27.983  1.00  0.00     0.167 HD
ATOM     34  C   UNL A   1      42.988  32.090  29.216  1.00  0.00     0.074 A 
ATOM     35  C   UNL A   1      42.162  33.088  29.870  1.00  0.00     0.031 C 
ATOM     36  C   UNL A   1      44.212  32.332  28.686  1.00  0.00     0.037 A 
BRANCH  23  37
ATOM     37  C   UNL A   1      46.962  27.426  26.063  1.00  0.00     0.064 A 
ATOM     38  C   UNL A   1      48.042  26.936  26.819  1.00  0.00     0.173 A 
ATOM     39  C   UNL A   1      47.070  27.388  24.668  1.00  0.00     0.173 A 
ATOM     40  F   UNL A   1      48.005  26.981  28.161  1.00  0.00    -0.203 F 
ATOM     41  C   UNL A   1      49.194  26.456  26.200  1.00  0.00     0.198 A 
ATOM     42  C   UNL A   1      48.214  26.885  24.052  1.00  0.00     0.198 A 
ATOM     43  F   UNL A   1      46.080  27.865  23.900  1.00  0.00    -0.203 F 
ATOM     44  F   UNL A   1      50.234  26.050  26.942  1.00  0.00    -0.200 F 
ATOM     45  C   UNL A   1      49.278  26.430  24.817  1.00  0.00     0.200 A 
ATOM     46  F   UNL A   1      48.298  26.866  22.715  1.00  0.00    -0.200 F 
ATOM     47  F   UNL A   1      50.392  25.983  24.221  1.00  0.00    -0.200 F 
ENDBRANCH  23  37
BRANCH  24  48
ATOM     48  C   UNL A   1      38.762  30.733  30.849  1.00  0.00     0.064 A 
ATOM     49  C   UNL A   1      37.634  31.152  30.130  1.00  0.00     0.173 A 
ATOM     50  C   UNL A   1      38.659  30.726  32.252  1.00  0.00     0.173 A 
ATOM     51  F   UNL A   1      37.669  31.192  28.790  1.00  0.00    -0.203 F 
ATOM     52  C   UNL A   1      36.463  31.552  30.782  1.00  0.00     0.198 A 
ATOM     53  C   UNL A   1      37.479  31.089  32.901  1.00  0.00     0.198 A 
ATOM     54  F   UNL A   1      39.697  30.322  33.000  1.00  0.00    -0.203 F 
ATOM     55  F   UNL A   1      35.414  31.979  30.067  1.00  0.00    -0.200 F 
ATOM     56  C   UNL A   1      36.384  31.510  32.165  1.00  0.00     0.200 A 
ATOM     57  F   UNL A   1      37.401  31.016  34.236  1.00  0.00    -0.200 F 
ATOM     58  F   UNL A   1      35.255  31.873  32.789  1.00  0.00    -0.200 F 
ENDBRANCH  24  48
BRANCH  36  59
ATOM     59  C   UNL A   1      44.710  33.738  28.787  1.00  0.00     0.064 A 
ATOM     60  C   UNL A   1      44.421  34.695  27.804  1.00  0.00     0.173 A 
ATOM     61  C   UNL A   1      45.474  34.129  29.894  1.00  0.00     0.173 A 
ATOM     62  F   UNL A   1      43.706  34.359  26.719  1.00  0.00    -0.203 F 
ATOM     63  C   UNL A   1      44.919  35.989  27.908  1.00  0.00     0.198 A 
ATOM     64  C   UNL A   1      45.935  35.434  30.014  1.00  0.00     0.198 A 
ATOM     65  F   UNL A   1      45.769  33.247  30.860  1.00  0.00    -0.203 F 
ATOM     66  F   UNL A   1      44.694  36.871  26.924  1.00  0.00    -0.200 F 
ATOM     67  C   UNL A   1      45.668  36.359  29.016  1.00  0.00     0.200 A 
ATOM     68  F   UNL A   1      46.643  35.794  31.093  1.00  0.00    -0.200 F 
ATOM     69  F   UNL A   1      46.144  37.606  29.115  1.00  0.00    -0.200 F 
ENDBRANCH  36  59
ENDBRANCH  10  11
ENDBRANCH   3   5
ENDBRANCH   2   3
ENDBRANCH   1   2
BRANCH   1  70
ATOM     70  C   UNL A   1      34.381  22.718  26.610  1.00  0.00     0.274 C 
BRANCH  70  71
ATOM     71  O   UNL A   1      33.155  22.914  25.897  1.00  0.00    -0.462 OA
BRANCH  71  72
ATOM     72  C   UNL A   1      32.274  23.787  26.449  1.00  0.00     0.313 C 
ATOM     73  O   UNL A   1      31.720  23.619  27.528  1.00  0.00    -0.252 OA
BRANCH  72  74
ATOM     74  C   UNL A   1      32.064  25.016  25.586  1.00  0.00     0.134 C 
BRANCH  74  75
ATOM     75  C   UNL A   1      30.785  24.871  24.746  1.00  0.00     0.066 C 
BRANCH  75  76
ATOM     76  C   UNL A   1      30.234  26.135  23.774  1.00  0.00     0.006 A 
ATOM     77  C   UNL A   1      28.507  26.571  23.876  1.00  0.00     0.015 A 
ATOM     78  S   UNL A   1      31.420  28.076  22.662  1.00  0.00    -0.149 S 
ATOM     79  C   UNL A   1      28.128  28.308  23.261  1.00  0.00     0.012 A 
ATOM     80  C   UNL A   1      29.414  29.187  22.625  1.00  0.00     0.065 A 
ENDBRANCH  75  76
ENDBRANCH  74  75
BRANCH  74  81
ATOM     81  C   UNL A   1      32.427  26.372  26.167  1.00  0.00    -0.033 A 
ATOM     82  C   UNL A   1      31.475  27.126  26.878  1.00  0.00     0.004 A 
ATOM     83  C   UNL A   1      33.653  26.987  25.888  1.00  0.00     0.004 A 
ATOM     84  C   UNL A   1      31.785  28.380  27.412  1.00  0.00     0.000 A 
ATOM     85  C   UNL A   1      33.957  28.251  26.401  1.00  0.00     0.000 A 
ATOM     86  C   UNL A   1      33.038  28.934  27.191  1.00  0.00     0.000 A 
ENDBRANCH  74  81
ENDBRANCH  72  74
ENDBRANCH  71  72
ENDBRANCH  70  71
ENDBRANCH   1  70
TORSDOF 14
ENDMDL
MODEL 3
REMARK VINA RESULT:     -12.3      1.428      2.299
REMARK SMILES O=C(OCCOC(=O)[C@@H](Cc1cccs1)c1ccccc1)c1ccc(-c2c3nc(c(-c4c(F)c(F)c(F)c(F)c4F)c4ccc([nH]4)c(-c4c(F)c(F)c(F)c(F)c4F)c4nc(c(-c5c(F)c(F)c(F)c(F)c5F)c5ccc2[nH]5)C=C4)C=C3)cc1
REMARK SMILES IDX 4 1 3 2 2 3 1 4 22 5 23 6 84 7 24 8 83 9 25 10 26 11 27 12
REMARK SMILES IDX 77 13 28 14 82 15 76 16 78 17 29 18 81 19 75 20 74 21 30 23
REMARK SMILES IDX 62 24 42 25 61 26 43 27 46 28 60 29 79 30 44 31 45 32 59 34
REMARK SMILES IDX 80 35 47 36 31 37 32 38 40 39 33 40 34 41 38 42 41 43 35 44
REMARK SMILES IDX 36 45 39 46 37 47 63 48 64 49 72 50 65 51 66 52 70 53 73 54
REMARK SMILES IDX 67 55 68 56 71 57 69 58 48 59 49 60 57 61 50 62 51 63 55 64
REMARK SMILES IDX 58 65 52 66 53 67 56 68 54 69 5 70 6 71 7 72 8 73 9 74 10 75
REMARK SMILES IDX 11 76 12 77 15 78 13 79 14 80 16 81 17 82 21 83 18 84 20 85
REMARK SMILES IDX 19 86
REMARK H PARENT 78 22 46 33
REMARK Flexibility Score: inf
ROOT
ATOM      1  C   UNL A   1      31.572  28.131  26.265  1.00  0.00     0.275 C 
ENDROOT
BRANCH   1   2
ATOM      2  O   UNL A   1      31.786  29.217  27.199  1.00  0.00    -0.458 OA
BRANCH   2   3
ATOM      3  C   UNL A   1      32.324  30.450  26.982  1.00  0.00     0.338 C 
ATOM      4  O   UNL A   1      31.745  31.255  26.259  1.00  0.00    -0.246 OA
BRANCH   3   5
ATOM      5  C   UNL A   1      33.750  30.733  27.316  1.00  0.00     0.060 A 
ATOM      6  C   UNL A   1      34.226  32.275  27.678  1.00  0.00     0.016 A 
ATOM      7  C   UNL A   1      34.709  29.305  27.638  1.00  0.00     0.016 A 
ATOM      8  C   UNL A   1      35.733  32.487  28.493  1.00  0.00     0.010 A 
ATOM      9  C   UNL A   1      36.176  29.283  28.542  1.00  0.00     0.010 A 
ATOM     10  C   UNL A   1      36.859  30.848  29.041  1.00  0.00    -0.014 A 
BRANCH  10  11
ATOM     11  C   UNL A   1      38.319  30.464  29.666  1.00  0.00     0.031 A 
ATOM     12  C   UNL A   1      38.675  31.005  31.037  1.00  0.00     0.074 A 
ATOM     13  C   UNL A   1      39.258  29.693  29.066  1.00  0.00     0.049 A 
ATOM     14  N   UNL A   1      39.458  30.480  31.947  1.00  0.00    -0.248 NA
ATOM     15  C   UNL A   1      38.063  32.273  31.462  1.00  0.00     0.031 C 
ATOM     16  C   UNL A   1      39.202  29.236  27.697  1.00  0.00     0.029 A 
ATOM     17  N   UNL A   1      40.405  29.085  29.534  1.00  0.00    -0.354 N 
ATOM     18  C   UNL A   1      39.307  31.276  33.074  1.00  0.00     0.074 A 
ATOM     19  C   UNL A   1      38.425  32.359  32.729  1.00  0.00     0.031 C 
ATOM     20  C   UNL A   1      40.121  28.297  27.463  1.00  0.00     0.029 A 
ATOM     21  C   UNL A   1      40.953  28.182  28.640  1.00  0.00     0.049 A 
ATOM     22  H   UNL A   1      40.795  29.276  30.417  1.00  0.00     0.167 HD
ATOM     23  C   UNL A   1      39.865  31.131  34.297  1.00  0.00     0.037 A 
ATOM     24  C   UNL A   1      42.002  27.343  28.730  1.00  0.00     0.037 A 
ATOM     25  C   UNL A   1      40.947  30.226  34.553  1.00  0.00     0.049 A 
ATOM     26  C   UNL A   1      42.705  27.275  30.048  1.00  0.00     0.074 A 
ATOM     27  C   UNL A   1      41.675  30.052  35.713  1.00  0.00     0.029 A 
ATOM     28  N   UNL A   1      41.520  29.409  33.586  1.00  0.00    -0.354 N 
ATOM     29  N   UNL A   1      42.413  27.906  31.160  1.00  0.00    -0.248 NA
ATOM     30  C   UNL A   1      43.860  26.378  30.141  1.00  0.00     0.031 C 
ATOM     31  C   UNL A   1      42.746  29.201  35.420  1.00  0.00     0.029 A 
ATOM     32  C   UNL A   1      42.630  28.770  34.106  1.00  0.00     0.049 A 
ATOM     33  H   UNL A   1      41.183  29.300  32.667  1.00  0.00     0.167 HD
ATOM     34  C   UNL A   1      43.330  27.469  32.096  1.00  0.00     0.074 A 
ATOM     35  C   UNL A   1      44.174  26.497  31.424  1.00  0.00     0.031 C 
ATOM     36  C   UNL A   1      43.463  27.833  33.395  1.00  0.00     0.037 A 
BRANCH  23  37
ATOM     37  C   UNL A   1      39.355  32.041  35.376  1.00  0.00     0.064 A 
ATOM     38  C   UNL A   1      39.869  33.342  35.525  1.00  0.00     0.173 A 
ATOM     39  C   UNL A   1      38.410  31.601  36.310  1.00  0.00     0.173 A 
ATOM     40  F   UNL A   1      40.803  33.803  34.677  1.00  0.00    -0.203 F 
ATOM     41  C   UNL A   1      39.473  34.155  36.585  1.00  0.00     0.198 A 
ATOM     42  C   UNL A   1      37.999  32.425  37.356  1.00  0.00     0.198 A 
ATOM     43  F   UNL A   1      37.906  30.361  36.229  1.00  0.00    -0.203 F 
ATOM     44  F   UNL A   1      40.021  35.368  36.741  1.00  0.00    -0.200 F 
ATOM     45  C   UNL A   1      38.537  33.696  37.498  1.00  0.00     0.200 A 
ATOM     46  F   UNL A   1      37.099  31.978  38.243  1.00  0.00    -0.200 F 
ATOM     47  F   UNL A   1      38.167  34.470  38.527  1.00  0.00    -0.200 F 
ENDBRANCH  23  37
BRANCH  24  48
ATOM     48  C   UNL A   1      42.413  26.512  27.556  1.00  0.00     0.064 A 
ATOM     49  C   UNL A   1      43.419  26.924  26.670  1.00  0.00     0.173 A 
ATOM     50  C   UNL A   1      41.831  25.254  27.321  1.00  0.00     0.173 A 
ATOM     51  F   UNL A   1      44.008  28.117  26.832  1.00  0.00    -0.203 F 
ATOM     52  C   UNL A   1      43.817  26.120  25.598  1.00  0.00     0.198 A 
ATOM     53  C   UNL A   1      42.254  24.436  26.273  1.00  0.00     0.198 A 
ATOM     54  F   UNL A   1      40.872  24.793  28.139  1.00  0.00    -0.203 F 
ATOM     55  F   UNL A   1      44.758  26.556  24.750  1.00  0.00    -0.200 F 
ATOM     56  C   UNL A   1      43.242  24.873  25.407  1.00  0.00     0.200 A 
ATOM     57  F   UNL A   1      41.714  23.220  26.115  1.00  0.00    -0.200 F 
ATOM     58  F   UNL A   1      43.639  24.094  24.391  1.00  0.00    -0.200 F 
ENDBRANCH  24  48
BRANCH  36  59
ATOM     59  C   UNL A   1      44.552  27.158  34.164  1.00  0.00     0.064 A 
ATOM     60  C   UNL A   1      45.842  27.701  34.248  1.00  0.00     0.173 A 
ATOM     61  C   UNL A   1      44.290  25.958  34.838  1.00  0.00     0.173 A 
ATOM     62  F   UNL A   1      46.140  28.841  33.604  1.00  0.00    -0.203 F 
ATOM     63  C   UNL A   1      46.845  27.040  34.947  1.00  0.00     0.198 A 
ATOM     64  C   UNL A   1      45.284  25.322  35.570  1.00  0.00     0.198 A 
ATOM     65  F   UNL A   1      43.068  25.406  34.789  1.00  0.00    -0.203 F 
ATOM     66  F   UNL A   1      48.090  27.537  34.956  1.00  0.00    -0.200 F 
ATOM     67  C   UNL A   1      46.563  25.857  35.614  1.00  0.00     0.200 A 
ATOM     68  F   UNL A   1      45.005  24.188  36.227  1.00  0.00    -0.200 F 
ATOM     69  F   UNL A   1      47.530  25.223  36.289  1.00  0.00    -0.200 F 
ENDBRANCH  36  59
ENDBRANCH  10  11
ENDBRANCH   3   5
ENDBRANCH   2   3
ENDBRANCH   1   2
BRANCH   1  70
ATOM     70  C   UNL A   1      31.917  26.726  26.795  1.00  0.00     0.274 C 
BRANCH  70  71
ATOM     71  O   UNL A   1      30.915  25.745  26.505  1.00  0.00    -0.462 OA
BRANCH  71  72
ATOM     72  C   UNL A   1      31.332  24.454  26.477  1.00  0.00     0.313 C 
ATOM     73  O   UNL A   1      31.384  23.723  27.458  1.00  0.00    -0.252 OA
BRANCH  72  74
ATOM     74  C   UNL A   1      31.710  24.002  25.079  1.00  0.00     0.134 C 
BRANCH  74  75
ATOM     75  C   UNL A   1      30.751  24.606  24.041  1.00  0.00     0.066 C 
BRANCH  75  76
ATOM     76  C   UNL A   1      31.148  26.017  23.205  1.00  0.00     0.006 A 
ATOM     77  C   UNL A   1      29.920  27.309  23.124  1.00  0.00     0.015 A 
ATOM     78  S   UNL A   1      33.367  27.068  22.585  1.00  0.00    -0.149 S 
ATOM     79  C   UNL A   1      30.633  29.006  22.735  1.00  0.00     0.012 A 
ATOM     80  C   UNL A   1      32.286  29.085  22.432  1.00  0.00     0.065 A 
ENDBRANCH  75  76
ENDBRANCH  74  75
BRANCH  74  81
ATOM     81  C   UNL A   1      33.186  23.866  24.743  1.00  0.00    -0.033 A 
ATOM     82  C   UNL A   1      33.602  23.103  23.636  1.00  0.00     0.004 A 
ATOM     83  C   UNL A   1      34.182  24.355  25.596  1.00  0.00     0.004 A 
ATOM     84  C   UNL A   1      34.955  22.957  23.316  1.00  0.00     0.000 A 
ATOM     85  C   UNL A   1      35.536  24.189  25.290  1.00  0.00     0.000 A 
ATOM     86  C   UNL A   1      35.923  23.520  24.133  1.00  0.00     0.000 A 
ENDBRANCH  74  81
ENDBRANCH  72  74
ENDBRANCH  71  72
ENDBRANCH  70  71
ENDBRANCH   1  70
TORSDOF 14
ENDMDL
