MODEL 1
REMARK VINA RESULT:     -12.9      0.000      0.000
REMARK SMILES CC(C)(C)c1cc2c(cc1Cl)C=C(C(=O)OCCOC(=O)c1ccc(-c3c4nc(c(-c5c(F)c(F)c(F)c(F)c5F)c5ccc([nH]5)c(-c5c(F)c(F)c(F)c(F)c5F)c5nc(c(-c6c(F)c(F)c(F)c(F)c6F)c6ccc3[nH]6)C=C5)C=C4)cc1)[C@@H](C(F)(F)F)O2
REMARK SMILES IDX 18 1 17 2 16 3 14 4 15 5 13 6 5 7 6 8 10 9 7 10 9 11 11 12
REMARK SMILES IDX 8 13 90 14 12 15 85 16 2 17 1 18 3 19 4 20 86 21 87 22 88 23
REMARK SMILES IDX 89 24 19 25 20 26 21 27 22 28 23 29 84 30 24 31 83 32 25 33
REMARK SMILES IDX 26 34 27 35 77 36 28 37 82 38 76 39 78 40 29 41 81 42 75 43
REMARK SMILES IDX 74 44 30 46 62 47 42 48 61 49 43 50 46 51 60 52 79 53 44 54
REMARK SMILES IDX 45 55 59 57 80 58 47 59 31 60 32 61 40 62 33 63 34 64 38 65
REMARK SMILES IDX 41 66 35 67 36 68 39 69 37 70 63 71 64 72 72 73 65 74 66 75
REMARK SMILES IDX 70 76 73 77 67 78 68 79 71 80 69 81 48 82 49 83 57 84 50 85
REMARK SMILES IDX 51 86 55 87 58 88 52 89 53 90 56 91 54 92
REMARK H PARENT 78 45 46 56
REMARK Flexibility Score: inf
ROOT
ATOM      1  C   UNL A   1      31.397  31.190  26.240  1.00  0.00     0.275 C 
ENDROOT
BRANCH   1   2
ATOM      2  C   UNL A   1      31.065  30.373  24.991  1.00  0.00     0.275 C 
BRANCH   2   3
ATOM      3  O   UNL A   1      31.063  28.955  25.271  1.00  0.00    -0.459 OA
BRANCH   3   4
ATOM      4  C   UNL A   1      30.722  28.162  24.230  1.00  0.00     0.338 C 
ATOM      5  O   UNL A   1      29.755  28.299  23.496  1.00  0.00    -0.246 OA
BRANCH   4   6
ATOM      6  C   UNL A   1      31.728  27.102  24.027  1.00  0.00     0.087 C 
ATOM      7  C   UNL A   1      35.108  23.411  24.839  1.00  0.00    -0.020 A 
ATOM      8  C   UNL A   1      34.786  24.267  23.749  1.00  0.00     0.053 A 
ATOM      9  C   UNL A   1      34.303  23.539  25.994  1.00  0.00     0.045 A 
ATOM     10  C   UNL A   1      33.742  25.197  23.804  1.00  0.00     0.128 A 
ATOM     11  C   UNL A   1      33.246  24.454  26.037  1.00  0.00     0.032 A 
ATOM     12  Cl  UNL A   1      34.529  22.660  27.467  1.00  0.00    -0.084 Cl
ATOM     13  C   UNL A   1      32.978  25.285  24.954  1.00  0.00     0.019 A 
ATOM     14  O   UNL A   1      33.524  25.974  22.698  1.00  0.00    -0.475 OA
ATOM     15  C   UNL A   1      31.925  26.266  25.050  1.00  0.00     0.027 C 
ATOM     16  C   UNL A   1      32.577  27.085  22.788  1.00  0.00     0.316 C 
BRANCH   7  17
ATOM     17  C   UNL A   1      36.309  22.438  24.733  1.00  0.00    -0.012 C 
ATOM     18  C   UNL A   1      36.885  22.484  23.301  1.00  0.00     0.016 C 
ATOM     19  C   UNL A   1      35.925  20.959  25.002  1.00  0.00     0.016 C 
ATOM     20  C   UNL A   1      37.416  22.761  25.765  1.00  0.00     0.016 C 
ENDBRANCH   7  17
BRANCH  16  21
ATOM     21  C   UNL A   1      33.344  28.410  22.635  1.00  0.00     0.430 C 
ATOM     22  F   UNL A   1      33.874  28.815  23.813  1.00  0.00    -0.167 F 
ATOM     23  F   UNL A   1      34.378  28.286  21.768  1.00  0.00    -0.167 F 
ATOM     24  F   UNL A   1      32.553  29.407  22.179  1.00  0.00    -0.167 F 
ENDBRANCH  16  21
ENDBRANCH   4   6
ENDBRANCH   3   4
ENDBRANCH   2   3
ENDBRANCH   1   2
BRANCH   1  25
ATOM     25  O   UNL A   1      32.763  30.965  26.639  1.00  0.00    -0.458 OA
BRANCH  25  26
ATOM     26  C   UNL A   1      33.358  31.989  27.291  1.00  0.00     0.338 C 
ATOM     27  O   UNL A   1      32.898  33.091  27.525  1.00  0.00    -0.246 OA
BRANCH  26  28
ATOM     28  C   UNL A   1      34.682  31.565  27.774  1.00  0.00     0.060 A 
ATOM     29  C   UNL A   1      35.681  32.495  28.042  1.00  0.00     0.016 A 
ATOM     30  C   UNL A   1      34.866  30.233  28.118  1.00  0.00     0.016 A 
ATOM     31  C   UNL A   1      36.869  32.064  28.648  1.00  0.00     0.010 A 
ATOM     32  C   UNL A   1      35.971  29.841  28.868  1.00  0.00     0.010 A 
ATOM     33  C   UNL A   1      37.015  30.740  29.112  1.00  0.00    -0.014 A 
BRANCH  33  34
ATOM     34  C   UNL A   1      38.250  30.291  29.827  1.00  0.00     0.031 A 
ATOM     35  C   UNL A   1      38.514  30.698  31.260  1.00  0.00     0.074 A 
ATOM     36  C   UNL A   1      39.167  29.540  29.182  1.00  0.00     0.049 A 
ATOM     37  N   UNL A   1      39.537  30.409  32.030  1.00  0.00    -0.248 NA
ATOM     38  C   UNL A   1      37.532  31.586  31.902  1.00  0.00     0.031 C 
ATOM     39  C   UNL A   1      39.108  29.158  27.769  1.00  0.00     0.029 A 
ATOM     40  N   UNL A   1      40.322  28.946  29.632  1.00  0.00    -0.354 N 
ATOM     41  C   UNL A   1      39.334  31.107  33.214  1.00  0.00     0.074 A 
ATOM     42  C   UNL A   1      38.135  31.893  33.041  1.00  0.00     0.031 C 
ATOM     43  C   UNL A   1      40.125  28.327  27.493  1.00  0.00     0.029 A 
ATOM     44  C   UNL A   1      40.934  28.150  28.694  1.00  0.00     0.049 A 
ATOM     45  H   UNL A   1      40.677  29.079  30.541  1.00  0.00     0.167 HD
ATOM     46  C   UNL A   1      40.049  31.065  34.365  1.00  0.00     0.037 A 
ATOM     47  C   UNL A   1      42.012  27.347  28.794  1.00  0.00     0.037 A 
ATOM     48  C   UNL A   1      41.191  30.218  34.577  1.00  0.00     0.049 A 
ATOM     49  C   UNL A   1      42.741  27.247  30.105  1.00  0.00     0.074 A 
ATOM     50  C   UNL A   1      41.923  30.032  35.736  1.00  0.00     0.029 A 
ATOM     51  N   UNL A   1      41.754  29.401  33.611  1.00  0.00    -0.354 N 
ATOM     52  N   UNL A   1      42.491  27.857  31.237  1.00  0.00    -0.248 NA
ATOM     53  C   UNL A   1      43.900  26.344  30.152  1.00  0.00     0.031 C 
ATOM     54  C   UNL A   1      42.946  29.118  35.466  1.00  0.00     0.029 A 
ATOM     55  C   UNL A   1      42.828  28.710  34.147  1.00  0.00     0.049 A 
ATOM     56  H   UNL A   1      41.439  29.323  32.682  1.00  0.00     0.167 HD
ATOM     57  C   UNL A   1      43.450  27.406  32.133  1.00  0.00     0.074 A 
ATOM     58  C   UNL A   1      44.274  26.451  31.421  1.00  0.00     0.031 C 
ATOM     59  C   UNL A   1      43.635  27.759  33.428  1.00  0.00     0.037 A 
BRANCH  46  60
ATOM     60  C   UNL A   1      39.584  31.924  35.509  1.00  0.00     0.064 A 
ATOM     61  C   UNL A   1      40.066  33.230  35.686  1.00  0.00     0.173 A 
ATOM     62  C   UNL A   1      38.613  31.458  36.408  1.00  0.00     0.173 A 
ATOM     63  F   UNL A   1      41.001  33.723  34.858  1.00  0.00    -0.203 F 
ATOM     64  C   UNL A   1      39.619  34.025  36.737  1.00  0.00     0.198 A 
ATOM     65  C   UNL A   1      38.144  32.267  37.440  1.00  0.00     0.198 A 
ATOM     66  F   UNL A   1      38.109  30.221  36.279  1.00  0.00    -0.203 F 
ATOM     67  F   UNL A   1      40.133  35.251  36.913  1.00  0.00    -0.200 F 
ATOM     68  C   UNL A   1      38.653  33.547  37.609  1.00  0.00     0.200 A 
ATOM     69  F   UNL A   1      37.198  31.810  38.272  1.00  0.00    -0.200 F 
ATOM     70  F   UNL A   1      38.214  34.317  38.614  1.00  0.00    -0.200 F 
ENDBRANCH  46  60
BRANCH  47  71
ATOM     71  C   UNL A   1      42.414  26.512  27.632  1.00  0.00     0.064 A 
ATOM     72  C   UNL A   1      43.420  26.948  26.757  1.00  0.00     0.173 A 
ATOM     73  C   UNL A   1      41.835  25.259  27.388  1.00  0.00     0.173 A 
ATOM     74  F   UNL A   1      43.990  28.148  26.939  1.00  0.00    -0.203 F 
ATOM     75  C   UNL A   1      43.828  26.165  25.680  1.00  0.00     0.198 A 
ATOM     76  C   UNL A   1      42.261  24.466  26.324  1.00  0.00     0.198 A 
ATOM     77  F   UNL A   1      40.874  24.795  28.199  1.00  0.00    -0.203 F 
ATOM     78  F   UNL A   1      44.771  26.618  24.843  1.00  0.00    -0.200 F 
ATOM     79  C   UNL A   1      43.253  24.921  25.468  1.00  0.00     0.200 A 
ATOM     80  F   UNL A   1      41.713  23.259  26.130  1.00  0.00    -0.200 F 
ATOM     81  F   UNL A   1      43.654  24.162  24.440  1.00  0.00    -0.200 F 
ENDBRANCH  47  71
BRANCH  59  82
ATOM     82  C   UNL A   1      44.764  27.109  34.170  1.00  0.00     0.064 A 
ATOM     83  C   UNL A   1      46.033  27.701  34.229  1.00  0.00     0.173 A 
ATOM     84  C   UNL A   1      44.555  25.922  34.888  1.00  0.00     0.173 A 
ATOM     85  F   UNL A   1      46.283  28.830  33.549  1.00  0.00    -0.203 F 
ATOM     86  C   UNL A   1      47.058  27.122  34.972  1.00  0.00     0.198 A 
ATOM     87  C   UNL A   1      45.574  25.359  35.650  1.00  0.00     0.198 A 
ATOM     88  F   UNL A   1      43.355  25.322  34.869  1.00  0.00    -0.203 F 
ATOM     89  F   UNL A   1      48.272  27.689  34.991  1.00  0.00    -0.200 F 
ATOM     90  C   UNL A   1      46.825  25.957  35.688  1.00  0.00     0.200 A 
ATOM     91  F   UNL A   1      45.345  24.240  36.352  1.00  0.00    -0.200 F 
ATOM     92  F   UNL A   1      47.809  25.408  36.415  1.00  0.00    -0.200 F 
ENDBRANCH  59  82
ENDBRANCH  33  34
ENDBRANCH  26  28
ENDBRANCH  25  26
ENDBRANCH   1  25
TORSDOF 13
ENDMDL
MODEL 2
REMARK VINA RESULT:     -12.9      4.493      9.866
REMARK SMILES CC(C)(C)c1cc2c(cc1Cl)C=C(C(=O)OCCOC(=O)c1ccc(-c3c4nc(c(-c5c(F)c(F)c(F)c(F)c5F)c5ccc([nH]5)c(-c5c(F)c(F)c(F)c(F)c5F)c5nc(c(-c6c(F)c(F)c(F)c(F)c6F)c6ccc3[nH]6)C=C5)C=C4)cc1)[C@@H](C(F)(F)F)O2
REMARK SMILES IDX 18 1 17 2 16 3 14 4 15 5 13 6 5 7 6 8 10 9 7 10 9 11 11 12
REMARK SMILES IDX 8 13 90 14 12 15 85 16 2 17 1 18 3 19 4 20 86 21 87 22 88 23
REMARK SMILES IDX 89 24 19 25 20 26 21 27 22 28 23 29 84 30 24 31 83 32 25 33
REMARK SMILES IDX 26 34 27 35 77 36 28 37 82 38 76 39 78 40 29 41 81 42 75 43
REMARK SMILES IDX 74 44 30 46 62 47 42 48 61 49 43 50 46 51 60 52 79 53 44 54
REMARK SMILES IDX 45 55 59 57 80 58 47 59 31 60 32 61 40 62 33 63 34 64 38 65
REMARK SMILES IDX 41 66 35 67 36 68 39 69 37 70 63 71 64 72 72 73 65 74 66 75
REMARK SMILES IDX 70 76 73 77 67 78 68 79 71 80 69 81 48 82 49 83 57 84 50 85
REMARK SMILES IDX 51 86 55 87 58 88 52 89 53 90 56 91 54 92
REMARK H PARENT 78 45 46 56
REMARK Flexibility Score: inf
ROOT
ATOM      1  C   UNL A   1      37.456  20.232  24.799  1.00  0.00     0.275 C 
ENDROOT
BRANCH   1   2
ATOM      2  C   UNL A   1      35.942  20.118  24.984  1.00  0.00     0.275 C 
BRANCH   2   3
ATOM      3  O   UNL A   1      35.255  21.269  24.443  1.00  0.00    -0.459 OA
BRANCH   3   4
ATOM      4  C   UNL A   1      33.908  21.243  24.558  1.00  0.00     0.338 C 
ATOM      5  O   UNL A   1      33.179  20.280  24.371  1.00  0.00    -0.246 OA
BRANCH   4   6
ATOM      6  C   UNL A   1      33.396  22.547  25.020  1.00  0.00     0.087 C 
ATOM      7  C   UNL A   1      32.747  27.528  25.709  1.00  0.00    -0.020 A 
ATOM      8  C   UNL A   1      32.327  26.349  26.386  1.00  0.00     0.053 A 
ATOM      9  C   UNL A   1      33.496  27.337  24.524  1.00  0.00     0.045 A 
ATOM     10  C   UNL A   1      32.640  25.065  25.927  1.00  0.00     0.128 A 
ATOM     11  C   UNL A   1      33.787  26.051  24.057  1.00  0.00     0.032 A 
ATOM     12  Cl  UNL A   1      34.171  28.603  23.558  1.00  0.00    -0.084 Cl
ATOM     13  C   UNL A   1      33.372  24.925  24.762  1.00  0.00     0.019 A 
ATOM     14  O   UNL A   1      32.189  24.002  26.662  1.00  0.00    -0.475 OA
ATOM     15  C   UNL A   1      33.743  23.613  24.294  1.00  0.00     0.027 C 
ATOM     16  C   UNL A   1      32.659  22.657  26.325  1.00  0.00     0.316 C 
BRANCH   7  17
ATOM     17  C   UNL A   1      32.413  28.923  26.296  1.00  0.00    -0.012 C 
ATOM     18  C   UNL A   1      31.524  28.754  27.547  1.00  0.00     0.016 C 
ATOM     19  C   UNL A   1      31.619  29.826  25.316  1.00  0.00     0.016 C 
ATOM     20  C   UNL A   1      33.685  29.729  26.648  1.00  0.00     0.016 C 
ENDBRANCH   7  17
BRANCH  16  21
ATOM     21  C   UNL A   1      33.520  22.125  27.483  1.00  0.00     0.430 C 
ATOM     22  F   UNL A   1      32.961  22.398  28.685  1.00  0.00    -0.167 F 
ATOM     23  F   UNL A   1      33.659  20.778  27.418  1.00  0.00    -0.167 F 
ATOM     24  F   UNL A   1      34.763  22.658  27.481  1.00  0.00    -0.167 F 
ENDBRANCH  16  21
ENDBRANCH   4   6
ENDBRANCH   3   4
ENDBRANCH   2   3
ENDBRANCH   1   2
BRANCH   1  25
ATOM     25  O   UNL A   1      37.977  21.321  25.584  1.00  0.00    -0.458 OA
BRANCH  25  26
ATOM     26  C   UNL A   1      39.193  21.114  26.137  1.00  0.00     0.338 C 
ATOM     27  O   UNL A   1      39.850  20.089  26.131  1.00  0.00    -0.246 OA
BRANCH  26  28
ATOM     28  C   UNL A   1      39.690  22.368  26.724  1.00  0.00     0.060 A 
ATOM     29  C   UNL A   1      40.770  22.374  27.601  1.00  0.00     0.016 A 
ATOM     30  C   UNL A   1      39.170  23.569  26.258  1.00  0.00     0.016 A 
ATOM     31  C   UNL A   1      41.309  23.601  28.012  1.00  0.00     0.010 A 
ATOM     32  C   UNL A   1      39.812  24.773  26.535  1.00  0.00     0.010 A 
ATOM     33  C   UNL A   1      40.869  24.818  27.449  1.00  0.00    -0.014 A 
BRANCH  33  34
ATOM     34  C   UNL A   1      41.490  26.126  27.826  1.00  0.00     0.031 A 
ATOM     35  C   UNL A   1      42.884  26.490  27.365  1.00  0.00     0.074 A 
ATOM     36  C   UNL A   1      40.819  26.987  28.619  1.00  0.00     0.049 A 
ATOM     37  N   UNL A   1      43.581  27.575  27.607  1.00  0.00    -0.248 NA
ATOM     38  C   UNL A   1      43.616  25.489  26.572  1.00  0.00     0.031 C 
ATOM     39  C   UNL A   1      39.513  26.734  29.232  1.00  0.00     0.029 A 
ATOM     40  N   UNL A   1      41.132  28.260  29.034  1.00  0.00    -0.354 N 
ATOM     41  C   UNL A   1      44.829  27.364  27.032  1.00  0.00     0.074 A 
ATOM     42  C   UNL A   1      44.826  26.023  26.496  1.00  0.00     0.031 C 
ATOM     43  C   UNL A   1      39.100  27.842  29.867  1.00  0.00     0.029 A 
ATOM     44  C   UNL A   1      40.127  28.870  29.745  1.00  0.00     0.049 A 
ATOM     45  H   UNL A   1      41.995  28.693  28.839  1.00  0.00     0.167 HD
ATOM     46  C   UNL A   1      45.872  28.221  26.913  1.00  0.00     0.037 A 
ATOM     47  C   UNL A   1      40.031  30.126  30.225  1.00  0.00     0.037 A 
ATOM     48  C   UNL A   1      45.852  29.586  27.364  1.00  0.00     0.049 A 
ATOM     49  C   UNL A   1      41.163  31.091  30.007  1.00  0.00     0.074 A 
ATOM     50  C   UNL A   1      46.820  30.562  27.204  1.00  0.00     0.029 A 
ATOM     51  N   UNL A   1      44.799  30.174  28.047  1.00  0.00    -0.354 N 
ATOM     52  N   UNL A   1      42.306  30.897  29.396  1.00  0.00    -0.248 NA
ATOM     53  C   UNL A   1      40.991  32.448  30.543  1.00  0.00     0.031 C 
ATOM     54  C   UNL A   1      46.364  31.736  27.810  1.00  0.00     0.029 A 
ATOM     55  C   UNL A   1      45.096  31.499  28.318  1.00  0.00     0.049 A 
ATOM     56  H   UNL A   1      43.965  29.718  28.301  1.00  0.00     0.167 HD
ATOM     57  C   UNL A   1      42.984  32.107  29.463  1.00  0.00     0.074 A 
ATOM     58  C   UNL A   1      42.114  33.037  30.153  1.00  0.00     0.031 C 
ATOM     59  C   UNL A   1      44.219  32.415  29.001  1.00  0.00     0.037 A 
BRANCH  46  60
ATOM     60  C   UNL A   1      47.111  27.725  26.220  1.00  0.00     0.064 A 
ATOM     61  C   UNL A   1      48.200  27.216  26.944  1.00  0.00     0.173 A 
ATOM     62  C   UNL A   1      47.192  27.710  24.819  1.00  0.00     0.173 A 
ATOM     63  F   UNL A   1      48.177  27.213  28.286  1.00  0.00    -0.203 F 
ATOM     64  C   UNL A   1      49.337  26.743  26.295  1.00  0.00     0.198 A 
ATOM     65  C   UNL A   1      48.317  27.206  24.171  1.00  0.00     0.198 A 
ATOM     66  F   UNL A   1      46.175  28.173  24.077  1.00  0.00    -0.203 F 
ATOM     67  F   UNL A   1      50.384  26.309  27.011  1.00  0.00    -0.200 F 
ATOM     68  C   UNL A   1      49.392  26.730  24.909  1.00  0.00     0.200 A 
ATOM     69  F   UNL A   1      48.363  27.178  22.832  1.00  0.00    -0.200 F 
ATOM     70  F   UNL A   1      50.482  26.263  24.284  1.00  0.00    -0.200 F 
ENDBRANCH  46  60
BRANCH  47  71
ATOM     71  C   UNL A   1      38.775  30.562  30.890  1.00  0.00     0.064 A 
ATOM     72  C   UNL A   1      38.666  30.544  32.288  1.00  0.00     0.173 A 
ATOM     73  C   UNL A   1      37.678  31.034  30.156  1.00  0.00     0.173 A 
ATOM     74  F   UNL A   1      39.683  30.082  33.031  1.00  0.00    -0.203 F 
ATOM     75  C   UNL A   1      37.507  30.975  32.927  1.00  0.00     0.198 A 
ATOM     76  C   UNL A   1      36.527  31.489  30.798  1.00  0.00     0.198 A 
ATOM     77  F   UNL A   1      37.734  31.078  28.818  1.00  0.00    -0.203 F 
ATOM     78  F   UNL A   1      37.420  30.919  34.263  1.00  0.00    -0.200 F 
ATOM     79  C   UNL A   1      36.440  31.454  32.182  1.00  0.00     0.200 A 
ATOM     80  F   UNL A   1      35.503  31.965  30.076  1.00  0.00    -0.200 F 
ATOM     81  F   UNL A   1      35.330  31.882  32.797  1.00  0.00    -0.200 F 
ENDBRANCH  47  71
BRANCH  59  82
ATOM     82  C   UNL A   1      44.711  33.814  29.213  1.00  0.00     0.064 A 
ATOM     83  C   UNL A   1      45.483  34.154  30.333  1.00  0.00     0.173 A 
ATOM     84  C   UNL A   1      44.470  34.808  28.252  1.00  0.00     0.173 A 
ATOM     85  F   UNL A   1      45.729  33.240  31.284  1.00  0.00    -0.203 F 
ATOM     86  C   UNL A   1      45.986  35.441  30.490  1.00  0.00     0.198 A 
ATOM     87  C   UNL A   1      44.997  36.087  28.400  1.00  0.00     0.198 A 
ATOM     88  F   UNL A   1      43.744  34.529  27.158  1.00  0.00    -0.203 F 
ATOM     89  F   UNL A   1      46.697  35.752  31.584  1.00  0.00    -0.200 F 
ATOM     90  C   UNL A   1      45.751  36.404  29.519  1.00  0.00     0.200 A 
ATOM     91  F   UNL A   1      44.779  37.013  27.455  1.00  0.00    -0.200 F 
ATOM     92  F   UNL A   1      46.249  37.640  29.665  1.00  0.00    -0.200 F 
ENDBRANCH  59  82
ENDBRANCH  33  34
ENDBRANCH  26  28
ENDBRANCH  25  26
ENDBRANCH   1  25
TORSDOF 13
ENDMDL
MODEL 3
REMARK VINA RESULT:     -12.8      4.507      9.842
REMARK SMILES CC(C)(C)c1cc2c(cc1Cl)C=C(C(=O)OCCOC(=O)c1ccc(-c3c4nc(c(-c5c(F)c(F)c(F)c(F)c5F)c5ccc([nH]5)c(-c5c(F)c(F)c(F)c(F)c5F)c5nc(c(-c6c(F)c(F)c(F)c(F)c6F)c6ccc3[nH]6)C=C5)C=C4)cc1)[C@@H](C(F)(F)F)O2
REMARK SMILES IDX 18 1 17 2 16 3 14 4 15 5 13 6 5 7 6 8 10 9 7 10 9 11 11 12
REMARK SMILES IDX 8 13 90 14 12 15 85 16 2 17 1 18 3 19 4 20 86 21 87 22 88 23
REMARK SMILES IDX 89 24 19 25 20 26 21 27 22 28 23 29 84 30 24 31 83 32 25 33
REMARK SMILES IDX 26 34 27 35 77 36 28 37 82 38 76 39 78 40 29 41 81 42 75 43
REMARK SMILES IDX 74 44 30 46 62 47 42 48 61 49 43 50 46 51 60 52 79 53 44 54
REMARK SMILES IDX 45 55 59 57 80 58 47 59 31 60 32 61 40 62 33 63 34 64 38 65
REMARK SMILES IDX 41 66 35 67 36 68 39 69 37 70 63 71 64 72 72 73 65 74 66 75
REMARK SMILES IDX 70 76 73 77 67 78 68 79 71 80 69 81 48 82 49 83 57 84 50 85
REMARK SMILES IDX 51 86 55 87 58 88 52 89 53 90 56 91 54 92
REMARK H PARENT 78 45 46 56
REMARK Flexibility Score: inf
ROOT
ATOM      1  C   UNL A   1      37.340  20.341  24.847  1.00  0.00     0.275 C 
ENDROOT
BRANCH   1   2
ATOM      2  C   UNL A   1      35.827  20.274  25.055  1.00  0.00     0.275 C 
BRANCH   2   3
ATOM      3  O   UNL A   1      35.145  21.315  24.319  1.00  0.00    -0.459 OA
BRANCH   3   4
ATOM      4  C   UNL A   1      33.797  21.312  24.430  1.00  0.00     0.338 C 
ATOM      5  O   UNL A   1      33.051  20.369  24.213  1.00  0.00    -0.246 OA
BRANCH   4   6
ATOM      6  C   UNL A   1      33.310  22.611  24.928  1.00  0.00     0.087 C 
ATOM      7  C   UNL A   1      32.702  27.585  25.700  1.00  0.00    -0.020 A 
ATOM      8  C   UNL A   1      32.310  26.400  26.382  1.00  0.00     0.053 A 
ATOM      9  C   UNL A   1      33.398  27.406  24.483  1.00  0.00     0.045 A 
ATOM     10  C   UNL A   1      32.599  25.120  25.895  1.00  0.00     0.128 A 
ATOM     11  C   UNL A   1      33.666  26.125  23.989  1.00  0.00     0.032 A 
ATOM     12  Cl  UNL A   1      34.033  28.682  23.502  1.00  0.00    -0.084 Cl
ATOM     13  C   UNL A   1      33.279  24.992  24.698  1.00  0.00     0.019 A 
ATOM     14  O   UNL A   1      32.178  24.049  26.637  1.00  0.00    -0.475 OA
ATOM     15  C   UNL A   1      33.627  23.685  24.199  1.00  0.00     0.027 C 
ATOM     16  C   UNL A   1      32.630  22.708  26.265  1.00  0.00     0.316 C 
BRANCH   7  17
ATOM     17  C   UNL A   1      32.397  28.974  26.317  1.00  0.00    -0.012 C 
ATOM     18  C   UNL A   1      31.525  28.796  27.579  1.00  0.00     0.016 C 
ATOM     19  C   UNL A   1      31.601  29.906  25.366  1.00  0.00     0.016 C 
ATOM     20  C   UNL A   1      33.686  29.755  26.664  1.00  0.00     0.016 C 
ENDBRANCH   7  17
BRANCH  16  21
ATOM     21  C   UNL A   1      33.539  22.160  27.378  1.00  0.00     0.430 C 
ATOM     22  F   UNL A   1      33.579  20.808  27.367  1.00  0.00    -0.167 F 
ATOM     23  F   UNL A   1      34.817  22.587  27.230  1.00  0.00    -0.167 F 
ATOM     24  F   UNL A   1      33.127  22.546  28.608  1.00  0.00    -0.167 F 
ENDBRANCH  16  21
ENDBRANCH   4   6
ENDBRANCH   3   4
ENDBRANCH   2   3
ENDBRANCH   1   2
BRANCH   1  25
ATOM     25  O   UNL A   1      37.903  21.433  25.600  1.00  0.00    -0.458 OA
BRANCH  25  26
ATOM     26  C   UNL A   1      39.134  21.216  26.114  1.00  0.00     0.338 C 
ATOM     27  O   UNL A   1      39.786  20.188  26.079  1.00  0.00    -0.246 OA
BRANCH  26  28
ATOM     28  C   UNL A   1      39.655  22.463  26.695  1.00  0.00     0.060 A 
ATOM     29  C   UNL A   1      40.736  22.453  27.570  1.00  0.00     0.016 A 
ATOM     30  C   UNL A   1      39.157  23.671  26.225  1.00  0.00     0.016 A 
ATOM     31  C   UNL A   1      41.299  23.670  27.975  1.00  0.00     0.010 A 
ATOM     32  C   UNL A   1      39.821  24.864  26.496  1.00  0.00     0.010 A 
ATOM     33  C   UNL A   1      40.880  24.893  27.409  1.00  0.00    -0.014 A 
BRANCH  33  34
ATOM     34  C   UNL A   1      41.525  26.191  27.779  1.00  0.00     0.031 A 
ATOM     35  C   UNL A   1      42.922  26.531  27.306  1.00  0.00     0.074 A 
ATOM     36  C   UNL A   1      40.875  27.064  28.577  1.00  0.00     0.049 A 
ATOM     37  N   UNL A   1      43.638  27.605  27.541  1.00  0.00    -0.248 NA
ATOM     38  C   UNL A   1      43.630  25.518  26.508  1.00  0.00     0.031 C 
ATOM     39  C   UNL A   1      39.571  26.832  29.201  1.00  0.00     0.029 A 
ATOM     40  N   UNL A   1      41.213  28.331  28.988  1.00  0.00    -0.354 N 
ATOM     41  C   UNL A   1      44.878  27.374  26.956  1.00  0.00     0.074 A 
ATOM     42  C   UNL A   1      44.848  26.032  26.422  1.00  0.00     0.031 C 
ATOM     43  C   UNL A   1      39.181  27.947  29.839  1.00  0.00     0.029 A 
ATOM     44  C   UNL A   1      40.224  28.959  29.707  1.00  0.00     0.049 A 
ATOM     45  H   UNL A   1      42.081  28.750  28.786  1.00  0.00     0.167 HD
ATOM     46  C   UNL A   1      45.934  28.213  26.828  1.00  0.00     0.037 A 
ATOM     47  C   UNL A   1      40.153  30.216  30.187  1.00  0.00     0.037 A 
ATOM     48  C   UNL A   1      45.940  29.579  27.278  1.00  0.00     0.049 A 
ATOM     49  C   UNL A   1      41.299  31.162  29.959  1.00  0.00     0.074 A 
ATOM     50  C   UNL A   1      46.923  30.538  27.109  1.00  0.00     0.029 A 
ATOM     51  N   UNL A   1      44.903  30.184  27.969  1.00  0.00    -0.354 N 
ATOM     52  N   UNL A   1      42.433  30.949  29.339  1.00  0.00    -0.248 NA
ATOM     53  C   UNL A   1      41.153  32.522  30.496  1.00  0.00     0.031 C 
ATOM     54  C   UNL A   1      46.491  31.720  27.719  1.00  0.00     0.029 A 
ATOM     55  C   UNL A   1      45.224  31.504  28.237  1.00  0.00     0.049 A 
ATOM     56  H   UNL A   1      44.064  29.742  28.231  1.00  0.00     0.167 HD
ATOM     57  C   UNL A   1      43.131  32.148  29.399  1.00  0.00     0.074 A 
ATOM     58  C   UNL A   1      42.283  33.093  30.096  1.00  0.00     0.031 C 
ATOM     59  C   UNL A   1      44.368  32.435  28.927  1.00  0.00     0.037 A 
BRANCH  46  60
ATOM     60  C   UNL A   1      47.159  27.696  26.125  1.00  0.00     0.064 A 
ATOM     61  C   UNL A   1      47.270  27.735  24.726  1.00  0.00     0.173 A 
ATOM     62  C   UNL A   1      48.252  27.205  26.855  1.00  0.00     0.173 A 
ATOM     63  F   UNL A   1      46.251  28.188  23.980  1.00  0.00    -0.203 F 
ATOM     64  C   UNL A   1      48.414  27.270  24.084  1.00  0.00     0.198 A 
ATOM     65  C   UNL A   1      49.408  26.772  26.211  1.00  0.00     0.198 A 
ATOM     66  F   UNL A   1      48.204  27.158  28.195  1.00  0.00    -0.203 F 
ATOM     67  F   UNL A   1      48.474  27.270  22.745  1.00  0.00    -0.200 F 
ATOM     68  C   UNL A   1      49.485  26.796  24.826  1.00  0.00     0.200 A 
ATOM     69  F   UNL A   1      50.449  26.329  26.929  1.00  0.00    -0.200 F 
ATOM     70  F   UNL A   1      50.590  26.360  24.207  1.00  0.00    -0.200 F 
ENDBRANCH  46  60
BRANCH  47  71
ATOM     71  C   UNL A   1      38.910  30.673  30.862  1.00  0.00     0.064 A 
ATOM     72  C   UNL A   1      37.816  31.124  30.109  1.00  0.00     0.173 A 
ATOM     73  C   UNL A   1      38.773  30.640  32.257  1.00  0.00     0.173 A 
ATOM     74  F   UNL A   1      37.906  31.192  28.773  1.00  0.00    -0.203 F 
ATOM     75  C   UNL A   1      36.634  31.529  30.725  1.00  0.00     0.198 A 
ATOM     76  C   UNL A   1      37.582  31.023  32.871  1.00  0.00     0.198 A 
ATOM     77  F   UNL A   1      39.788  30.212  33.020  1.00  0.00    -0.203 F 
ATOM     78  F   UNL A   1      35.615  31.982  29.984  1.00  0.00    -0.200 F 
ATOM     79  C   UNL A   1      36.515  31.472  32.106  1.00  0.00     0.200 A 
ATOM     80  F   UNL A   1      37.465  30.953  34.204  1.00  0.00    -0.200 F 
ATOM     81  F   UNL A   1      35.375  31.848  32.698  1.00  0.00    -0.200 F 
ENDBRANCH  47  71
BRANCH  59  82
ATOM     82  C   UNL A   1      44.884  33.826  29.134  1.00  0.00     0.064 A 
ATOM     83  C   UNL A   1      44.609  34.850  28.216  1.00  0.00     0.173 A 
ATOM     84  C   UNL A   1      45.597  34.157  30.296  1.00  0.00     0.173 A 
ATOM     85  F   UNL A   1      43.940  34.579  27.085  1.00  0.00    -0.203 F 
ATOM     86  C   UNL A   1      45.040  36.152  28.448  1.00  0.00     0.198 A 
ATOM     87  C   UNL A   1      46.005  35.465  30.537  1.00  0.00     0.198 A 
ATOM     88  F   UNL A   1      45.878  33.213  31.209  1.00  0.00    -0.203 F 
ATOM     89  F   UNL A   1      44.793  37.109  27.542  1.00  0.00    -0.200 F 
ATOM     90  C   UNL A   1      45.730  36.460  29.612  1.00  0.00     0.200 A 
ATOM     91  F   UNL A   1      46.660  35.764  31.668  1.00  0.00    -0.200 F 
ATOM     92  F   UNL A   1      46.131  37.718  29.840  1.00  0.00    -0.200 F 
ENDBRANCH  59  82
ENDBRANCH  33  34
ENDBRANCH  26  28
ENDBRANCH  25  26
ENDBRANCH   1  25
TORSDOF 13
ENDMDL
