MODEL 1
REMARK VINA RESULT:     -12.2      0.000      0.000
REMARK SMILES C[C@@H](C(=O)OCCOC(=O)c1ccc(-c2c3nc(c(-c4c(F)c(F)c(F)c(F)c4F)c4ccc([nH]4)c(-c4c(F)c(F)c(F)c(F)c4F)c4nc(c(-c5c(F)c(F)c(F)c(F)c5F)c5ccc2[nH]5)C=C4)C=C3)cc1)[C@H]1CCOC2(CCCCC2)C1
REMARK SMILES IDX 7 1 6 2 5 3 3 4 4 5 2 6 1 7 74 8 75 9 84 10 76 11 78 12
REMARK SMILES IDX 77 13 79 14 83 15 80 16 82 17 81 18 8 19 9 20 10 21 11 22
REMARK SMILES IDX 12 23 73 24 13 25 72 26 14 27 15 28 16 29 66 30 17 31 71 32
REMARK SMILES IDX 65 33 67 34 18 35 70 36 64 37 63 38 19 40 51 41 31 42 50 43
REMARK SMILES IDX 32 44 35 45 49 46 68 47 33 48 34 49 48 51 69 52 36 53 20 54
REMARK SMILES IDX 21 55 29 56 22 57 23 58 27 59 30 60 24 61 25 62 28 63 26 64
REMARK SMILES IDX 52 65 53 66 61 67 54 68 55 69 59 70 62 71 56 72 57 73 60 74
REMARK SMILES IDX 58 75 37 76 38 77 46 78 39 79 40 80 44 81 47 82 41 83 42 84
REMARK SMILES IDX 45 85 43 86
REMARK H PARENT 67 39 35 50
REMARK Flexibility Score: inf
ROOT
ATOM      1  C   UNL A   1      31.766  30.301  26.789  1.00  0.00     0.275 C 
ENDROOT
BRANCH   1   2
ATOM      2  C   UNL A   1      31.772  28.833  27.219  1.00  0.00     0.274 C 
BRANCH   2   3
ATOM      3  O   UNL A   1      32.185  27.963  26.146  1.00  0.00    -0.462 OA
BRANCH   3   4
ATOM      4  C   UNL A   1      31.261  27.077  25.683  1.00  0.00     0.309 C 
ATOM      5  O   UNL A   1      30.564  26.392  26.423  1.00  0.00    -0.252 OA
BRANCH   4   6
ATOM      6  C   UNL A   1      31.277  26.942  24.148  1.00  0.00     0.099 C 
ATOM      7  C   UNL A   1      32.681  27.226  23.580  1.00  0.00     0.020 C 
BRANCH   6   8
ATOM      8  C   UNL A   1      30.205  27.815  23.408  1.00  0.00     0.008 C 
ATOM      9  C   UNL A   1      28.779  27.262  23.624  1.00  0.00     0.033 C 
ATOM     10  C   UNL A   1      30.195  29.304  23.821  1.00  0.00     0.040 C 
ATOM     11  C   UNL A   1      27.686  28.150  23.037  1.00  0.00     0.161 C 
ATOM     12  C   UNL A   1      29.064  30.113  23.147  1.00  0.00     0.069 C 
ATOM     13  O   UNL A   1      27.807  29.504  23.458  1.00  0.00    -0.375 OA
ATOM     14  C   UNL A   1      29.289  30.217  21.629  1.00  0.00     0.035 C 
ATOM     15  C   UNL A   1      29.043  31.547  23.723  1.00  0.00     0.035 C 
ATOM     16  C   UNL A   1      28.236  31.064  20.923  1.00  0.00     0.003 C 
ATOM     17  C   UNL A   1      28.035  32.461  23.016  1.00  0.00     0.003 C 
ATOM     18  C   UNL A   1      28.216  32.467  21.504  1.00  0.00     0.000 C 
ENDBRANCH   6   8
ENDBRANCH   4   6
ENDBRANCH   3   4
ENDBRANCH   2   3
ENDBRANCH   1   2
BRANCH   1  19
ATOM     19  O   UNL A   1      33.098  30.777  26.511  1.00  0.00    -0.458 OA
BRANCH  19  20
ATOM     20  C   UNL A   1      33.471  31.865  27.225  1.00  0.00     0.338 C 
ATOM     21  O   UNL A   1      32.793  32.851  27.463  1.00  0.00    -0.246 OA
BRANCH  20  22
ATOM     22  C   UNL A   1      34.793  31.653  27.849  1.00  0.00     0.060 A 
ATOM     23  C   UNL A   1      35.025  30.384  28.374  1.00  0.00     0.016 A 
ATOM     24  C   UNL A   1      35.772  32.646  27.975  1.00  0.00     0.016 A 
ATOM     25  C   UNL A   1      36.239  30.096  28.987  1.00  0.00     0.010 A 
ATOM     26  C   UNL A   1      36.997  32.350  28.606  1.00  0.00     0.010 A 
ATOM     27  C   UNL A   1      37.252  31.060  29.096  1.00  0.00    -0.014 A 
BRANCH  27  28
ATOM     28  C   UNL A   1      38.528  30.641  29.751  1.00  0.00     0.031 A 
ATOM     29  C   UNL A   1      38.737  30.937  31.215  1.00  0.00     0.074 A 
ATOM     30  C   UNL A   1      39.393  29.819  29.123  1.00  0.00     0.049 A 
ATOM     31  N   UNL A   1      39.649  30.479  32.036  1.00  0.00    -0.248 NA
ATOM     32  C   UNL A   1      37.760  31.840  31.845  1.00  0.00     0.031 C 
ATOM     33  C   UNL A   1      39.244  29.323  27.757  1.00  0.00     0.029 A 
ATOM     34  N   UNL A   1      40.520  29.174  29.591  1.00  0.00    -0.354 N 
ATOM     35  C   UNL A   1      39.364  31.048  33.270  1.00  0.00     0.074 A 
ATOM     36  C   UNL A   1      38.158  31.830  33.107  1.00  0.00     0.031 C 
ATOM     37  C   UNL A   1      40.176  28.379  27.530  1.00  0.00     0.029 A 
ATOM     38  C   UNL A   1      41.008  28.221  28.723  1.00  0.00     0.049 A 
ATOM     39  H   UNL A   1      40.935  29.376  30.460  1.00  0.00     0.167 HD
ATOM     40  C   UNL A   1      40.072  30.981  34.422  1.00  0.00     0.037 A 
ATOM     41  C   UNL A   1      41.976  27.295  28.894  1.00  0.00     0.037 A 
ATOM     42  C   UNL A   1      41.306  30.265  34.592  1.00  0.00     0.049 A 
ATOM     43  C   UNL A   1      42.789  27.291  30.168  1.00  0.00     0.074 A 
ATOM     44  C   UNL A   1      42.166  30.273  35.678  1.00  0.00     0.029 A 
ATOM     45  N   UNL A   1      41.862  29.420  33.648  1.00  0.00    -0.354 N 
ATOM     46  N   UNL A   1      42.565  27.901  31.304  1.00  0.00    -0.248 NA
ATOM     47  C   UNL A   1      44.024  26.488  30.154  1.00  0.00     0.031 C 
ATOM     48  C   UNL A   1      43.272  29.475  35.367  1.00  0.00     0.029 A 
ATOM     49  C   UNL A   1      43.072  28.926  34.112  1.00  0.00     0.049 A 
ATOM     50  H   UNL A   1      41.458  29.201  32.778  1.00  0.00     0.167 HD
ATOM     51  C   UNL A   1      43.633  27.567  32.131  1.00  0.00     0.074 A 
ATOM     52  C   UNL A   1      44.470  26.649  31.391  1.00  0.00     0.031 C 
ATOM     53  C   UNL A   1      43.912  28.017  33.379  1.00  0.00     0.037 A 
BRANCH  40  54
ATOM     54  C   UNL A   1      39.598  31.842  35.551  1.00  0.00     0.064 A 
ATOM     55  C   UNL A   1      38.637  31.409  36.473  1.00  0.00     0.173 A 
ATOM     56  C   UNL A   1      40.125  33.135  35.697  1.00  0.00     0.173 A 
ATOM     57  F   UNL A   1      38.086  30.193  36.354  1.00  0.00    -0.203 F 
ATOM     58  C   UNL A   1      38.207  32.252  37.495  1.00  0.00     0.198 A 
ATOM     59  C   UNL A   1      39.708  33.964  36.731  1.00  0.00     0.198 A 
ATOM     60  F   UNL A   1      41.043  33.591  34.831  1.00  0.00    -0.203 F 
ATOM     61  F   UNL A   1      37.256  31.840  38.345  1.00  0.00    -0.200 F 
ATOM     62  C   UNL A   1      38.745  33.525  37.626  1.00  0.00     0.200 A 
ATOM     63  F   UNL A   1      40.232  35.191  36.855  1.00  0.00    -0.200 F 
ATOM     64  F   UNL A   1      38.327  34.334  38.609  1.00  0.00    -0.200 F 
ENDBRANCH  40  54
BRANCH  41  65
ATOM     65  C   UNL A   1      42.255  26.255  27.861  1.00  0.00     0.064 A 
ATOM     66  C   UNL A   1      43.233  26.485  26.877  1.00  0.00     0.173 A 
ATOM     67  C   UNL A   1      41.509  25.075  27.765  1.00  0.00     0.173 A 
ATOM     68  F   UNL A   1      43.953  27.618  26.900  1.00  0.00    -0.203 F 
ATOM     69  C   UNL A   1      43.429  25.590  25.827  1.00  0.00     0.198 A 
ATOM     70  C   UNL A   1      41.732  24.161  26.734  1.00  0.00     0.198 A 
ATOM     71  F   UNL A   1      40.546  24.811  28.660  1.00  0.00    -0.203 F 
ATOM     72  F   UNL A   1      44.314  25.876  24.861  1.00  0.00    -0.200 F 
ATOM     73  C   UNL A   1      42.680  24.427  25.758  1.00  0.00     0.200 A 
ATOM     74  F   UNL A   1      41.008  23.036  26.674  1.00  0.00    -0.200 F 
ATOM     75  F   UNL A   1      42.856  23.573  24.741  1.00  0.00    -0.200 F 
ENDBRANCH  41  65
BRANCH  53  76
ATOM     76  C   UNL A   1      45.195  27.567  34.021  1.00  0.00     0.064 A 
ATOM     77  C   UNL A   1      45.246  26.397  34.796  1.00  0.00     0.173 A 
ATOM     78  C   UNL A   1      46.395  28.258  33.802  1.00  0.00     0.173 A 
ATOM     79  F   UNL A   1      44.126  25.701  35.042  1.00  0.00    -0.203 F 
ATOM     80  C   UNL A   1      46.446  25.948  35.344  1.00  0.00     0.198 A 
ATOM     81  C   UNL A   1      47.599  27.791  34.327  1.00  0.00     0.198 A 
ATOM     82  F   UNL A   1      46.408  29.375  33.060  1.00  0.00    -0.203 F 
ATOM     83  F   UNL A   1      46.461  24.849  36.109  1.00  0.00    -0.200 F 
ATOM     84  C   UNL A   1      47.622  26.640  35.100  1.00  0.00     0.200 A 
ATOM     85  F   UNL A   1      48.739  28.450  34.078  1.00  0.00    -0.200 F 
ATOM     86  F   UNL A   1      48.779  26.198  35.614  1.00  0.00    -0.200 F 
ENDBRANCH  53  76
ENDBRANCH  27  28
ENDBRANCH  20  22
ENDBRANCH  19  20
ENDBRANCH   1  19
TORSDOF 12
ENDMDL
MODEL 2
REMARK VINA RESULT:     -12.1      1.658      3.854
REMARK SMILES C[C@@H](C(=O)OCCOC(=O)c1ccc(-c2c3nc(c(-c4c(F)c(F)c(F)c(F)c4F)c4ccc([nH]4)c(-c4c(F)c(F)c(F)c(F)c4F)c4nc(c(-c5c(F)c(F)c(F)c(F)c5F)c5ccc2[nH]5)C=C4)C=C3)cc1)[C@H]1CCOC2(CCCCC2)C1
REMARK SMILES IDX 7 1 6 2 5 3 3 4 4 5 2 6 1 7 74 8 75 9 84 10 76 11 78 12
REMARK SMILES IDX 77 13 79 14 83 15 80 16 82 17 81 18 8 19 9 20 10 21 11 22
REMARK SMILES IDX 12 23 73 24 13 25 72 26 14 27 15 28 16 29 66 30 17 31 71 32
REMARK SMILES IDX 65 33 67 34 18 35 70 36 64 37 63 38 19 40 51 41 31 42 50 43
REMARK SMILES IDX 32 44 35 45 49 46 68 47 33 48 34 49 48 51 69 52 36 53 20 54
REMARK SMILES IDX 21 55 29 56 22 57 23 58 27 59 30 60 24 61 25 62 28 63 26 64
REMARK SMILES IDX 52 65 53 66 61 67 54 68 55 69 59 70 62 71 56 72 57 73 60 74
REMARK SMILES IDX 58 75 37 76 38 77 46 78 39 79 40 80 44 81 47 82 41 83 42 84
REMARK SMILES IDX 45 85 43 86
REMARK H PARENT 67 39 35 50
REMARK Flexibility Score: inf
ROOT
ATOM      1  C   UNL A   1      31.538  30.992  26.104  1.00  0.00     0.275 C 
ENDROOT
BRANCH   1   2
ATOM      2  C   UNL A   1      31.687  29.705  25.291  1.00  0.00     0.274 C 
BRANCH   2   3
ATOM      3  O   UNL A   1      32.375  28.679  26.035  1.00  0.00    -0.462 OA
BRANCH   3   4
ATOM      4  C   UNL A   1      31.602  27.727  26.629  1.00  0.00     0.309 C 
ATOM      5  O   UNL A   1      31.168  27.837  27.769  1.00  0.00    -0.252 OA
BRANCH   4   6
ATOM      6  C   UNL A   1      31.443  26.461  25.764  1.00  0.00     0.099 C 
ATOM      7  C   UNL A   1      30.073  25.796  26.001  1.00  0.00     0.020 C 
BRANCH   6   8
ATOM      8  C   UNL A   1      32.594  25.410  25.935  1.00  0.00     0.008 C 
ATOM      9  C   UNL A   1      32.064  24.083  26.527  1.00  0.00     0.033 C 
ATOM     10  C   UNL A   1      33.351  25.069  24.632  1.00  0.00     0.040 C 
ATOM     11  C   UNL A   1      33.118  22.982  26.589  1.00  0.00     0.161 C 
ATOM     12  C   UNL A   1      34.410  23.960  24.818  1.00  0.00     0.069 C 
ATOM     13  O   UNL A   1      33.773  22.790  25.340  1.00  0.00    -0.375 OA
ATOM     14  C   UNL A   1      35.558  24.438  25.723  1.00  0.00     0.035 C 
ATOM     15  C   UNL A   1      35.013  23.589  23.443  1.00  0.00     0.035 C 
ATOM     16  C   UNL A   1      36.666  23.404  25.884  1.00  0.00     0.003 C 
ATOM     17  C   UNL A   1      36.168  22.586  23.548  1.00  0.00     0.003 C 
ATOM     18  C   UNL A   1      37.243  23.038  24.528  1.00  0.00     0.000 C 
ENDBRANCH   6   8
ENDBRANCH   4   6
ENDBRANCH   3   4
ENDBRANCH   2   3
ENDBRANCH   1   2
BRANCH   1  19
ATOM     19  O   UNL A   1      32.445  31.021  27.223  1.00  0.00    -0.458 OA
BRANCH  19  20
ATOM     20  C   UNL A   1      33.121  32.184  27.373  1.00  0.00     0.338 C 
ATOM     21  O   UNL A   1      32.686  33.311  27.201  1.00  0.00    -0.246 OA
BRANCH  20  22
ATOM     22  C   UNL A   1      34.461  31.940  27.946  1.00  0.00     0.060 A 
ATOM     23  C   UNL A   1      34.666  30.681  28.506  1.00  0.00     0.016 A 
ATOM     24  C   UNL A   1      35.483  32.897  27.994  1.00  0.00     0.016 A 
ATOM     25  C   UNL A   1      35.894  30.366  29.076  1.00  0.00     0.010 A 
ATOM     26  C   UNL A   1      36.722  32.572  28.582  1.00  0.00     0.010 A 
ATOM     27  C   UNL A   1      36.948  31.291  29.107  1.00  0.00    -0.014 A 
BRANCH  27  28
ATOM     28  C   UNL A   1      38.234  30.843  29.721  1.00  0.00     0.031 A 
ATOM     29  C   UNL A   1      38.489  31.118  31.182  1.00  0.00     0.074 A 
ATOM     30  C   UNL A   1      39.068  30.016  29.059  1.00  0.00     0.049 A 
ATOM     31  N   UNL A   1      39.415  30.634  31.972  1.00  0.00    -0.248 NA
ATOM     32  C   UNL A   1      37.544  32.028  31.849  1.00  0.00     0.031 C 
ATOM     33  C   UNL A   1      38.873  29.539  27.692  1.00  0.00     0.029 A 
ATOM     34  N   UNL A   1      40.196  29.347  29.488  1.00  0.00    -0.354 N 
ATOM     35  C   UNL A   1      39.173  31.192  33.220  1.00  0.00     0.074 A 
ATOM     36  C   UNL A   1      37.976  31.996  33.100  1.00  0.00     0.031 C 
ATOM     37  C   UNL A   1      39.783  28.583  27.428  1.00  0.00     0.029 A 
ATOM     38  C   UNL A   1      40.645  28.396  28.595  1.00  0.00     0.049 A 
ATOM     39  H   UNL A   1      40.639  29.531  30.348  1.00  0.00     0.167 HD
ATOM     40  C   UNL A   1      39.912  31.100  34.351  1.00  0.00     0.037 A 
ATOM     41  C   UNL A   1      41.601  27.453  28.728  1.00  0.00     0.037 A 
ATOM     42  C   UNL A   1      41.138  30.361  34.478  1.00  0.00     0.049 A 
ATOM     43  C   UNL A   1      42.449  27.420  29.978  1.00  0.00     0.074 A 
ATOM     44  C   UNL A   1      42.027  30.342  35.540  1.00  0.00     0.029 A 
ATOM     45  N   UNL A   1      41.653  29.519  33.509  1.00  0.00    -0.354 N 
ATOM     46  N   UNL A   1      42.267  28.019  31.128  1.00  0.00    -0.248 NA
ATOM     47  C   UNL A   1      43.670  26.597  29.921  1.00  0.00     0.031 C 
ATOM     48  C   UNL A   1      43.111  29.530  35.188  1.00  0.00     0.029 A 
ATOM     49  C   UNL A   1      42.868  29.000  33.933  1.00  0.00     0.049 A 
ATOM     50  H   UNL A   1      41.223  29.317  32.647  1.00  0.00     0.167 HD
ATOM     51  C   UNL A   1      43.351  27.658  31.921  1.00  0.00     0.074 A 
ATOM     52  C   UNL A   1      44.153  26.736  31.147  1.00  0.00     0.031 C 
ATOM     53  C   UNL A   1      43.672  28.087  33.166  1.00  0.00     0.037 A 
BRANCH  40  54
ATOM     54  C   UNL A   1      39.483  31.953  35.503  1.00  0.00     0.064 A 
ATOM     55  C   UNL A   1      38.591  31.500  36.483  1.00  0.00     0.173 A 
ATOM     56  C   UNL A   1      39.983  33.261  35.612  1.00  0.00     0.173 A 
ATOM     57  F   UNL A   1      38.068  30.269  36.402  1.00  0.00    -0.203 F 
ATOM     58  C   UNL A   1      38.201  32.336  37.526  1.00  0.00     0.198 A 
ATOM     59  C   UNL A   1      39.607  34.084  36.666  1.00  0.00     0.198 A 
ATOM     60  F   UNL A   1      40.834  33.737  34.691  1.00  0.00    -0.203 F 
ATOM     61  F   UNL A   1      37.314  31.904  38.433  1.00  0.00    -0.200 F 
ATOM     62  C   UNL A   1      38.711  33.624  37.619  1.00  0.00     0.200 A 
ATOM     63  F   UNL A   1      40.103  35.326  36.754  1.00  0.00    -0.200 F 
ATOM     64  F   UNL A   1      38.331  34.428  38.622  1.00  0.00    -0.200 F 
ENDBRANCH  40  54
BRANCH  41  65
ATOM     65  C   UNL A   1      41.835  26.422  27.675  1.00  0.00     0.064 A 
ATOM     66  C   UNL A   1      41.093  25.229  27.681  1.00  0.00     0.173 A 
ATOM     67  C   UNL A   1      42.846  26.548  26.714  1.00  0.00     0.173 A 
ATOM     68  F   UNL A   1      40.136  25.039  28.602  1.00  0.00    -0.203 F 
ATOM     69  C   UNL A   1      41.375  24.195  26.788  1.00  0.00     0.198 A 
ATOM     70  C   UNL A   1      43.102  25.529  25.797  1.00  0.00     0.198 A 
ATOM     71  F   UNL A   1      43.604  27.654  26.674  1.00  0.00    -0.203 F 
ATOM     72  F   UNL A   1      40.701  23.039  26.870  1.00  0.00    -0.200 F 
ATOM     73  C   UNL A   1      42.377  24.348  25.845  1.00  0.00     0.200 A 
ATOM     74  F   UNL A   1      44.070  25.682  24.884  1.00  0.00    -0.200 F 
ATOM     75  F   UNL A   1      42.660  23.351  24.996  1.00  0.00    -0.200 F 
ENDBRANCH  41  65
BRANCH  53  76
ATOM     76  C   UNL A   1      44.964  27.608  33.767  1.00  0.00     0.064 A 
ATOM     77  C   UNL A   1      46.156  28.329  33.594  1.00  0.00     0.173 A 
ATOM     78  C   UNL A   1      45.004  26.468  34.584  1.00  0.00     0.173 A 
ATOM     79  F   UNL A   1      46.175  29.424  32.818  1.00  0.00    -0.203 F 
ATOM     80  C   UNL A   1      47.341  27.918  34.198  1.00  0.00     0.198 A 
ATOM     81  C   UNL A   1      46.185  26.075  35.211  1.00  0.00     0.198 A 
ATOM     82  F   UNL A   1      43.893  25.746  34.794  1.00  0.00    -0.203 F 
ATOM     83  F   UNL A   1      48.472  28.604  33.988  1.00  0.00    -0.200 F 
ATOM     84  C   UNL A   1      47.352  26.797  35.013  1.00  0.00     0.200 A 
ATOM     85  F   UNL A   1      46.192  25.001  36.012  1.00  0.00    -0.200 F 
ATOM     86  F   UNL A   1      48.490  26.411  35.608  1.00  0.00    -0.200 F 
ENDBRANCH  53  76
ENDBRANCH  27  28
ENDBRANCH  20  22
ENDBRANCH  19  20
ENDBRANCH   1  19
TORSDOF 12
ENDMDL
MODEL 3
REMARK VINA RESULT:     -12.0      5.570     10.495
REMARK SMILES C[C@@H](C(=O)OCCOC(=O)c1ccc(-c2c3nc(c(-c4c(F)c(F)c(F)c(F)c4F)c4ccc([nH]4)c(-c4c(F)c(F)c(F)c(F)c4F)c4nc(c(-c5c(F)c(F)c(F)c(F)c5F)c5ccc2[nH]5)C=C4)C=C3)cc1)[C@H]1CCOC2(CCCCC2)C1
REMARK SMILES IDX 7 1 6 2 5 3 3 4 4 5 2 6 1 7 74 8 75 9 84 10 76 11 78 12
REMARK SMILES IDX 77 13 79 14 83 15 80 16 82 17 81 18 8 19 9 20 10 21 11 22
REMARK SMILES IDX 12 23 73 24 13 25 72 26 14 27 15 28 16 29 66 30 17 31 71 32
REMARK SMILES IDX 65 33 67 34 18 35 70 36 64 37 63 38 19 40 51 41 31 42 50 43
REMARK SMILES IDX 32 44 35 45 49 46 68 47 33 48 34 49 48 51 69 52 36 53 20 54
REMARK SMILES IDX 21 55 29 56 22 57 23 58 27 59 30 60 24 61 25 62 28 63 26 64
REMARK SMILES IDX 52 65 53 66 61 67 54 68 55 69 59 70 62 71 56 72 57 73 60 74
REMARK SMILES IDX 58 75 37 76 38 77 46 78 39 79 40 80 44 81 47 82 41 83 42 84
REMARK SMILES IDX 45 85 43 86
REMARK H PARENT 67 39 35 50
REMARK Flexibility Score: inf
ROOT
ATOM      1  C   UNL A   1      37.113  21.399  24.317  1.00  0.00     0.275 C 
ENDROOT
BRANCH   1   2
ATOM      2  C   UNL A   1      36.653  22.642  23.555  1.00  0.00     0.274 C 
BRANCH   2   3
ATOM      3  O   UNL A   1      35.484  23.236  24.156  1.00  0.00    -0.462 OA
BRANCH   3   4
ATOM      4  C   UNL A   1      34.296  23.031  23.523  1.00  0.00     0.309 C 
ATOM      5  O   UNL A   1      34.114  23.301  22.343  1.00  0.00    -0.252 OA
BRANCH   4   6
ATOM      6  C   UNL A   1      33.186  22.545  24.476  1.00  0.00     0.099 C 
ATOM      7  C   UNL A   1      33.500  22.926  25.935  1.00  0.00     0.020 C 
BRANCH   6   8
ATOM      8  C   UNL A   1      32.866  21.013  24.372  1.00  0.00     0.008 C 
ATOM      9  C   UNL A   1      32.317  20.644  22.975  1.00  0.00     0.033 C 
ATOM     10  C   UNL A   1      34.068  20.086  24.661  1.00  0.00     0.040 C 
ATOM     11  C   UNL A   1      32.116  19.145  22.777  1.00  0.00     0.161 C 
ATOM     12  C   UNL A   1      33.743  18.590  24.453  1.00  0.00     0.069 C 
ATOM     13  O   UNL A   1      33.277  18.395  23.113  1.00  0.00    -0.375 OA
ATOM     14  C   UNL A   1      32.720  18.097  25.491  1.00  0.00     0.035 C 
ATOM     15  C   UNL A   1      35.032  17.754  24.625  1.00  0.00     0.035 C 
ATOM     16  C   UNL A   1      32.415  16.608  25.373  1.00  0.00     0.003 C 
ATOM     17  C   UNL A   1      34.778  16.243  24.565  1.00  0.00     0.003 C 
ATOM     18  C   UNL A   1      33.689  15.798  25.532  1.00  0.00     0.000 C 
ENDBRANCH   6   8
ENDBRANCH   4   6
ENDBRANCH   3   4
ENDBRANCH   2   3
ENDBRANCH   1   2
BRANCH   1  19
ATOM     19  O   UNL A   1      37.501  21.717  25.668  1.00  0.00    -0.458 OA
BRANCH  19  20
ATOM     20  C   UNL A   1      38.759  21.342  25.999  1.00  0.00     0.338 C 
ATOM     21  O   UNL A   1      39.293  20.274  25.751  1.00  0.00    -0.246 OA
BRANCH  20  22
ATOM     22  C   UNL A   1      39.506  22.475  26.584  1.00  0.00     0.060 A 
ATOM     23  C   UNL A   1      39.160  23.741  26.117  1.00  0.00     0.016 A 
ATOM     24  C   UNL A   1      40.542  22.337  27.516  1.00  0.00     0.016 A 
ATOM     25  C   UNL A   1      39.816  24.865  26.605  1.00  0.00     0.010 A 
ATOM     26  C   UNL A   1      41.209  23.481  27.999  1.00  0.00     0.010 A 
ATOM     27  C   UNL A   1      40.833  24.761  27.565  1.00  0.00    -0.014 A 
BRANCH  27  28
ATOM     28  C   UNL A   1      41.457  26.033  28.041  1.00  0.00     0.031 A 
ATOM     29  C   UNL A   1      42.802  26.443  27.497  1.00  0.00     0.074 A 
ATOM     30  C   UNL A   1      40.753  26.920  28.773  1.00  0.00     0.049 A 
ATOM     31  N   UNL A   1      43.424  27.592  27.588  1.00  0.00    -0.248 NA
ATOM     32  C   UNL A   1      43.522  25.432  26.705  1.00  0.00     0.031 C 
ATOM     33  C   UNL A   1      39.383  26.727  29.243  1.00  0.00     0.029 A 
ATOM     34  N   UNL A   1      41.060  28.208  29.162  1.00  0.00    -0.354 N 
ATOM     35  C   UNL A   1      44.609  27.435  26.883  1.00  0.00     0.074 A 
ATOM     36  C   UNL A   1      44.590  26.107  26.312  1.00  0.00     0.031 C 
ATOM     37  C   UNL A   1      38.933  27.883  29.765  1.00  0.00     0.029 A 
ATOM     38  C   UNL A   1      39.988  28.893  29.693  1.00  0.00     0.049 A 
ATOM     39  H   UNL A   1      41.959  28.599  29.069  1.00  0.00     0.167 HD
ATOM     40  C   UNL A   1      45.651  28.293  26.770  1.00  0.00     0.037 A 
ATOM     41  C   UNL A   1      39.861  30.194  30.029  1.00  0.00     0.037 A 
ATOM     42  C   UNL A   1      45.722  29.592  27.380  1.00  0.00     0.049 A 
ATOM     43  C   UNL A   1      41.061  31.108  29.949  1.00  0.00     0.074 A 
ATOM     44  C   UNL A   1      46.801  30.457  27.444  1.00  0.00     0.029 A 
ATOM     45  N   UNL A   1      44.675  30.209  28.041  1.00  0.00    -0.354 N 
ATOM     46  N   UNL A   1      42.215  30.923  29.358  1.00  0.00    -0.248 NA
ATOM     47  C   UNL A   1      40.943  32.408  30.633  1.00  0.00     0.031 C 
ATOM     48  C   UNL A   1      46.422  31.576  28.194  1.00  0.00     0.029 A 
ATOM     49  C   UNL A   1      45.091  31.432  28.546  1.00  0.00     0.049 A 
ATOM     50  H   UNL A   1      43.769  29.837  28.137  1.00  0.00     0.167 HD
ATOM     51  C   UNL A   1      42.959  32.071  29.609  1.00  0.00     0.074 A 
ATOM     52  C   UNL A   1      42.106  32.975  30.348  1.00  0.00     0.031 C 
ATOM     53  C   UNL A   1      44.249  32.333  29.287  1.00  0.00     0.037 A 
BRANCH  40  54
ATOM     54  C   UNL A   1      46.872  27.776  26.075  1.00  0.00     0.064 A 
ATOM     55  C   UNL A   1      47.013  27.807  24.683  1.00  0.00     0.173 A 
ATOM     56  C   UNL A   1      47.918  27.231  26.838  1.00  0.00     0.173 A 
ATOM     57  F   UNL A   1      46.028  28.292  23.914  1.00  0.00    -0.203 F 
ATOM     58  C   UNL A   1      48.157  27.294  24.075  1.00  0.00     0.198 A 
ATOM     59  C   UNL A   1      49.065  26.739  26.229  1.00  0.00     0.198 A 
ATOM     60  F   UNL A   1      47.819  27.175  28.175  1.00  0.00    -0.203 F 
ATOM     61  F   UNL A   1      48.261  27.292  22.739  1.00  0.00    -0.200 F 
ATOM     62  C   UNL A   1      49.182  26.765  24.848  1.00  0.00     0.200 A 
ATOM     63  F   UNL A   1      50.053  26.231  26.978  1.00  0.00    -0.200 F 
ATOM     64  F   UNL A   1      50.279  26.268  24.260  1.00  0.00    -0.200 F 
ENDBRANCH  40  54
BRANCH  41  65
ATOM     65  C   UNL A   1      38.552  30.766  30.462  1.00  0.00     0.064 A 
ATOM     66  C   UNL A   1      38.224  30.818  31.828  1.00  0.00     0.173 A 
ATOM     67  C   UNL A   1      37.573  31.175  29.548  1.00  0.00     0.173 A 
ATOM     68  F   UNL A   1      39.111  30.404  32.746  1.00  0.00    -0.203 F 
ATOM     69  C   UNL A   1      36.962  31.228  32.255  1.00  0.00     0.198 A 
ATOM     70  C   UNL A   1      36.324  31.621  29.979  1.00  0.00     0.198 A 
ATOM     71  F   UNL A   1      37.819  31.126  28.231  1.00  0.00    -0.203 F 
ATOM     72  F   UNL A   1      36.653  31.193  33.560  1.00  0.00    -0.200 F 
ATOM     73  C   UNL A   1      36.014  31.633  31.330  1.00  0.00     0.200 A 
ATOM     74  F   UNL A   1      35.411  32.015  29.080  1.00  0.00    -0.200 F 
ATOM     75  F   UNL A   1      34.796  32.013  31.738  1.00  0.00    -0.200 F 
ENDBRANCH  41  65
BRANCH  53  76
ATOM     76  C   UNL A   1      44.848  33.626  29.765  1.00  0.00     0.064 A 
ATOM     77  C   UNL A   1      44.773  34.791  28.985  1.00  0.00     0.173 A 
ATOM     78  C   UNL A   1      45.431  33.728  31.037  1.00  0.00     0.173 A 
ATOM     79  F   UNL A   1      44.230  34.749  27.759  1.00  0.00    -0.203 F 
ATOM     80  C   UNL A   1      45.276  36.004  29.452  1.00  0.00     0.198 A 
ATOM     81  C   UNL A   1      45.908  34.949  31.512  1.00  0.00     0.198 A 
ATOM     82  F   UNL A   1      45.520  32.650  31.830  1.00  0.00    -0.203 F 
ATOM     83  F   UNL A   1      45.224  37.092  28.673  1.00  0.00    -0.200 F 
ATOM     84  C   UNL A   1      45.833  36.083  30.718  1.00  0.00     0.200 A 
ATOM     85  F   UNL A   1      46.431  35.029  32.743  1.00  0.00    -0.200 F 
ATOM     86  F   UNL A   1      46.303  37.254  31.172  1.00  0.00    -0.200 F 
ENDBRANCH  53  76
ENDBRANCH  27  28
ENDBRANCH  20  22
ENDBRANCH  19  20
ENDBRANCH   1  19
TORSDOF 12
ENDMDL
