MODEL 1
REMARK VINA RESULT:     -12.4      0.000      0.000
REMARK SMILES COc1cc(/C=C2/SC(=O)N(c3ccc(O)cc3C)C2=O)ccc1OCC(=O)OCCOC(=O)c1ccc(-c2c3nc(c(-c4c(F)c(F)c(F)c(F)c4F)c4ccc([nH]4)c(-c4c(F)c(F)c(F)c(F)c4F)c4nc(c(-c5c(F)c(F)c(F)c(F)c5F)c5ccc2[nH]5)C=C4)C=C3)cc1
REMARK SMILES IDX 29 1 27 2 28 3 26 4 25 5 24 6 3 7 4 8 5 9 23 10 22 11 2 12
REMARK SMILES IDX 1 13 6 14 7 15 8 16 20 17 9 18 11 19 21 20 10 21 12 22 13 23
REMARK SMILES IDX 18 24 14 25 17 26 19 27 15 28 16 29 30 31 31 32 32 33 33 34
REMARK SMILES IDX 34 35 35 36 36 37 97 38 37 39 96 40 38 41 39 42 40 43 90 44
REMARK SMILES IDX 41 45 95 46 89 47 91 48 42 49 94 50 88 51 87 52 43 54 75 55
REMARK SMILES IDX 55 56 74 57 56 58 59 59 73 60 92 61 57 62 58 63 72 65 93 66
REMARK SMILES IDX 60 67 44 68 45 69 53 70 46 71 47 72 51 73 54 74 48 75 49 76
REMARK SMILES IDX 52 77 50 78 76 79 77 80 85 81 78 82 79 83 83 84 86 85 80 86
REMARK SMILES IDX 81 87 84 88 82 89 61 90 62 91 70 92 63 93 64 94 68 95 71 96
REMARK SMILES IDX 65 97 66 98 69 99 67 100
REMARK H PARENT 16 30 91 53 59 64
REMARK Flexibility Score: inf
ROOT
ATOM      1  O   UNL A   1      41.295  20.527  25.781  1.00  0.00    -0.460 OA
ENDROOT
BRANCH   1   2
ATOM      2  C   UNL A   1      40.330  21.085  26.557  1.00  0.00     0.344 C 
ATOM      3  O   UNL A   1      40.386  21.164  27.781  1.00  0.00    -0.248 OA
BRANCH   2   4
ATOM      4  C   UNL A   1      39.157  21.653  25.745  1.00  0.00     0.352 C 
BRANCH   4   5
ATOM      5  O   UNL A   1      37.973  20.928  25.511  1.00  0.00    -0.478 OA
BRANCH   5   6
ATOM      6  C   UNL A   1      36.877  21.508  24.946  1.00  0.00     0.162 A 
ATOM      7  C   UNL A   1      35.548  21.068  24.899  1.00  0.00     0.161 A 
ATOM      8  C   UNL A   1      34.591  21.818  24.177  1.00  0.00     0.058 A 
ATOM      9  C   UNL A   1      34.974  22.949  23.434  1.00  0.00    -0.020 A 
ATOM     10  C   UNL A   1      37.236  22.654  24.223  1.00  0.00     0.051 A 
ATOM     11  C   UNL A   1      36.306  23.363  23.466  1.00  0.00     0.012 A 
BRANCH   7  12
ATOM     12  O   UNL A   1      35.205  19.773  25.206  1.00  0.00    -0.493 OA
ATOM     13  C   UNL A   1      33.956  19.338  24.695  1.00  0.00     0.278 C 
ENDBRANCH   7  12
BRANCH   9  14
ATOM     14  C   UNL A   1      34.094  23.597  22.447  1.00  0.00     0.029 C 
ATOM     15  C   UNL A   1      33.436  24.745  22.690  1.00  0.00     0.083 C 
ATOM     16  S   UNL A   1      32.243  25.417  21.643  1.00  0.00    -0.022 SA
ATOM     17  C   UNL A   1      33.569  25.595  23.908  1.00  0.00     0.272 C 
ATOM     18  C   UNL A   1      31.874  26.737  22.755  1.00  0.00     0.298 C 
ATOM     19  N   UNL A   1      32.677  26.653  23.861  1.00  0.00    -0.236 N 
ATOM     20  O   UNL A   1      34.351  25.359  24.816  1.00  0.00    -0.268 OA
ATOM     21  O   UNL A   1      31.040  27.593  22.470  1.00  0.00    -0.260 OA
BRANCH  19  22
ATOM     22  C   UNL A   1      32.680  27.615  24.908  1.00  0.00     0.056 A 
ATOM     23  C   UNL A   1      33.611  28.671  24.816  1.00  0.00     0.031 A 
ATOM     24  C   UNL A   1      31.876  27.507  26.060  1.00  0.00    -0.023 A 
ATOM     25  C   UNL A   1      33.757  29.602  25.839  1.00  0.00     0.048 A 
ATOM     26  C   UNL A   1      32.036  28.462  27.087  1.00  0.00     0.051 A 
ATOM     27  C   UNL A   1      30.906  26.388  26.320  1.00  0.00     0.047 C 
ATOM     28  C   UNL A   1      32.976  29.483  26.974  1.00  0.00     0.115 A 
BRANCH  28  29
ATOM     29  O   UNL A   1      33.180  30.383  27.977  1.00  0.00    -0.508 OA
ATOM     30  H   UNL A   1      32.606  30.397  28.717  1.00  0.00     0.293 HD
ENDBRANCH  28  29
ENDBRANCH  19  22
ENDBRANCH   9  14
ENDBRANCH   5   6
ENDBRANCH   4   5
ENDBRANCH   2   4
ENDBRANCH   1   2
BRANCH   1  31
ATOM     31  C   UNL A   1      41.549  19.119  25.980  1.00  0.00     0.274 C 
BRANCH  31  32
ATOM     32  C   UNL A   1      43.057  18.869  25.918  1.00  0.00     0.275 C 
BRANCH  32  33
ATOM     33  O   UNL A   1      43.478  18.895  24.539  1.00  0.00    -0.458 OA
BRANCH  33  34
ATOM     34  C   UNL A   1      44.764  19.278  24.330  1.00  0.00     0.338 C 
ATOM     35  O   UNL A   1      45.664  18.569  23.911  1.00  0.00    -0.246 OA
BRANCH  34  36
ATOM     36  C   UNL A   1      44.928  20.730  24.633  1.00  0.00     0.060 A 
ATOM     37  C   UNL A   1      45.641  21.167  25.747  1.00  0.00     0.016 A 
ATOM     38  C   UNL A   1      44.322  21.686  23.814  1.00  0.00     0.016 A 
ATOM     39  C   UNL A   1      45.639  22.515  26.116  1.00  0.00     0.010 A 
ATOM     40  C   UNL A   1      44.440  23.054  24.112  1.00  0.00     0.010 A 
ATOM     41  C   UNL A   1      45.091  23.493  25.279  1.00  0.00    -0.014 A 
BRANCH  41  42
ATOM     42  C   UNL A   1      45.234  24.954  25.583  1.00  0.00     0.031 A 
ATOM     43  C   UNL A   1      46.563  25.645  25.408  1.00  0.00     0.074 A 
ATOM     44  C   UNL A   1      44.194  25.672  26.063  1.00  0.00     0.049 A 
ATOM     45  N   UNL A   1      46.997  26.763  25.935  1.00  0.00    -0.248 NA
ATOM     46  C   UNL A   1      47.541  24.978  24.534  1.00  0.00     0.031 C 
ATOM     47  C   UNL A   1      42.822  25.186  26.227  1.00  0.00     0.029 A 
ATOM     48  N   UNL A   1      44.132  26.969  26.521  1.00  0.00    -0.354 N 
ATOM     49  C   UNL A   1      48.318  26.896  25.521  1.00  0.00     0.074 A 
ATOM     50  C   UNL A   1      48.610  25.750  24.683  1.00  0.00     0.031 C 
ATOM     51  C   UNL A   1      42.055  26.169  26.715  1.00  0.00     0.029 A 
ATOM     52  C   UNL A   1      42.902  27.309  27.034  1.00  0.00     0.049 A 
ATOM     53  H   UNL A   1      44.894  27.593  26.485  1.00  0.00     0.167 HD
ATOM     54  C   UNL A   1      49.203  27.876  25.829  1.00  0.00     0.037 A 
ATOM     55  C   UNL A   1      42.502  28.369  27.764  1.00  0.00     0.037 A 
ATOM     56  C   UNL A   1      48.881  29.041  26.616  1.00  0.00     0.049 A 
ATOM     57  C   UNL A   1      43.508  29.415  28.144  1.00  0.00     0.074 A 
ATOM     58  C   UNL A   1      49.708  30.085  26.997  1.00  0.00     0.029 A 
ATOM     59  N   UNL A   1      47.623  29.325  27.126  1.00  0.00    -0.354 N 
ATOM     60  N   UNL A   1      44.784  29.478  27.850  1.00  0.00    -0.248 NA
ATOM     61  C   UNL A   1      43.028  30.523  28.981  1.00  0.00     0.031 C 
ATOM     62  C   UNL A   1      48.957  30.984  27.764  1.00  0.00     0.029 A 
ATOM     63  C   UNL A   1      47.652  30.524  27.822  1.00  0.00     0.049 A 
ATOM     64  H   UNL A   1      46.825  28.760  27.010  1.00  0.00     0.167 HD
ATOM     65  C   UNL A   1      45.257  30.632  28.456  1.00  0.00     0.074 A 
ATOM     66  C   UNL A   1      44.127  31.250  29.120  1.00  0.00     0.031 C 
ATOM     67  C   UNL A   1      46.516  31.130  28.467  1.00  0.00     0.037 A 
BRANCH  54  68
ATOM     68  C   UNL A   1      50.621  27.717  25.356  1.00  0.00     0.064 A 
ATOM     69  C   UNL A   1      51.651  27.290  26.205  1.00  0.00     0.173 A 
ATOM     70  C   UNL A   1      50.943  27.955  24.008  1.00  0.00     0.173 A 
ATOM     71  F   UNL A   1      51.402  27.060  27.503  1.00  0.00    -0.203 F 
ATOM     72  C   UNL A   1      52.952  27.129  25.731  1.00  0.00     0.198 A 
ATOM     73  C   UNL A   1      52.238  27.767  23.532  1.00  0.00     0.198 A 
ATOM     74  F   UNL A   1      49.995  28.356  23.148  1.00  0.00    -0.203 F 
ATOM     75  F   UNL A   1      53.928  26.759  26.572  1.00  0.00    -0.200 F 
ATOM     76  C   UNL A   1      53.244  27.361  24.395  1.00  0.00     0.200 A 
ATOM     77  F   UNL A   1      52.512  27.976  22.237  1.00  0.00    -0.200 F 
ATOM     78  F   UNL A   1      54.493  27.198  23.939  1.00  0.00    -0.200 F 
ENDBRANCH  54  68
BRANCH  55  79
ATOM     79  C   UNL A   1      41.100  28.437  28.259  1.00  0.00     0.064 A 
ATOM     80  C   UNL A   1      40.761  27.988  29.541  1.00  0.00     0.173 A 
ATOM     81  C   UNL A   1      40.074  28.978  27.467  1.00  0.00     0.173 A 
ATOM     82  F   UNL A   1      41.698  27.436  30.327  1.00  0.00    -0.203 F 
ATOM     83  C   UNL A   1      39.452  28.076  30.011  1.00  0.00     0.198 A 
ATOM     84  C   UNL A   1      38.775  29.100  27.951  1.00  0.00     0.198 A 
ATOM     85  F   UNL A   1      40.344  29.422  26.230  1.00  0.00    -0.203 F 
ATOM     86  F   UNL A   1      39.147  27.605  31.228  1.00  0.00    -0.200 F 
ATOM     87  C   UNL A   1      38.462  28.643  29.222  1.00  0.00     0.200 A 
ATOM     88  F   UNL A   1      37.829  29.669  27.191  1.00  0.00    -0.200 F 
ATOM     89  F   UNL A   1      37.209  28.746  29.683  1.00  0.00    -0.200 F 
ENDBRANCH  55  79
BRANCH  67  90
ATOM     90  C   UNL A   1      46.728  32.431  29.182  1.00  0.00     0.064 A 
ATOM     91  C   UNL A   1      46.557  33.662  28.534  1.00  0.00     0.173 A 
ATOM     92  C   UNL A   1      47.077  32.442  30.541  1.00  0.00     0.173 A 
ATOM     93  F   UNL A   1      46.244  33.701  27.230  1.00  0.00    -0.203 F 
ATOM     94  C   UNL A   1      46.747  34.860  29.218  1.00  0.00     0.198 A 
ATOM     95  C   UNL A   1      47.241  33.642  31.227  1.00  0.00     0.198 A 
ATOM     96  F   UNL A   1      47.250  31.290  31.204  1.00  0.00    -0.203 F 
ATOM     97  F   UNL A   1      46.620  36.026  28.568  1.00  0.00    -0.200 F 
ATOM     98  C   UNL A   1      47.081  34.850  30.564  1.00  0.00     0.200 A 
ATOM     99  F   UNL A   1      47.556  33.630  32.529  1.00  0.00    -0.200 F 
ATOM    100  F   UNL A   1      47.258  36.004  31.221  1.00  0.00    -0.200 F 
ENDBRANCH  67  90
ENDBRANCH  41  42
ENDBRANCH  34  36
ENDBRANCH  33  34
ENDBRANCH  32  33
ENDBRANCH  31  32
ENDBRANCH   1  31
TORSDOF 17
ENDMDL
MODEL 2
REMARK VINA RESULT:     -11.8      4.920      7.245
REMARK SMILES COc1cc(/C=C2/SC(=O)N(c3ccc(O)cc3C)C2=O)ccc1OCC(=O)OCCOC(=O)c1ccc(-c2c3nc(c(-c4c(F)c(F)c(F)c(F)c4F)c4ccc([nH]4)c(-c4c(F)c(F)c(F)c(F)c4F)c4nc(c(-c5c(F)c(F)c(F)c(F)c5F)c5ccc2[nH]5)C=C4)C=C3)cc1
REMARK SMILES IDX 29 1 27 2 28 3 26 4 25 5 24 6 3 7 4 8 5 9 23 10 22 11 2 12
REMARK SMILES IDX 1 13 6 14 7 15 8 16 20 17 9 18 11 19 21 20 10 21 12 22 13 23
REMARK SMILES IDX 18 24 14 25 17 26 19 27 15 28 16 29 30 31 31 32 32 33 33 34
REMARK SMILES IDX 34 35 35 36 36 37 97 38 37 39 96 40 38 41 39 42 40 43 90 44
REMARK SMILES IDX 41 45 95 46 89 47 91 48 42 49 94 50 88 51 87 52 43 54 75 55
REMARK SMILES IDX 55 56 74 57 56 58 59 59 73 60 92 61 57 62 58 63 72 65 93 66
REMARK SMILES IDX 60 67 44 68 45 69 53 70 46 71 47 72 51 73 54 74 48 75 49 76
REMARK SMILES IDX 52 77 50 78 76 79 77 80 85 81 78 82 79 83 83 84 86 85 80 86
REMARK SMILES IDX 81 87 84 88 82 89 61 90 62 91 70 92 63 93 64 94 68 95 71 96
REMARK SMILES IDX 65 97 66 98 69 99 67 100
REMARK H PARENT 16 30 91 53 59 64
REMARK Flexibility Score: inf
ROOT
ATOM      1  O   UNL A   1      40.299  21.084  27.259  1.00  0.00    -0.460 OA
ENDROOT
BRANCH   1   2
ATOM      2  C   UNL A   1      39.534  21.906  26.493  1.00  0.00     0.344 C 
ATOM      3  O   UNL A   1      39.509  23.128  26.601  1.00  0.00    -0.248 OA
BRANCH   2   4
ATOM      4  C   UNL A   1      38.715  21.153  25.434  1.00  0.00     0.352 C 
BRANCH   4   5
ATOM      5  O   UNL A   1      37.356  20.832  25.611  1.00  0.00    -0.478 OA
BRANCH   5   6
ATOM      6  C   UNL A   1      36.368  21.514  24.965  1.00  0.00     0.162 A 
ATOM      7  C   UNL A   1      34.979  21.339  25.003  1.00  0.00     0.161 A 
ATOM      8  C   UNL A   1      34.153  22.132  24.174  1.00  0.00     0.058 A 
ATOM      9  C   UNL A   1      34.715  23.032  23.250  1.00  0.00    -0.020 A 
ATOM     10  C   UNL A   1      36.909  22.436  24.059  1.00  0.00     0.051 A 
ATOM     11  C   UNL A   1      36.101  23.180  23.202  1.00  0.00     0.012 A 
BRANCH   7  12
ATOM     12  O   UNL A   1      34.409  20.201  25.524  1.00  0.00    -0.493 OA
ATOM     13  C   UNL A   1      33.987  19.242  24.570  1.00  0.00     0.278 C 
ENDBRANCH   7  12
BRANCH   9  14
ATOM     14  C   UNL A   1      33.935  23.670  22.176  1.00  0.00     0.029 C 
ATOM     15  C   UNL A   1      33.211  24.789  22.358  1.00  0.00     0.083 C 
ATOM     16  S   UNL A   1      32.126  25.442  21.187  1.00  0.00    -0.022 SA
ATOM     17  C   UNL A   1      33.166  25.618  23.597  1.00  0.00     0.272 C 
ATOM     18  C   UNL A   1      31.580  26.725  22.269  1.00  0.00     0.298 C 
ATOM     19  N   UNL A   1      32.248  26.646  23.462  1.00  0.00    -0.236 N 
ATOM     20  O   UNL A   1      33.844  25.390  24.588  1.00  0.00    -0.268 OA
ATOM     21  O   UNL A   1      30.755  27.558  21.901  1.00  0.00    -0.260 OA
BRANCH  19  22
ATOM     22  C   UNL A   1      32.092  27.585  24.517  1.00  0.00     0.056 A 
ATOM     23  C   UNL A   1      32.792  28.805  24.409  1.00  0.00     0.031 A 
ATOM     24  C   UNL A   1      31.360  27.315  25.690  1.00  0.00    -0.023 A 
ATOM     25  C   UNL A   1      32.781  29.742  25.437  1.00  0.00     0.048 A 
ATOM     26  C   UNL A   1      31.357  28.279  26.722  1.00  0.00     0.051 A 
ATOM     27  C   UNL A   1      30.638  26.024  25.966  1.00  0.00     0.047 C 
ATOM     28  C   UNL A   1      32.073  29.466  26.593  1.00  0.00     0.115 A 
BRANCH  28  29
ATOM     29  O   UNL A   1      32.124  30.385  27.598  1.00  0.00    -0.508 OA
ATOM     30  H   UNL A   1      32.857  30.399  28.182  1.00  0.00     0.293 HD
ENDBRANCH  28  29
ENDBRANCH  19  22
ENDBRANCH   9  14
ENDBRANCH   5   6
ENDBRANCH   4   5
ENDBRANCH   2   4
ENDBRANCH   1   2
BRANCH   1  31
ATOM     31  C   UNL A   1      41.400  20.426  26.595  1.00  0.00     0.274 C 
BRANCH  31  32
ATOM     32  C   UNL A   1      42.207  21.466  25.815  1.00  0.00     0.275 C 
BRANCH  32  33
ATOM     33  O   UNL A   1      43.370  21.828  26.586  1.00  0.00    -0.458 OA
BRANCH  33  34
ATOM     34  C   UNL A   1      43.997  22.967  26.194  1.00  0.00     0.338 C 
ATOM     35  O   UNL A   1      44.715  23.089  25.214  1.00  0.00    -0.246 OA
BRANCH  34  36
ATOM     36  C   UNL A   1      43.642  24.094  27.104  1.00  0.00     0.060 A 
ATOM     37  C   UNL A   1      44.105  25.389  26.878  1.00  0.00     0.016 A 
ATOM     38  C   UNL A   1      42.863  23.856  28.239  1.00  0.00     0.016 A 
ATOM     39  C   UNL A   1      43.913  26.395  27.827  1.00  0.00     0.010 A 
ATOM     40  C   UNL A   1      42.554  24.905  29.122  1.00  0.00     0.010 A 
ATOM     41  C   UNL A   1      43.087  26.193  28.938  1.00  0.00    -0.014 A 
BRANCH  41  42
ATOM     42  C   UNL A   1      42.738  27.315  29.870  1.00  0.00     0.031 A 
ATOM     43  C   UNL A   1      43.519  27.523  31.143  1.00  0.00     0.074 A 
ATOM     44  C   UNL A   1      41.693  28.133  29.615  1.00  0.00     0.049 A 
ATOM     45  N   UNL A   1      43.182  28.168  32.231  1.00  0.00    -0.248 NA
ATOM     46  C   UNL A   1      44.854  26.906  31.204  1.00  0.00     0.031 C 
ATOM     47  C   UNL A   1      40.874  28.124  28.401  1.00  0.00     0.029 A 
ATOM     48  N   UNL A   1      41.124  29.130  30.378  1.00  0.00    -0.354 N 
ATOM     49  C   UNL A   1      44.224  27.973  33.132  1.00  0.00     0.074 A 
ATOM     50  C   UNL A   1      45.215  27.161  32.455  1.00  0.00     0.031 C 
ATOM     51  C   UNL A   1      39.938  29.077  28.486  1.00  0.00     0.029 A 
ATOM     52  C   UNL A   1      39.994  29.671  29.813  1.00  0.00     0.049 A 
ATOM     53  H   UNL A   1      41.492  29.425  31.243  1.00  0.00     0.167 HD
ATOM     54  C   UNL A   1      44.328  28.419  34.409  1.00  0.00     0.037 A 
ATOM     55  C   UNL A   1      39.045  30.482  30.320  1.00  0.00     0.037 A 
ATOM     56  C   UNL A   1      43.360  29.275  35.051  1.00  0.00     0.049 A 
ATOM     57  C   UNL A   1      39.146  30.920  31.752  1.00  0.00     0.074 A 
ATOM     58  C   UNL A   1      43.365  29.772  36.344  1.00  0.00     0.029 A 
ATOM     59  N   UNL A   1      42.224  29.780  34.436  1.00  0.00    -0.354 N 
ATOM     60  N   UNL A   1      40.071  30.638  32.637  1.00  0.00    -0.248 NA
ATOM     61  C   UNL A   1      38.059  31.762  32.267  1.00  0.00     0.031 C 
ATOM     62  C   UNL A   1      42.215  30.550  36.521  1.00  0.00     0.029 A 
ATOM     63  C   UNL A   1      41.518  30.576  35.325  1.00  0.00     0.049 A 
ATOM     64  H   UNL A   1      41.957  29.600  33.506  1.00  0.00     0.167 HD
ATOM     65  C   UNL A   1      39.685  31.274  33.806  1.00  0.00     0.074 A 
ATOM     66  C   UNL A   1      38.450  31.973  33.515  1.00  0.00     0.031 C 
ATOM     67  C   UNL A   1      40.296  31.273  35.016  1.00  0.00     0.037 A 
BRANCH  54  68
ATOM     68  C   UNL A   1      45.506  27.956  35.221  1.00  0.00     0.064 A 
ATOM     69  C   UNL A   1      46.692  28.697  35.311  1.00  0.00     0.173 A 
ATOM     70  C   UNL A   1      45.423  26.764  35.962  1.00  0.00     0.173 A 
ATOM     71  F   UNL A   1      46.830  29.835  34.615  1.00  0.00    -0.203 F 
ATOM     72  C   UNL A   1      47.759  28.253  36.091  1.00  0.00     0.198 A 
ATOM     73  C   UNL A   1      46.479  26.338  36.762  1.00  0.00     0.198 A 
ATOM     74  F   UNL A   1      44.308  26.020  35.922  1.00  0.00    -0.203 F 
ATOM     75  F   UNL A   1      48.898  28.958  36.128  1.00  0.00    -0.200 F 
ATOM     76  C   UNL A   1      47.650  27.079  36.821  1.00  0.00     0.200 A 
ATOM     77  F   UNL A   1      46.364  25.211  37.479  1.00  0.00    -0.200 F 
ATOM     78  F   UNL A   1      48.672  26.657  37.577  1.00  0.00    -0.200 F 
ENDBRANCH  54  68
BRANCH  55  79
ATOM     79  C   UNL A   1      37.868  30.852  29.487  1.00  0.00     0.064 A 
ATOM     80  C   UNL A   1      36.871  29.917  29.186  1.00  0.00     0.173 A 
ATOM     81  C   UNL A   1      37.705  32.159  28.998  1.00  0.00     0.173 A 
ATOM     82  F   UNL A   1      36.992  28.649  29.605  1.00  0.00    -0.203 F 
ATOM     83  C   UNL A   1      35.757  30.274  28.426  1.00  0.00     0.198 A 
ATOM     84  C   UNL A   1      36.575  32.523  28.271  1.00  0.00     0.198 A 
ATOM     85  F   UNL A   1      38.632  33.093  29.256  1.00  0.00    -0.203 F 
ATOM     86  F   UNL A   1      34.835  29.351  28.121  1.00  0.00    -0.200 F 
ATOM     87  C   UNL A   1      35.604  31.578  27.979  1.00  0.00     0.200 A 
ATOM     88  F   UNL A   1      36.423  33.790  27.862  1.00  0.00    -0.200 F 
ATOM     89  F   UNL A   1      34.523  31.924  27.268  1.00  0.00    -0.200 F 
ENDBRANCH  55  79
BRANCH  67  90
ATOM     90  C   UNL A   1      39.660  32.089  36.100  1.00  0.00     0.064 A 
ATOM     91  C   UNL A   1      38.607  31.587  36.877  1.00  0.00     0.173 A 
ATOM     92  C   UNL A   1      40.134  33.379  36.384  1.00  0.00     0.173 A 
ATOM     93  F   UNL A   1      38.106  30.367  36.628  1.00  0.00    -0.203 F 
ATOM     94  C   UNL A   1      38.037  32.356  37.888  1.00  0.00     0.198 A 
ATOM     95  C   UNL A   1      39.578  34.134  37.411  1.00  0.00     0.198 A 
ATOM     96  F   UNL A   1      41.141  33.902  35.669  1.00  0.00    -0.203 F 
ATOM     97  F   UNL A   1      37.002  31.874  38.591  1.00  0.00    -0.200 F 
ATOM     98  C   UNL A   1      38.527  33.625  38.160  1.00  0.00     0.200 A 
ATOM     99  F   UNL A   1      40.058  35.357  37.678  1.00  0.00    -0.200 F 
ATOM    100  F   UNL A   1      37.980  34.362  39.136  1.00  0.00    -0.200 F 
ENDBRANCH  67  90
ENDBRANCH  41  42
ENDBRANCH  34  36
ENDBRANCH  33  34
ENDBRANCH  32  33
ENDBRANCH  31  32
ENDBRANCH   1  31
TORSDOF 17
ENDMDL
MODEL 3
REMARK VINA RESULT:     -11.7      2.773      9.213
REMARK SMILES COc1cc(/C=C2/SC(=O)N(c3ccc(O)cc3C)C2=O)ccc1OCC(=O)OCCOC(=O)c1ccc(-c2c3nc(c(-c4c(F)c(F)c(F)c(F)c4F)c4ccc([nH]4)c(-c4c(F)c(F)c(F)c(F)c4F)c4nc(c(-c5c(F)c(F)c(F)c(F)c5F)c5ccc2[nH]5)C=C4)C=C3)cc1
REMARK SMILES IDX 29 1 27 2 28 3 26 4 25 5 24 6 3 7 4 8 5 9 23 10 22 11 2 12
REMARK SMILES IDX 1 13 6 14 7 15 8 16 20 17 9 18 11 19 21 20 10 21 12 22 13 23
REMARK SMILES IDX 18 24 14 25 17 26 19 27 15 28 16 29 30 31 31 32 32 33 33 34
REMARK SMILES IDX 34 35 35 36 36 37 97 38 37 39 96 40 38 41 39 42 40 43 90 44
REMARK SMILES IDX 41 45 95 46 89 47 91 48 42 49 94 50 88 51 87 52 43 54 75 55
REMARK SMILES IDX 55 56 74 57 56 58 59 59 73 60 92 61 57 62 58 63 72 65 93 66
REMARK SMILES IDX 60 67 44 68 45 69 53 70 46 71 47 72 51 73 54 74 48 75 49 76
REMARK SMILES IDX 52 77 50 78 76 79 77 80 85 81 78 82 79 83 83 84 86 85 80 86
REMARK SMILES IDX 81 87 84 88 82 89 61 90 62 91 70 92 63 93 64 94 68 95 71 96
REMARK SMILES IDX 65 97 66 98 69 99 67 100
REMARK H PARENT 16 30 91 53 59 64
REMARK Flexibility Score: inf
ROOT
ATOM      1  O   UNL A   1      33.838  33.186  28.049  1.00  0.00    -0.460 OA
ENDROOT
BRANCH   1   2
ATOM      2  C   UNL A   1      32.718  32.782  27.396  1.00  0.00     0.344 C 
ATOM      3  O   UNL A   1      31.769  33.514  27.131  1.00  0.00    -0.248 OA
BRANCH   2   4
ATOM      4  C   UNL A   1      32.764  31.305  26.978  1.00  0.00     0.352 C 
BRANCH   4   5
ATOM      5  O   UNL A   1      32.150  30.827  25.805  1.00  0.00    -0.478 OA
BRANCH   5   6
ATOM      6  C   UNL A   1      31.795  29.519  25.663  1.00  0.00     0.162 A 
ATOM      7  C   UNL A   1      31.345  28.826  24.532  1.00  0.00     0.161 A 
ATOM      8  C   UNL A   1      30.959  27.471  24.653  1.00  0.00     0.058 A 
ATOM      9  C   UNL A   1      30.939  26.838  25.909  1.00  0.00    -0.020 A 
ATOM     10  C   UNL A   1      31.796  28.864  26.901  1.00  0.00     0.051 A 
ATOM     11  C   UNL A   1      31.365  27.547  27.033  1.00  0.00     0.012 A 
BRANCH   7  12
ATOM     12  O   UNL A   1      30.915  29.485  23.405  1.00  0.00    -0.493 OA
ATOM     13  C   UNL A   1      29.619  30.053  23.489  1.00  0.00     0.278 C 
ENDBRANCH   7  12
BRANCH   9  14
ATOM     14  C   UNL A   1      30.288  25.538  26.143  1.00  0.00     0.029 C 
ATOM     15  C   UNL A   1      30.921  24.361  25.993  1.00  0.00     0.083 C 
ATOM     16  S   UNL A   1      30.138  22.826  26.054  1.00  0.00    -0.022 SA
ATOM     17  C   UNL A   1      32.370  24.172  25.693  1.00  0.00     0.272 C 
ATOM     18  C   UNL A   1      31.618  21.950  25.654  1.00  0.00     0.298 C 
ATOM     19  N   UNL A   1      32.658  22.829  25.518  1.00  0.00    -0.236 N 
ATOM     20  O   UNL A   1      33.168  25.093  25.602  1.00  0.00    -0.268 OA
ATOM     21  O   UNL A   1      31.629  20.723  25.582  1.00  0.00    -0.260 OA
BRANCH  19  22
ATOM     22  C   UNL A   1      34.001  22.430  25.275  1.00  0.00     0.056 A 
ATOM     23  C   UNL A   1      34.482  22.542  23.954  1.00  0.00     0.031 A 
ATOM     24  C   UNL A   1      34.824  21.846  26.259  1.00  0.00    -0.023 A 
ATOM     25  C   UNL A   1      35.747  22.083  23.601  1.00  0.00     0.048 A 
ATOM     26  C   UNL A   1      36.106  21.389  25.884  1.00  0.00     0.051 A 
ATOM     27  C   UNL A   1      34.404  21.593  27.681  1.00  0.00     0.047 C 
ATOM     28  C   UNL A   1      36.546  21.498  24.567  1.00  0.00     0.115 A 
BRANCH  28  29
ATOM     29  O   UNL A   1      37.759  21.017  24.175  1.00  0.00    -0.508 OA
ATOM     30  H   UNL A   1      38.007  20.140  24.393  1.00  0.00     0.293 HD
ENDBRANCH  28  29
ENDBRANCH  19  22
ENDBRANCH   9  14
ENDBRANCH   5   6
ENDBRANCH   4   5
ENDBRANCH   2   4
ENDBRANCH   1   2
BRANCH   1  31
ATOM     31  C   UNL A   1      33.655  34.151  29.108  1.00  0.00     0.274 C 
BRANCH  31  32
ATOM     32  C   UNL A   1      34.752  33.958  30.157  1.00  0.00     0.275 C 
BRANCH  32  33
ATOM     33  O   UNL A   1      34.712  32.596  30.629  1.00  0.00    -0.458 OA
BRANCH  33  34
ATOM     34  C   UNL A   1      35.511  32.325  31.692  1.00  0.00     0.338 C 
ATOM     35  O   UNL A   1      35.223  32.491  32.866  1.00  0.00    -0.246 OA
BRANCH  34  36
ATOM     36  C   UNL A   1      36.799  31.728  31.233  1.00  0.00     0.060 A 
ATOM     37  C   UNL A   1      37.614  30.999  32.097  1.00  0.00     0.016 A 
ATOM     38  C   UNL A   1      37.235  31.932  29.922  1.00  0.00     0.016 A 
ATOM     39  C   UNL A   1      38.894  30.597  31.707  1.00  0.00     0.010 A 
ATOM     40  C   UNL A   1      38.465  31.405  29.492  1.00  0.00     0.010 A 
ATOM     41  C   UNL A   1      39.325  30.738  30.383  1.00  0.00    -0.014 A 
BRANCH  41  42
ATOM     42  C   UNL A   1      40.626  30.158  29.916  1.00  0.00     0.031 A 
ATOM     43  C   UNL A   1      41.858  31.023  29.819  1.00  0.00     0.074 A 
ATOM     44  C   UNL A   1      40.714  28.866  29.529  1.00  0.00     0.049 A 
ATOM     45  N   UNL A   1      42.952  30.839  29.124  1.00  0.00    -0.248 NA
ATOM     46  C   UNL A   1      41.848  32.271  30.599  1.00  0.00     0.031 C 
ATOM     47  C   UNL A   1      39.645  27.869  29.623  1.00  0.00     0.029 A 
ATOM     48  N   UNL A   1      41.755  28.168  28.957  1.00  0.00    -0.354 N 
ATOM     49  C   UNL A   1      43.727  31.977  29.320  1.00  0.00     0.074 A 
ATOM     50  C   UNL A   1      42.983  32.840  30.214  1.00  0.00     0.031 C 
ATOM     51  C   UNL A   1      40.088  26.694  29.160  1.00  0.00     0.029 A 
ATOM     52  C   UNL A   1      41.420  26.882  28.604  1.00  0.00     0.049 A 
ATOM     53  H   UNL A   1      42.651  28.552  28.816  1.00  0.00     0.167 HD
ATOM     54  C   UNL A   1      44.938  32.274  28.785  1.00  0.00     0.037 A 
ATOM     55  C   UNL A   1      42.057  25.973  27.840  1.00  0.00     0.037 A 
ATOM     56  C   UNL A   1      45.693  31.379  27.942  1.00  0.00     0.049 A 
ATOM     57  C   UNL A   1      43.369  26.339  27.210  1.00  0.00     0.074 A 
ATOM     58  C   UNL A   1      46.922  31.588  27.339  1.00  0.00     0.029 A 
ATOM     59  N   UNL A   1      45.298  30.094  27.602  1.00  0.00    -0.354 N 
ATOM     60  N   UNL A   1      44.044  27.459  27.301  1.00  0.00    -0.248 NA
ATOM     61  C   UNL A   1      43.995  25.328  26.347  1.00  0.00     0.031 C 
ATOM     62  C   UNL A   1      47.255  30.442  26.607  1.00  0.00     0.029 A 
ATOM     63  C   UNL A   1      46.255  29.502  26.792  1.00  0.00     0.049 A 
ATOM     64  H   UNL A   1      44.461  29.665  27.892  1.00  0.00     0.167 HD
ATOM     65  C   UNL A   1      45.175  27.286  26.518  1.00  0.00     0.074 A 
ATOM     66  C   UNL A   1      45.107  25.945  25.973  1.00  0.00     0.031 C 
ATOM     67  C   UNL A   1      46.177  28.163  26.267  1.00  0.00     0.037 A 
BRANCH  54  68
ATOM     68  C   UNL A   1      45.509  33.638  29.053  1.00  0.00     0.064 A 
ATOM     69  C   UNL A   1      46.245  33.929  30.209  1.00  0.00     0.173 A 
ATOM     70  C   UNL A   1      45.352  34.664  28.104  1.00  0.00     0.173 A 
ATOM     71  F   UNL A   1      46.416  32.991  31.153  1.00  0.00    -0.203 F 
ATOM     72  C   UNL A   1      46.782  35.198  30.418  1.00  0.00     0.198 A 
ATOM     73  C   UNL A   1      45.913  35.923  28.303  1.00  0.00     0.198 A 
ATOM     74  F   UNL A   1      44.665  34.440  26.974  1.00  0.00    -0.203 F 
ATOM     75  F   UNL A   1      47.448  35.463  31.551  1.00  0.00    -0.200 F 
ATOM     76  C   UNL A   1      46.622  36.192  29.464  1.00  0.00     0.200 A 
ATOM     77  F   UNL A   1      45.770  36.875  27.371  1.00  0.00    -0.200 F 
ATOM     78  F   UNL A   1      47.146  37.409  29.662  1.00  0.00    -0.200 F 
ENDBRANCH  54  68
BRANCH  55  79
ATOM     79  C   UNL A   1      41.410  24.663  27.557  1.00  0.00     0.064 A 
ATOM     80  C   UNL A   1      41.893  23.478  28.124  1.00  0.00     0.173 A 
ATOM     81  C   UNL A   1      40.275  24.576  26.733  1.00  0.00     0.173 A 
ATOM     82  F   UNL A   1      42.990  23.503  28.895  1.00  0.00    -0.203 F 
ATOM     83  C   UNL A   1      41.269  22.256  27.877  1.00  0.00     0.198 A 
ATOM     84  C   UNL A   1      39.631  23.360  26.517  1.00  0.00     0.198 A 
ATOM     85  F   UNL A   1      39.772  25.681  26.163  1.00  0.00    -0.203 F 
ATOM     86  F   UNL A   1      41.773  21.131  28.402  1.00  0.00    -0.200 F 
ATOM     87  C   UNL A   1      40.132  22.199  27.084  1.00  0.00     0.200 A 
ATOM     88  F   UNL A   1      38.520  23.317  25.769  1.00  0.00    -0.200 F 
ATOM     89  F   UNL A   1      39.521  21.028  26.866  1.00  0.00    -0.200 F 
ENDBRANCH  55  79
BRANCH  67  90
ATOM     90  C   UNL A   1      47.302  27.682  25.402  1.00  0.00     0.064 A 
ATOM     91  C   UNL A   1      47.283  27.848  24.011  1.00  0.00     0.173 A 
ATOM     92  C   UNL A   1      48.427  27.073  25.980  1.00  0.00     0.173 A 
ATOM     93  F   UNL A   1      46.219  28.405  23.412  1.00  0.00    -0.203 F 
ATOM     94  C   UNL A   1      48.343  27.405  23.225  1.00  0.00     0.198 A 
ATOM     95  C   UNL A   1      49.495  26.654  25.193  1.00  0.00     0.198 A 
ATOM     96  F   UNL A   1      48.492  26.893  27.307  1.00  0.00    -0.203 F 
ATOM     97  F   UNL A   1      48.286  27.536  21.891  1.00  0.00    -0.200 F 
ATOM     98  C   UNL A   1      49.451  26.816  23.816  1.00  0.00     0.200 A 
ATOM     99  F   UNL A   1      50.569  26.092  25.766  1.00  0.00    -0.200 F 
ATOM    100  F   UNL A   1      50.472  26.394  23.058  1.00  0.00    -0.200 F 
ENDBRANCH  67  90
ENDBRANCH  41  42
ENDBRANCH  34  36
ENDBRANCH  33  34
ENDBRANCH  32  33
ENDBRANCH  31  32
ENDBRANCH   1  31
TORSDOF 17
ENDMDL
