MODEL 1
REMARK VINA RESULT:     -11.3      0.000      0.000
REMARK SMILES CC[C@@H](C(=O)NC[C@@H]1CC[C@H](C(=O)OCCOC(=O)c2ccc(-c3c4nc(c(-c5c(F)c(F)c(F)c(F)c5F)c5ccc([nH]5)c(-c5c(F)c(F)c(F)c(F)c5F)c5nc(c(-c6c(F)c(F)c(F)c(F)c6F)c6ccc3[nH]6)C=C5)C=C4)cc2)O1)c1ccccc1
REMARK SMILES IDX 15 1 14 2 12 3 13 4 11 5 8 6 9 7 83 8 10 9 7 10 6 11 4 12
REMARK SMILES IDX 5 13 3 15 2 16 1 17 84 18 85 19 89 20 86 21 88 22 87 23
REMARK SMILES IDX 16 24 17 25 18 26 19 27 20 28 21 29 82 30 22 31 81 32 23 33
REMARK SMILES IDX 24 34 25 35 75 36 26 37 80 38 74 39 76 40 27 41 79 42 73 43
REMARK SMILES IDX 72 44 28 46 60 47 40 48 59 49 41 50 44 51 58 52 77 53 42 54
REMARK SMILES IDX 43 55 57 57 78 58 45 59 29 60 30 61 38 62 31 63 32 64 36 65
REMARK SMILES IDX 39 66 33 67 34 68 37 69 35 70 61 71 62 72 70 73 63 74 64 75
REMARK SMILES IDX 68 76 71 77 65 78 66 79 69 80 67 81 46 82 47 83 55 84 48 85
REMARK SMILES IDX 49 86 53 87 56 88 50 89 51 90 54 91 52 92
REMARK H PARENT 6 14 76 45 44 56
REMARK Flexibility Score: inf
ROOT
ATOM      1  C   UNL A   1      31.426  29.797  25.251  1.00  0.00     0.274 C 
ENDROOT
BRANCH   1   2
ATOM      2  O   UNL A   1      32.301  28.672  24.991  1.00  0.00    -0.460 OA
BRANCH   2   3
ATOM      3  C   UNL A   1      32.299  27.656  25.903  1.00  0.00     0.335 C 
ATOM      4  O   UNL A   1      33.268  27.354  26.592  1.00  0.00    -0.249 OA
BRANCH   3   5
ATOM      5  C   UNL A   1      30.963  26.870  25.954  1.00  0.00     0.228 C 
ATOM      6  C   UNL A   1      30.525  24.559  26.167  1.00  0.00     0.138 C 
ATOM      7  C   UNL A   1      30.524  24.884  24.683  1.00  0.00     0.037 C 
ATOM      8  O   UNL A   1      31.026  25.733  26.837  1.00  0.00    -0.361 OA
ATOM      9  C   UNL A   1      30.387  26.384  24.632  1.00  0.00     0.047 C 
BRANCH   6  10
ATOM     10  C   UNL A   1      31.320  23.285  26.581  1.00  0.00     0.147 C 
BRANCH  10  11
ATOM     11  N   UNL A   1      32.748  23.505  26.799  1.00  0.00    -0.353 N 
ATOM     12  C   UNL A   1      33.890  23.236  26.105  1.00  0.00     0.227 C 
ATOM     13  O   UNL A   1      34.927  23.544  26.704  1.00  0.00    -0.274 OA
ATOM     14  H   UNL A   1      32.929  23.957  27.656  1.00  0.00     0.163 HD
BRANCH  12  15
ATOM     15  C   UNL A   1      33.923  22.670  24.663  1.00  0.00     0.108 C 
BRANCH  15  16
ATOM     16  C   UNL A   1      35.206  21.908  24.279  1.00  0.00     0.015 C 
ATOM     17  C   UNL A   1      35.381  20.597  25.000  1.00  0.00     0.005 C 
ENDBRANCH  15  16
BRANCH  15  18
ATOM     18  C   UNL A   1      33.692  23.789  23.619  1.00  0.00    -0.036 A 
ATOM     19  C   UNL A   1      33.122  23.538  22.353  1.00  0.00     0.004 A 
ATOM     20  C   UNL A   1      34.045  25.110  23.927  1.00  0.00     0.004 A 
ATOM     21  C   UNL A   1      32.844  24.576  21.463  1.00  0.00     0.000 A 
ATOM     22  C   UNL A   1      33.793  26.146  23.022  1.00  0.00     0.000 A 
ATOM     23  C   UNL A   1      33.178  25.883  21.800  1.00  0.00     0.000 A 
ENDBRANCH  15  18
ENDBRANCH  12  15
ENDBRANCH  10  11
ENDBRANCH   6  10
ENDBRANCH   3   5
ENDBRANCH   2   3
ENDBRANCH   1   2
BRANCH   1  24
ATOM     24  C   UNL A   1      31.818  30.518  26.543  1.00  0.00     0.275 C 
BRANCH  24  25
ATOM     25  O   UNL A   1      33.226  30.785  26.523  1.00  0.00    -0.458 OA
BRANCH  25  26
ATOM     26  C   UNL A   1      33.599  31.826  27.300  1.00  0.00     0.338 C 
ATOM     27  O   UNL A   1      32.943  32.798  27.622  1.00  0.00    -0.246 OA
BRANCH  26  28
ATOM     28  C   UNL A   1      34.868  31.457  27.934  1.00  0.00     0.060 A 
ATOM     29  C   UNL A   1      35.006  30.135  28.368  1.00  0.00     0.016 A 
ATOM     30  C   UNL A   1      35.897  32.384  28.092  1.00  0.00     0.016 A 
ATOM     31  C   UNL A   1      36.179  29.731  28.987  1.00  0.00     0.010 A 
ATOM     32  C   UNL A   1      37.072  31.980  28.721  1.00  0.00     0.010 A 
ATOM     33  C   UNL A   1      37.206  30.660  29.188  1.00  0.00    -0.014 A 
BRANCH  33  34
ATOM     34  C   UNL A   1      38.372  30.286  30.010  1.00  0.00     0.031 A 
ATOM     35  C   UNL A   1      39.376  29.334  29.434  1.00  0.00     0.074 A 
ATOM     36  C   UNL A   1      38.525  30.801  31.241  1.00  0.00     0.049 A 
ATOM     37  N   UNL A   1      40.413  28.777  30.001  1.00  0.00    -0.248 NA
ATOM     38  C   UNL A   1      39.180  28.952  28.026  1.00  0.00     0.031 C 
ATOM     39  C   UNL A   1      37.629  31.773  31.866  1.00  0.00     0.029 A 
ATOM     40  N   UNL A   1      39.486  30.568  32.188  1.00  0.00    -0.354 N 
ATOM     41  C   UNL A   1      40.977  27.961  29.030  1.00  0.00     0.074 A 
ATOM     42  C   UNL A   1      40.159  28.079  27.843  1.00  0.00     0.031 C 
ATOM     43  C   UNL A   1      38.080  32.047  33.102  1.00  0.00     0.029 A 
ATOM     44  C   UNL A   1      39.265  31.235  33.365  1.00  0.00     0.049 A 
ATOM     45  H   UNL A   1      40.262  29.979  32.037  1.00  0.00     0.167 HD
ATOM     46  C   UNL A   1      42.083  27.189  29.127  1.00  0.00     0.037 A 
ATOM     47  C   UNL A   1      39.931  31.165  34.532  1.00  0.00     0.037 A 
ATOM     48  C   UNL A   1      42.890  27.094  30.314  1.00  0.00     0.049 A 
ATOM     49  C   UNL A   1      41.124  30.253  34.631  1.00  0.00     0.074 A 
ATOM     50  C   UNL A   1      44.039  26.354  30.523  1.00  0.00     0.029 A 
ATOM     51  N   UNL A   1      42.625  27.768  31.499  1.00  0.00    -0.354 N 
ATOM     52  N   UNL A   1      41.655  29.480  33.714  1.00  0.00    -0.248 NA
ATOM     53  C   UNL A   1      41.807  30.198  35.930  1.00  0.00     0.031 C 
ATOM     54  C   UNL A   1      44.443  26.542  31.849  1.00  0.00     0.029 A 
ATOM     55  C   UNL A   1      43.576  27.442  32.451  1.00  0.00     0.049 A 
ATOM     56  H   UNL A   1      41.872  28.385  31.642  1.00  0.00     0.167 HD
ATOM     57  C   UNL A   1      42.745  28.865  34.313  1.00  0.00     0.074 A 
ATOM     58  C   UNL A   1      42.810  29.371  35.671  1.00  0.00     0.031 C 
ATOM     59  C   UNL A   1      43.614  27.962  33.794  1.00  0.00     0.037 A 
BRANCH  46  60
ATOM     60  C   UNL A   1      42.457  26.362  27.931  1.00  0.00     0.064 A 
ATOM     61  C   UNL A   1      43.416  26.794  27.003  1.00  0.00     0.173 A 
ATOM     62  C   UNL A   1      41.853  25.114  27.717  1.00  0.00     0.173 A 
ATOM     63  F   UNL A   1      44.009  27.989  27.150  1.00  0.00    -0.203 F 
ATOM     64  C   UNL A   1      43.739  26.018  25.892  1.00  0.00     0.198 A 
ATOM     65  C   UNL A   1      42.197  24.328  26.621  1.00  0.00     0.198 A 
ATOM     66  F   UNL A   1      40.927  24.656  28.572  1.00  0.00    -0.203 F 
ATOM     67  F   UNL A   1      44.620  26.473  24.992  1.00  0.00    -0.200 F 
ATOM     68  C   UNL A   1      43.134  24.783  25.706  1.00  0.00     0.200 A 
ATOM     69  F   UNL A   1      41.619  23.132  26.447  1.00  0.00    -0.200 F 
ATOM     70  F   UNL A   1      43.448  24.036  24.638  1.00  0.00    -0.200 F 
ENDBRANCH  46  60
BRANCH  47  71
ATOM     71  C   UNL A   1      39.474  31.965  35.698  1.00  0.00     0.064 A 
ATOM     72  C   UNL A   1      38.531  31.453  36.600  1.00  0.00     0.173 A 
ATOM     73  C   UNL A   1      39.965  33.258  35.933  1.00  0.00     0.173 A 
ATOM     74  F   UNL A   1      38.014  30.231  36.406  1.00  0.00    -0.203 F 
ATOM     75  C   UNL A   1      38.085  32.210  37.682  1.00  0.00     0.198 A 
ATOM     76  C   UNL A   1      39.540  34.003  37.031  1.00  0.00     0.198 A 
ATOM     77  F   UNL A   1      40.867  33.796  35.100  1.00  0.00    -0.203 F 
ATOM     78  F   UNL A   1      37.149  31.713  38.503  1.00  0.00    -0.200 F 
ATOM     79  C   UNL A   1      38.595  33.480  37.901  1.00  0.00     0.200 A 
ATOM     80  F   UNL A   1      40.044  35.225  37.246  1.00  0.00    -0.200 F 
ATOM     81  F   UNL A   1      38.168  34.205  38.944  1.00  0.00    -0.200 F 
ENDBRANCH  47  71
BRANCH  59  82
ATOM     82  C   UNL A   1      44.721  27.490  34.691  1.00  0.00     0.064 A 
ATOM     83  C   UNL A   1      45.937  28.182  34.785  1.00  0.00     0.173 A 
ATOM     84  C   UNL A   1      44.549  26.349  35.490  1.00  0.00     0.173 A 
ATOM     85  F   UNL A   1      46.154  29.270  34.030  1.00  0.00    -0.203 F 
ATOM     86  C   UNL A   1      46.953  27.732  35.624  1.00  0.00     0.198 A 
ATOM     87  C   UNL A   1      45.554  25.921  36.351  1.00  0.00     0.198 A 
ATOM     88  F   UNL A   1      43.401  25.657  35.442  1.00  0.00    -0.203 F 
ATOM     89  F   UNL A   1      48.126  28.378  35.658  1.00  0.00    -0.200 F 
ATOM     90  C   UNL A   1      46.757  26.606  36.411  1.00  0.00     0.200 A 
ATOM     91  F   UNL A   1      45.360  24.841  37.122  1.00  0.00    -0.200 F 
ATOM     92  F   UNL A   1      47.734  26.177  37.222  1.00  0.00    -0.200 F 
ENDBRANCH  59  82
ENDBRANCH  33  34
ENDBRANCH  26  28
ENDBRANCH  25  26
ENDBRANCH  24  25
ENDBRANCH   1  24
TORSDOF 16
ENDMDL
MODEL 2
REMARK VINA RESULT:     -11.2      1.219      2.023
REMARK SMILES CC[C@@H](C(=O)NC[C@@H]1CC[C@H](C(=O)OCCOC(=O)c2ccc(-c3c4nc(c(-c5c(F)c(F)c(F)c(F)c5F)c5ccc([nH]5)c(-c5c(F)c(F)c(F)c(F)c5F)c5nc(c(-c6c(F)c(F)c(F)c(F)c6F)c6ccc3[nH]6)C=C5)C=C4)cc2)O1)c1ccccc1
REMARK SMILES IDX 15 1 14 2 12 3 13 4 11 5 8 6 9 7 83 8 10 9 7 10 6 11 4 12
REMARK SMILES IDX 5 13 3 15 2 16 1 17 84 18 85 19 89 20 86 21 88 22 87 23
REMARK SMILES IDX 16 24 17 25 18 26 19 27 20 28 21 29 82 30 22 31 81 32 23 33
REMARK SMILES IDX 24 34 25 35 75 36 26 37 80 38 74 39 76 40 27 41 79 42 73 43
REMARK SMILES IDX 72 44 28 46 60 47 40 48 59 49 41 50 44 51 58 52 77 53 42 54
REMARK SMILES IDX 43 55 57 57 78 58 45 59 29 60 30 61 38 62 31 63 32 64 36 65
REMARK SMILES IDX 39 66 33 67 34 68 37 69 35 70 61 71 62 72 70 73 63 74 64 75
REMARK SMILES IDX 68 76 71 77 65 78 66 79 69 80 67 81 46 82 47 83 55 84 48 85
REMARK SMILES IDX 49 86 53 87 56 88 50 89 51 90 54 91 52 92
REMARK H PARENT 6 14 76 45 44 56
REMARK Flexibility Score: inf
ROOT
ATOM      1  C   UNL A   1      32.911  29.097  24.617  1.00  0.00     0.274 C 
ENDROOT
BRANCH   1   2
ATOM      2  O   UNL A   1      33.622  28.064  25.343  1.00  0.00    -0.460 OA
BRANCH   2   3
ATOM      3  C   UNL A   1      33.207  26.777  25.163  1.00  0.00     0.335 C 
ATOM      4  O   UNL A   1      33.539  26.079  24.210  1.00  0.00    -0.249 OA
BRANCH   3   5
ATOM      5  C   UNL A   1      32.220  26.284  26.254  1.00  0.00     0.228 C 
ATOM      6  C   UNL A   1      30.988  24.279  26.446  1.00  0.00     0.138 C 
ATOM      7  C   UNL A   1      30.082  25.304  25.787  1.00  0.00     0.037 C 
ATOM      8  O   UNL A   1      32.306  24.862  26.473  1.00  0.00    -0.361 OA
ATOM      9  C   UNL A   1      30.748  26.625  26.071  1.00  0.00     0.047 C 
BRANCH   6  10
ATOM     10  C   UNL A   1      31.004  22.867  25.788  1.00  0.00     0.147 C 
BRANCH  10  11
ATOM     11  N   UNL A   1      31.791  22.780  24.559  1.00  0.00    -0.353 N 
ATOM     12  C   UNL A   1      32.921  22.122  24.173  1.00  0.00     0.227 C 
ATOM     13  O   UNL A   1      33.292  22.391  23.024  1.00  0.00    -0.274 OA
ATOM     14  H   UNL A   1      31.413  23.329  23.834  1.00  0.00     0.163 HD
BRANCH  12  15
ATOM     15  C   UNL A   1      33.659  21.069  25.039  1.00  0.00     0.108 C 
BRANCH  15  16
ATOM     16  C   UNL A   1      35.133  21.386  25.356  1.00  0.00     0.015 C 
ATOM     17  C   UNL A   1      35.332  22.648  26.154  1.00  0.00     0.005 C 
ENDBRANCH  15  16
BRANCH  15  18
ATOM     18  C   UNL A   1      33.592  19.667  24.388  1.00  0.00    -0.036 A 
ATOM     19  C   UNL A   1      34.566  18.674  24.626  1.00  0.00     0.004 A 
ATOM     20  C   UNL A   1      32.527  19.348  23.534  1.00  0.00     0.004 A 
ATOM     21  C   UNL A   1      34.437  17.390  24.095  1.00  0.00     0.000 A 
ATOM     22  C   UNL A   1      32.415  18.069  22.980  1.00  0.00     0.000 A 
ATOM     23  C   UNL A   1      33.358  17.086  23.273  1.00  0.00     0.000 A 
ENDBRANCH  15  18
ENDBRANCH  12  15
ENDBRANCH  10  11
ENDBRANCH   6  10
ENDBRANCH   3   5
ENDBRANCH   2   3
ENDBRANCH   1   2
BRANCH   1  24
ATOM     24  C   UNL A   1      32.245  30.089  25.574  1.00  0.00     0.275 C 
BRANCH  24  25
ATOM     25  O   UNL A   1      32.926  30.054  26.833  1.00  0.00    -0.458 OA
BRANCH  25  26
ATOM     26  C   UNL A   1      33.443  31.246  27.210  1.00  0.00     0.338 C 
ATOM     27  O   UNL A   1      32.889  32.327  27.253  1.00  0.00    -0.246 OA
BRANCH  26  28
ATOM     28  C   UNL A   1      34.740  30.973  27.837  1.00  0.00     0.060 A 
ATOM     29  C   UNL A   1      35.017  29.648  28.185  1.00  0.00     0.016 A 
ATOM     30  C   UNL A   1      35.662  31.992  28.070  1.00  0.00     0.016 A 
ATOM     31  C   UNL A   1      36.223  29.331  28.792  1.00  0.00     0.010 A 
ATOM     32  C   UNL A   1      36.869  31.676  28.688  1.00  0.00     0.010 A 
ATOM     33  C   UNL A   1      37.141  30.350  29.069  1.00  0.00    -0.014 A 
BRANCH  33  34
ATOM     34  C   UNL A   1      38.336  30.048  29.880  1.00  0.00     0.031 A 
ATOM     35  C   UNL A   1      39.362  29.111  29.321  1.00  0.00     0.074 A 
ATOM     36  C   UNL A   1      38.493  30.616  31.087  1.00  0.00     0.049 A 
ATOM     37  N   UNL A   1      40.429  28.613  29.888  1.00  0.00    -0.248 NA
ATOM     38  C   UNL A   1      39.153  28.668  27.932  1.00  0.00     0.031 C 
ATOM     39  C   UNL A   1      37.575  31.579  31.693  1.00  0.00     0.029 A 
ATOM     40  N   UNL A   1      39.480  30.453  32.023  1.00  0.00    -0.354 N 
ATOM     41  C   UNL A   1      41.003  27.780  28.937  1.00  0.00     0.074 A 
ATOM     42  C   UNL A   1      40.159  27.823  27.764  1.00  0.00     0.031 C 
ATOM     43  C   UNL A   1      38.039  31.916  32.908  1.00  0.00     0.029 A 
ATOM     44  C   UNL A   1      39.257  31.157  33.178  1.00  0.00     0.049 A 
ATOM     45  H   UNL A   1      40.273  29.886  31.879  1.00  0.00     0.167 HD
ATOM     46  C   UNL A   1      42.138  27.051  29.041  1.00  0.00     0.037 A 
ATOM     47  C   UNL A   1      39.947  31.156  34.333  1.00  0.00     0.037 A 
ATOM     48  C   UNL A   1      42.970  27.031  30.215  1.00  0.00     0.049 A 
ATOM     49  C   UNL A   1      41.173  30.291  34.443  1.00  0.00     0.074 A 
ATOM     50  C   UNL A   1      44.148  26.340  30.428  1.00  0.00     0.029 A 
ATOM     51  N   UNL A   1      42.703  27.740  31.377  1.00  0.00    -0.354 N 
ATOM     52  N   UNL A   1      41.714  29.502  33.545  1.00  0.00    -0.248 NA
ATOM     53  C   UNL A   1      41.882  30.310  35.729  1.00  0.00     0.031 C 
ATOM     54  C   UNL A   1      44.570  26.594  31.737  1.00  0.00     0.029 A 
ATOM     55  C   UNL A   1      43.683  27.485  32.322  1.00  0.00     0.049 A 
ATOM     56  H   UNL A   1      41.931  28.336  31.512  1.00  0.00     0.167 HD
ATOM     57  C   UNL A   1      42.837  28.950  34.145  1.00  0.00     0.074 A 
ATOM     58  C   UNL A   1      42.909  29.509  35.481  1.00  0.00     0.031 C 
ATOM     59  C   UNL A   1      43.728  28.058  33.644  1.00  0.00     0.037 A 
BRANCH  46  60
ATOM     60  C   UNL A   1      42.519  26.193  27.870  1.00  0.00     0.064 A 
ATOM     61  C   UNL A   1      43.424  26.632  26.892  1.00  0.00     0.173 A 
ATOM     62  C   UNL A   1      41.976  24.906  27.730  1.00  0.00     0.173 A 
ATOM     63  F   UNL A   1      43.955  27.862  26.968  1.00  0.00    -0.203 F 
ATOM     64  C   UNL A   1      43.753  25.825  25.806  1.00  0.00     0.198 A 
ATOM     65  C   UNL A   1      42.328  24.091  26.659  1.00  0.00     0.198 A 
ATOM     66  F   UNL A   1      41.103  24.439  28.635  1.00  0.00    -0.203 F 
ATOM     67  F   UNL A   1      44.580  26.285  24.858  1.00  0.00    -0.200 F 
ATOM     68  C   UNL A   1      43.210  24.553  25.693  1.00  0.00     0.200 A 
ATOM     69  F   UNL A   1      41.810  22.859  26.556  1.00  0.00    -0.200 F 
ATOM     70  F   UNL A   1      43.530  23.776  24.649  1.00  0.00    -0.200 F 
ENDBRANCH  46  60
BRANCH  47  71
ATOM     71  C   UNL A   1      39.483  31.984  35.477  1.00  0.00     0.064 A 
ATOM     72  C   UNL A   1      38.552  31.486  36.399  1.00  0.00     0.173 A 
ATOM     73  C   UNL A   1      39.957  33.291  35.671  1.00  0.00     0.173 A 
ATOM     74  F   UNL A   1      38.052  30.251  36.244  1.00  0.00    -0.203 F 
ATOM     75  C   UNL A   1      38.099  32.268  37.460  1.00  0.00     0.198 A 
ATOM     76  C   UNL A   1      39.526  34.062  36.748  1.00  0.00     0.198 A 
ATOM     77  F   UNL A   1      40.847  33.816  34.817  1.00  0.00    -0.203 F 
ATOM     78  F   UNL A   1      37.175  31.783  38.299  1.00  0.00    -0.200 F 
ATOM     79  C   UNL A   1      38.593  33.552  37.637  1.00  0.00     0.200 A 
ATOM     80  F   UNL A   1      40.014  35.297  36.923  1.00  0.00    -0.200 F 
ATOM     81  F   UNL A   1      38.160  34.301  38.660  1.00  0.00    -0.200 F 
ENDBRANCH  47  71
BRANCH  59  82
ATOM     82  C   UNL A   1      44.868  27.660  34.536  1.00  0.00     0.064 A 
ATOM     83  C   UNL A   1      46.061  28.395  34.575  1.00  0.00     0.173 A 
ATOM     84  C   UNL A   1      44.750  26.548  35.383  1.00  0.00     0.173 A 
ATOM     85  F   UNL A   1      46.226  29.457  33.772  1.00  0.00    -0.203 F 
ATOM     86  C   UNL A   1      47.107  28.014  35.410  1.00  0.00     0.198 A 
ATOM     87  C   UNL A   1      45.786  26.189  36.240  1.00  0.00     0.198 A 
ATOM     88  F   UNL A   1      43.625  25.817  35.388  1.00  0.00    -0.203 F 
ATOM     89  F   UNL A   1      48.258  28.699  35.393  1.00  0.00    -0.200 F 
ATOM     90  C   UNL A   1      46.966  26.916  36.246  1.00  0.00     0.200 A 
ATOM     91  F   UNL A   1      45.643  25.136  37.057  1.00  0.00    -0.200 F 
ATOM     92  F   UNL A   1      47.972  26.553  37.053  1.00  0.00    -0.200 F 
ENDBRANCH  59  82
ENDBRANCH  33  34
ENDBRANCH  26  28
ENDBRANCH  25  26
ENDBRANCH  24  25
ENDBRANCH   1  24
TORSDOF 16
ENDMDL
MODEL 3
REMARK VINA RESULT:     -11.1      1.218      2.549
REMARK SMILES CC[C@@H](C(=O)NC[C@@H]1CC[C@H](C(=O)OCCOC(=O)c2ccc(-c3c4nc(c(-c5c(F)c(F)c(F)c(F)c5F)c5ccc([nH]5)c(-c5c(F)c(F)c(F)c(F)c5F)c5nc(c(-c6c(F)c(F)c(F)c(F)c6F)c6ccc3[nH]6)C=C5)C=C4)cc2)O1)c1ccccc1
REMARK SMILES IDX 15 1 14 2 12 3 13 4 11 5 8 6 9 7 83 8 10 9 7 10 6 11 4 12
REMARK SMILES IDX 5 13 3 15 2 16 1 17 84 18 85 19 89 20 86 21 88 22 87 23
REMARK SMILES IDX 16 24 17 25 18 26 19 27 20 28 21 29 82 30 22 31 81 32 23 33
REMARK SMILES IDX 24 34 25 35 75 36 26 37 80 38 74 39 76 40 27 41 79 42 73 43
REMARK SMILES IDX 72 44 28 46 60 47 40 48 59 49 41 50 44 51 58 52 77 53 42 54
REMARK SMILES IDX 43 55 57 57 78 58 45 59 29 60 30 61 38 62 31 63 32 64 36 65
REMARK SMILES IDX 39 66 33 67 34 68 37 69 35 70 61 71 62 72 70 73 63 74 64 75
REMARK SMILES IDX 68 76 71 77 65 78 66 79 69 80 67 81 46 82 47 83 55 84 48 85
REMARK SMILES IDX 49 86 53 87 56 88 50 89 51 90 54 91 52 92
REMARK H PARENT 6 14 76 45 44 56
REMARK Flexibility Score: inf
ROOT
ATOM      1  C   UNL A   1      32.614  29.610  24.672  1.00  0.00     0.274 C 
ENDROOT
BRANCH   1   2
ATOM      2  O   UNL A   1      33.438  28.529  25.175  1.00  0.00    -0.460 OA
BRANCH   2   3
ATOM      3  C   UNL A   1      33.090  27.260  24.813  1.00  0.00     0.335 C 
ATOM      4  O   UNL A   1      33.245  26.805  23.684  1.00  0.00    -0.249 OA
BRANCH   3   5
ATOM      5  C   UNL A   1      32.418  26.450  25.953  1.00  0.00     0.228 C 
ATOM      6  C   UNL A   1      31.202  24.426  25.915  1.00  0.00     0.138 C 
ATOM      7  C   UNL A   1      30.195  25.559  25.838  1.00  0.00     0.037 C 
ATOM      8  O   UNL A   1      32.501  25.027  25.739  1.00  0.00    -0.361 OA
ATOM      9  C   UNL A   1      30.968  26.774  26.281  1.00  0.00     0.047 C 
BRANCH   6  10
ATOM     10  C   UNL A   1      30.979  23.252  24.915  1.00  0.00     0.147 C 
BRANCH  10  11
ATOM     11  N   UNL A   1      32.021  23.114  23.900  1.00  0.00    -0.353 N 
ATOM     12  C   UNL A   1      33.187  22.415  23.792  1.00  0.00     0.227 C 
ATOM     13  O   UNL A   1      33.817  22.646  22.754  1.00  0.00    -0.274 OA
ATOM     14  H   UNL A   1      31.836  23.658  23.099  1.00  0.00     0.163 HD
BRANCH  12  15
ATOM     15  C   UNL A   1      33.672  21.361  24.820  1.00  0.00     0.108 C 
BRANCH  15  16
ATOM     16  C   UNL A   1      35.117  21.543  25.325  1.00  0.00     0.015 C 
ATOM     17  C   UNL A   1      35.300  22.718  26.249  1.00  0.00     0.005 C 
ENDBRANCH  15  16
BRANCH  15  18
ATOM     18  C   UNL A   1      33.532  19.927  24.255  1.00  0.00    -0.036 A 
ATOM     19  C   UNL A   1      34.395  18.877  24.632  1.00  0.00     0.004 A 
ATOM     20  C   UNL A   1      32.509  19.637  23.340  1.00  0.00     0.004 A 
ATOM     21  C   UNL A   1      34.195  17.574  24.175  1.00  0.00     0.000 A 
ATOM     22  C   UNL A   1      32.328  18.336  22.861  1.00  0.00     0.000 A 
ATOM     23  C   UNL A   1      33.158  17.302  23.290  1.00  0.00     0.000 A 
ENDBRANCH  15  18
ENDBRANCH  12  15
ENDBRANCH  10  11
ENDBRANCH   6  10
ENDBRANCH   3   5
ENDBRANCH   2   3
ENDBRANCH   1   2
BRANCH   1  24
ATOM     24  C   UNL A   1      31.901  30.340  25.813  1.00  0.00     0.275 C 
BRANCH  24  25
ATOM     25  O   UNL A   1      32.733  30.315  26.979  1.00  0.00    -0.458 OA
BRANCH  25  26
ATOM     26  C   UNL A   1      33.323  31.500  27.258  1.00  0.00     0.338 C 
ATOM     27  O   UNL A   1      32.828  32.610  27.238  1.00  0.00    -0.246 OA
BRANCH  26  28
ATOM     28  C   UNL A   1      34.622  31.201  27.869  1.00  0.00     0.060 A 
ATOM     29  C   UNL A   1      34.839  29.889  28.302  1.00  0.00     0.016 A 
ATOM     30  C   UNL A   1      35.603  32.181  28.006  1.00  0.00     0.016 A 
ATOM     31  C   UNL A   1      36.044  29.550  28.898  1.00  0.00     0.010 A 
ATOM     32  C   UNL A   1      36.809  31.843  28.613  1.00  0.00     0.010 A 
ATOM     33  C   UNL A   1      37.022  30.533  29.079  1.00  0.00    -0.014 A 
BRANCH  33  34
ATOM     34  C   UNL A   1      38.223  30.224  29.879  1.00  0.00     0.031 A 
ATOM     35  C   UNL A   1      39.241  29.287  29.306  1.00  0.00     0.074 A 
ATOM     36  C   UNL A   1      38.391  30.784  31.088  1.00  0.00     0.049 A 
ATOM     37  N   UNL A   1      40.311  28.783  29.861  1.00  0.00    -0.248 NA
ATOM     38  C   UNL A   1      39.019  28.853  27.916  1.00  0.00     0.031 C 
ATOM     39  C   UNL A   1      37.481  31.746  31.707  1.00  0.00     0.029 A 
ATOM     40  N   UNL A   1      39.385  30.613  32.014  1.00  0.00    -0.354 N 
ATOM     41  C   UNL A   1      40.875  27.954  28.900  1.00  0.00     0.074 A 
ATOM     42  C   UNL A   1      40.022  28.006  27.734  1.00  0.00     0.031 C 
ATOM     43  C   UNL A   1      37.956  32.075  32.920  1.00  0.00     0.029 A 
ATOM     44  C   UNL A   1      39.174  31.311  33.176  1.00  0.00     0.049 A 
ATOM     45  H   UNL A   1      40.175  30.045  31.861  1.00  0.00     0.167 HD
ATOM     46  C   UNL A   1      42.009  27.221  28.991  1.00  0.00     0.037 A 
ATOM     47  C   UNL A   1      39.873  31.301  34.325  1.00  0.00     0.037 A 
ATOM     48  C   UNL A   1      42.851  27.192  30.157  1.00  0.00     0.049 A 
ATOM     49  C   UNL A   1      41.098  30.431  34.419  1.00  0.00     0.074 A 
ATOM     50  C   UNL A   1      44.028  26.496  30.356  1.00  0.00     0.029 A 
ATOM     51  N   UNL A   1      42.595  27.895  31.326  1.00  0.00    -0.354 N 
ATOM     52  N   UNL A   1      41.630  29.647  33.512  1.00  0.00    -0.248 NA
ATOM     53  C   UNL A   1      41.818  30.441  35.699  1.00  0.00     0.031 C 
ATOM     54  C   UNL A   1      44.462  26.741  31.664  1.00  0.00     0.029 A 
ATOM     55  C   UNL A   1      43.582  27.631  32.261  1.00  0.00     0.049 A 
ATOM     56  H   UNL A   1      41.826  28.492  31.471  1.00  0.00     0.167 HD
ATOM     57  C   UNL A   1      42.755  29.088  34.100  1.00  0.00     0.074 A 
ATOM     58  C   UNL A   1      42.840  29.639  35.438  1.00  0.00     0.031 C 
ATOM     59  C   UNL A   1      43.640  28.196  33.586  1.00  0.00     0.037 A 
BRANCH  46  60
ATOM     60  C   UNL A   1      42.378  26.368  27.811  1.00  0.00     0.064 A 
ATOM     61  C   UNL A   1      41.825  25.094  27.617  1.00  0.00     0.173 A 
ATOM     62  C   UNL A   1      43.291  26.840  26.856  1.00  0.00     0.173 A 
ATOM     63  F   UNL A   1      40.962  24.588  28.511  1.00  0.00    -0.203 F 
ATOM     64  C   UNL A   1      42.192  24.314  26.523  1.00  0.00     0.198 A 
ATOM     65  C   UNL A   1      43.634  26.070  25.749  1.00  0.00     0.198 A 
ATOM     66  F   UNL A   1      43.852  28.051  26.997  1.00  0.00    -0.203 F 
ATOM     67  F   UNL A   1      41.689  23.079  26.384  1.00  0.00    -0.200 F 
ATOM     68  C   UNL A   1      43.090  24.804  25.587  1.00  0.00     0.200 A 
ATOM     69  F   UNL A   1      44.496  26.549  24.841  1.00  0.00    -0.200 F 
ATOM     70  F   UNL A   1      43.440  24.054  24.533  1.00  0.00    -0.200 F 
ENDBRANCH  46  60
BRANCH  47  71
ATOM     71  C   UNL A   1      39.422  32.124  35.477  1.00  0.00     0.064 A 
ATOM     72  C   UNL A   1      38.555  31.597  36.445  1.00  0.00     0.173 A 
ATOM     73  C   UNL A   1      39.842  33.453  35.634  1.00  0.00     0.173 A 
ATOM     74  F   UNL A   1      38.107  30.338  36.328  1.00  0.00    -0.203 F 
ATOM     75  C   UNL A   1      38.113  32.373  37.515  1.00  0.00     0.198 A 
ATOM     76  C   UNL A   1      39.422  34.219  36.719  1.00  0.00     0.198 A 
ATOM     77  F   UNL A   1      40.669  34.006  34.735  1.00  0.00    -0.203 F 
ATOM     78  F   UNL A   1      37.250  31.858  38.401  1.00  0.00    -0.200 F 
ATOM     79  C   UNL A   1      38.554  33.680  37.655  1.00  0.00     0.200 A 
ATOM     80  F   UNL A   1      39.859  35.478  36.857  1.00  0.00    -0.200 F 
ATOM     81  F   UNL A   1      38.131  34.424  38.686  1.00  0.00    -0.200 F 
ENDBRANCH  47  71
BRANCH  59  82
ATOM     82  C   UNL A   1      44.786  27.790  34.466  1.00  0.00     0.064 A 
ATOM     83  C   UNL A   1      44.710  26.664  35.298  1.00  0.00     0.173 A 
ATOM     84  C   UNL A   1      45.984  28.520  34.451  1.00  0.00     0.173 A 
ATOM     85  F   UNL A   1      43.580  25.943  35.357  1.00  0.00    -0.203 F 
ATOM     86  C   UNL A   1      45.783  26.299  36.105  1.00  0.00     0.198 A 
ATOM     87  C   UNL A   1      47.066  28.133  35.236  1.00  0.00     0.198 A 
ATOM     88  F   UNL A   1      46.109  29.600  33.667  1.00  0.00    -0.203 F 
ATOM     89  F   UNL A   1      45.671  25.250  36.931  1.00  0.00    -0.200 F 
ATOM     90  C   UNL A   1      46.963  27.029  36.068  1.00  0.00     0.200 A 
ATOM     91  F   UNL A   1      48.209  28.832  35.190  1.00  0.00    -0.200 F 
ATOM     92  F   UNL A   1      47.997  26.674  36.843  1.00  0.00    -0.200 F 
ENDBRANCH  59  82
ENDBRANCH  33  34
ENDBRANCH  26  28
ENDBRANCH  25  26
ENDBRANCH  24  25
ENDBRANCH   1  24
TORSDOF 16
ENDMDL
