MODEL 1
REMARK VINA RESULT:     -11.4      0.000      0.000
REMARK SMILES O=C(COc1ccnc(NCc2ccc(Br)cc2)n1)OCCOC(=O)c1ccc(-c2c3nc(c(-c4c(F)c(F)c(F)c(F)c4F)c4ccc([nH]4)c(-c4c(F)c(F)c(F)c(F)c4F)c4nc(c(-c5c(F)c(F)c(F)c(F)c5F)c5ccc2[nH]5)C=C4)C=C3)cc1
REMARK SMILES IDX 20 1 2 2 1 3 3 4 4 5 5 6 6 7 19 8 7 9 9 10 8 11 10 12 11 14
REMARK SMILES IDX 12 15 13 16 18 17 14 18 17 19 15 20 16 21 21 22 22 23 23 24
REMARK SMILES IDX 24 25 25 26 26 27 27 28 88 29 28 30 87 31 29 32 30 33 31 34
REMARK SMILES IDX 81 35 32 36 86 37 80 38 82 39 33 40 85 41 79 42 78 43 34 45
REMARK SMILES IDX 66 46 46 47 65 48 47 49 50 50 64 51 83 52 48 53 49 54 63 56
REMARK SMILES IDX 84 57 51 58 35 59 36 60 44 61 37 62 38 63 42 64 45 65 39 66
REMARK SMILES IDX 40 67 43 68 41 69 67 70 68 71 76 72 69 73 70 74 74 75 77 76
REMARK SMILES IDX 71 77 72 78 75 79 73 80 52 81 53 82 61 83 54 84 55 85 59 86
REMARK SMILES IDX 62 87 56 88 57 89 60 90 58 91
REMARK H PARENT 10 13 82 44 50 55
REMARK Flexibility Score: inf
ROOT
ATOM      1  O   UNL A   1      34.519  36.514  33.242  1.00  0.00    -0.460 OA
ENDROOT
BRANCH   1   2
ATOM      2  C   UNL A   1      33.475  37.108  32.615  1.00  0.00     0.344 C 
ATOM      3  O   UNL A   1      33.413  38.332  32.522  1.00  0.00    -0.248 OA
BRANCH   2   4
ATOM      4  C   UNL A   1      32.433  36.223  31.957  1.00  0.00     0.353 C 
BRANCH   4   5
ATOM      5  O   UNL A   1      32.151  36.691  30.643  1.00  0.00    -0.466 OA
BRANCH   5   6
ATOM      6  C   UNL A   1      32.998  36.082  29.754  1.00  0.00     0.218 A 
ATOM      7  C   UNL A   1      33.620  36.822  28.776  1.00  0.00     0.088 A 
ATOM      8  N   UNL A   1      33.157  34.763  29.936  1.00  0.00    -0.177 NA
ATOM      9  C   UNL A   1      34.406  36.096  27.928  1.00  0.00     0.121 A 
ATOM     10  C   UNL A   1      33.986  34.158  29.086  1.00  0.00     0.226 A 
ATOM     11  N   UNL A   1      34.602  34.776  28.066  1.00  0.00    -0.221 NA
BRANCH  10  12
ATOM     12  N   UNL A   1      34.296  32.842  29.210  1.00  0.00    -0.350 N 
ATOM     13  H   UNL A   1      33.929  32.365  29.990  1.00  0.00     0.164 HD
BRANCH  12  14
ATOM     14  C   UNL A   1      35.116  32.083  28.302  1.00  0.00     0.152 C 
BRANCH  14  15
ATOM     15  C   UNL A   1      34.266  30.955  27.759  1.00  0.00    -0.029 A 
ATOM     16  C   UNL A   1      32.993  31.206  27.240  1.00  0.00     0.007 A 
ATOM     17  C   UNL A   1      34.810  29.663  27.643  1.00  0.00     0.007 A 
ATOM     18  C   UNL A   1      32.357  30.225  26.485  1.00  0.00     0.016 A 
ATOM     19  C   UNL A   1      34.199  28.711  26.839  1.00  0.00     0.016 A 
ATOM     20  C   UNL A   1      33.008  29.026  26.207  1.00  0.00     0.017 A 
ATOM     21  Br  UNL A   1      32.391  27.876  24.847  1.00  0.00    -0.051 Br
ENDBRANCH  14  15
ENDBRANCH  12  14
ENDBRANCH  10  12
ENDBRANCH   5   6
ENDBRANCH   4   5
ENDBRANCH   2   4
ENDBRANCH   1   2
BRANCH   1  22
ATOM     22  C   UNL A   1      34.712  35.084  33.289  1.00  0.00     0.274 C 
BRANCH  22  23
ATOM     23  C   UNL A   1      36.148  34.724  32.901  1.00  0.00     0.275 C 
BRANCH  23  24
ATOM     24  O   UNL A   1      36.486  33.410  33.389  1.00  0.00    -0.458 OA
BRANCH  24  25
ATOM     25  C   UNL A   1      36.297  32.385  32.517  1.00  0.00     0.338 C 
ATOM     26  O   UNL A   1      35.239  31.898  32.181  1.00  0.00    -0.246 OA
BRANCH  25  27
ATOM     27  C   UNL A   1      37.595  32.042  31.894  1.00  0.00     0.060 A 
ATOM     28  C   UNL A   1      37.739  32.190  30.507  1.00  0.00     0.016 A 
ATOM     29  C   UNL A   1      38.657  31.557  32.661  1.00  0.00     0.016 A 
ATOM     30  C   UNL A   1      38.935  31.821  29.881  1.00  0.00     0.010 A 
ATOM     31  C   UNL A   1      39.848  31.182  32.033  1.00  0.00     0.010 A 
ATOM     32  C   UNL A   1      39.986  31.285  30.635  1.00  0.00    -0.014 A 
BRANCH  32  33
ATOM     33  C   UNL A   1      41.177  30.676  29.989  1.00  0.00     0.031 A 
ATOM     34  C   UNL A   1      42.339  31.558  29.635  1.00  0.00     0.074 A 
ATOM     35  C   UNL A   1      41.228  29.372  29.667  1.00  0.00     0.049 A 
ATOM     36  N   UNL A   1      43.415  31.275  28.946  1.00  0.00    -0.248 NA
ATOM     37  C   UNL A   1      42.285  32.939  30.136  1.00  0.00     0.031 C 
ATOM     38  C   UNL A   1      40.235  28.372  30.036  1.00  0.00     0.029 A 
ATOM     39  N   UNL A   1      42.158  28.673  28.931  1.00  0.00    -0.354 N 
ATOM     40  C   UNL A   1      44.173  32.435  28.940  1.00  0.00     0.074 A 
ATOM     41  C   UNL A   1      43.414  33.440  29.659  1.00  0.00     0.031 C 
ATOM     42  C   UNL A   1      40.584  27.203  29.473  1.00  0.00     0.029 A 
ATOM     43  C   UNL A   1      41.769  27.387  28.648  1.00  0.00     0.049 A 
ATOM     44  H   UNL A   1      43.017  29.056  28.637  1.00  0.00     0.167 HD
ATOM     45  C   UNL A   1      45.396  32.642  28.401  1.00  0.00     0.037 A 
ATOM     46  C   UNL A   1      42.276  26.486  27.782  1.00  0.00     0.037 A 
ATOM     47  C   UNL A   1      46.159  31.654  27.688  1.00  0.00     0.049 A 
ATOM     48  C   UNL A   1      43.557  26.794  27.057  1.00  0.00     0.074 A 
ATOM     49  C   UNL A   1      47.439  31.757  27.169  1.00  0.00     0.029 A 
ATOM     50  N   UNL A   1      45.704  30.383  27.375  1.00  0.00    -0.354 N 
ATOM     51  N   UNL A   1      44.305  27.866  27.121  1.00  0.00    -0.248 NA
ATOM     52  C   UNL A   1      44.085  25.749  26.164  1.00  0.00     0.031 C 
ATOM     53  C   UNL A   1      47.735  30.571  26.490  1.00  0.00     0.029 A 
ATOM     54  C   UNL A   1      46.658  29.712  26.625  1.00  0.00     0.049 A 
ATOM     55  H   UNL A   1      44.834  30.012  27.645  1.00  0.00     0.167 HD
ATOM     56  C   UNL A   1      45.415  27.600  26.333  1.00  0.00     0.074 A 
ATOM     57  C   UNL A   1      45.242  26.272  25.789  1.00  0.00     0.031 C 
ATOM     58  C   UNL A   1      46.493  28.385  26.099  1.00  0.00     0.037 A 
BRANCH  45  59
ATOM     59  C   UNL A   1      45.975  34.015  28.541  1.00  0.00     0.064 A 
ATOM     60  C   UNL A   1      46.774  34.369  29.638  1.00  0.00     0.173 A 
ATOM     61  C   UNL A   1      45.733  34.983  27.557  1.00  0.00     0.173 A 
ATOM     62  F   UNL A   1      47.018  33.479  30.610  1.00  0.00    -0.203 F 
ATOM     63  C   UNL A   1      47.286  35.657  29.759  1.00  0.00     0.198 A 
ATOM     64  C   UNL A   1      46.267  36.262  27.669  1.00  0.00     0.198 A 
ATOM     65  F   UNL A   1      44.975  34.689  26.490  1.00  0.00    -0.203 F 
ATOM     66  F   UNL A   1      48.005  35.991  30.839  1.00  0.00    -0.200 F 
ATOM     67  C   UNL A   1      47.036  36.600  28.773  1.00  0.00     0.200 A 
ATOM     68  F   UNL A   1      46.030  37.172  26.714  1.00  0.00    -0.200 F 
ATOM     69  F   UNL A   1      47.527  37.842  28.893  1.00  0.00    -0.200 F 
ENDBRANCH  45  59
BRANCH  46  70
ATOM     70  C   UNL A   1      41.557  25.223  27.462  1.00  0.00     0.064 A 
ATOM     71  C   UNL A   1      40.413  25.216  26.653  1.00  0.00     0.173 A 
ATOM     72  C   UNL A   1      41.919  24.019  28.086  1.00  0.00     0.173 A 
ATOM     73  F   UNL A   1      40.007  26.349  26.061  1.00  0.00    -0.203 F 
ATOM     74  C   UNL A   1      39.645  24.061  26.501  1.00  0.00     0.198 A 
ATOM     75  C   UNL A   1      41.175  22.855  27.898  1.00  0.00     0.198 A 
ATOM     76  F   UNL A   1      42.990  23.977  28.893  1.00  0.00    -0.203 F 
ATOM     77  F   UNL A   1      38.531  24.094  25.755  1.00  0.00    -0.200 F 
ATOM     78  C   UNL A   1      40.036  22.877  27.109  1.00  0.00     0.200 A 
ATOM     79  F   UNL A   1      41.556  21.717  28.493  1.00  0.00    -0.200 F 
ATOM     80  F   UNL A   1      39.314  21.762  26.936  1.00  0.00    -0.200 F 
ENDBRANCH  46  70
BRANCH  58  81
ATOM     81  C   UNL A   1      47.597  27.799  25.274  1.00  0.00     0.064 A 
ATOM     82  C   UNL A   1      48.720  27.198  25.860  1.00  0.00     0.173 A 
ATOM     83  C   UNL A   1      47.527  27.839  23.873  1.00  0.00     0.173 A 
ATOM     84  F   UNL A   1      48.847  27.163  27.195  1.00  0.00    -0.203 F 
ATOM     85  C   UNL A   1      49.743  26.677  25.073  1.00  0.00     0.198 A 
ATOM     86  C   UNL A   1      48.539  27.292  23.090  1.00  0.00     0.198 A 
ATOM     87  F   UNL A   1      46.476  28.409  23.265  1.00  0.00    -0.203 F 
ATOM     88  F   UNL A   1      50.831  26.151  25.654  1.00  0.00    -0.200 F 
ATOM     89  C   UNL A   1      49.649  26.717  23.690  1.00  0.00     0.200 A 
ATOM     90  F   UNL A   1      48.443  27.327  21.753  1.00  0.00    -0.200 F 
ATOM     91  F   UNL A   1      50.633  26.211  22.935  1.00  0.00    -0.200 F 
ENDBRANCH  58  81
ENDBRANCH  32  33
ENDBRANCH  25  27
ENDBRANCH  24  25
ENDBRANCH  23  24
ENDBRANCH  22  23
ENDBRANCH   1  22
TORSDOF 16
ENDMDL
MODEL 2
REMARK VINA RESULT:     -11.3      6.651     11.685
REMARK SMILES O=C(COc1ccnc(NCc2ccc(Br)cc2)n1)OCCOC(=O)c1ccc(-c2c3nc(c(-c4c(F)c(F)c(F)c(F)c4F)c4ccc([nH]4)c(-c4c(F)c(F)c(F)c(F)c4F)c4nc(c(-c5c(F)c(F)c(F)c(F)c5F)c5ccc2[nH]5)C=C4)C=C3)cc1
REMARK SMILES IDX 20 1 2 2 1 3 3 4 4 5 5 6 6 7 19 8 7 9 9 10 8 11 10 12 11 14
REMARK SMILES IDX 12 15 13 16 18 17 14 18 17 19 15 20 16 21 21 22 22 23 23 24
REMARK SMILES IDX 24 25 25 26 26 27 27 28 88 29 28 30 87 31 29 32 30 33 31 34
REMARK SMILES IDX 81 35 32 36 86 37 80 38 82 39 33 40 85 41 79 42 78 43 34 45
REMARK SMILES IDX 66 46 46 47 65 48 47 49 50 50 64 51 83 52 48 53 49 54 63 56
REMARK SMILES IDX 84 57 51 58 35 59 36 60 44 61 37 62 38 63 42 64 45 65 39 66
REMARK SMILES IDX 40 67 43 68 41 69 67 70 68 71 76 72 69 73 70 74 74 75 77 76
REMARK SMILES IDX 71 77 72 78 75 79 73 80 52 81 53 82 61 83 54 84 55 85 59 86
REMARK SMILES IDX 62 87 56 88 57 89 60 90 58 91
REMARK H PARENT 10 13 82 44 50 55
REMARK Flexibility Score: inf
ROOT
ATOM      1  O   UNL A   1      40.567  20.753  26.515  1.00  0.00    -0.460 OA
ENDROOT
BRANCH   1   2
ATOM      2  C   UNL A   1      39.445  20.481  25.806  1.00  0.00     0.344 C 
ATOM      3  O   UNL A   1      39.237  19.349  25.371  1.00  0.00    -0.248 OA
BRANCH   2   4
ATOM      4  C   UNL A   1      38.413  21.581  25.639  1.00  0.00     0.353 C 
BRANCH   4   5
ATOM      5  O   UNL A   1      37.665  21.375  24.446  1.00  0.00    -0.466 OA
BRANCH   5   6
ATOM      6  C   UNL A   1      36.326  21.414  24.740  1.00  0.00     0.218 A 
ATOM      7  C   UNL A   1      35.636  20.248  24.969  1.00  0.00     0.088 A 
ATOM      8  N   UNL A   1      35.794  22.644  24.789  1.00  0.00    -0.177 NA
ATOM      9  C   UNL A   1      34.302  20.416  25.211  1.00  0.00     0.121 A 
ATOM     10  C   UNL A   1      34.495  22.701  25.082  1.00  0.00     0.226 A 
ATOM     11  N   UNL A   1      33.718  21.622  25.273  1.00  0.00    -0.221 NA
BRANCH  10  12
ATOM     12  N   UNL A   1      33.853  23.886  25.242  1.00  0.00    -0.350 N 
ATOM     13  H   UNL A   1      32.888  23.906  25.044  1.00  0.00     0.164 HD
BRANCH  12  14
ATOM     14  C   UNL A   1      34.460  25.118  25.673  1.00  0.00     0.152 C 
BRANCH  14  15
ATOM     15  C   UNL A   1      33.544  26.246  25.250  1.00  0.00    -0.029 A 
ATOM     16  C   UNL A   1      33.739  26.906  24.034  1.00  0.00     0.007 A 
ATOM     17  C   UNL A   1      32.401  26.544  26.014  1.00  0.00     0.007 A 
ATOM     18  C   UNL A   1      32.731  27.722  23.530  1.00  0.00     0.016 A 
ATOM     19  C   UNL A   1      31.374  27.309  25.478  1.00  0.00     0.016 A 
ATOM     20  C   UNL A   1      31.519  27.836  24.206  1.00  0.00     0.017 A 
ATOM     21  Br  UNL A   1      29.994  28.550  23.359  1.00  0.00    -0.051 Br
ENDBRANCH  14  15
ENDBRANCH  12  14
ENDBRANCH  10  12
ENDBRANCH   5   6
ENDBRANCH   4   5
ENDBRANCH   2   4
ENDBRANCH   1   2
BRANCH   1  22
ATOM     22  C   UNL A   1      41.796  20.008  26.379  1.00  0.00     0.274 C 
BRANCH  22  23
ATOM     23  C   UNL A   1      42.888  20.883  25.760  1.00  0.00     0.275 C 
BRANCH  23  24
ATOM     24  O   UNL A   1      42.313  22.077  25.192  1.00  0.00    -0.458 OA
BRANCH  24  25
ATOM     25  C   UNL A   1      43.158  23.131  25.043  1.00  0.00     0.338 C 
ATOM     26  O   UNL A   1      44.076  23.225  24.256  1.00  0.00    -0.246 OA
BRANCH  25  27
ATOM     27  C   UNL A   1      42.685  24.248  25.892  1.00  0.00     0.060 A 
ATOM     28  C   UNL A   1      43.366  25.472  25.839  1.00  0.00     0.016 A 
ATOM     29  C   UNL A   1      41.594  24.089  26.749  1.00  0.00     0.016 A 
ATOM     30  C   UNL A   1      42.978  26.530  26.670  1.00  0.00     0.010 A 
ATOM     31  C   UNL A   1      41.213  25.143  27.584  1.00  0.00     0.010 A 
ATOM     32  C   UNL A   1      41.919  26.362  27.571  1.00  0.00    -0.014 A 
BRANCH  32  33
ATOM     33  C   UNL A   1      41.621  27.371  28.620  1.00  0.00     0.031 A 
ATOM     34  C   UNL A   1      42.351  27.292  29.928  1.00  0.00     0.074 A 
ATOM     35  C   UNL A   1      40.685  28.321  28.453  1.00  0.00     0.049 A 
ATOM     36  N   UNL A   1      42.155  27.972  31.029  1.00  0.00    -0.248 NA
ATOM     37  C   UNL A   1      43.457  26.326  30.000  1.00  0.00     0.031 C 
ATOM     38  C   UNL A   1      39.970  28.593  27.212  1.00  0.00     0.029 A 
ATOM     39  N   UNL A   1      40.162  29.222  29.353  1.00  0.00    -0.354 N 
ATOM     40  C   UNL A   1      43.119  27.528  31.921  1.00  0.00     0.074 A 
ATOM     41  C   UNL A   1      43.873  26.489  31.248  1.00  0.00     0.031 C 
ATOM     42  C   UNL A   1      39.064  29.555  27.451  1.00  0.00     0.029 A 
ATOM     43  C   UNL A   1      39.077  29.908  28.864  1.00  0.00     0.049 A 
ATOM     44  H   UNL A   1      40.528  29.362  30.256  1.00  0.00     0.167 HD
ATOM     45  C   UNL A   1      43.366  27.957  33.180  1.00  0.00     0.037 A 
ATOM     46  C   UNL A   1      38.170  30.683  29.492  1.00  0.00     0.037 A 
ATOM     47  C   UNL A   1      42.628  28.989  33.858  1.00  0.00     0.049 A 
ATOM     48  C   UNL A   1      38.366  31.022  30.946  1.00  0.00     0.074 A 
ATOM     49  C   UNL A   1      42.856  29.534  35.110  1.00  0.00     0.029 A 
ATOM     50  N   UNL A   1      41.503  29.616  33.348  1.00  0.00    -0.354 N 
ATOM     51  N   UNL A   1      39.326  30.657  31.756  1.00  0.00    -0.248 NA
ATOM     52  C   UNL A   1      37.368  31.912  31.561  1.00  0.00     0.031 C 
ATOM     53  C   UNL A   1      41.834  30.450  35.383  1.00  0.00     0.029 A 
ATOM     54  C   UNL A   1      40.996  30.506  34.282  1.00  0.00     0.049 A 
ATOM     55  H   UNL A   1      41.121  29.454  32.456  1.00  0.00     0.167 HD
ATOM     56  C   UNL A   1      39.084  31.319  32.950  1.00  0.00     0.074 A 
ATOM     57  C   UNL A   1      37.881  32.100  32.767  1.00  0.00     0.031 C 
ATOM     58  C   UNL A   1      39.810  31.296  34.092  1.00  0.00     0.037 A 
BRANCH  45  59
ATOM     59  C   UNL A   1      44.477  27.281  33.920  1.00  0.00     0.064 A 
ATOM     60  C   UNL A   1      44.253  26.133  34.695  1.00  0.00     0.173 A 
ATOM     61  C   UNL A   1      45.782  27.784  33.843  1.00  0.00     0.173 A 
ATOM     62  F   UNL A   1      43.018  25.626  34.810  1.00  0.00    -0.203 F 
ATOM     63  C   UNL A   1      45.297  25.530  35.392  1.00  0.00     0.198 A 
ATOM     64  C   UNL A   1      46.827  27.165  34.521  1.00  0.00     0.198 A 
ATOM     65  F   UNL A   1      46.043  28.880  33.114  1.00  0.00    -0.203 F 
ATOM     66  F   UNL A   1      45.054  24.465  36.167  1.00  0.00    -0.200 F 
ATOM     67  C   UNL A   1      46.582  26.045  35.301  1.00  0.00     0.200 A 
ATOM     68  F   UNL A   1      48.070  27.659  34.428  1.00  0.00    -0.200 F 
ATOM     69  F   UNL A   1      47.585  25.466  35.975  1.00  0.00    -0.200 F 
ENDBRANCH  45  59
BRANCH  46  70
ATOM     70  C   UNL A   1      36.933  31.146  28.808  1.00  0.00     0.064 A 
ATOM     71  C   UNL A   1      36.731  32.497  28.496  1.00  0.00     0.173 A 
ATOM     72  C   UNL A   1      35.866  30.261  28.591  1.00  0.00     0.173 A 
ATOM     73  F   UNL A   1      37.708  33.387  28.717  1.00  0.00    -0.203 F 
ATOM     74  C   UNL A   1      35.501  32.949  28.017  1.00  0.00     0.198 A 
ATOM     75  C   UNL A   1      34.651  30.707  28.070  1.00  0.00     0.198 A 
ATOM     76  F   UNL A   1      35.998  28.962  28.898  1.00  0.00    -0.203 F 
ATOM     77  F   UNL A   1      35.320  34.254  27.768  1.00  0.00    -0.200 F 
ATOM     78  C   UNL A   1      34.468  32.052  27.788  1.00  0.00     0.200 A 
ATOM     79  F   UNL A   1      33.657  29.836  27.857  1.00  0.00    -0.200 F 
ATOM     80  F   UNL A   1      33.298  32.483  27.299  1.00  0.00    -0.200 F 
ENDBRANCH  46  70
BRANCH  58  81
ATOM     81  C   UNL A   1      39.360  32.191  35.206  1.00  0.00     0.064 A 
ATOM     82  C   UNL A   1      39.701  33.551  35.246  1.00  0.00     0.173 A 
ATOM     83  C   UNL A   1      38.573  31.678  36.248  1.00  0.00     0.173 A 
ATOM     84  F   UNL A   1      40.478  34.079  34.289  1.00  0.00    -0.203 F 
ATOM     85  C   UNL A   1      39.287  34.359  36.301  1.00  0.00     0.198 A 
ATOM     86  C   UNL A   1      38.138  32.497  37.286  1.00  0.00     0.198 A 
ATOM     87  F   UNL A   1      38.226  30.383  36.259  1.00  0.00    -0.203 F 
ATOM     88  F   UNL A   1      39.666  35.644  36.345  1.00  0.00    -0.200 F 
ATOM     89  C   UNL A   1      38.501  33.835  37.315  1.00  0.00     0.200 A 
ATOM     90  F   UNL A   1      37.373  31.989  38.262  1.00  0.00    -0.200 F 
ATOM     91  F   UNL A   1      38.100  34.617  38.327  1.00  0.00    -0.200 F 
ENDBRANCH  58  81
ENDBRANCH  32  33
ENDBRANCH  25  27
ENDBRANCH  24  25
ENDBRANCH  23  24
ENDBRANCH  22  23
ENDBRANCH   1  22
TORSDOF 16
ENDMDL
MODEL 3
REMARK VINA RESULT:     -11.1      5.697     11.895
REMARK SMILES O=C(COc1ccnc(NCc2ccc(Br)cc2)n1)OCCOC(=O)c1ccc(-c2c3nc(c(-c4c(F)c(F)c(F)c(F)c4F)c4ccc([nH]4)c(-c4c(F)c(F)c(F)c(F)c4F)c4nc(c(-c5c(F)c(F)c(F)c(F)c5F)c5ccc2[nH]5)C=C4)C=C3)cc1
REMARK SMILES IDX 20 1 2 2 1 3 3 4 4 5 5 6 6 7 19 8 7 9 9 10 8 11 10 12 11 14
REMARK SMILES IDX 12 15 13 16 18 17 14 18 17 19 15 20 16 21 21 22 22 23 23 24
REMARK SMILES IDX 24 25 25 26 26 27 27 28 88 29 28 30 87 31 29 32 30 33 31 34
REMARK SMILES IDX 81 35 32 36 86 37 80 38 82 39 33 40 85 41 79 42 78 43 34 45
REMARK SMILES IDX 66 46 46 47 65 48 47 49 50 50 64 51 83 52 48 53 49 54 63 56
REMARK SMILES IDX 84 57 51 58 35 59 36 60 44 61 37 62 38 63 42 64 45 65 39 66
REMARK SMILES IDX 40 67 43 68 41 69 67 70 68 71 76 72 69 73 70 74 74 75 77 76
REMARK SMILES IDX 71 77 72 78 75 79 73 80 52 81 53 82 61 83 54 84 55 85 59 86
REMARK SMILES IDX 62 87 56 88 57 89 60 90 58 91
REMARK H PARENT 10 13 82 44 50 55
REMARK Flexibility Score: inf
ROOT
ATOM      1  O   UNL A   1      42.144  19.482  27.095  1.00  0.00    -0.460 OA
ENDROOT
BRANCH   1   2
ATOM      2  C   UNL A   1      42.849  18.904  26.093  1.00  0.00     0.344 C 
ATOM      3  O   UNL A   1      42.647  17.731  25.779  1.00  0.00    -0.248 OA
BRANCH   2   4
ATOM      4  C   UNL A   1      43.827  19.761  25.312  1.00  0.00     0.353 C 
BRANCH   4   5
ATOM      5  O   UNL A   1      43.220  20.998  24.956  1.00  0.00    -0.466 OA
BRANCH   5   6
ATOM      6  C   UNL A   1      44.165  21.991  24.984  1.00  0.00     0.218 A 
ATOM      7  C   UNL A   1      45.430  21.753  24.502  1.00  0.00     0.088 A 
ATOM      8  N   UNL A   1      43.745  23.159  25.492  1.00  0.00    -0.177 NA
ATOM      9  C   UNL A   1      46.292  22.806  24.622  1.00  0.00     0.121 A 
ATOM     10  C   UNL A   1      44.648  24.137  25.518  1.00  0.00     0.226 A 
ATOM     11  N   UNL A   1      45.923  23.996  25.121  1.00  0.00    -0.221 NA
BRANCH  10  12
ATOM     12  N   UNL A   1      44.329  25.390  25.933  1.00  0.00    -0.350 N 
ATOM     13  H   UNL A   1      44.719  25.695  26.785  1.00  0.00     0.164 HD
BRANCH  12  14
ATOM     14  C   UNL A   1      43.470  26.312  25.236  1.00  0.00     0.152 C 
BRANCH  14  15
ATOM     15  C   UNL A   1      43.766  27.697  25.768  1.00  0.00    -0.029 A 
ATOM     16  C   UNL A   1      42.741  28.629  25.945  1.00  0.00     0.007 A 
ATOM     17  C   UNL A   1      45.061  28.009  26.224  1.00  0.00     0.007 A 
ATOM     18  C   UNL A   1      42.980  29.773  26.702  1.00  0.00     0.016 A 
ATOM     19  C   UNL A   1      45.276  29.119  27.029  1.00  0.00     0.016 A 
ATOM     20  C   UNL A   1      44.213  29.957  27.321  1.00  0.00     0.017 A 
ATOM     21  Br  UNL A   1      44.434  31.231  28.692  1.00  0.00    -0.051 Br
ENDBRANCH  14  15
ENDBRANCH  12  14
ENDBRANCH  10  12
ENDBRANCH   5   6
ENDBRANCH   4   5
ENDBRANCH   2   4
ENDBRANCH   1   2
BRANCH   1  22
ATOM     22  C   UNL A   1      40.777  19.925  26.956  1.00  0.00     0.274 C 
BRANCH  22  23
ATOM     23  C   UNL A   1      40.660  21.415  27.281  1.00  0.00     0.275 C 
BRANCH  23  24
ATOM     24  O   UNL A   1      40.270  22.156  26.107  1.00  0.00    -0.458 OA
BRANCH  24  25
ATOM     25  C   UNL A   1      39.103  22.846  26.200  1.00  0.00     0.338 C 
ATOM     26  O   UNL A   1      37.992  22.440  25.933  1.00  0.00    -0.246 OA
BRANCH  25  27
ATOM     27  C   UNL A   1      39.369  24.152  26.845  1.00  0.00     0.060 A 
ATOM     28  C   UNL A   1      40.066  25.132  26.125  1.00  0.00     0.016 A 
ATOM     29  C   UNL A   1      38.955  24.405  28.155  1.00  0.00     0.016 A 
ATOM     30  C   UNL A   1      40.382  26.355  26.728  1.00  0.00     0.010 A 
ATOM     31  C   UNL A   1      39.278  25.624  28.758  1.00  0.00     0.010 A 
ATOM     32  C   UNL A   1      40.017  26.597  28.058  1.00  0.00    -0.014 A 
BRANCH  32  33
ATOM     33  C   UNL A   1      40.523  27.780  28.801  1.00  0.00     0.031 A 
ATOM     34  C   UNL A   1      41.854  27.688  29.489  1.00  0.00     0.074 A 
ATOM     35  C   UNL A   1      39.807  28.911  28.918  1.00  0.00     0.049 A 
ATOM     36  N   UNL A   1      42.425  28.537  30.305  1.00  0.00    -0.248 NA
ATOM     37  C   UNL A   1      42.650  26.484  29.210  1.00  0.00     0.031 C 
ATOM     38  C   UNL A   1      38.555  29.193  28.227  1.00  0.00     0.029 A 
ATOM     39  N   UNL A   1      40.030  30.031  29.689  1.00  0.00    -0.354 N 
ATOM     40  C   UNL A   1      43.653  27.979  30.627  1.00  0.00     0.074 A 
ATOM     41  C   UNL A   1      43.726  26.698  29.952  1.00  0.00     0.031 C 
ATOM     42  C   UNL A   1      38.098  30.383  28.652  1.00  0.00     0.029 A 
ATOM     43  C   UNL A   1      38.972  30.905  29.693  1.00  0.00     0.049 A 
ATOM     44  H   UNL A   1      40.865  30.189  30.187  1.00  0.00     0.167 HD
ATOM     45  C   UNL A   1      44.637  28.492  31.401  1.00  0.00     0.037 A 
ATOM     46  C   UNL A   1      38.712  31.967  30.482  1.00  0.00     0.037 A 
ATOM     47  C   UNL A   1      44.578  29.762  32.073  1.00  0.00     0.049 A 
ATOM     48  C   UNL A   1      39.754  32.434  31.462  1.00  0.00     0.074 A 
ATOM     49  C   UNL A   1      45.558  30.392  32.821  1.00  0.00     0.029 A 
ATOM     50  N   UNL A   1      43.466  30.589  32.097  1.00  0.00    -0.354 N 
ATOM     51  N   UNL A   1      40.942  31.942  31.700  1.00  0.00    -0.248 NA
ATOM     52  C   UNL A   1      39.430  33.629  32.259  1.00  0.00     0.031 C 
ATOM     53  C   UNL A   1      45.021  31.572  33.347  1.00  0.00     0.029 A 
ATOM     54  C   UNL A   1      43.720  31.697  32.889  1.00  0.00     0.049 A 
ATOM     55  H   UNL A   1      42.622  30.415  31.623  1.00  0.00     0.167 HD
ATOM     56  C   UNL A   1      41.528  32.798  32.621  1.00  0.00     0.074 A 
ATOM     57  C   UNL A   1      40.563  33.836  32.910  1.00  0.00     0.031 C 
ATOM     58  C   UNL A   1      42.767  32.738  33.162  1.00  0.00     0.037 A 
BRANCH  45  59
ATOM     59  C   UNL A   1      45.863  27.653  31.583  1.00  0.00     0.064 A 
ATOM     60  C   UNL A   1      45.946  26.681  32.590  1.00  0.00     0.173 A 
ATOM     61  C   UNL A   1      46.962  27.820  30.730  1.00  0.00     0.173 A 
ATOM     62  F   UNL A   1      44.924  26.498  33.439  1.00  0.00    -0.203 F 
ATOM     63  C   UNL A   1      47.103  25.925  32.755  1.00  0.00     0.198 A 
ATOM     64  C   UNL A   1      48.107  27.046  30.882  1.00  0.00     0.198 A 
ATOM     65  F   UNL A   1      46.926  28.738  29.752  1.00  0.00    -0.203 F 
ATOM     66  F   UNL A   1      47.183  25.036  33.755  1.00  0.00    -0.200 F 
ATOM     67  C   UNL A   1      48.179  26.106  31.899  1.00  0.00     0.200 A 
ATOM     68  F   UNL A   1      49.145  27.216  30.051  1.00  0.00    -0.200 F 
ATOM     69  F   UNL A   1      49.294  25.379  32.061  1.00  0.00    -0.200 F 
ENDBRANCH  45  59
BRANCH  46  70
ATOM     70  C   UNL A   1      37.387  32.644  30.467  1.00  0.00     0.064 A 
ATOM     71  C   UNL A   1      36.385  32.312  31.389  1.00  0.00     0.173 A 
ATOM     72  C   UNL A   1      37.051  33.530  29.432  1.00  0.00     0.173 A 
ATOM     73  F   UNL A   1      36.647  31.444  32.376  1.00  0.00    -0.203 F 
ATOM     74  C   UNL A   1      35.092  32.820  31.261  1.00  0.00     0.198 A 
ATOM     75  C   UNL A   1      35.770  34.071  29.331  1.00  0.00     0.198 A 
ATOM     76  F   UNL A   1      37.965  33.859  28.508  1.00  0.00    -0.203 F 
ATOM     77  F   UNL A   1      34.141  32.452  32.131  1.00  0.00    -0.200 F 
ATOM     78  C   UNL A   1      34.790  33.713  30.243  1.00  0.00     0.200 A 
ATOM     79  F   UNL A   1      35.484  34.928  28.342  1.00  0.00    -0.200 F 
ATOM     80  F   UNL A   1      33.556  34.223  30.140  1.00  0.00    -0.200 F 
ENDBRANCH  46  70
BRANCH  58  81
ATOM     81  C   UNL A   1      43.172  33.861  34.068  1.00  0.00     0.064 A 
ATOM     82  C   UNL A   1      43.768  35.030  33.576  1.00  0.00     0.173 A 
ATOM     83  C   UNL A   1      42.956  33.762  35.451  1.00  0.00     0.173 A 
ATOM     84  F   UNL A   1      44.022  35.157  32.265  1.00  0.00    -0.203 F 
ATOM     85  C   UNL A   1      44.153  36.053  34.438  1.00  0.00     0.198 A 
ATOM     86  C   UNL A   1      43.317  34.799  36.307  1.00  0.00     0.198 A 
ATOM     87  F   UNL A   1      42.396  32.661  35.972  1.00  0.00    -0.203 F 
ATOM     88  F   UNL A   1      44.766  37.141  33.952  1.00  0.00    -0.200 F 
ATOM     89  C   UNL A   1      43.921  35.940  35.801  1.00  0.00     0.200 A 
ATOM     90  F   UNL A   1      43.087  34.690  37.623  1.00  0.00    -0.200 F 
ATOM     91  F   UNL A   1      44.288  36.928  36.628  1.00  0.00    -0.200 F 
ENDBRANCH  58  81
ENDBRANCH  32  33
ENDBRANCH  25  27
ENDBRANCH  24  25
ENDBRANCH  23  24
ENDBRANCH  22  23
ENDBRANCH   1  22
TORSDOF 16
ENDMDL
