MODEL 1
REMARK VINA RESULT:     -12.1      0.000      0.000
REMARK SMILES C[C@@H](C(=O)OCCOC(=O)c1ccc(-c2c3nc(c(-c4c(F)c(F)c(F)c(F)c4F)c4ccc([nH]4)c(-c4c(F)c(F)c(F)c(F)c4F)c4nc(c(-c5c(F)c(F)c(F)c(F)c5F)c5ccc2[nH]5)C=C4)C=C3)cc1)[C@H](C)[S@](=O)c1ccc(F)c(F)c1
REMARK SMILES IDX 6 1 5 2 3 3 4 4 2 5 1 6 74 7 75 8 76 9 77 10 78 11 79 12
REMARK SMILES IDX 85 13 80 14 83 15 81 16 84 17 82 18 7 19 8 20 9 21 10 22
REMARK SMILES IDX 11 23 12 24 73 25 13 26 72 27 14 28 15 29 16 30 66 31 17 32
REMARK SMILES IDX 71 33 65 34 67 35 18 36 70 37 64 38 63 39 19 41 51 42 31 43
REMARK SMILES IDX 50 44 32 45 35 46 49 47 68 48 33 49 34 50 48 52 69 53 36 54
REMARK SMILES IDX 20 55 21 56 29 57 22 58 23 59 27 60 30 61 24 62 25 63 28 64
REMARK SMILES IDX 26 65 52 66 53 67 61 68 54 69 55 70 59 71 62 72 56 73 57 74
REMARK SMILES IDX 60 75 58 76 37 77 38 78 46 79 39 80 40 81 44 82 47 83 41 84
REMARK SMILES IDX 42 85 45 86 43 87
REMARK H PARENT 67 40 35 51
REMARK Flexibility Score: inf
ROOT
ATOM      1  C   UNL A   1      31.968  30.810  26.620  1.00  0.00     0.274 C 
ENDROOT
BRANCH   1   2
ATOM      2  O   UNL A   1      31.434  30.336  25.381  1.00  0.00    -0.462 OA
BRANCH   2   3
ATOM      3  C   UNL A   1      32.083  29.252  24.889  1.00  0.00     0.309 C 
ATOM      4  O   UNL A   1      32.941  29.286  24.018  1.00  0.00    -0.252 OA
BRANCH   3   5
ATOM      5  C   UNL A   1      31.613  27.997  25.534  1.00  0.00     0.112 C 
ATOM      6  C   UNL A   1      32.803  27.105  25.991  1.00  0.00     0.021 C 
BRANCH   5   7
ATOM      7  C   UNL A   1      30.431  27.348  24.774  1.00  0.00     0.095 C 
ATOM      8  C   UNL A   1      30.318  25.868  25.154  1.00  0.00     0.023 C 
BRANCH   7   9
ATOM      9  S   UNL A   1      29.669  27.962  23.170  1.00  0.00     0.057 S 
ATOM     10  O   UNL A   1      30.620  27.651  22.055  1.00  0.00    -0.254 OA
BRANCH   9  11
ATOM     11  C   UNL A   1      28.960  29.644  22.748  1.00  0.00     0.042 A 
ATOM     12  C   UNL A   1      28.361  29.808  21.486  1.00  0.00     0.021 A 
ATOM     13  C   UNL A   1      29.088  30.865  23.433  1.00  0.00     0.060 A 
ATOM     14  C   UNL A   1      27.945  31.078  20.987  1.00  0.00     0.043 A 
ATOM     15  C   UNL A   1      28.732  32.132  22.944  1.00  0.00     0.160 A 
ATOM     16  C   UNL A   1      28.156  32.242  21.712  1.00  0.00     0.158 A 
ATOM     17  F   UNL A   1      28.973  33.216  23.698  1.00  0.00    -0.204 F 
ATOM     18  F   UNL A   1      27.803  33.440  21.230  1.00  0.00    -0.204 F 
ENDBRANCH   9  11
ENDBRANCH   7   9
ENDBRANCH   5   7
ENDBRANCH   3   5
ENDBRANCH   2   3
ENDBRANCH   1   2
BRANCH   1  19
ATOM     19  C   UNL A   1      31.702  32.326  26.960  1.00  0.00     0.275 C 
BRANCH  19  20
ATOM     20  O   UNL A   1      32.892  33.215  26.961  1.00  0.00    -0.458 OA
BRANCH  20  21
ATOM     21  C   UNL A   1      33.519  33.545  28.161  1.00  0.00     0.338 C 
ATOM     22  O   UNL A   1      33.136  34.431  28.892  1.00  0.00    -0.246 OA
BRANCH  21  23
ATOM     23  C   UNL A   1      34.830  32.777  28.439  1.00  0.00     0.060 A 
ATOM     24  C   UNL A   1      34.785  31.436  28.835  1.00  0.00     0.016 A 
ATOM     25  C   UNL A   1      36.108  33.382  28.444  1.00  0.00     0.016 A 
ATOM     26  C   UNL A   1      35.964  30.724  29.139  1.00  0.00     0.010 A 
ATOM     27  C   UNL A   1      37.289  32.679  28.696  1.00  0.00     0.010 A 
ATOM     28  C   UNL A   1      37.216  31.354  29.093  1.00  0.00    -0.014 A 
BRANCH  28  29
ATOM     29  C   UNL A   1      38.396  30.770  29.766  1.00  0.00     0.031 A 
ATOM     30  C   UNL A   1      38.675  31.249  31.164  1.00  0.00     0.074 A 
ATOM     31  C   UNL A   1      39.215  29.916  29.130  1.00  0.00     0.049 A 
ATOM     32  N   UNL A   1      39.498  30.781  32.060  1.00  0.00    -0.248 NA
ATOM     33  C   UNL A   1      37.907  32.426  31.615  1.00  0.00     0.031 C 
ATOM     34  C   UNL A   1      39.085  29.510  27.731  1.00  0.00     0.029 A 
ATOM     35  N   UNL A   1      40.322  29.241  29.574  1.00  0.00    -0.354 N 
ATOM     36  C   UNL A   1      39.291  31.555  33.196  1.00  0.00     0.074 A 
ATOM     37  C   UNL A   1      38.328  32.576  32.859  1.00  0.00     0.031 C 
ATOM     38  C   UNL A   1      40.068  28.641  27.434  1.00  0.00     0.029 A 
ATOM     39  C   UNL A   1      40.884  28.420  28.626  1.00  0.00     0.049 A 
ATOM     40  H   UNL A   1      40.682  29.336  30.486  1.00  0.00     0.167 HD
ATOM     41  C   UNL A   1      39.843  31.399  34.421  1.00  0.00     0.037 A 
ATOM     42  C   UNL A   1      41.921  27.568  28.739  1.00  0.00     0.037 A 
ATOM     43  C   UNL A   1      40.875  30.432  34.677  1.00  0.00     0.049 A 
ATOM     44  C   UNL A   1      42.538  27.407  30.108  1.00  0.00     0.074 A 
ATOM     45  C   UNL A   1      41.552  30.163  35.848  1.00  0.00     0.029 A 
ATOM     46  N   UNL A   1      41.401  29.592  33.700  1.00  0.00    -0.354 N 
ATOM     47  N   UNL A   1      42.244  28.038  31.222  1.00  0.00    -0.248 NA
ATOM     48  C   UNL A   1      43.597  26.402  30.249  1.00  0.00     0.031 C 
ATOM     49  C   UNL A   1      42.519  29.189  35.568  1.00  0.00     0.029 A 
ATOM     50  C   UNL A   1      42.410  28.815  34.234  1.00  0.00     0.049 A 
ATOM     51  H   UNL A   1      41.097  29.555  32.764  1.00  0.00     0.167 HD
ATOM     52  C   UNL A   1      43.062  27.498  32.202  1.00  0.00     0.074 A 
ATOM     53  C   UNL A   1      43.851  26.467  31.549  1.00  0.00     0.031 C 
ATOM     54  C   UNL A   1      43.165  27.813  33.519  1.00  0.00     0.037 A 
BRANCH  41  55
ATOM     55  C   UNL A   1      39.343  32.295  35.520  1.00  0.00     0.064 A 
ATOM     56  C   UNL A   1      39.832  33.605  35.669  1.00  0.00     0.173 A 
ATOM     57  C   UNL A   1      38.403  31.844  36.456  1.00  0.00     0.173 A 
ATOM     58  F   UNL A   1      40.748  34.085  34.814  1.00  0.00    -0.203 F 
ATOM     59  C   UNL A   1      39.427  34.413  36.731  1.00  0.00     0.198 A 
ATOM     60  C   UNL A   1      37.981  32.663  37.504  1.00  0.00     0.198 A 
ATOM     61  F   UNL A   1      37.905  30.602  36.371  1.00  0.00    -0.203 F 
ATOM     62  F   UNL A   1      39.954  35.636  36.882  1.00  0.00    -0.200 F 
ATOM     63  C   UNL A   1      38.500  33.941  37.647  1.00  0.00     0.200 A 
ATOM     64  F   UNL A   1      37.082  32.208  38.389  1.00  0.00    -0.200 F 
ATOM     65  F   UNL A   1      38.118  34.713  38.674  1.00  0.00    -0.200 F 
ENDBRANCH  41  55
BRANCH  42  66
ATOM     66  C   UNL A   1      42.364  26.769  27.562  1.00  0.00     0.064 A 
ATOM     67  C   UNL A   1      43.384  27.220  26.711  1.00  0.00     0.173 A 
ATOM     68  C   UNL A   1      41.811  25.507  27.291  1.00  0.00     0.173 A 
ATOM     69  F   UNL A   1      43.940  28.423  26.912  1.00  0.00    -0.203 F 
ATOM     70  C   UNL A   1      43.826  26.447  25.637  1.00  0.00     0.198 A 
ATOM     71  C   UNL A   1      42.271  24.724  26.232  1.00  0.00     0.198 A 
ATOM     72  F   UNL A   1      40.835  25.021  28.073  1.00  0.00    -0.203 F 
ATOM     73  F   UNL A   1      44.786  26.915  24.826  1.00  0.00    -0.200 F 
ATOM     74  C   UNL A   1      43.277  25.195  25.403  1.00  0.00     0.200 A 
ATOM     75  F   UNL A   1      41.746  23.509  26.020  1.00  0.00    -0.200 F 
ATOM     76  F   UNL A   1      43.715  24.446  24.382  1.00  0.00    -0.200 F 
ENDBRANCH  42  66
BRANCH  54  77
ATOM     77  C   UNL A   1      44.162  27.031  34.316  1.00  0.00     0.064 A 
ATOM     78  C   UNL A   1      45.477  27.486  34.484  1.00  0.00     0.173 A 
ATOM     79  C   UNL A   1      43.779  25.847  34.961  1.00  0.00     0.173 A 
ATOM     80  F   UNL A   1      45.886  28.610  33.875  1.00  0.00    -0.203 F 
ATOM     81  C   UNL A   1      46.385  26.765  35.251  1.00  0.00     0.198 A 
ATOM     82  C   UNL A   1      44.682  25.145  35.751  1.00  0.00     0.198 A 
ATOM     83  F   UNL A   1      42.527  25.381  34.835  1.00  0.00    -0.203 F 
ATOM     84  F   UNL A   1      47.650  27.192  35.363  1.00  0.00    -0.200 F 
ATOM     85  C   UNL A   1      45.985  25.600  35.889  1.00  0.00     0.200 A 
ATOM     86  F   UNL A   1      44.292  24.028  36.380  1.00  0.00    -0.200 F 
ATOM     87  F   UNL A   1      46.859  24.912  36.635  1.00  0.00    -0.200 F 
ENDBRANCH  54  77
ENDBRANCH  28  29
ENDBRANCH  21  23
ENDBRANCH  20  21
ENDBRANCH  19  20
ENDBRANCH   1  19
TORSDOF 14
ENDMDL
MODEL 2
REMARK VINA RESULT:     -12.0      3.804      6.060
REMARK SMILES C[C@@H](C(=O)OCCOC(=O)c1ccc(-c2c3nc(c(-c4c(F)c(F)c(F)c(F)c4F)c4ccc([nH]4)c(-c4c(F)c(F)c(F)c(F)c4F)c4nc(c(-c5c(F)c(F)c(F)c(F)c5F)c5ccc2[nH]5)C=C4)C=C3)cc1)[C@H](C)[S@](=O)c1ccc(F)c(F)c1
REMARK SMILES IDX 6 1 5 2 3 3 4 4 2 5 1 6 74 7 75 8 76 9 77 10 78 11 79 12
REMARK SMILES IDX 85 13 80 14 83 15 81 16 84 17 82 18 7 19 8 20 9 21 10 22
REMARK SMILES IDX 11 23 12 24 73 25 13 26 72 27 14 28 15 29 16 30 66 31 17 32
REMARK SMILES IDX 71 33 65 34 67 35 18 36 70 37 64 38 63 39 19 41 51 42 31 43
REMARK SMILES IDX 50 44 32 45 35 46 49 47 68 48 33 49 34 50 48 52 69 53 36 54
REMARK SMILES IDX 20 55 21 56 29 57 22 58 23 59 27 60 30 61 24 62 25 63 28 64
REMARK SMILES IDX 26 65 52 66 53 67 61 68 54 69 55 70 59 71 62 72 56 73 57 74
REMARK SMILES IDX 60 75 58 76 37 77 38 78 46 79 39 80 40 81 44 82 47 83 41 84
REMARK SMILES IDX 42 85 45 86 43 87
REMARK H PARENT 67 40 35 51
REMARK Flexibility Score: inf
ROOT
ATOM      1  C   UNL A   1      33.329  34.848  28.765  1.00  0.00     0.274 C 
ENDROOT
BRANCH   1   2
ATOM      2  O   UNL A   1      33.286  34.690  30.185  1.00  0.00    -0.462 OA
BRANCH   2   3
ATOM      3  C   UNL A   1      32.741  35.749  30.833  1.00  0.00     0.309 C 
ATOM      4  O   UNL A   1      32.500  36.833  30.322  1.00  0.00    -0.252 OA
BRANCH   3   5
ATOM      5  C   UNL A   1      32.480  35.435  32.263  1.00  0.00     0.112 C 
ATOM      6  C   UNL A   1      31.179  36.122  32.774  1.00  0.00     0.021 C 
BRANCH   5   7
ATOM      7  C   UNL A   1      33.761  35.506  33.128  1.00  0.00     0.095 C 
ATOM      8  C   UNL A   1      34.010  36.952  33.571  1.00  0.00     0.023 C 
BRANCH   7   9
ATOM      9  S   UNL A   1      35.178  34.273  33.120  1.00  0.00     0.057 S 
ATOM     10  O   UNL A   1      35.799  34.271  34.484  1.00  0.00    -0.254 OA
BRANCH   9  11
ATOM     11  C   UNL A   1      36.617  34.111  31.932  1.00  0.00     0.042 A 
ATOM     12  C   UNL A   1      37.868  34.610  32.340  1.00  0.00     0.021 A 
ATOM     13  C   UNL A   1      36.621  33.724  30.581  1.00  0.00     0.060 A 
ATOM     14  C   UNL A   1      38.988  34.699  31.462  1.00  0.00     0.043 A 
ATOM     15  C   UNL A   1      37.695  33.848  29.685  1.00  0.00     0.160 A 
ATOM     16  C   UNL A   1      38.888  34.339  30.126  1.00  0.00     0.158 A 
ATOM     17  F   UNL A   1      37.523  33.486  28.403  1.00  0.00    -0.204 F 
ATOM     18  F   UNL A   1      39.927  34.459  29.289  1.00  0.00    -0.204 F 
ENDBRANCH   9  11
ENDBRANCH   7   9
ENDBRANCH   5   7
ENDBRANCH   3   5
ENDBRANCH   2   3
ENDBRANCH   1   2
BRANCH   1  19
ATOM     19  C   UNL A   1      33.317  33.522  27.914  1.00  0.00     0.275 C 
BRANCH  19  20
ATOM     20  O   UNL A   1      34.532  32.673  28.008  1.00  0.00    -0.458 OA
BRANCH  20  21
ATOM     21  C   UNL A   1      34.455  31.306  27.743  1.00  0.00     0.338 C 
ATOM     22  O   UNL A   1      33.458  30.763  27.322  1.00  0.00    -0.246 OA
BRANCH  21  23
ATOM     23  C   UNL A   1      35.707  30.497  28.150  1.00  0.00     0.060 A 
ATOM     24  C   UNL A   1      35.751  29.852  29.391  1.00  0.00     0.016 A 
ATOM     25  C   UNL A   1      36.898  30.460  27.390  1.00  0.00     0.016 A 
ATOM     26  C   UNL A   1      36.898  29.144  29.805  1.00  0.00     0.010 A 
ATOM     27  C   UNL A   1      38.025  29.724  27.764  1.00  0.00     0.010 A 
ATOM     28  C   UNL A   1      38.046  29.101  29.001  1.00  0.00    -0.014 A 
BRANCH  28  29
ATOM     29  C   UNL A   1      39.360  28.716  29.558  1.00  0.00     0.031 A 
ATOM     30  C   UNL A   1      39.863  29.536  30.714  1.00  0.00     0.074 A 
ATOM     31  C   UNL A   1      40.096  27.737  29.007  1.00  0.00     0.049 A 
ATOM     32  N   UNL A   1      40.863  29.316  31.523  1.00  0.00    -0.248 NA
ATOM     33  C   UNL A   1      39.125  30.782  31.001  1.00  0.00     0.031 C 
ATOM     34  C   UNL A   1      39.735  26.989  27.802  1.00  0.00     0.029 A 
ATOM     35  N   UNL A   1      41.303  27.206  29.382  1.00  0.00    -0.354 N 
ATOM     36  C   UNL A   1      40.823  30.350  32.451  1.00  0.00     0.074 A 
ATOM     37  C   UNL A   1      39.758  31.244  32.065  1.00  0.00     0.031 C 
ATOM     38  C   UNL A   1      40.695  26.082  27.546  1.00  0.00     0.029 A 
ATOM     39  C   UNL A   1      41.727  26.177  28.575  1.00  0.00     0.049 A 
ATOM     40  H   UNL A   1      41.818  27.532  30.155  1.00  0.00     0.167 HD
ATOM     41  C   UNL A   1      41.599  30.514  33.547  1.00  0.00     0.037 A 
ATOM     42  C   UNL A   1      42.814  25.391  28.694  1.00  0.00     0.037 A 
ATOM     43  C   UNL A   1      42.714  29.653  33.830  1.00  0.00     0.049 A 
ATOM     44  C   UNL A   1      43.680  25.587  29.915  1.00  0.00     0.074 A 
ATOM     45  C   UNL A   1      43.609  29.694  34.879  1.00  0.00     0.029 A 
ATOM     46  N   UNL A   1      43.099  28.597  33.008  1.00  0.00    -0.354 N 
ATOM     47  N   UNL A   1      43.560  26.476  30.875  1.00  0.00    -0.248 NA
ATOM     48  C   UNL A   1      44.803  24.660  30.093  1.00  0.00     0.031 C 
ATOM     49  C   UNL A   1      44.562  28.690  34.667  1.00  0.00     0.029 A 
ATOM     50  C   UNL A   1      44.232  27.990  33.513  1.00  0.00     0.049 A 
ATOM     51  H   UNL A   1      42.631  28.323  32.186  1.00  0.00     0.167 HD
ATOM     52  C   UNL A   1      44.574  26.208  31.782  1.00  0.00     0.074 A 
ATOM     53  C   UNL A   1      45.287  25.054  31.263  1.00  0.00     0.031 C 
ATOM     54  C   UNL A   1      44.898  26.847  32.936  1.00  0.00     0.037 A 
BRANCH  41  55
ATOM     55  C   UNL A   1      41.259  31.653  34.467  1.00  0.00     0.064 A 
ATOM     56  C   UNL A   1      40.354  31.483  35.531  1.00  0.00     0.173 A 
ATOM     57  C   UNL A   1      41.800  32.931  34.276  1.00  0.00     0.173 A 
ATOM     58  F   UNL A   1      39.789  30.287  35.752  1.00  0.00    -0.203 F 
ATOM     59  C   UNL A   1      39.979  32.555  36.340  1.00  0.00     0.198 A 
ATOM     60  C   UNL A   1      41.441  33.996  35.103  1.00  0.00     0.198 A 
ATOM     61  F   UNL A   1      42.663  33.158  33.275  1.00  0.00    -0.203 F 
ATOM     62  F   UNL A   1      39.070  32.376  37.309  1.00  0.00    -0.200 F 
ATOM     63  C   UNL A   1      40.525  33.810  36.126  1.00  0.00     0.200 A 
ATOM     64  F   UNL A   1      41.972  35.211  34.898  1.00  0.00    -0.200 F 
ATOM     65  F   UNL A   1      40.156  34.843  36.898  1.00  0.00    -0.200 F 
ENDBRANCH  41  55
BRANCH  42  66
ATOM     66  C   UNL A   1      43.078  24.325  27.687  1.00  0.00     0.064 A 
ATOM     67  C   UNL A   1      43.818  24.582  26.523  1.00  0.00     0.173 A 
ATOM     68  C   UNL A   1      42.640  23.007  27.893  1.00  0.00     0.173 A 
ATOM     69  F   UNL A   1      44.251  25.824  26.266  1.00  0.00    -0.203 F 
ATOM     70  C   UNL A   1      44.102  23.569  25.606  1.00  0.00     0.198 A 
ATOM     71  C   UNL A   1      42.945  21.989  26.988  1.00  0.00     0.198 A 
ATOM     72  F   UNL A   1      41.932  22.700  28.990  1.00  0.00    -0.203 F 
ATOM     73  F   UNL A   1      44.790  23.850  24.490  1.00  0.00    -0.200 F 
ATOM     74  C   UNL A   1      43.674  22.271  25.843  1.00  0.00     0.200 A 
ATOM     75  F   UNL A   1      42.541  20.734  27.231  1.00  0.00    -0.200 F 
ATOM     76  F   UNL A   1      43.962  21.296  24.971  1.00  0.00    -0.200 F 
ENDBRANCH  42  66
BRANCH  54  77
ATOM     77  C   UNL A   1      46.068  26.301  33.693  1.00  0.00     0.064 A 
ATOM     78  C   UNL A   1      47.365  26.788  33.481  1.00  0.00     0.173 A 
ATOM     79  C   UNL A   1      45.877  25.322  34.679  1.00  0.00     0.173 A 
ATOM     80  F   UNL A   1      47.591  27.718  32.539  1.00  0.00    -0.203 F 
ATOM     81  C   UNL A   1      48.438  26.293  34.212  1.00  0.00     0.198 A 
ATOM     82  C   UNL A   1      46.948  24.852  35.429  1.00  0.00     0.198 A 
ATOM     83  F   UNL A   1      44.650  24.835  34.923  1.00  0.00    -0.203 F 
ATOM     84  F   UNL A   1      49.677  26.737  33.963  1.00  0.00    -0.200 F 
ATOM     85  C   UNL A   1      48.228  25.331  35.190  1.00  0.00     0.200 A 
ATOM     86  F   UNL A   1      46.744  23.933  36.384  1.00  0.00    -0.200 F 
ATOM     87  F   UNL A   1      49.262  24.861  35.900  1.00  0.00    -0.200 F 
ENDBRANCH  54  77
ENDBRANCH  28  29
ENDBRANCH  21  23
ENDBRANCH  20  21
ENDBRANCH  19  20
ENDBRANCH   1  19
TORSDOF 14
ENDMDL
MODEL 3
REMARK VINA RESULT:     -12.0      5.977     11.953
REMARK SMILES C[C@@H](C(=O)OCCOC(=O)c1ccc(-c2c3nc(c(-c4c(F)c(F)c(F)c(F)c4F)c4ccc([nH]4)c(-c4c(F)c(F)c(F)c(F)c4F)c4nc(c(-c5c(F)c(F)c(F)c(F)c5F)c5ccc2[nH]5)C=C4)C=C3)cc1)[C@H](C)[S@](=O)c1ccc(F)c(F)c1
REMARK SMILES IDX 6 1 5 2 3 3 4 4 2 5 1 6 74 7 75 8 76 9 77 10 78 11 79 12
REMARK SMILES IDX 85 13 80 14 83 15 81 16 84 17 82 18 7 19 8 20 9 21 10 22
REMARK SMILES IDX 11 23 12 24 73 25 13 26 72 27 14 28 15 29 16 30 66 31 17 32
REMARK SMILES IDX 71 33 65 34 67 35 18 36 70 37 64 38 63 39 19 41 51 42 31 43
REMARK SMILES IDX 50 44 32 45 35 46 49 47 68 48 33 49 34 50 48 52 69 53 36 54
REMARK SMILES IDX 20 55 21 56 29 57 22 58 23 59 27 60 30 61 24 62 25 63 28 64
REMARK SMILES IDX 26 65 52 66 53 67 61 68 54 69 55 70 59 71 62 72 56 73 57 74
REMARK SMILES IDX 60 75 58 76 37 77 38 78 46 79 39 80 40 81 44 82 47 83 41 84
REMARK SMILES IDX 42 85 45 86 43 87
REMARK H PARENT 67 40 35 51
REMARK Flexibility Score: inf
ROOT
ATOM      1  C   UNL A   1      42.246  19.650  26.540  1.00  0.00     0.274 C 
ENDROOT
BRANCH   1   2
ATOM      2  O   UNL A   1      42.491  19.166  25.216  1.00  0.00    -0.462 OA
BRANCH   2   3
ATOM      3  C   UNL A   1      43.793  18.876  24.977  1.00  0.00     0.309 C 
ATOM      4  O   UNL A   1      44.448  18.042  25.586  1.00  0.00    -0.252 OA
BRANCH   3   5
ATOM      5  C   UNL A   1      44.343  19.713  23.878  1.00  0.00     0.112 C 
ATOM      6  C   UNL A   1      44.993  18.843  22.763  1.00  0.00     0.021 C 
BRANCH   5   7
ATOM      7  C   UNL A   1      45.100  20.957  24.403  1.00  0.00     0.095 C 
ATOM      8  C   UNL A   1      46.554  20.587  24.716  1.00  0.00     0.023 C 
BRANCH   7   9
ATOM      9  S   UNL A   1      44.330  22.474  25.198  1.00  0.00     0.057 S 
ATOM     10  O   UNL A   1      42.929  22.608  24.681  1.00  0.00    -0.254 OA
BRANCH   9  11
ATOM     11  C   UNL A   1      44.976  24.229  25.305  1.00  0.00     0.042 A 
ATOM     12  C   UNL A   1      44.038  25.274  25.372  1.00  0.00     0.021 A 
ATOM     13  C   UNL A   1      46.288  24.709  25.143  1.00  0.00     0.060 A 
ATOM     14  C   UNL A   1      44.405  26.650  25.283  1.00  0.00     0.043 A 
ATOM     15  C   UNL A   1      46.668  26.053  25.003  1.00  0.00     0.160 A 
ATOM     16  C   UNL A   1      45.721  27.032  25.073  1.00  0.00     0.158 A 
ATOM     17  F   UNL A   1      47.961  26.350  24.794  1.00  0.00    -0.204 F 
ATOM     18  F   UNL A   1      46.064  28.321  24.949  1.00  0.00    -0.204 F 
ENDBRANCH   9  11
ENDBRANCH   7   9
ENDBRANCH   5   7
ENDBRANCH   3   5
ENDBRANCH   2   3
ENDBRANCH   1   2
BRANCH   1  19
ATOM     19  C   UNL A   1      40.825  20.281  26.801  1.00  0.00     0.275 C 
BRANCH  19  20
ATOM     20  O   UNL A   1      40.794  21.745  27.047  1.00  0.00    -0.458 OA
BRANCH  20  21
ATOM     21  C   UNL A   1      39.735  22.514  26.567  1.00  0.00     0.338 C 
ATOM     22  O   UNL A   1      38.913  22.102  25.781  1.00  0.00    -0.246 OA
BRANCH  21  23
ATOM     23  C   UNL A   1      39.753  23.992  27.018  1.00  0.00     0.060 A 
ATOM     24  C   UNL A   1      40.356  24.962  26.211  1.00  0.00     0.016 A 
ATOM     25  C   UNL A   1      39.301  24.433  28.283  1.00  0.00     0.016 A 
ATOM     26  C   UNL A   1      40.426  26.311  26.618  1.00  0.00     0.010 A 
ATOM     27  C   UNL A   1      39.320  25.771  28.681  1.00  0.00     0.010 A 
ATOM     28  C   UNL A   1      39.929  26.711  27.867  1.00  0.00    -0.014 A 
BRANCH  28  29
ATOM     29  C   UNL A   1      40.328  27.997  28.476  1.00  0.00     0.031 A 
ATOM     30  C   UNL A   1      41.779  28.143  28.843  1.00  0.00     0.074 A 
ATOM     31  C   UNL A   1      39.424  28.952  28.756  1.00  0.00     0.049 A 
ATOM     32  N   UNL A   1      42.450  29.204  29.198  1.00  0.00    -0.248 NA
ATOM     33  C   UNL A   1      42.590  26.911  28.797  1.00  0.00     0.031 C 
ATOM     34  C   UNL A   1      37.981  28.829  28.553  1.00  0.00     0.029 A 
ATOM     35  N   UNL A   1      39.584  30.209  29.277  1.00  0.00    -0.354 N 
ATOM     36  C   UNL A   1      43.766  28.780  29.341  1.00  0.00     0.074 A 
ATOM     37  C   UNL A   1      43.793  27.355  29.119  1.00  0.00     0.031 C 
ATOM     38  C   UNL A   1      37.386  29.974  28.932  1.00  0.00     0.029 A 
ATOM     39  C   UNL A   1      38.409  30.913  29.387  1.00  0.00     0.049 A 
ATOM     40  H   UNL A   1      40.458  30.574  29.547  1.00  0.00     0.167 HD
ATOM     41  C   UNL A   1      44.857  29.533  29.608  1.00  0.00     0.037 A 
ATOM     42  C   UNL A   1      38.208  32.185  29.783  1.00  0.00     0.037 A 
ATOM     43  C   UNL A   1      44.763  30.932  29.925  1.00  0.00     0.049 A 
ATOM     44  C   UNL A   1      39.431  33.015  30.089  1.00  0.00     0.074 A 
ATOM     45  C   UNL A   1      45.763  31.828  30.240  1.00  0.00     0.029 A 
ATOM     46  N   UNL A   1      43.558  31.624  29.998  1.00  0.00    -0.354 N 
ATOM     47  N   UNL A   1      40.694  32.653  30.084  1.00  0.00    -0.248 NA
ATOM     48  C   UNL A   1      39.214  34.428  30.418  1.00  0.00     0.031 C 
ATOM     49  C   UNL A   1      45.157  33.053  30.547  1.00  0.00     0.029 A 
ATOM     50  C   UNL A   1      43.783  32.934  30.373  1.00  0.00     0.049 A 
ATOM     51  H   UNL A   1      42.672  31.237  29.808  1.00  0.00     0.167 HD
ATOM     52  C   UNL A   1      41.426  33.790  30.388  1.00  0.00     0.074 A 
ATOM     53  C   UNL A   1      40.460  34.863  30.549  1.00  0.00     0.031 C 
ATOM     54  C   UNL A   1      42.768  33.949  30.526  1.00  0.00     0.037 A 
BRANCH  41  55
ATOM     55  C   UNL A   1      46.194  28.844  29.576  1.00  0.00     0.064 A 
ATOM     56  C   UNL A   1      46.975  28.830  28.407  1.00  0.00     0.173 A 
ATOM     57  C   UNL A   1      46.689  28.162  30.695  1.00  0.00     0.173 A 
ATOM     58  F   UNL A   1      46.544  29.451  27.298  1.00  0.00    -0.203 F 
ATOM     59  C   UNL A   1      48.180  28.130  28.350  1.00  0.00     0.198 A 
ATOM     60  C   UNL A   1      47.906  27.482  30.642  1.00  0.00     0.198 A 
ATOM     61  F   UNL A   1      45.986  28.134  31.836  1.00  0.00    -0.203 F 
ATOM     62  F   UNL A   1      48.875  28.084  27.205  1.00  0.00    -0.200 F 
ATOM     63  C   UNL A   1      48.645  27.457  29.469  1.00  0.00     0.200 A 
ATOM     64  F   UNL A   1      48.358  26.834  31.726  1.00  0.00    -0.200 F 
ATOM     65  F   UNL A   1      49.797  26.775  29.412  1.00  0.00    -0.200 F 
ENDBRANCH  41  55
BRANCH  42  66
ATOM     66  C   UNL A   1      36.828  32.745  29.827  1.00  0.00     0.064 A 
ATOM     67  C   UNL A   1      36.076  32.750  31.010  1.00  0.00     0.173 A 
ATOM     68  C   UNL A   1      36.249  33.339  28.693  1.00  0.00     0.173 A 
ATOM     69  F   UNL A   1      36.571  32.185  32.121  1.00  0.00    -0.203 F 
ATOM     70  C   UNL A   1      34.801  33.317  31.057  1.00  0.00     0.198 A 
ATOM     71  C   UNL A   1      34.985  33.928  28.747  1.00  0.00     0.198 A 
ATOM     72  F   UNL A   1      36.923  33.368  27.534  1.00  0.00    -0.203 F 
ATOM     73  F   UNL A   1      34.096  33.284  32.197  1.00  0.00    -0.200 F 
ATOM     74  C   UNL A   1      34.260  33.915  29.929  1.00  0.00     0.200 A 
ATOM     75  F   UNL A   1      34.474  34.516  27.657  1.00  0.00    -0.200 F 
ATOM     76  F   UNL A   1      33.044  34.474  29.979  1.00  0.00    -0.200 F 
ENDBRANCH  42  66
BRANCH  54  77
ATOM     77  C   UNL A   1      43.245  35.326  30.865  1.00  0.00     0.064 A 
ATOM     78  C   UNL A   1      43.419  35.729  32.197  1.00  0.00     0.173 A 
ATOM     79  C   UNL A   1      43.582  36.229  29.847  1.00  0.00     0.173 A 
ATOM     80  F   UNL A   1      43.098  34.899  33.201  1.00  0.00    -0.203 F 
ATOM     81  C   UNL A   1      43.891  37.002  32.497  1.00  0.00     0.198 A 
ATOM     82  C   UNL A   1      44.082  37.489  30.151  1.00  0.00     0.198 A 
ATOM     83  F   UNL A   1      43.441  35.880  28.558  1.00  0.00    -0.203 F 
ATOM     84  F   UNL A   1      44.008  37.385  33.775  1.00  0.00    -0.200 F 
ATOM     85  C   UNL A   1      44.229  37.877  31.475  1.00  0.00     0.200 A 
ATOM     86  F   UNL A   1      44.422  38.330  29.164  1.00  0.00    -0.200 F 
ATOM     87  F   UNL A   1      44.691  39.100  31.766  1.00  0.00    -0.200 F 
ENDBRANCH  54  77
ENDBRANCH  28  29
ENDBRANCH  21  23
ENDBRANCH  20  21
ENDBRANCH  19  20
ENDBRANCH   1  19
TORSDOF 14
ENDMDL
