MODEL 1
REMARK VINA RESULT:     -14.2      0.000      0.000
REMARK SMILES Cc1ccc(N2C(=O)N=C(OCCOC(=O)c3ccc(-c4c5nc(c(-c6c(F)c(F)c(F)c(F)c6F)c6ccc([nH]6)c(-c6c(F)c(F)c(F)c(F)c6F)c6nc(c(-c7c(F)c(F)c(F)c(F)c7F)c7ccc4[nH]7)C=C6)C=C5)cc3)/C(=C\c3ccccc3OCc3cccc(C(=O)[O-])c3)C2=O)cc1
REMARK SMILES IDX 12 1 11 2 10 3 6 4 7 5 99 6 8 7 9 8 80 9 100 10 81 11 5 12
REMARK SMILES IDX 1 13 2 14 3 15 102 16 4 17 101 18 82 19 83 20 87 21 84 22
REMARK SMILES IDX 86 23 85 24 88 25 89 26 90 27 91 28 98 29 92 30 94 31 93 32
REMARK SMILES IDX 95 33 96 34 97 35 13 36 14 37 15 38 16 39 17 40 18 41 79 42
REMARK SMILES IDX 19 43 78 44 20 45 21 46 22 47 72 48 23 49 77 50 71 51 73 52
REMARK SMILES IDX 24 53 76 54 70 55 69 56 25 58 57 59 37 60 56 61 38 62 41 63
REMARK SMILES IDX 55 64 74 65 39 66 40 67 54 69 75 70 42 71 26 72 27 73 35 74
REMARK SMILES IDX 28 75 29 76 33 77 36 78 30 79 31 80 34 81 32 82 58 83 59 84
REMARK SMILES IDX 67 85 60 86 61 87 65 88 68 89 62 90 63 91 66 92 64 93 43 94
REMARK SMILES IDX 44 95 52 96 45 97 46 98 50 99 53 100 47 101 48 102 51 103
REMARK SMILES IDX 49 104
REMARK H PARENT 73 57 41 68
REMARK Flexibility Score: inf
ROOT
ATOM      1  C   UNL A   1      35.881  31.094  31.812  1.00  0.00     0.273 C 
ENDROOT
BRANCH   1   2
ATOM      2  O   UNL A   1      36.442  31.353  30.577  1.00  0.00    -0.473 OA
BRANCH   2   3
ATOM      3  C   UNL A   1      37.101  30.302  30.105  1.00  0.00     0.231 C 
ATOM      4  N   UNL A   1      39.485  27.796  29.147  1.00  0.00    -0.226 N 
ATOM      5  C   UNL A   1      38.552  27.663  30.689  1.00  0.00     0.358 C 
ATOM      6  C   UNL A   1      39.219  29.063  27.977  1.00  0.00     0.272 C 
ATOM      7  O   UNL A   1      38.791  26.634  31.364  1.00  0.00    -0.245 OA
ATOM      8  N   UNL A   1      37.411  29.234  31.069  1.00  0.00    -0.156 NA
ATOM      9  C   UNL A   1      37.740  30.243  28.291  1.00  0.00     0.103 C 
ATOM     10  O   UNL A   1      39.663  29.061  26.828  1.00  0.00    -0.268 OA
ATOM     11  C   UNL A   1      36.872  30.049  27.226  1.00  0.00     0.031 C 
BRANCH   4  12
ATOM     12  C   UNL A   1      40.448  26.715  28.757  1.00  0.00     0.054 A 
ATOM     13  C   UNL A   1      43.556  23.766  27.637  1.00  0.00     0.044 C 
ATOM     14  C   UNL A   1      42.480  24.750  28.017  1.00  0.00    -0.051 A 
ATOM     15  C   UNL A   1      41.176  24.671  27.528  1.00  0.00     0.005 A 
ATOM     16  C   UNL A   1      42.755  25.794  28.890  1.00  0.00     0.005 A 
ATOM     17  C   UNL A   1      40.177  25.623  27.907  1.00  0.00     0.027 A 
ATOM     18  C   UNL A   1      41.766  26.738  29.244  1.00  0.00     0.027 A 
ENDBRANCH   4  12
BRANCH  11  19
ATOM     19  C   UNL A   1      35.412  29.776  27.350  1.00  0.00     0.018 A 
ATOM     20  C   UNL A   1      34.958  28.441  27.291  1.00  0.00     0.012 A 
ATOM     21  C   UNL A   1      34.483  30.818  27.259  1.00  0.00     0.127 A 
ATOM     22  C   UNL A   1      33.732  28.106  26.711  1.00  0.00     0.001 A 
ATOM     23  C   UNL A   1      33.277  30.438  26.552  1.00  0.00     0.047 A 
ATOM     24  C   UNL A   1      32.959  29.115  26.187  1.00  0.00     0.004 A 
BRANCH  21  25
ATOM     25  O   UNL A   1      34.798  32.069  27.981  1.00  0.00    -0.488 OA
BRANCH  25  26
ATOM     26  C   UNL A   1      34.238  33.285  29.158  1.00  0.00     0.265 C 
BRANCH  26  27
ATOM     27  C   UNL A   1      33.941  34.933  29.493  1.00  0.00    -0.010 A 
ATOM     28  C   UNL A   1      33.971  35.967  28.569  1.00  0.00     0.007 A 
ATOM     29  C   UNL A   1      33.306  35.447  30.647  1.00  0.00     0.017 A 
ATOM     30  C   UNL A   1      33.524  37.295  28.950  1.00  0.00     0.001 A 
ATOM     31  C   UNL A   1      33.177  36.699  31.295  1.00  0.00    -0.002 A 
ATOM     32  C   UNL A   1      33.168  37.667  30.303  1.00  0.00     0.010 A 
BRANCH  31  33
ATOM     33  C   UNL A   1      32.588  36.919  32.952  1.00  0.00     0.071 C 
ATOM     34  O   UNL A   1      33.650  37.024  33.645  1.00  0.00    -0.545 OA
ATOM     35  O   UNL A   1      30.719  36.877  33.690  1.00  0.00    -0.545 OA
ENDBRANCH  31  33
ENDBRANCH  26  27
ENDBRANCH  25  26
ENDBRANCH  21  25
ENDBRANCH  11  19
ENDBRANCH   2   3
ENDBRANCH   1   2
BRANCH   1  36
ATOM     36  C   UNL A   1      35.220  32.345  32.412  1.00  0.00     0.274 C 
BRANCH  36  37
ATOM     37  O   UNL A   1      35.875  33.139  33.581  1.00  0.00    -0.458 OA
BRANCH  37  38
ATOM     38  C   UNL A   1      37.014  33.696  34.150  1.00  0.00     0.338 C 
ATOM     39  O   UNL A   1      37.167  33.633  35.366  1.00  0.00    -0.246 OA
BRANCH  38  40
ATOM     40  C   UNL A   1      38.142  34.489  33.391  1.00  0.00     0.060 A 
ATOM     41  C   UNL A   1      39.781  34.567  34.213  1.00  0.00     0.016 A 
ATOM     42  C   UNL A   1      38.344  34.722  31.432  1.00  0.00     0.016 A 
ATOM     43  C   UNL A   1      41.250  34.619  33.099  1.00  0.00     0.010 A 
ATOM     44  C   UNL A   1      39.856  34.526  30.653  1.00  0.00     0.010 A 
ATOM     45  C   UNL A   1      41.178  34.489  31.300  1.00  0.00    -0.014 A 
BRANCH  45  46
ATOM     46  C   UNL A   1      41.876  34.405  29.710  1.00  0.00     0.031 A 
ATOM     47  C   UNL A   1      42.880  33.404  29.780  1.00  0.00     0.074 A 
ATOM     48  C   UNL A   1      42.275  35.327  28.617  1.00  0.00     0.049 A 
ATOM     49  N   UNL A   1      44.151  33.281  28.738  1.00  0.00    -0.248 NA
ATOM     50  C   UNL A   1      42.885  31.814  31.037  1.00  0.00     0.031 C 
ATOM     51  C   UNL A   1      42.640  35.137  27.172  1.00  0.00     0.029 A 
ATOM     52  N   UNL A   1      42.362  36.743  28.552  1.00  0.00    -0.354 N 
ATOM     53  C   UNL A   1      44.960  31.615  28.891  1.00  0.00     0.074 A 
ATOM     54  C   UNL A   1      44.085  30.774  30.457  1.00  0.00     0.031 C 
ATOM     55  C   UNL A   1      43.005  36.311  26.560  1.00  0.00     0.029 A 
ATOM     56  C   UNL A   1      42.969  37.414  27.505  1.00  0.00     0.049 A 
ATOM     57  H   UNL A   1      41.972  37.271  29.286  1.00  0.00     0.167 HD
ATOM     58  C   UNL A   1      45.242  31.192  27.604  1.00  0.00     0.037 A 
ATOM     59  C   UNL A   1      43.647  38.625  27.573  1.00  0.00     0.037 A 
ATOM     60  C   UNL A   1      45.459  32.405  26.788  1.00  0.00     0.049 A 
ATOM     61  C   UNL A   1      45.083  38.254  27.378  1.00  0.00     0.074 A 
ATOM     62  C   UNL A   1      44.782  33.014  25.737  1.00  0.00     0.029 A 
ATOM     63  N   UNL A   1      46.298  33.396  27.295  1.00  0.00    -0.354 N 
ATOM     64  N   UNL A   1      45.417  36.999  27.360  1.00  0.00    -0.248 NA
ATOM     65  C   UNL A   1      46.218  39.143  27.160  1.00  0.00     0.031 C 
ATOM     66  C   UNL A   1      45.313  34.328  25.562  1.00  0.00     0.029 A 
ATOM     67  C   UNL A   1      46.271  34.549  26.539  1.00  0.00     0.049 A 
ATOM     68  H   UNL A   1      46.848  33.286  28.104  1.00  0.00     0.167 HD
ATOM     69  C   UNL A   1      46.708  36.868  27.009  1.00  0.00     0.074 A 
ATOM     70  C   UNL A   1      47.184  38.238  26.912  1.00  0.00     0.031 C 
ATOM     71  C   UNL A   1      47.223  35.623  26.826  1.00  0.00     0.037 A 
BRANCH  58  72
ATOM     72  C   UNL A   1      44.947  29.836  26.981  1.00  0.00     0.064 A 
ATOM     73  C   UNL A   1      43.613  29.378  26.848  1.00  0.00     0.173 A 
ATOM     74  C   UNL A   1      45.911  28.910  26.546  1.00  0.00     0.173 A 
ATOM     75  F   UNL A   1      42.571  30.119  27.243  1.00  0.00    -0.203 F 
ATOM     76  C   UNL A   1      43.282  28.129  26.308  1.00  0.00     0.198 A 
ATOM     77  C   UNL A   1      45.582  27.662  25.997  1.00  0.00     0.198 A 
ATOM     78  F   UNL A   1      47.214  29.158  26.650  1.00  0.00    -0.203 F 
ATOM     79  F   UNL A   1      41.996  27.761  26.225  1.00  0.00    -0.200 F 
ATOM     80  C   UNL A   1      44.268  27.276  25.865  1.00  0.00     0.200 A 
ATOM     81  F   UNL A   1      46.561  26.833  25.606  1.00  0.00    -0.200 F 
ATOM     82  F   UNL A   1      43.954  26.095  25.319  1.00  0.00    -0.200 F 
ENDBRANCH  58  72
BRANCH  59  83
ATOM     83  C   UNL A   1      43.197  39.846  28.399  1.00  0.00     0.064 A 
ATOM     84  C   UNL A   1      41.968  40.447  28.061  1.00  0.00     0.173 A 
ATOM     85  C   UNL A   1      43.693  40.199  29.674  1.00  0.00     0.173 A 
ATOM     86  F   UNL A   1      41.552  40.433  26.787  1.00  0.00    -0.203 F 
ATOM     87  C   UNL A   1      41.123  41.015  29.026  1.00  0.00     0.198 A 
ATOM     88  C   UNL A   1      42.822  40.724  30.664  1.00  0.00     0.198 A 
ATOM     89  F   UNL A   1      44.878  39.730  30.086  1.00  0.00    -0.203 F 
ATOM     90  F   UNL A   1      39.885  41.409  28.692  1.00  0.00    -0.200 F 
ATOM     91  C   UNL A   1      41.512  41.053  30.350  1.00  0.00     0.200 A 
ATOM     92  F   UNL A   1      43.163  40.623  31.960  1.00  0.00    -0.200 F 
ATOM     93  F   UNL A   1      40.611  41.294  31.314  1.00  0.00    -0.200 F 
ENDBRANCH  59  83
BRANCH  71  94
ATOM     94  C   UNL A   1      48.685  35.318  26.802  1.00  0.00     0.064 A 
ATOM     95  C   UNL A   1      49.464  35.156  27.953  1.00  0.00     0.173 A 
ATOM     96  C   UNL A   1      49.344  35.059  25.577  1.00  0.00     0.173 A 
ATOM     97  F   UNL A   1      48.933  35.146  29.181  1.00  0.00    -0.203 F 
ATOM     98  C   UNL A   1      50.832  34.926  27.878  1.00  0.00     0.198 A 
ATOM     99  C   UNL A   1      50.674  34.686  25.516  1.00  0.00     0.198 A 
ATOM    100  F   UNL A   1      48.731  35.139  24.389  1.00  0.00    -0.203 F 
ATOM    101  F   UNL A   1      51.559  34.926  29.003  1.00  0.00    -0.200 F 
ATOM    102  C   UNL A   1      51.434  34.676  26.662  1.00  0.00     0.200 A 
ATOM    103  F   UNL A   1      51.206  34.340  24.337  1.00  0.00    -0.200 F 
ATOM    104  F   UNL A   1      52.741  34.406  26.595  1.00  0.00    -0.200 F 
ENDBRANCH  71  94
ENDBRANCH  45  46
ENDBRANCH  38  40
ENDBRANCH  37  38
ENDBRANCH  36  37
ENDBRANCH   1  36
TORSDOF 16
ENDMDL
MODEL 2
REMARK VINA RESULT:     -14.2      3.766      6.968
REMARK SMILES Cc1ccc(N2C(=O)N=C(OCCOC(=O)c3ccc(-c4c5nc(c(-c6c(F)c(F)c(F)c(F)c6F)c6ccc([nH]6)c(-c6c(F)c(F)c(F)c(F)c6F)c6nc(c(-c7c(F)c(F)c(F)c(F)c7F)c7ccc4[nH]7)C=C6)C=C5)cc3)/C(=C\c3ccccc3OCc3cccc(C(=O)[O-])c3)C2=O)cc1
REMARK SMILES IDX 12 1 11 2 10 3 6 4 7 5 99 6 8 7 9 8 80 9 100 10 81 11 5 12
REMARK SMILES IDX 1 13 2 14 3 15 102 16 4 17 101 18 82 19 83 20 87 21 84 22
REMARK SMILES IDX 86 23 85 24 88 25 89 26 90 27 91 28 98 29 92 30 94 31 93 32
REMARK SMILES IDX 95 33 96 34 97 35 13 36 14 37 15 38 16 39 17 40 18 41 79 42
REMARK SMILES IDX 19 43 78 44 20 45 21 46 22 47 72 48 23 49 77 50 71 51 73 52
REMARK SMILES IDX 24 53 76 54 70 55 69 56 25 58 57 59 37 60 56 61 38 62 41 63
REMARK SMILES IDX 55 64 74 65 39 66 40 67 54 69 75 70 42 71 26 72 27 73 35 74
REMARK SMILES IDX 28 75 29 76 33 77 36 78 30 79 31 80 34 81 32 82 58 83 59 84
REMARK SMILES IDX 67 85 60 86 61 87 65 88 68 89 62 90 63 91 66 92 64 93 43 94
REMARK SMILES IDX 44 95 52 96 45 97 46 98 50 99 53 100 47 101 48 102 51 103
REMARK SMILES IDX 49 104
REMARK H PARENT 73 57 41 68
REMARK Flexibility Score: inf
ROOT
ATOM      1  C   UNL A   1      39.580  32.898  35.621  1.00  0.00     0.273 C 
ENDROOT
BRANCH   1   2
ATOM      2  O   UNL A   1      38.300  32.853  35.103  1.00  0.00    -0.473 OA
BRANCH   2   3
ATOM      3  C   UNL A   1      38.228  32.075  34.030  1.00  0.00     0.231 C 
ATOM      4  N   UNL A   1      38.714  29.723  31.363  1.00  0.00    -0.226 N 
ATOM      5  C   UNL A   1      37.849  29.257  32.880  1.00  0.00     0.358 C 
ATOM      6  C   UNL A   1      39.263  31.347  31.038  1.00  0.00     0.272 C 
ATOM      7  O   UNL A   1      37.428  28.076  32.906  1.00  0.00    -0.245 OA
ATOM      8  N   UNL A   1      37.836  30.675  34.259  1.00  0.00    -0.156 NA
ATOM      9  C   UNL A   1      38.749  32.707  32.289  1.00  0.00     0.103 C 
ATOM     10  O   UNL A   1      39.645  31.752  29.939  1.00  0.00    -0.268 OA
ATOM     11  C   UNL A   1      37.953  33.592  31.575  1.00  0.00     0.031 C 
BRANCH   4  12
ATOM     12  C   UNL A   1      38.871  28.728  30.253  1.00  0.00     0.054 A 
ATOM     13  C   UNL A   1      39.592  25.635  27.167  1.00  0.00     0.044 C 
ATOM     14  C   UNL A   1      39.326  26.697  28.202  1.00  0.00    -0.051 A 
ATOM     15  C   UNL A   1      38.885  27.979  27.874  1.00  0.00     0.005 A 
ATOM     16  C   UNL A   1      39.514  26.430  29.552  1.00  0.00     0.005 A 
ATOM     17  C   UNL A   1      38.644  28.967  28.881  1.00  0.00     0.027 A 
ATOM     18  C   UNL A   1      39.289  27.417  30.536  1.00  0.00     0.027 A 
ENDBRANCH   4  12
BRANCH  11  19
ATOM     19  C   UNL A   1      36.607  34.069  32.002  1.00  0.00     0.018 A 
ATOM     20  C   UNL A   1      36.495  34.842  33.178  1.00  0.00     0.012 A 
ATOM     21  C   UNL A   1      35.449  33.551  31.414  1.00  0.00     0.127 A 
ATOM     22  C   UNL A   1      35.383  34.747  34.019  1.00  0.00     0.001 A 
ATOM     23  C   UNL A   1      34.366  33.374  32.361  1.00  0.00     0.047 A 
ATOM     24  C   UNL A   1      34.380  33.872  33.679  1.00  0.00     0.004 A 
BRANCH  21  25
ATOM     25  O   UNL A   1      35.453  33.385  29.945  1.00  0.00    -0.488 OA
BRANCH  25  26
ATOM     26  C   UNL A   1      34.709  32.580  28.539  1.00  0.00     0.265 C 
BRANCH  26  27
ATOM     27  C   UNL A   1      34.488  31.131  27.662  1.00  0.00    -0.010 A 
ATOM     28  C   UNL A   1      35.287  30.000  27.747  1.00  0.00     0.007 A 
ATOM     29  C   UNL A   1      33.309  30.737  26.988  1.00  0.00     0.017 A 
ATOM     30  C   UNL A   1      34.884  28.774  27.081  1.00  0.00     0.001 A 
ATOM     31  C   UNL A   1      32.938  29.789  26.005  1.00  0.00    -0.002 A 
ATOM     32  C   UNL A   1      33.746  28.678  26.191  1.00  0.00     0.010 A 
BRANCH  31  33
ATOM     33  C   UNL A   1      31.405  29.807  25.117  1.00  0.00     0.071 C 
ATOM     34  O   UNL A   1      30.920  30.959  25.360  1.00  0.00    -0.545 OA
ATOM     35  O   UNL A   1      30.485  28.358  24.070  1.00  0.00    -0.545 OA
ENDBRANCH  31  33
ENDBRANCH  26  27
ENDBRANCH  25  26
ENDBRANCH  21  25
ENDBRANCH  11  19
ENDBRANCH   2   3
ENDBRANCH   1   2
BRANCH   1  36
ATOM     36  C   UNL A   1      40.065  31.509  36.065  1.00  0.00     0.274 C 
BRANCH  36  37
ATOM     37  O   UNL A   1      41.456  31.301  36.735  1.00  0.00    -0.458 OA
BRANCH  37  38
ATOM     38  C   UNL A   1      42.635  30.572  36.826  1.00  0.00     0.338 C 
ATOM     39  O   UNL A   1      43.325  30.673  37.836  1.00  0.00    -0.246 OA
BRANCH  38  40
ATOM     40  C   UNL A   1      43.247  29.648  35.708  1.00  0.00     0.060 A 
ATOM     41  C   UNL A   1      42.917  27.849  35.864  1.00  0.00     0.016 A 
ATOM     42  C   UNL A   1      43.607  30.118  33.816  1.00  0.00     0.016 A 
ATOM     43  C   UNL A   1      42.768  26.907  34.285  1.00  0.00     0.010 A 
ATOM     44  C   UNL A   1      43.177  29.072  32.530  1.00  0.00     0.010 A 
ATOM     45  C   UNL A   1      42.816  27.649  32.641  1.00  0.00    -0.014 A 
BRANCH  45  46
ATOM     46  C   UNL A   1      42.733  27.608  30.904  1.00  0.00     0.031 A 
ATOM     47  C   UNL A   1      43.516  26.492  30.506  1.00  0.00     0.074 A 
ATOM     48  C   UNL A   1      42.744  28.558  29.764  1.00  0.00     0.049 A 
ATOM     49  N   UNL A   1      44.175  26.301  29.008  1.00  0.00    -0.248 NA
ATOM     50  C   UNL A   1      43.842  24.818  31.603  1.00  0.00     0.031 C 
ATOM     51  C   UNL A   1      42.412  28.440  28.303  1.00  0.00     0.029 A 
ATOM     52  N   UNL A   1      42.993  29.955  29.693  1.00  0.00    -0.354 N 
ATOM     53  C   UNL A   1      44.727  24.544  28.758  1.00  0.00     0.074 A 
ATOM     54  C   UNL A   1      44.510  23.692  30.534  1.00  0.00     0.031 C 
ATOM     55  C   UNL A   1      42.637  29.607  27.615  1.00  0.00     0.029 A 
ATOM     56  C   UNL A   1      43.172  30.629  28.499  1.00  0.00     0.049 A 
ATOM     57  H   UNL A   1      43.039  30.466  30.534  1.00  0.00     0.167 HD
ATOM     58  C   UNL A   1      44.358  24.192  27.471  1.00  0.00     0.037 A 
ATOM     59  C   UNL A   1      43.976  31.742  28.281  1.00  0.00     0.037 A 
ATOM     60  C   UNL A   1      44.367  25.431  26.665  1.00  0.00     0.049 A 
ATOM     61  C   UNL A   1      45.115  31.219  27.466  1.00  0.00     0.074 A 
ATOM     62  C   UNL A   1      43.394  26.197  26.032  1.00  0.00     0.029 A 
ATOM     63  N   UNL A   1      45.474  26.273  26.768  1.00  0.00    -0.354 N 
ATOM     64  N   UNL A   1      45.227  29.938  27.280  1.00  0.00    -0.248 NA
ATOM     65  C   UNL A   1      46.156  31.981  26.785  1.00  0.00     0.031 C 
ATOM     66  C   UNL A   1      43.976  27.448  25.665  1.00  0.00     0.029 A 
ATOM     67  C   UNL A   1      45.283  27.476  26.123  1.00  0.00     0.049 A 
ATOM     68  H   UNL A   1      46.300  26.035  27.249  1.00  0.00     0.167 HD
ATOM     69  C   UNL A   1      46.204  29.682  26.393  1.00  0.00     0.074 A 
ATOM     70  C   UNL A   1      46.779  30.989  26.120  1.00  0.00     0.031 C 
ATOM     71  C   UNL A   1      46.407  28.403  25.979  1.00  0.00     0.037 A 
BRANCH  58  72
ATOM     72  C   UNL A   1      43.633  22.934  27.018  1.00  0.00     0.064 A 
ATOM     73  C   UNL A   1      42.350  22.616  27.529  1.00  0.00     0.173 A 
ATOM     74  C   UNL A   1      44.148  21.967  26.137  1.00  0.00     0.173 A 
ATOM     75  F   UNL A   1      41.724  23.411  28.406  1.00  0.00    -0.203 F 
ATOM     76  C   UNL A   1      41.647  21.460  27.170  1.00  0.00     0.198 A 
ATOM     77  C   UNL A   1      43.443  20.812  25.770  1.00  0.00     0.198 A 
ATOM     78  F   UNL A   1      45.363  22.081  25.608  1.00  0.00    -0.203 F 
ATOM     79  F   UNL A   1      40.441  21.222  27.705  1.00  0.00    -0.200 F 
ATOM     80  C   UNL A   1      42.187  20.564  26.275  1.00  0.00     0.200 A 
ATOM     81  F   UNL A   1      44.004  19.936  24.924  1.00  0.00    -0.200 F 
ATOM     82  F   UNL A   1      41.504  19.473  25.905  1.00  0.00    -0.200 F 
ENDBRANCH  58  72
BRANCH  59  83
ATOM     83  C   UNL A   1      44.107  32.939  29.243  1.00  0.00     0.064 A 
ATOM     84  C   UNL A   1      43.437  34.130  28.900  1.00  0.00     0.173 A 
ATOM     85  C   UNL A   1      44.514  32.862  30.594  1.00  0.00     0.173 A 
ATOM     86  F   UNL A   1      43.272  34.449  27.608  1.00  0.00    -0.203 F 
ATOM     87  C   UNL A   1      42.876  34.978  29.867  1.00  0.00     0.198 A 
ATOM     88  C   UNL A   1      43.904  33.685  31.577  1.00  0.00     0.198 A 
ATOM     89  F   UNL A   1      45.204  31.799  31.027  1.00  0.00    -0.203 F 
ATOM     90  F   UNL A   1      42.090  36.000  29.494  1.00  0.00    -0.200 F 
ATOM     91  C   UNL A   1      43.022  34.689  31.208  1.00  0.00     0.200 A 
ATOM     92  F   UNL A   1      43.943  33.308  32.866  1.00  0.00    -0.200 F 
ATOM     93  F   UNL A   1      42.244  35.292  32.119  1.00  0.00    -0.200 F 
ENDBRANCH  59  83
BRANCH  71  94
ATOM     94  C   UNL A   1      47.654  27.930  25.306  1.00  0.00     0.064 A 
ATOM     95  C   UNL A   1      47.757  27.704  23.929  1.00  0.00     0.173 A 
ATOM     96  C   UNL A   1      48.857  27.796  26.040  1.00  0.00     0.173 A 
ATOM     97  F   UNL A   1      46.770  28.006  23.079  1.00  0.00    -0.203 F 
ATOM     98  C   UNL A   1      48.924  27.213  23.359  1.00  0.00     0.198 A 
ATOM     99  C   UNL A   1      50.054  27.448  25.440  1.00  0.00     0.198 A 
ATOM    100  F   UNL A   1      48.934  28.010  27.359  1.00  0.00    -0.203 F 
ATOM    101  F   UNL A   1      48.928  26.872  22.064  1.00  0.00    -0.200 F 
ATOM    102  C   UNL A   1      50.076  27.099  24.111  1.00  0.00     0.200 A 
ATOM    103  F   UNL A   1      51.179  27.453  26.167  1.00  0.00    -0.200 F 
ATOM    104  F   UNL A   1      51.212  26.674  23.550  1.00  0.00    -0.200 F 
ENDBRANCH  71  94
ENDBRANCH  45  46
ENDBRANCH  38  40
ENDBRANCH  37  38
ENDBRANCH  36  37
ENDBRANCH   1  36
TORSDOF 16
ENDMDL
MODEL 3
REMARK VINA RESULT:     -14.1      7.146     14.232
REMARK SMILES Cc1ccc(N2C(=O)N=C(OCCOC(=O)c3ccc(-c4c5nc(c(-c6c(F)c(F)c(F)c(F)c6F)c6ccc([nH]6)c(-c6c(F)c(F)c(F)c(F)c6F)c6nc(c(-c7c(F)c(F)c(F)c(F)c7F)c7ccc4[nH]7)C=C6)C=C5)cc3)/C(=C\c3ccccc3OCc3cccc(C(=O)[O-])c3)C2=O)cc1
REMARK SMILES IDX 12 1 11 2 10 3 6 4 7 5 99 6 8 7 9 8 80 9 100 10 81 11 5 12
REMARK SMILES IDX 1 13 2 14 3 15 102 16 4 17 101 18 82 19 83 20 87 21 84 22
REMARK SMILES IDX 86 23 85 24 88 25 89 26 90 27 91 28 98 29 92 30 94 31 93 32
REMARK SMILES IDX 95 33 96 34 97 35 13 36 14 37 15 38 16 39 17 40 18 41 79 42
REMARK SMILES IDX 19 43 78 44 20 45 21 46 22 47 72 48 23 49 77 50 71 51 73 52
REMARK SMILES IDX 24 53 76 54 70 55 69 56 25 58 57 59 37 60 56 61 38 62 41 63
REMARK SMILES IDX 55 64 74 65 39 66 40 67 54 69 75 70 42 71 26 72 27 73 35 74
REMARK SMILES IDX 28 75 29 76 33 77 36 78 30 79 31 80 34 81 32 82 58 83 59 84
REMARK SMILES IDX 67 85 60 86 61 87 65 88 68 89 62 90 63 91 66 92 64 93 43 94
REMARK SMILES IDX 44 95 52 96 45 97 46 98 50 99 53 100 47 101 48 102 51 103
REMARK SMILES IDX 49 104
REMARK H PARENT 73 57 41 68
REMARK Flexibility Score: inf
ROOT
ATOM      1  C   UNL A   1      44.677  27.619  26.559  1.00  0.00     0.273 C 
ENDROOT
BRANCH   1   2
ATOM      2  O   UNL A   1      43.492  27.962  27.179  1.00  0.00    -0.473 OA
BRANCH   2   3
ATOM      3  C   UNL A   1      43.407  29.269  27.393  1.00  0.00     0.231 C 
ATOM      4  N   UNL A   1      43.938  32.769  27.984  1.00  0.00    -0.226 N 
ATOM      5  C   UNL A   1      43.780  32.113  26.307  1.00  0.00     0.358 C 
ATOM      6  C   UNL A   1      43.731  31.791  29.414  1.00  0.00     0.272 C 
ATOM      7  O   UNL A   1      43.850  32.972  25.396  1.00  0.00    -0.245 OA
ATOM      8  N   UNL A   1      43.642  30.142  26.231  1.00  0.00    -0.156 NA
ATOM      9  C   UNL A   1      43.134  29.987  29.157  1.00  0.00     0.103 C 
ATOM     10  O   UNL A   1      43.604  32.236  30.556  1.00  0.00    -0.268 OA
ATOM     11  C   UNL A   1      41.900  29.907  29.786  1.00  0.00     0.031 C 
BRANCH   4  12
ATOM     12  C   UNL A   1      44.124  34.241  28.199  1.00  0.00     0.054 A 
ATOM     13  C   UNL A   1      44.349  38.636  28.693  1.00  0.00     0.044 C 
ATOM     14  C   UNL A   1      44.296  37.139  28.537  1.00  0.00    -0.051 A 
ATOM     15  C   UNL A   1      45.433  36.361  28.316  1.00  0.00     0.005 A 
ATOM     16  C   UNL A   1      43.085  36.463  28.612  1.00  0.00     0.005 A 
ATOM     17  C   UNL A   1      45.350  34.940  28.170  1.00  0.00     0.027 A 
ATOM     18  C   UNL A   1      43.012  35.062  28.449  1.00  0.00     0.027 A 
ENDBRANCH   4  12
BRANCH  11  19
ATOM     19  C   UNL A   1      40.656  29.368  29.165  1.00  0.00     0.018 A 
ATOM     20  C   UNL A   1      39.694  30.270  28.662  1.00  0.00     0.012 A 
ATOM     21  C   UNL A   1      40.316  28.019  29.311  1.00  0.00     0.127 A 
ATOM     22  C   UNL A   1      38.325  29.998  28.725  1.00  0.00     0.001 A 
ATOM     23  C   UNL A   1      38.892  27.812  29.480  1.00  0.00     0.047 A 
ATOM     24  C   UNL A   1      37.921  28.815  29.297  1.00  0.00     0.004 A 
BRANCH  21  25
ATOM     25  O   UNL A   1      41.400  27.027  29.147  1.00  0.00    -0.488 OA
BRANCH  25  26
ATOM     26  C   UNL A   1      41.824  25.342  28.748  1.00  0.00     0.265 C 
BRANCH  26  27
ATOM     27  C   UNL A   1      41.462  23.945  27.835  1.00  0.00    -0.010 A 
ATOM     28  C   UNL A   1      40.221  23.330  27.749  1.00  0.00     0.007 A 
ATOM     29  C   UNL A   1      42.247  23.406  26.791  1.00  0.00     0.017 A 
ATOM     30  C   UNL A   1      40.007  22.255  26.796  1.00  0.00     0.001 A 
ATOM     31  C   UNL A   1      42.344  22.184  26.084  1.00  0.00    -0.002 A 
ATOM     32  C   UNL A   1      41.062  21.663  26.002  1.00  0.00     0.010 A 
BRANCH  31  33
ATOM     33  C   UNL A   1      43.709  21.722  25.052  1.00  0.00     0.071 C 
ATOM     34  O   UNL A   1      44.336  20.854  25.739  1.00  0.00    -0.545 OA
ATOM     35  O   UNL A   1      44.302  22.445  23.272  1.00  0.00    -0.545 OA
ENDBRANCH  31  33
ENDBRANCH  26  27
ENDBRANCH  25  26
ENDBRANCH  21  25
ENDBRANCH  11  19
ENDBRANCH   2   3
ENDBRANCH   1   2
BRANCH   1  36
ATOM     36  C   UNL A   1      44.477  26.504  25.521  1.00  0.00     0.274 C 
BRANCH  36  37
ATOM     37  O   UNL A   1      45.438  25.281  25.434  1.00  0.00    -0.458 OA
BRANCH  37  38
ATOM     38  C   UNL A   1      46.175  24.299  26.085  1.00  0.00     0.338 C 
ATOM     39  O   UNL A   1      46.692  23.403  25.424  1.00  0.00    -0.246 OA
BRANCH  38  40
ATOM     40  C   UNL A   1      46.374  24.160  27.640  1.00  0.00     0.060 A 
ATOM     41  C   UNL A   1      47.509  25.368  28.429  1.00  0.00     0.016 A 
ATOM     42  C   UNL A   1      45.071  23.474  28.967  1.00  0.00     0.016 A 
ATOM     43  C   UNL A   1      47.102  25.858  30.161  1.00  0.00     0.010 A 
ATOM     44  C   UNL A   1      44.788  24.278  30.452  1.00  0.00     0.010 A 
ATOM     45  C   UNL A   1      45.633  25.319  31.060  1.00  0.00    -0.014 A 
BRANCH  45  46
ATOM     46  C   UNL A   1      44.567  25.283  32.434  1.00  0.00     0.031 A 
ATOM     47  C   UNL A   1      44.497  26.620  32.905  1.00  0.00     0.074 A 
ATOM     48  C   UNL A   1      44.278  24.409  33.599  1.00  0.00     0.049 A 
ATOM     49  N   UNL A   1      44.054  27.050  34.433  1.00  0.00    -0.248 NA
ATOM     50  C   UNL A   1      44.739  28.289  31.780  1.00  0.00     0.031 C 
ATOM     51  C   UNL A   1      43.159  24.338  34.598  1.00  0.00     0.029 A 
ATOM     52  N   UNL A   1      44.940  23.264  34.115  1.00  0.00    -0.354 N 
ATOM     53  C   UNL A   1      43.661  28.865  34.511  1.00  0.00     0.074 A 
ATOM     54  C   UNL A   1      44.198  29.572  32.740  1.00  0.00     0.031 C 
ATOM     55  C   UNL A   1      43.364  23.375  35.555  1.00  0.00     0.029 A 
ATOM     56  C   UNL A   1      44.641  22.712  35.348  1.00  0.00     0.049 A 
ATOM     57  H   UNL A   1      45.644  22.843  33.570  1.00  0.00     0.167 HD
ATOM     58  C   UNL A   1      42.525  28.990  35.293  1.00  0.00     0.037 A 
ATOM     59  C   UNL A   1      45.520  22.062  36.206  1.00  0.00     0.037 A 
ATOM     60  C   UNL A   1      42.534  27.865  36.252  1.00  0.00     0.049 A 
ATOM     61  C   UNL A   1      45.694  23.016  37.346  1.00  0.00     0.074 A 
ATOM     62  C   UNL A   1      41.746  26.736  36.446  1.00  0.00     0.029 A 
ATOM     63  N   UNL A   1      43.716  27.599  36.941  1.00  0.00    -0.354 N 
ATOM     64  N   UNL A   1      45.193  24.211  37.255  1.00  0.00    -0.248 NA
ATOM     65  C   UNL A   1      46.352  22.775  38.625  1.00  0.00     0.031 C 
ATOM     66  C   UNL A   1      42.428  25.861  37.344  1.00  0.00     0.029 A 
ATOM     67  C   UNL A   1      43.657  26.421  37.655  1.00  0.00     0.049 A 
ATOM     68  H   UNL A   1      44.507  28.186  36.919  1.00  0.00     0.167 HD
ATOM     69  C   UNL A   1      45.307  24.851  38.431  1.00  0.00     0.074 A 
ATOM     70  C   UNL A   1      46.060  23.925  39.262  1.00  0.00     0.031 C 
ATOM     71  C   UNL A   1      44.743  26.080  38.576  1.00  0.00     0.037 A 
BRANCH  58  72
ATOM     72  C   UNL A   1      41.268  29.791  34.992  1.00  0.00     0.064 A 
ATOM     73  C   UNL A   1      40.509  29.530  33.825  1.00  0.00     0.173 A 
ATOM     74  C   UNL A   1      40.776  30.860  35.762  1.00  0.00     0.173 A 
ATOM     75  F   UNL A   1      40.853  28.568  32.960  1.00  0.00    -0.203 F 
ATOM     76  C   UNL A   1      39.359  30.252  33.482  1.00  0.00     0.198 A 
ATOM     77  C   UNL A   1      39.621  31.579  35.425  1.00  0.00     0.198 A 
ATOM     78  F   UNL A   1      41.400  31.273  36.862  1.00  0.00    -0.203 F 
ATOM     79  F   UNL A   1      38.699  29.954  32.354  1.00  0.00    -0.200 F 
ATOM     80  C   UNL A   1      38.904  31.267  34.292  1.00  0.00     0.200 A 
ATOM     81  F   UNL A   1      39.217  32.587  36.212  1.00  0.00    -0.200 F 
ATOM     82  F   UNL A   1      37.787  31.939  33.985  1.00  0.00    -0.200 F 
ENDBRANCH  58  72
BRANCH  59  83
ATOM     83  C   UNL A   1      46.610  21.065  35.766  1.00  0.00     0.064 A 
ATOM     84  C   UNL A   1      46.201  19.768  35.401  1.00  0.00     0.173 A 
ATOM     85  C   UNL A   1      47.913  21.413  35.342  1.00  0.00     0.173 A 
ATOM     86  F   UNL A   1      45.130  19.220  35.992  1.00  0.00    -0.203 F 
ATOM     87  C   UNL A   1      46.843  19.039  34.388  1.00  0.00     0.198 A 
ATOM     88  C   UNL A   1      48.535  20.705  34.281  1.00  0.00     0.198 A 
ATOM     89  F   UNL A   1      48.431  22.603  35.673  1.00  0.00    -0.203 F 
ATOM     90  F   UNL A   1      46.312  17.889  33.945  1.00  0.00    -0.200 F 
ATOM     91  C   UNL A   1      47.951  19.564  33.754  1.00  0.00     0.200 A 
ATOM     92  F   UNL A   1      49.524  21.296  33.587  1.00  0.00    -0.200 F 
ATOM     93  F   UNL A   1      48.378  19.041  32.595  1.00  0.00    -0.200 F 
ENDBRANCH  59  83
BRANCH  71  94
ATOM     94  C   UNL A   1      45.096  27.039  39.665  1.00  0.00     0.064 A 
ATOM     95  C   UNL A   1      44.644  26.919  40.984  1.00  0.00     0.173 A 
ATOM     96  C   UNL A   1      46.026  28.080  39.430  1.00  0.00     0.173 A 
ATOM     97  F   UNL A   1      43.944  25.860  41.406  1.00  0.00    -0.203 F 
ATOM     98  C   UNL A   1      44.958  27.867  41.948  1.00  0.00     0.198 A 
ATOM     99  C   UNL A   1      46.449  28.933  40.432  1.00  0.00     0.198 A 
ATOM    100  F   UNL A   1      46.578  28.307  38.231  1.00  0.00    -0.203 F 
ATOM    101  F   UNL A   1      44.381  27.790  43.155  1.00  0.00    -0.200 F 
ATOM    102  C   UNL A   1      45.872  28.865  41.677  1.00  0.00     0.200 A 
ATOM    103  F   UNL A   1      47.419  29.821  40.173  1.00  0.00    -0.200 F 
ATOM    104  F   UNL A   1      46.211  29.748  42.622  1.00  0.00    -0.200 F 
ENDBRANCH  71  94
ENDBRANCH  45  46
ENDBRANCH  38  40
ENDBRANCH  37  38
ENDBRANCH  36  37
ENDBRANCH   1  36
TORSDOF 16
ENDMDL
