MODEL 1
REMARK VINA RESULT:     -10.9      0.000      0.000
REMARK SMILES C#CC[N@@H+](CC(=O)OCCOC(=O)c1ccc(-c2c3nc(c(-c4c(F)c(F)c(F)c(F)c4F)c4ccc([nH]4)c(-c4c(F)c(F)c(F)c(F)c4F)c4nc(c(-c5c(F)c(F)c(F)c(F)c5F)c5ccc2[nH]5)C=C4)C=C3)cc1)[C@@H](C)c1ccc(C#N)cc1
REMARK SMILES IDX 9 1 8 2 6 3 7 4 5 5 4 6 3 8 2 9 1 10 77 11 78 12 79 13 80 14
REMARK SMILES IDX 86 15 81 16 85 17 82 18 83 19 84 20 10 21 11 22 12 23 13 24
REMARK SMILES IDX 14 25 15 26 76 27 16 28 75 29 17 30 18 31 19 32 69 33 20 34
REMARK SMILES IDX 74 35 68 36 70 37 21 38 73 39 67 40 66 41 22 43 54 44 34 45
REMARK SMILES IDX 53 46 35 47 38 48 52 49 71 50 36 51 37 52 51 54 72 55 39 56
REMARK SMILES IDX 23 57 24 58 32 59 25 60 26 61 30 62 33 63 27 64 28 65 31 66
REMARK SMILES IDX 29 67 55 68 56 69 64 70 57 71 58 72 62 73 65 74 59 75 60 76
REMARK SMILES IDX 63 77 61 78 40 79 41 80 49 81 42 82 43 83 47 84 50 85 44 86
REMARK SMILES IDX 45 87 48 88 46 89
REMARK H PARENT 4 7 70 42 38 53
REMARK Flexibility Score: inf
ROOT
ATOM      1  C   UNL A   1      31.397  28.025  25.758  1.00  0.00     0.274 C 
ENDROOT
BRANCH   1   2
ATOM      2  O   UNL A   1      32.425  27.017  25.566  1.00  0.00    -0.458 OA
BRANCH   2   3
ATOM      3  C   UNL A   1      32.299  25.816  26.212  1.00  0.00     0.361 C 
ATOM      4  O   UNL A   1      31.296  25.503  26.852  1.00  0.00    -0.245 OA
BRANCH   3   5
ATOM      5  C   UNL A   1      33.473  24.799  25.967  1.00  0.00     0.387 C 
BRANCH   5   6
ATOM      6  N   UNL A   1      33.360  23.807  24.867  1.00  0.00    -0.310 N 
ATOM      7  H   UNL A   1      33.823  22.935  25.126  1.00  0.00     0.349 HD
BRANCH   6   8
ATOM      8  C   UNL A   1      34.028  24.416  23.741  1.00  0.00     0.354 C 
BRANCH   8   9
ATOM      9  C   UNL A   1      35.274  23.581  23.498  1.00  0.00    -0.047 C 
ATOM     10  C   UNL A   1      36.343  22.865  23.290  1.00  0.00     0.010 C 
ENDBRANCH   8   9
ENDBRANCH   6   8
BRANCH   6  11
ATOM     11  C   UNL A   1      32.103  22.958  24.685  1.00  0.00     0.213 C 
ATOM     12  C   UNL A   1      31.029  23.341  23.633  1.00  0.00     0.081 C 
BRANCH  11  13
ATOM     13  C   UNL A   1      32.318  21.413  24.428  1.00  0.00     0.009 A 
ATOM     14  C   UNL A   1      32.651  20.510  25.444  1.00  0.00     0.011 A 
ATOM     15  C   UNL A   1      32.157  20.866  23.120  1.00  0.00     0.011 A 
ATOM     16  C   UNL A   1      32.916  19.156  25.141  1.00  0.00     0.020 A 
ATOM     17  C   UNL A   1      32.429  19.533  22.814  1.00  0.00     0.020 A 
ATOM     18  C   UNL A   1      32.860  18.683  23.822  1.00  0.00     0.052 A 
BRANCH  18  19
ATOM     19  C   UNL A   1      33.325  17.377  23.466  1.00  0.00     0.099 C 
ATOM     20  N   UNL A   1      33.742  16.345  23.125  1.00  0.00    -0.192 NA
ENDBRANCH  18  19
ENDBRANCH  11  13
ENDBRANCH   6  11
ENDBRANCH   5   6
ENDBRANCH   3   5
ENDBRANCH   2   3
ENDBRANCH   1   2
BRANCH   1  21
ATOM     21  C   UNL A   1      31.904  29.221  26.620  1.00  0.00     0.275 C 
BRANCH  21  22
ATOM     22  O   UNL A   1      32.956  30.042  26.020  1.00  0.00    -0.458 OA
BRANCH  22  23
ATOM     23  C   UNL A   1      33.549  30.827  26.925  1.00  0.00     0.338 C 
ATOM     24  O   UNL A   1      33.023  31.800  27.427  1.00  0.00    -0.246 OA
BRANCH  23  25
ATOM     25  C   UNL A   1      34.890  30.693  27.435  1.00  0.00     0.060 A 
ATOM     26  C   UNL A   1      35.095  29.449  28.065  1.00  0.00     0.016 A 
ATOM     27  C   UNL A   1      35.645  31.805  27.784  1.00  0.00     0.016 A 
ATOM     28  C   UNL A   1      36.022  29.321  29.072  1.00  0.00     0.010 A 
ATOM     29  C   UNL A   1      36.705  31.622  28.673  1.00  0.00     0.010 A 
ATOM     30  C   UNL A   1      36.913  30.371  29.288  1.00  0.00    -0.014 A 
BRANCH  30  31
ATOM     31  C   UNL A   1      38.171  30.059  29.988  1.00  0.00     0.031 A 
ATOM     32  C   UNL A   1      39.199  29.165  29.387  1.00  0.00     0.074 A 
ATOM     33  C   UNL A   1      38.322  30.595  31.216  1.00  0.00     0.049 A 
ATOM     34  N   UNL A   1      40.277  28.679  29.941  1.00  0.00    -0.248 NA
ATOM     35  C   UNL A   1      38.987  28.746  27.994  1.00  0.00     0.031 C 
ATOM     36  C   UNL A   1      37.368  31.504  31.869  1.00  0.00     0.029 A 
ATOM     37  N   UNL A   1      39.321  30.463  32.138  1.00  0.00    -0.354 N 
ATOM     38  C   UNL A   1      40.861  27.871  28.980  1.00  0.00     0.074 A 
ATOM     39  C   UNL A   1      40.005  27.915  27.811  1.00  0.00     0.031 C 
ATOM     40  C   UNL A   1      37.843  31.871  33.062  1.00  0.00     0.029 A 
ATOM     41  C   UNL A   1      39.074  31.142  33.306  1.00  0.00     0.049 A 
ATOM     42  H   UNL A   1      40.138  29.934  31.981  1.00  0.00     0.167 HD
ATOM     43  C   UNL A   1      42.010  27.162  29.083  1.00  0.00     0.037 A 
ATOM     44  C   UNL A   1      39.736  31.133  34.473  1.00  0.00     0.037 A 
ATOM     45  C   UNL A   1      42.831  27.142  30.268  1.00  0.00     0.049 A 
ATOM     46  C   UNL A   1      40.961  30.279  34.573  1.00  0.00     0.074 A 
ATOM     47  C   UNL A   1      44.020  26.468  30.484  1.00  0.00     0.029 A 
ATOM     48  N   UNL A   1      42.540  27.822  31.445  1.00  0.00    -0.354 N 
ATOM     49  N   UNL A   1      41.514  29.517  33.660  1.00  0.00    -0.248 NA
ATOM     50  C   UNL A   1      41.654  30.280  35.864  1.00  0.00     0.031 C 
ATOM     51  C   UNL A   1      44.409  26.683  31.809  1.00  0.00     0.029 A 
ATOM     52  C   UNL A   1      43.512  27.560  32.399  1.00  0.00     0.049 A 
ATOM     53  H   UNL A   1      41.758  28.405  31.582  1.00  0.00     0.167 HD
ATOM     54  C   UNL A   1      42.641  28.975  34.252  1.00  0.00     0.074 A 
ATOM     55  C   UNL A   1      42.698  29.511  35.599  1.00  0.00     0.031 C 
ATOM     56  C   UNL A   1      43.549  28.114  33.731  1.00  0.00     0.037 A 
BRANCH  43  57
ATOM     57  C   UNL A   1      42.418  26.321  27.906  1.00  0.00     0.064 A 
ATOM     58  C   UNL A   1      43.348  26.772  26.957  1.00  0.00     0.173 A 
ATOM     59  C   UNL A   1      41.887  25.032  27.740  1.00  0.00     0.173 A 
ATOM     60  F   UNL A   1      43.877  28.000  27.059  1.00  0.00    -0.203 F 
ATOM     61  C   UNL A   1      43.704  25.977  25.869  1.00  0.00     0.198 A 
ATOM     62  C   UNL A   1      42.274  24.227  26.672  1.00  0.00     0.198 A 
ATOM     63  F   UNL A   1      40.997  24.549  28.619  1.00  0.00    -0.203 F 
ATOM     64  F   UNL A   1      44.549  26.453  24.943  1.00  0.00    -0.200 F 
ATOM     65  C   UNL A   1      43.174  24.704  25.731  1.00  0.00     0.200 A 
ATOM     66  F   UNL A   1      41.772  22.991  26.552  1.00  0.00    -0.200 F 
ATOM     67  F   UNL A   1      43.523  23.938  24.688  1.00  0.00    -0.200 F 
ENDBRANCH  43  57
BRANCH  44  68
ATOM     68  C   UNL A   1      39.236  31.932  35.620  1.00  0.00     0.064 A 
ATOM     69  C   UNL A   1      38.387  31.359  36.576  1.00  0.00     0.173 A 
ATOM     70  C   UNL A   1      39.598  33.278  35.792  1.00  0.00     0.173 A 
ATOM     71  F   UNL A   1      38.010  30.078  36.453  1.00  0.00    -0.203 F 
ATOM     72  C   UNL A   1      37.889  32.111  37.637  1.00  0.00     0.198 A 
ATOM     73  C   UNL A   1      39.132  34.017  36.876  1.00  0.00     0.198 A 
ATOM     74  F   UNL A   1      40.425  33.870  34.918  1.00  0.00    -0.203 F 
ATOM     75  F   UNL A   1      37.030  31.555  38.501  1.00  0.00    -0.200 F 
ATOM     76  C   UNL A   1      38.265  33.437  37.789  1.00  0.00     0.200 A 
ATOM     77  F   UNL A   1      39.520  35.290  37.034  1.00  0.00    -0.200 F 
ATOM     78  F   UNL A   1      37.786  34.159  38.811  1.00  0.00    -0.200 F 
ENDBRANCH  44  68
BRANCH  56  79
ATOM     79  C   UNL A   1      44.715  27.752  34.605  1.00  0.00     0.064 A 
ATOM     80  C   UNL A   1      44.697  26.626  35.441  1.00  0.00     0.173 A 
ATOM     81  C   UNL A   1      45.876  28.540  34.588  1.00  0.00     0.173 A 
ATOM     82  F   UNL A   1      43.604  25.851  35.509  1.00  0.00    -0.203 F 
ATOM     83  C   UNL A   1      45.785  26.324  36.255  1.00  0.00     0.198 A 
ATOM     84  C   UNL A   1      46.978  28.210  35.369  1.00  0.00     0.198 A 
ATOM     85  F   UNL A   1      45.946  29.626  33.803  1.00  0.00    -0.203 F 
ATOM     86  F   UNL A   1      45.720  25.284  37.097  1.00  0.00    -0.200 F 
ATOM     87  C   UNL A   1      46.927  27.110  36.211  1.00  0.00     0.200 A 
ATOM     88  F   UNL A   1      48.087  28.960  35.311  1.00  0.00    -0.200 F 
ATOM     89  F   UNL A   1      47.977  26.813  36.989  1.00  0.00    -0.200 F 
ENDBRANCH  56  79
ENDBRANCH  30  31
ENDBRANCH  23  25
ENDBRANCH  22  23
ENDBRANCH  21  22
ENDBRANCH   1  21
TORSDOF 17
ENDMDL
MODEL 2
REMARK VINA RESULT:     -10.9      3.136      5.022
REMARK SMILES C#CC[N@@H+](CC(=O)OCCOC(=O)c1ccc(-c2c3nc(c(-c4c(F)c(F)c(F)c(F)c4F)c4ccc([nH]4)c(-c4c(F)c(F)c(F)c(F)c4F)c4nc(c(-c5c(F)c(F)c(F)c(F)c5F)c5ccc2[nH]5)C=C4)C=C3)cc1)[C@@H](C)c1ccc(C#N)cc1
REMARK SMILES IDX 9 1 8 2 6 3 7 4 5 5 4 6 3 8 2 9 1 10 77 11 78 12 79 13 80 14
REMARK SMILES IDX 86 15 81 16 85 17 82 18 83 19 84 20 10 21 11 22 12 23 13 24
REMARK SMILES IDX 14 25 15 26 76 27 16 28 75 29 17 30 18 31 19 32 69 33 20 34
REMARK SMILES IDX 74 35 68 36 70 37 21 38 73 39 67 40 66 41 22 43 54 44 34 45
REMARK SMILES IDX 53 46 35 47 38 48 52 49 71 50 36 51 37 52 51 54 72 55 39 56
REMARK SMILES IDX 23 57 24 58 32 59 25 60 26 61 30 62 33 63 27 64 28 65 31 66
REMARK SMILES IDX 29 67 55 68 56 69 64 70 57 71 58 72 62 73 65 74 59 75 60 76
REMARK SMILES IDX 63 77 61 78 40 79 41 80 49 81 42 82 43 83 47 84 50 85 44 86
REMARK SMILES IDX 45 87 48 88 46 89
REMARK H PARENT 4 7 70 42 38 53
REMARK Flexibility Score: inf
ROOT
ATOM      1  C   UNL A   1      32.703  31.410  27.011  1.00  0.00     0.274 C 
ENDROOT
BRANCH   1   2
ATOM      2  O   UNL A   1      31.979  30.155  27.129  1.00  0.00    -0.458 OA
BRANCH   2   3
ATOM      3  C   UNL A   1      32.677  28.981  27.037  1.00  0.00     0.361 C 
ATOM      4  O   UNL A   1      33.873  28.890  27.313  1.00  0.00    -0.245 OA
BRANCH   3   5
ATOM      5  C   UNL A   1      31.812  27.715  26.685  1.00  0.00     0.387 C 
BRANCH   5   6
ATOM      6  N   UNL A   1      31.112  27.651  25.377  1.00  0.00    -0.310 N 
ATOM      7  H   UNL A   1      30.312  28.285  25.370  1.00  0.00     0.349 HD
BRANCH   6   8
ATOM      8  C   UNL A   1      30.669  26.282  25.255  1.00  0.00     0.354 C 
BRANCH   8   9
ATOM      9  C   UNL A   1      29.344  26.340  24.515  1.00  0.00    -0.047 C 
ATOM     10  C   UNL A   1      28.207  26.390  23.879  1.00  0.00     0.010 C 
ENDBRANCH   8   9
ENDBRANCH   6   8
BRANCH   6  11
ATOM     11  C   UNL A   1      31.609  28.439  24.166  1.00  0.00     0.213 C 
ATOM     12  C   UNL A   1      32.234  27.713  22.945  1.00  0.00     0.081 C 
BRANCH  11  13
ATOM     13  C   UNL A   1      30.584  29.441  23.499  1.00  0.00     0.009 A 
ATOM     14  C   UNL A   1      30.188  29.347  22.160  1.00  0.00     0.011 A 
ATOM     15  C   UNL A   1      29.996  30.492  24.264  1.00  0.00     0.011 A 
ATOM     16  C   UNL A   1      29.336  30.322  21.595  1.00  0.00     0.020 A 
ATOM     17  C   UNL A   1      29.164  31.463  23.707  1.00  0.00     0.020 A 
ATOM     18  C   UNL A   1      28.872  31.407  22.353  1.00  0.00     0.052 A 
BRANCH  18  19
ATOM     19  C   UNL A   1      28.185  32.510  21.753  1.00  0.00     0.099 C 
ATOM     20  N   UNL A   1      27.657  33.390  21.202  1.00  0.00    -0.192 NA
ENDBRANCH  18  19
ENDBRANCH  11  13
ENDBRANCH   6  11
ENDBRANCH   5   6
ENDBRANCH   3   5
ENDBRANCH   2   3
ENDBRANCH   1   2
BRANCH   1  21
ATOM     21  C   UNL A   1      31.779  32.642  27.245  1.00  0.00     0.275 C 
BRANCH  21  22
ATOM     22  O   UNL A   1      32.451  33.939  27.339  1.00  0.00    -0.458 OA
BRANCH  22  23
ATOM     23  C   UNL A   1      33.099  34.079  28.500  1.00  0.00     0.338 C 
ATOM     24  O   UNL A   1      32.686  34.740  29.431  1.00  0.00    -0.246 OA
BRANCH  23  25
ATOM     25  C   UNL A   1      34.382  33.520  28.843  1.00  0.00     0.060 A 
ATOM     26  C   UNL A   1      34.286  32.570  29.879  1.00  0.00     0.016 A 
ATOM     27  C   UNL A   1      35.559  34.224  28.625  1.00  0.00     0.016 A 
ATOM     28  C   UNL A   1      35.346  32.350  30.725  1.00  0.00     0.010 A 
ATOM     29  C   UNL A   1      36.683  33.864  29.368  1.00  0.00     0.010 A 
ATOM     30  C   UNL A   1      36.582  32.902  30.393  1.00  0.00    -0.014 A 
BRANCH  30  31
ATOM     31  C   UNL A   1      37.781  32.286  30.990  1.00  0.00     0.031 A 
ATOM     32  C   UNL A   1      38.540  31.214  30.291  1.00  0.00     0.074 A 
ATOM     33  C   UNL A   1      38.128  32.721  32.219  1.00  0.00     0.049 A 
ATOM     34  N   UNL A   1      39.514  30.475  30.750  1.00  0.00    -0.248 NA
ATOM     35  C   UNL A   1      38.149  30.914  28.905  1.00  0.00     0.031 C 
ATOM     36  C   UNL A   1      37.447  33.789  32.965  1.00  0.00     0.029 A 
ATOM     37  N   UNL A   1      39.130  32.329  33.061  1.00  0.00    -0.354 N 
ATOM     38  C   UNL A   1      39.838  29.601  29.726  1.00  0.00     0.074 A 
ATOM     39  C   UNL A   1      38.940  29.886  28.625  1.00  0.00     0.031 C 
ATOM     40  C   UNL A   1      38.070  33.989  34.130  1.00  0.00     0.029 A 
ATOM     41  C   UNL A   1      39.118  32.993  34.263  1.00  0.00     0.049 A 
ATOM     42  H   UNL A   1      39.794  31.639  32.830  1.00  0.00     0.167 HD
ATOM     43  C   UNL A   1      40.802  28.650  29.724  1.00  0.00     0.037 A 
ATOM     44  C   UNL A   1      39.835  32.786  35.377  1.00  0.00     0.037 A 
ATOM     45  C   UNL A   1      41.672  28.396  30.845  1.00  0.00     0.049 A 
ATOM     46  C   UNL A   1      40.840  31.677  35.363  1.00  0.00     0.074 A 
ATOM     47  C   UNL A   1      42.691  27.465  30.954  1.00  0.00     0.029 A 
ATOM     48  N   UNL A   1      41.619  29.070  32.060  1.00  0.00    -0.354 N 
ATOM     49  N   UNL A   1      41.147  30.853  34.391  1.00  0.00    -0.248 NA
ATOM     50  C   UNL A   1      41.598  31.467  36.600  1.00  0.00     0.031 C 
ATOM     51  C   UNL A   1      43.203  27.530  32.253  1.00  0.00     0.029 A 
ATOM     52  C   UNL A   1      42.567  28.557  32.932  1.00  0.00     0.049 A 
ATOM     53  H   UNL A   1      40.999  29.806  32.269  1.00  0.00     0.167 HD
ATOM     54  C   UNL A   1      42.159  30.047  34.884  1.00  0.00     0.074 A 
ATOM     55  C   UNL A   1      42.423  30.497  36.237  1.00  0.00     0.031 C 
ATOM     56  C   UNL A   1      42.814  29.030  34.273  1.00  0.00     0.037 A 
BRANCH  43  57
ATOM     57  C   UNL A   1      40.933  27.793  28.498  1.00  0.00     0.064 A 
ATOM     58  C   UNL A   1      40.209  26.601  28.342  1.00  0.00     0.173 A 
ATOM     59  C   UNL A   1      41.780  28.184  27.449  1.00  0.00     0.173 A 
ATOM     60  F   UNL A   1      39.395  26.172  29.317  1.00  0.00    -0.203 F 
ATOM     61  C   UNL A   1      40.354  25.817  27.199  1.00  0.00     0.198 A 
ATOM     62  C   UNL A   1      41.895  27.417  26.292  1.00  0.00     0.198 A 
ATOM     63  F   UNL A   1      42.495  29.316  27.543  1.00  0.00    -0.203 F 
ATOM     64  F   UNL A   1      39.697  24.653  27.099  1.00  0.00    -0.200 F 
ATOM     65  C   UNL A   1      41.190  26.230  26.172  1.00  0.00     0.200 A 
ATOM     66  F   UNL A   1      42.691  27.828  25.295  1.00  0.00    -0.200 F 
ATOM     67  F   UNL A   1      41.323  25.479  25.070  1.00  0.00    -0.200 F 
ENDBRANCH  43  57
BRANCH  44  68
ATOM     68  C   UNL A   1      39.603  33.625  36.580  1.00  0.00     0.064 A 
ATOM     69  C   UNL A   1      38.765  33.182  37.611  1.00  0.00     0.173 A 
ATOM     70  C   UNL A   1      40.217  34.879  36.731  1.00  0.00     0.173 A 
ATOM     71  F   UNL A   1      38.154  31.992  37.512  1.00  0.00    -0.203 F 
ATOM     72  C   UNL A   1      38.518  33.976  38.728  1.00  0.00     0.198 A 
ATOM     73  C   UNL A   1      40.001  35.655  37.867  1.00  0.00     0.198 A 
ATOM     74  F   UNL A   1      41.045  35.343  35.784  1.00  0.00    -0.203 F 
ATOM     75  F   UNL A   1      37.664  33.555  39.670  1.00  0.00    -0.200 F 
ATOM     76  C   UNL A   1      39.139  35.210  38.857  1.00  0.00     0.200 A 
ATOM     77  F   UNL A   1      40.625  36.833  38.000  1.00  0.00    -0.200 F 
ATOM     78  F   UNL A   1      38.902  35.973  39.933  1.00  0.00    -0.200 F 
ENDBRANCH  44  68
BRANCH  56  79
ATOM     79  C   UNL A   1      43.922  28.379  35.049  1.00  0.00     0.064 A 
ATOM     80  C   UNL A   1      45.238  28.865  35.018  1.00  0.00     0.173 A 
ATOM     81  C   UNL A   1      43.653  27.260  35.852  1.00  0.00     0.173 A 
ATOM     82  F   UNL A   1      45.552  29.920  34.252  1.00  0.00    -0.203 F 
ATOM     83  C   UNL A   1      46.250  28.231  35.733  1.00  0.00     0.198 A 
ATOM     84  C   UNL A   1      44.658  26.656  36.600  1.00  0.00     0.198 A 
ATOM     85  F   UNL A   1      42.411  26.758  35.919  1.00  0.00    -0.203 F 
ATOM     86  F   UNL A   1      47.512  28.669  35.635  1.00  0.00    -0.200 F 
ATOM     87  C   UNL A   1      45.957  27.134  36.530  1.00  0.00     0.200 A 
ATOM     88  F   UNL A   1      44.369  25.608  37.384  1.00  0.00    -0.200 F 
ATOM     89  F   UNL A   1      46.931  26.530  37.226  1.00  0.00    -0.200 F 
ENDBRANCH  56  79
ENDBRANCH  30  31
ENDBRANCH  23  25
ENDBRANCH  22  23
ENDBRANCH  21  22
ENDBRANCH   1  21
TORSDOF 17
ENDMDL
MODEL 3
REMARK VINA RESULT:     -10.8      1.632      2.417
REMARK SMILES C#CC[N@@H+](CC(=O)OCCOC(=O)c1ccc(-c2c3nc(c(-c4c(F)c(F)c(F)c(F)c4F)c4ccc([nH]4)c(-c4c(F)c(F)c(F)c(F)c4F)c4nc(c(-c5c(F)c(F)c(F)c(F)c5F)c5ccc2[nH]5)C=C4)C=C3)cc1)[C@@H](C)c1ccc(C#N)cc1
REMARK SMILES IDX 9 1 8 2 6 3 7 4 5 5 4 6 3 8 2 9 1 10 77 11 78 12 79 13 80 14
REMARK SMILES IDX 86 15 81 16 85 17 82 18 83 19 84 20 10 21 11 22 12 23 13 24
REMARK SMILES IDX 14 25 15 26 76 27 16 28 75 29 17 30 18 31 19 32 69 33 20 34
REMARK SMILES IDX 74 35 68 36 70 37 21 38 73 39 67 40 66 41 22 43 54 44 34 45
REMARK SMILES IDX 53 46 35 47 38 48 52 49 71 50 36 51 37 52 51 54 72 55 39 56
REMARK SMILES IDX 23 57 24 58 32 59 25 60 26 61 30 62 33 63 27 64 28 65 31 66
REMARK SMILES IDX 29 67 55 68 56 69 64 70 57 71 58 72 62 73 65 74 59 75 60 76
REMARK SMILES IDX 63 77 61 78 40 79 41 80 49 81 42 82 43 83 47 84 50 85 44 86
REMARK SMILES IDX 45 87 48 88 46 89
REMARK H PARENT 4 7 70 42 38 53
REMARK Flexibility Score: inf
ROOT
ATOM      1  C   UNL A   1      31.748  28.566  27.379  1.00  0.00     0.274 C 
ENDROOT
BRANCH   1   2
ATOM      2  O   UNL A   1      31.380  27.652  26.310  1.00  0.00    -0.458 OA
BRANCH   2   3
ATOM      3  C   UNL A   1      31.951  26.408  26.282  1.00  0.00     0.361 C 
ATOM      4  O   UNL A   1      31.381  25.399  26.695  1.00  0.00    -0.245 OA
BRANCH   3   5
ATOM      5  C   UNL A   1      33.342  26.329  25.553  1.00  0.00     0.387 C 
BRANCH   5   6
ATOM      6  N   UNL A   1      33.434  25.669  24.225  1.00  0.00    -0.310 N 
ATOM      7  H   UNL A   1      34.381  25.747  23.854  1.00  0.00     0.349 HD
BRANCH   6   8
ATOM      8  C   UNL A   1      32.504  26.386  23.385  1.00  0.00     0.354 C 
BRANCH   8   9
ATOM      9  C   UNL A   1      33.182  27.703  23.047  1.00  0.00    -0.047 C 
ATOM     10  C   UNL A   1      33.763  28.833  22.758  1.00  0.00     0.010 C 
ENDBRANCH   8   9
ENDBRANCH   6   8
BRANCH   6  11
ATOM     11  C   UNL A   1      33.624  24.159  24.096  1.00  0.00     0.213 C 
ATOM     12  C   UNL A   1      33.260  23.419  22.782  1.00  0.00     0.081 C 
BRANCH  11  13
ATOM     13  C   UNL A   1      35.059  23.591  24.438  1.00  0.00     0.009 A 
ATOM     14  C   UNL A   1      35.797  22.798  23.551  1.00  0.00     0.011 A 
ATOM     15  C   UNL A   1      35.679  23.891  25.688  1.00  0.00     0.011 A 
ATOM     16  C   UNL A   1      37.036  22.246  23.944  1.00  0.00     0.020 A 
ATOM     17  C   UNL A   1      36.897  23.339  26.084  1.00  0.00     0.020 A 
ATOM     18  C   UNL A   1      37.557  22.471  25.228  1.00  0.00     0.052 A 
BRANCH  18  19
ATOM     19  C   UNL A   1      38.698  21.759  25.717  1.00  0.00     0.099 C 
ATOM     20  N   UNL A   1      39.581  21.131  26.142  1.00  0.00    -0.192 NA
ENDBRANCH  18  19
ENDBRANCH  11  13
ENDBRANCH   6  11
ENDBRANCH   5   6
ENDBRANCH   3   5
ENDBRANCH   2   3
ENDBRANCH   1   2
BRANCH   1  21
ATOM     21  C   UNL A   1      31.777  30.047  26.896  1.00  0.00     0.275 C 
BRANCH  21  22
ATOM     22  O   UNL A   1      33.042  30.510  26.322  1.00  0.00    -0.458 OA
BRANCH  22  23
ATOM     23  C   UNL A   1      33.710  31.301  27.167  1.00  0.00     0.338 C 
ATOM     24  O   UNL A   1      33.265  32.334  27.625  1.00  0.00    -0.246 OA
BRANCH  23  25
ATOM     25  C   UNL A   1      35.052  31.102  27.653  1.00  0.00     0.060 A 
ATOM     26  C   UNL A   1      35.197  29.870  28.322  1.00  0.00     0.016 A 
ATOM     27  C   UNL A   1      35.881  32.177  27.947  1.00  0.00     0.016 A 
ATOM     28  C   UNL A   1      36.137  29.720  29.313  1.00  0.00     0.010 A 
ATOM     29  C   UNL A   1      36.948  31.960  28.819  1.00  0.00     0.010 A 
ATOM     30  C   UNL A   1      37.094  30.720  29.473  1.00  0.00    -0.014 A 
BRANCH  30  31
ATOM     31  C   UNL A   1      38.348  30.355  30.156  1.00  0.00     0.031 A 
ATOM     32  C   UNL A   1      39.354  29.461  29.521  1.00  0.00     0.074 A 
ATOM     33  C   UNL A   1      38.514  30.845  31.402  1.00  0.00     0.049 A 
ATOM     34  N   UNL A   1      40.422  28.931  30.053  1.00  0.00    -0.248 NA
ATOM     35  C   UNL A   1      39.128  29.095  28.115  1.00  0.00     0.031 C 
ATOM     36  C   UNL A   1      37.583  31.751  32.090  1.00  0.00     0.029 A 
ATOM     37  N   UNL A   1      39.513  30.658  32.315  1.00  0.00    -0.354 N 
ATOM     38  C   UNL A   1      40.985  28.144  29.062  1.00  0.00     0.074 A 
ATOM     39  C   UNL A   1      40.127  28.248  27.899  1.00  0.00     0.031 C 
ATOM     40  C   UNL A   1      38.070  32.066  33.293  1.00  0.00     0.029 A 
ATOM     41  C   UNL A   1      39.285  31.301  33.507  1.00  0.00     0.049 A 
ATOM     42  H   UNL A   1      40.317  30.117  32.137  1.00  0.00     0.167 HD
ATOM     43  C   UNL A   1      42.118  27.406  29.136  1.00  0.00     0.037 A 
ATOM     44  C   UNL A   1      39.950  31.236  34.670  1.00  0.00     0.037 A 
ATOM     45  C   UNL A   1      42.941  27.327  30.317  1.00  0.00     0.049 A 
ATOM     46  C   UNL A   1      41.155  30.352  34.736  1.00  0.00     0.074 A 
ATOM     47  C   UNL A   1      44.116  26.619  30.504  1.00  0.00     0.029 A 
ATOM     48  N   UNL A   1      42.670  27.971  31.518  1.00  0.00    -0.354 N 
ATOM     49  N   UNL A   1      41.688  29.611  33.795  1.00  0.00    -0.248 NA
ATOM     50  C   UNL A   1      41.852  30.292  36.024  1.00  0.00     0.031 C 
ATOM     51  C   UNL A   1      44.514  26.779  31.835  1.00  0.00     0.029 A 
ATOM     52  C   UNL A   1      43.638  27.655  32.459  1.00  0.00     0.049 A 
ATOM     53  H   UNL A   1      41.902  28.566  31.678  1.00  0.00     0.167 HD
ATOM     54  C   UNL A   1      42.806  29.023  34.364  1.00  0.00     0.074 A 
ATOM     55  C   UNL A   1      42.879  29.510  35.728  1.00  0.00     0.031 C 
ATOM     56  C   UNL A   1      43.692  28.161  33.809  1.00  0.00     0.037 A 
BRANCH  43  57
ATOM     57  C   UNL A   1      42.503  26.599  27.929  1.00  0.00     0.064 A 
ATOM     58  C   UNL A   1      43.391  27.088  26.959  1.00  0.00     0.173 A 
ATOM     59  C   UNL A   1      41.994  25.302  27.754  1.00  0.00     0.173 A 
ATOM     60  F   UNL A   1      43.898  28.325  27.069  1.00  0.00    -0.203 F 
ATOM     61  C   UNL A   1      43.727  26.324  25.844  1.00  0.00     0.198 A 
ATOM     62  C   UNL A   1      42.361  24.527  26.657  1.00  0.00     0.198 A 
ATOM     63  F   UNL A   1      41.144  24.782  28.652  1.00  0.00    -0.203 F 
ATOM     64  F   UNL A   1      44.530  26.836  24.900  1.00  0.00    -0.200 F 
ATOM     65  C   UNL A   1      43.218  25.042  25.697  1.00  0.00     0.200 A 
ATOM     66  F   UNL A   1      41.881  23.283  26.528  1.00  0.00    -0.200 F 
ATOM     67  F   UNL A   1      43.548  24.305  24.627  1.00  0.00    -0.200 F 
ENDBRANCH  43  57
BRANCH  44  68
ATOM     68  C   UNL A   1      39.472  32.006  35.846  1.00  0.00     0.064 A 
ATOM     69  C   UNL A   1      40.008  33.265  36.144  1.00  0.00     0.173 A 
ATOM     70  C   UNL A   1      38.467  31.508  36.692  1.00  0.00     0.173 A 
ATOM     71  F   UNL A   1      40.972  33.782  35.368  1.00  0.00    -0.203 F 
ATOM     72  C   UNL A   1      39.588  33.979  37.263  1.00  0.00     0.198 A 
ATOM     73  C   UNL A   1      38.019  32.241  37.788  1.00  0.00     0.198 A 
ATOM     74  F   UNL A   1      37.904  30.317  36.441  1.00  0.00    -0.203 F 
ATOM     75  F   UNL A   1      40.162  35.153  37.559  1.00  0.00    -0.200 F 
ATOM     76  C   UNL A   1      38.590  33.469  38.081  1.00  0.00     0.200 A 
ATOM     77  F   UNL A   1      37.036  31.757  38.559  1.00  0.00    -0.200 F 
ATOM     78  F   UNL A   1      38.185  34.157  39.157  1.00  0.00    -0.200 F 
ENDBRANCH  44  68
BRANCH  56  79
ATOM     79  C   UNL A   1      44.852  27.742  34.665  1.00  0.00     0.064 A 
ATOM     80  C   UNL A   1      44.810  26.589  35.463  1.00  0.00     0.173 A 
ATOM     81  C   UNL A   1      46.031  28.503  34.669  1.00  0.00     0.173 A 
ATOM     82  F   UNL A   1      43.700  25.838  35.509  1.00  0.00    -0.203 F 
ATOM     83  C   UNL A   1      45.894  26.234  36.262  1.00  0.00     0.198 A 
ATOM     84  C   UNL A   1      47.128  28.121  35.434  1.00  0.00     0.198 A 
ATOM     85  F   UNL A   1      46.124  29.612  33.921  1.00  0.00    -0.203 F 
ATOM     86  F   UNL A   1      45.807  25.168  37.069  1.00  0.00    -0.200 F 
ATOM     87  C   UNL A   1      47.054  26.995  36.240  1.00  0.00     0.200 A 
ATOM     88  F   UNL A   1      48.254  28.846  35.397  1.00  0.00    -0.200 F 
ATOM     89  F   UNL A   1      48.100  26.647  37.002  1.00  0.00    -0.200 F 
ENDBRANCH  56  79
ENDBRANCH  30  31
ENDBRANCH  23  25
ENDBRANCH  22  23
ENDBRANCH  21  22
ENDBRANCH   1  21
TORSDOF 17
ENDMDL
