MODEL 1
REMARK VINA RESULT:     -12.8      0.000      0.000
REMARK SMILES O=C(OCCOC(=O)[C@H]1[C@@H](C(=O)NN2CCOCC2)[C@H]2C=C[C@@H]1CC2)c1ccc(-c2c3nc(c(-c4c(F)c(F)c(F)c(F)c4F)c4ccc([nH]4)c(-c4c(F)c(F)c(F)c(F)c4F)c4nc(c(-c5c(F)c(F)c(F)c(F)c5F)c5ccc2[nH]5)C=C4)C=C3)cc1
REMARK SMILES IDX 4 1 3 2 2 3 1 4 26 5 27 6 88 7 28 8 87 9 29 10 30 11 31 12
REMARK SMILES IDX 81 13 32 14 86 15 80 16 82 17 33 18 85 19 79 20 78 21 34 23
REMARK SMILES IDX 66 24 46 25 65 26 47 27 50 28 64 29 83 30 48 31 49 32 63 34
REMARK SMILES IDX 84 35 51 36 35 37 36 38 44 39 37 40 38 41 42 42 45 43 39 44
REMARK SMILES IDX 40 45 43 46 41 47 67 48 68 49 76 50 69 51 70 52 74 53 77 54
REMARK SMILES IDX 71 55 72 56 75 57 73 58 52 59 53 60 61 61 54 62 55 63 59 64
REMARK SMILES IDX 62 65 56 66 57 67 60 68 58 69 5 70 6 71 7 72 8 73 9 74 10 75
REMARK SMILES IDX 23 76 20 77 22 78 24 79 21 80 25 81 11 82 12 83 13 84 14 86
REMARK SMILES IDX 15 87 19 88 16 89 18 90 17 91
REMARK H PARENT 82 22 50 33 13 85
REMARK Flexibility Score: inf
ROOT
ATOM      1  C   UNL A   1      32.402  32.831  27.846  1.00  0.00     0.275 C 
ENDROOT
BRANCH   1   2
ATOM      2  O   UNL A   1      32.724  34.233  27.650  1.00  0.00    -0.458 OA
BRANCH   2   3
ATOM      3  C   UNL A   1      33.070  34.983  28.722  1.00  0.00     0.338 C 
ATOM      4  O   UNL A   1      32.499  36.014  29.045  1.00  0.00    -0.246 OA
BRANCH   3   5
ATOM      5  C   UNL A   1      34.266  34.440  29.447  1.00  0.00     0.060 A 
ATOM      6  C   UNL A   1      34.168  33.735  30.651  1.00  0.00     0.016 A 
ATOM      7  C   UNL A   1      35.528  34.530  28.834  1.00  0.00     0.016 A 
ATOM      8  C   UNL A   1      35.298  33.074  31.187  1.00  0.00     0.010 A 
ATOM      9  C   UNL A   1      36.649  33.852  29.368  1.00  0.00     0.010 A 
ATOM     10  C   UNL A   1      36.545  33.052  30.524  1.00  0.00    -0.014 A 
BRANCH  10  11
ATOM     11  C   UNL A   1      37.780  32.533  31.227  1.00  0.00     0.031 A 
ATOM     12  C   UNL A   1      38.369  31.340  30.553  1.00  0.00     0.074 A 
ATOM     13  C   UNL A   1      38.446  33.016  32.313  1.00  0.00     0.049 A 
ATOM     14  N   UNL A   1      39.400  30.630  30.910  1.00  0.00    -0.248 NA
ATOM     15  C   UNL A   1      37.711  30.886  29.313  1.00  0.00     0.031 C 
ATOM     16  C   UNL A   1      38.043  34.155  33.114  1.00  0.00     0.029 A 
ATOM     17  N   UNL A   1      39.572  32.619  33.015  1.00  0.00    -0.354 N 
ATOM     18  C   UNL A   1      39.570  29.717  29.893  1.00  0.00     0.074 A 
ATOM     19  C   UNL A   1      38.481  29.879  28.958  1.00  0.00     0.031 C 
ATOM     20  C   UNL A   1      38.996  34.582  33.952  1.00  0.00     0.029 A 
ATOM     21  C   UNL A   1      39.799  33.397  34.145  1.00  0.00     0.049 A 
ATOM     22  H   UNL A   1      40.148  31.868  32.742  1.00  0.00     0.167 HD
ATOM     23  C   UNL A   1      40.575  28.834  29.748  1.00  0.00     0.037 A 
ATOM     24  C   UNL A   1      40.366  33.110  35.332  1.00  0.00     0.037 A 
ATOM     25  C   UNL A   1      41.546  28.588  30.772  1.00  0.00     0.049 A 
ATOM     26  C   UNL A   1      41.167  31.866  35.373  1.00  0.00     0.074 A 
ATOM     27  C   UNL A   1      42.548  27.643  30.803  1.00  0.00     0.029 A 
ATOM     28  N   UNL A   1      41.587  29.265  31.991  1.00  0.00    -0.354 N 
ATOM     29  N   UNL A   1      41.299  30.980  34.421  1.00  0.00    -0.248 NA
ATOM     30  C   UNL A   1      41.966  31.625  36.571  1.00  0.00     0.031 C 
ATOM     31  C   UNL A   1      43.137  27.686  32.072  1.00  0.00     0.029 A 
ATOM     32  C   UNL A   1      42.561  28.716  32.804  1.00  0.00     0.049 A 
ATOM     33  H   UNL A   1      41.007  30.021  32.236  1.00  0.00     0.167 HD
ATOM     34  C   UNL A   1      42.301  30.140  34.841  1.00  0.00     0.074 A 
ATOM     35  C   UNL A   1      42.678  30.577  36.177  1.00  0.00     0.031 C 
ATOM     36  C   UNL A   1      42.902  29.155  34.137  1.00  0.00     0.037 A 
BRANCH  23  37
ATOM     37  C   UNL A   1      40.540  28.045  28.480  1.00  0.00     0.064 A 
ATOM     38  C   UNL A   1      39.940  26.773  28.429  1.00  0.00     0.173 A 
ATOM     39  C   UNL A   1      41.279  28.472  27.372  1.00  0.00     0.173 A 
ATOM     40  F   UNL A   1      39.278  26.293  29.495  1.00  0.00    -0.203 F 
ATOM     41  C   UNL A   1      40.127  25.940  27.330  1.00  0.00     0.198 A 
ATOM     42  C   UNL A   1      41.437  27.649  26.263  1.00  0.00     0.198 A 
ATOM     43  F   UNL A   1      41.904  29.659  27.394  1.00  0.00    -0.203 F 
ATOM     44  F   UNL A   1      39.639  24.693  27.344  1.00  0.00    -0.200 F 
ATOM     45  C   UNL A   1      40.877  26.379  26.250  1.00  0.00     0.200 A 
ATOM     46  F   UNL A   1      42.178  28.064  25.227  1.00  0.00    -0.200 F 
ATOM     47  F   UNL A   1      41.093  25.564  25.208  1.00  0.00    -0.200 F 
ENDBRANCH  23  37
BRANCH  24  48
ATOM     48  C   UNL A   1      40.135  33.958  36.541  1.00  0.00     0.064 A 
ATOM     49  C   UNL A   1      40.846  35.144  36.757  1.00  0.00     0.173 A 
ATOM     50  C   UNL A   1      39.154  33.615  37.492  1.00  0.00     0.173 A 
ATOM     51  F   UNL A   1      41.794  35.518  35.887  1.00  0.00    -0.203 F 
ATOM     52  C   UNL A   1      40.598  35.946  37.874  1.00  0.00     0.198 A 
ATOM     53  C   UNL A   1      38.898  34.425  38.603  1.00  0.00     0.198 A 
ATOM     54  F   UNL A   1      38.419  32.505  37.330  1.00  0.00    -0.203 F 
ATOM     55  F   UNL A   1      41.308  37.068  38.060  1.00  0.00    -0.200 F 
ATOM     56  C   UNL A   1      39.624  35.589  38.795  1.00  0.00     0.200 A 
ATOM     57  F   UNL A   1      37.943  34.083  39.481  1.00  0.00    -0.200 F 
ATOM     58  F   UNL A   1      39.387  36.365  39.862  1.00  0.00    -0.200 F 
ENDBRANCH  24  48
BRANCH  36  59
ATOM     59  C   UNL A   1      44.100  28.545  34.777  1.00  0.00     0.064 A 
ATOM     60  C   UNL A   1      45.377  29.099  34.641  1.00  0.00     0.173 A 
ATOM     61  C   UNL A   1      43.945  27.387  35.550  1.00  0.00     0.173 A 
ATOM     62  F   UNL A   1      45.567  30.184  33.873  1.00  0.00    -0.203 F 
ATOM     63  C   UNL A   1      46.471  28.500  35.252  1.00  0.00     0.198 A 
ATOM     64  C   UNL A   1      45.034  26.815  36.192  1.00  0.00     0.198 A 
ATOM     65  F   UNL A   1      42.737  26.817  35.686  1.00  0.00    -0.203 F 
ATOM     66  F   UNL A   1      47.696  29.006  35.065  1.00  0.00    -0.200 F 
ATOM     67  C   UNL A   1      46.296  27.369  36.036  1.00  0.00     0.200 A 
ATOM     68  F   UNL A   1      44.862  25.728  36.955  1.00  0.00    -0.200 F 
ATOM     69  F   UNL A   1      47.350  26.802  36.638  1.00  0.00    -0.200 F 
ENDBRANCH  36  59
ENDBRANCH  10  11
ENDBRANCH   3   5
ENDBRANCH   2   3
ENDBRANCH   1   2
BRANCH   1  70
ATOM     70  C   UNL A   1      33.360  31.787  27.259  1.00  0.00     0.274 C 
BRANCH  70  71
ATOM     71  O   UNL A   1      32.584  30.595  27.076  1.00  0.00    -0.462 OA
BRANCH  71  72
ATOM     72  C   UNL A   1      31.790  30.477  25.994  1.00  0.00     0.310 C 
ATOM     73  O   UNL A   1      31.022  31.337  25.569  1.00  0.00    -0.252 OA
BRANCH  72  74
ATOM     74  C   UNL A   1      32.091  29.168  25.337  1.00  0.00     0.119 C 
ATOM     75  C   UNL A   1      31.138  28.575  24.275  1.00  0.00     0.101 C 
ATOM     76  C   UNL A   1      33.582  28.767  25.049  1.00  0.00     0.026 C 
ATOM     77  C   UNL A   1      31.902  27.334  23.832  1.00  0.00     0.025 C 
ATOM     78  C   UNL A   1      33.840  28.630  23.547  1.00  0.00    -0.027 C 
ATOM     79  C   UNL A   1      33.713  27.301  25.571  1.00  0.00     0.009 C 
ATOM     80  C   UNL A   1      32.985  27.812  22.914  1.00  0.00    -0.027 C 
ATOM     81  C   UNL A   1      32.566  26.482  24.939  1.00  0.00     0.009 C 
BRANCH  75  82
ATOM     82  C   UNL A   1      30.289  28.977  22.982  1.00  0.00     0.238 C 
ATOM     83  O   UNL A   1      30.320  28.249  21.977  1.00  0.00    -0.273 OA
ATOM     84  N   UNL A   1      29.799  30.219  22.689  1.00  0.00    -0.288 N 
ATOM     85  H   UNL A   1      30.401  30.926  22.361  1.00  0.00     0.185 HD
BRANCH  84  86
ATOM     86  N   UNL A   1      28.392  30.486  22.863  1.00  0.00    -0.217 NA
ATOM     87  C   UNL A   1      27.739  30.706  21.553  1.00  0.00     0.136 C 
ATOM     88  C   UNL A   1      28.190  31.697  23.658  1.00  0.00     0.136 C 
ATOM     89  C   UNL A   1      28.326  31.929  20.841  1.00  0.00     0.177 C 
ATOM     90  C   UNL A   1      28.757  32.915  22.918  1.00  0.00     0.177 C 
ATOM     91  O   UNL A   1      28.141  33.102  21.645  1.00  0.00    -0.379 OA
ENDBRANCH  84  86
ENDBRANCH  75  82
ENDBRANCH  72  74
ENDBRANCH  71  72
ENDBRANCH  70  71
ENDBRANCH   1  70
TORSDOF 13
ENDMDL
MODEL 2
REMARK VINA RESULT:     -12.7      1.292      7.455
REMARK SMILES O=C(OCCOC(=O)[C@H]1[C@@H](C(=O)NN2CCOCC2)[C@H]2C=C[C@@H]1CC2)c1ccc(-c2c3nc(c(-c4c(F)c(F)c(F)c(F)c4F)c4ccc([nH]4)c(-c4c(F)c(F)c(F)c(F)c4F)c4nc(c(-c5c(F)c(F)c(F)c(F)c5F)c5ccc2[nH]5)C=C4)C=C3)cc1
REMARK SMILES IDX 4 1 3 2 2 3 1 4 26 5 27 6 88 7 28 8 87 9 29 10 30 11 31 12
REMARK SMILES IDX 81 13 32 14 86 15 80 16 82 17 33 18 85 19 79 20 78 21 34 23
REMARK SMILES IDX 66 24 46 25 65 26 47 27 50 28 64 29 83 30 48 31 49 32 63 34
REMARK SMILES IDX 84 35 51 36 35 37 36 38 44 39 37 40 38 41 42 42 45 43 39 44
REMARK SMILES IDX 40 45 43 46 41 47 67 48 68 49 76 50 69 51 70 52 74 53 77 54
REMARK SMILES IDX 71 55 72 56 75 57 73 58 52 59 53 60 61 61 54 62 55 63 59 64
REMARK SMILES IDX 62 65 56 66 57 67 60 68 58 69 5 70 6 71 7 72 8 73 9 74 10 75
REMARK SMILES IDX 23 76 20 77 22 78 24 79 21 80 25 81 11 82 12 83 13 84 14 86
REMARK SMILES IDX 15 87 19 88 16 89 18 90 17 91
REMARK H PARENT 82 22 50 33 13 85
REMARK Flexibility Score: inf
ROOT
ATOM      1  C   UNL A   1      32.620  32.619  26.900  1.00  0.00     0.275 C 
ENDROOT
BRANCH   1   2
ATOM      2  O   UNL A   1      32.543  33.639  27.929  1.00  0.00    -0.458 OA
BRANCH   2   3
ATOM      3  C   UNL A   1      33.652  34.358  28.226  1.00  0.00     0.338 C 
ATOM      4  O   UNL A   1      33.786  35.543  27.964  1.00  0.00    -0.246 OA
BRANCH   3   5
ATOM      5  C   UNL A   1      34.724  33.528  28.868  1.00  0.00     0.060 A 
ATOM      6  C   UNL A   1      34.450  32.536  29.815  1.00  0.00     0.016 A 
ATOM      7  C   UNL A   1      36.047  33.659  28.412  1.00  0.00     0.016 A 
ATOM      8  C   UNL A   1      35.469  31.650  30.240  1.00  0.00     0.010 A 
ATOM      9  C   UNL A   1      37.056  32.758  28.829  1.00  0.00     0.010 A 
ATOM     10  C   UNL A   1      36.774  31.690  29.703  1.00  0.00    -0.014 A 
BRANCH  10  11
ATOM     11  C   UNL A   1      37.889  30.884  30.335  1.00  0.00     0.031 A 
ATOM     12  C   UNL A   1      38.210  31.331  31.720  1.00  0.00     0.074 A 
ATOM     13  C   UNL A   1      38.576  29.807  29.862  1.00  0.00     0.049 A 
ATOM     14  N   UNL A   1      39.129  30.886  32.527  1.00  0.00    -0.248 NA
ATOM     15  C   UNL A   1      37.388  32.426  32.271  1.00  0.00     0.031 C 
ATOM     16  C   UNL A   1      38.425  29.218  28.547  1.00  0.00     0.029 A 
ATOM     17  N   UNL A   1      39.593  29.011  30.362  1.00  0.00    -0.354 N 
ATOM     18  C   UNL A   1      38.930  31.571  33.705  1.00  0.00     0.074 A 
ATOM     19  C   UNL A   1      37.882  32.541  33.487  1.00  0.00     0.031 C 
ATOM     20  C   UNL A   1      39.014  28.022  28.426  1.00  0.00     0.029 A 
ATOM     21  C   UNL A   1      40.044  28.076  29.436  1.00  0.00     0.049 A 
ATOM     22  H   UNL A   1      39.956  29.097  31.273  1.00  0.00     0.167 HD
ATOM     23  C   UNL A   1      39.561  31.379  34.878  1.00  0.00     0.037 A 
ATOM     24  C   UNL A   1      41.252  27.510  29.250  1.00  0.00     0.037 A 
ATOM     25  C   UNL A   1      40.702  30.525  35.015  1.00  0.00     0.049 A 
ATOM     26  C   UNL A   1      42.199  27.641  30.379  1.00  0.00     0.074 A 
ATOM     27  C   UNL A   1      41.505  30.328  36.116  1.00  0.00     0.029 A 
ATOM     28  N   UNL A   1      41.244  29.770  33.976  1.00  0.00    -0.354 N 
ATOM     29  N   UNL A   1      42.026  28.322  31.481  1.00  0.00    -0.248 NA
ATOM     30  C   UNL A   1      43.437  26.868  30.306  1.00  0.00     0.031 C 
ATOM     31  C   UNL A   1      42.582  29.526  35.722  1.00  0.00     0.029 A 
ATOM     32  C   UNL A   1      42.407  29.151  34.397  1.00  0.00     0.049 A 
ATOM     33  H   UNL A   1      40.857  29.690  33.075  1.00  0.00     0.167 HD
ATOM     34  C   UNL A   1      43.066  27.959  32.302  1.00  0.00     0.074 A 
ATOM     35  C   UNL A   1      43.912  27.063  31.529  1.00  0.00     0.031 C 
ATOM     36  C   UNL A   1      43.241  28.281  33.603  1.00  0.00     0.037 A 
BRANCH  23  37
ATOM     37  C   UNL A   1      39.050  32.212  36.008  1.00  0.00     0.064 A 
ATOM     38  C   UNL A   1      39.565  33.498  36.259  1.00  0.00     0.173 A 
ATOM     39  C   UNL A   1      38.191  31.647  36.957  1.00  0.00     0.173 A 
ATOM     40  F   UNL A   1      40.446  34.051  35.409  1.00  0.00    -0.203 F 
ATOM     41  C   UNL A   1      39.275  34.162  37.446  1.00  0.00     0.198 A 
ATOM     42  C   UNL A   1      37.880  32.328  38.128  1.00  0.00     0.198 A 
ATOM     43  F   UNL A   1      37.711  30.407  36.781  1.00  0.00    -0.203 F 
ATOM     44  F   UNL A   1      39.859  35.337  37.716  1.00  0.00    -0.200 F 
ATOM     45  C   UNL A   1      38.435  33.576  38.380  1.00  0.00     0.200 A 
ATOM     46  F   UNL A   1      37.083  31.755  39.040  1.00  0.00    -0.200 F 
ATOM     47  F   UNL A   1      38.186  34.196  39.542  1.00  0.00    -0.200 F 
ENDBRANCH  23  37
BRANCH  24  48
ATOM     48  C   UNL A   1      41.626  26.858  27.957  1.00  0.00     0.064 A 
ATOM     49  C   UNL A   1      42.152  27.589  26.887  1.00  0.00     0.173 A 
ATOM     50  C   UNL A   1      41.502  25.465  27.785  1.00  0.00     0.173 A 
ATOM     51  F   UNL A   1      42.289  28.918  26.994  1.00  0.00    -0.203 F 
ATOM     52  C   UNL A   1      42.529  26.964  25.696  1.00  0.00     0.198 A 
ATOM     53  C   UNL A   1      41.891  24.839  26.597  1.00  0.00     0.198 A 
ATOM     54  F   UNL A   1      41.029  24.703  28.782  1.00  0.00    -0.203 F 
ATOM     55  F   UNL A   1      43.016  27.695  24.684  1.00  0.00    -0.200 F 
ATOM     56  C   UNL A   1      42.401  25.590  25.551  1.00  0.00     0.200 A 
ATOM     57  F   UNL A   1      41.780  23.508  26.470  1.00  0.00    -0.200 F 
ATOM     58  F   UNL A   1      42.769  24.994  24.408  1.00  0.00    -0.200 F 
ENDBRANCH  24  48
BRANCH  36  59
ATOM     59  C   UNL A   1      44.354  27.574  34.296  1.00  0.00     0.064 A 
ATOM     60  C   UNL A   1      45.638  28.122  34.391  1.00  0.00     0.173 A 
ATOM     61  C   UNL A   1      44.107  26.326  34.883  1.00  0.00     0.173 A 
ATOM     62  F   UNL A   1      45.918  29.295  33.803  1.00  0.00    -0.203 F 
ATOM     63  C   UNL A   1      46.649  27.430  35.042  1.00  0.00     0.198 A 
ATOM     64  C   UNL A   1      45.111  25.658  35.569  1.00  0.00     0.198 A 
ATOM     65  F   UNL A   1      42.893  25.762  34.796  1.00  0.00    -0.203 F 
ATOM     66  F   UNL A   1      47.888  27.938  35.074  1.00  0.00    -0.200 F 
ATOM     67  C   UNL A   1      46.382  26.208  35.642  1.00  0.00     0.200 A 
ATOM     68  F   UNL A   1      44.849  24.482  36.155  1.00  0.00    -0.200 F 
ATOM     69  F   UNL A   1      47.356  25.551  36.285  1.00  0.00    -0.200 F 
ENDBRANCH  36  59
ENDBRANCH  10  11
ENDBRANCH   3   5
ENDBRANCH   2   3
ENDBRANCH   1   2
BRANCH   1  70
ATOM     70  C   UNL A   1      31.320  31.915  26.491  1.00  0.00     0.274 C 
BRANCH  70  71
ATOM     71  O   UNL A   1      31.715  30.760  25.738  1.00  0.00    -0.462 OA
BRANCH  71  72
ATOM     72  C   UNL A   1      31.818  29.566  26.354  1.00  0.00     0.310 C 
ATOM     73  O   UNL A   1      31.550  29.340  27.531  1.00  0.00    -0.252 OA
BRANCH  72  74
ATOM     74  C   UNL A   1      32.201  28.545  25.330  1.00  0.00     0.119 C 
ATOM     75  C   UNL A   1      31.270  28.229  24.138  1.00  0.00     0.101 C 
ATOM     76  C   UNL A   1      33.710  28.369  24.935  1.00  0.00     0.026 C 
ATOM     77  C   UNL A   1      32.115  27.245  23.339  1.00  0.00     0.025 C 
ATOM     78  C   UNL A   1      33.943  28.714  23.463  1.00  0.00    -0.027 C 
ATOM     79  C   UNL A   1      33.963  26.829  24.987  1.00  0.00     0.009 C 
ATOM     80  C   UNL A   1      33.137  28.062  22.611  1.00  0.00    -0.027 C 
ATOM     81  C   UNL A   1      32.866  26.152  24.136  1.00  0.00     0.009 C 
BRANCH  75  82
ATOM     82  C   UNL A   1      30.363  28.936  23.028  1.00  0.00     0.238 C 
ATOM     83  O   UNL A   1      30.256  28.420  21.905  1.00  0.00    -0.273 OA
ATOM     84  N   UNL A   1      29.961  30.243  23.022  1.00  0.00    -0.288 N 
ATOM     85  H   UNL A   1      30.596  30.956  22.781  1.00  0.00     0.185 HD
BRANCH  84  86
ATOM     86  N   UNL A   1      28.600  30.568  23.372  1.00  0.00    -0.217 NA
ATOM     87  C   UNL A   1      27.719  30.451  22.188  1.00  0.00     0.136 C 
ATOM     88  C   UNL A   1      28.503  31.946  23.851  1.00  0.00     0.136 C 
ATOM     89  C   UNL A   1      28.131  31.439  21.092  1.00  0.00     0.177 C 
ATOM     90  C   UNL A   1      28.891  32.922  22.733  1.00  0.00     0.177 C 
ATOM     91  O   UNL A   1      28.054  32.783  21.586  1.00  0.00    -0.379 OA
ENDBRANCH  84  86
ENDBRANCH  75  82
ENDBRANCH  72  74
ENDBRANCH  71  72
ENDBRANCH  70  71
ENDBRANCH   1  70
TORSDOF 13
ENDMDL
MODEL 3
REMARK VINA RESULT:     -12.7      6.561     11.495
REMARK SMILES O=C(OCCOC(=O)[C@H]1[C@@H](C(=O)NN2CCOCC2)[C@H]2C=C[C@@H]1CC2)c1ccc(-c2c3nc(c(-c4c(F)c(F)c(F)c(F)c4F)c4ccc([nH]4)c(-c4c(F)c(F)c(F)c(F)c4F)c4nc(c(-c5c(F)c(F)c(F)c(F)c5F)c5ccc2[nH]5)C=C4)C=C3)cc1
REMARK SMILES IDX 4 1 3 2 2 3 1 4 26 5 27 6 88 7 28 8 87 9 29 10 30 11 31 12
REMARK SMILES IDX 81 13 32 14 86 15 80 16 82 17 33 18 85 19 79 20 78 21 34 23
REMARK SMILES IDX 66 24 46 25 65 26 47 27 50 28 64 29 83 30 48 31 49 32 63 34
REMARK SMILES IDX 84 35 51 36 35 37 36 38 44 39 37 40 38 41 42 42 45 43 39 44
REMARK SMILES IDX 40 45 43 46 41 47 67 48 68 49 76 50 69 51 70 52 74 53 77 54
REMARK SMILES IDX 71 55 72 56 75 57 73 58 52 59 53 60 61 61 54 62 55 63 59 64
REMARK SMILES IDX 62 65 56 66 57 67 60 68 58 69 5 70 6 71 7 72 8 73 9 74 10 75
REMARK SMILES IDX 23 76 20 77 22 78 24 79 21 80 25 81 11 82 12 83 13 84 14 86
REMARK SMILES IDX 15 87 19 88 16 89 18 90 17 91
REMARK H PARENT 82 22 50 33 13 85
REMARK Flexibility Score: inf
ROOT
ATOM      1  C   UNL A   1      39.000  20.288  25.379  1.00  0.00     0.275 C 
ENDROOT
BRANCH   1   2
ATOM      2  O   UNL A   1      39.856  19.577  26.313  1.00  0.00    -0.458 OA
BRANCH   2   3
ATOM      3  C   UNL A   1      41.195  19.579  26.107  1.00  0.00     0.338 C 
ATOM      4  O   UNL A   1      41.830  18.598  25.751  1.00  0.00    -0.246 OA
BRANCH   3   5
ATOM      5  C   UNL A   1      41.825  20.905  26.413  1.00  0.00     0.060 A 
ATOM      6  C   UNL A   1      42.265  21.784  25.419  1.00  0.00     0.016 A 
ATOM      7  C   UNL A   1      41.865  21.345  27.748  1.00  0.00     0.016 A 
ATOM      8  C   UNL A   1      42.666  23.100  25.751  1.00  0.00     0.010 A 
ATOM      9  C   UNL A   1      42.251  22.668  28.071  1.00  0.00     0.010 A 
ATOM     10  C   UNL A   1      42.597  23.598  27.070  1.00  0.00    -0.014 A 
BRANCH  10  11
ATOM     11  C   UNL A   1      43.239  24.922  27.425  1.00  0.00     0.031 A 
ATOM     12  C   UNL A   1      42.254  25.929  27.912  1.00  0.00     0.074 A 
ATOM     13  C   UNL A   1      44.549  25.295  27.425  1.00  0.00     0.049 A 
ATOM     14  N   UNL A   1      42.459  27.166  28.262  1.00  0.00    -0.248 NA
ATOM     15  C   UNL A   1      40.850  25.487  28.018  1.00  0.00     0.031 C 
ATOM     16  C   UNL A   1      45.662  24.476  26.988  1.00  0.00     0.029 A 
ATOM     17  N   UNL A   1      45.224  26.464  27.736  1.00  0.00    -0.354 N 
ATOM     18  C   UNL A   1      41.239  27.611  28.720  1.00  0.00     0.074 A 
ATOM     19  C   UNL A   1      40.270  26.563  28.506  1.00  0.00     0.031 C 
ATOM     20  C   UNL A   1      46.858  24.970  27.333  1.00  0.00     0.029 A 
ATOM     21  C   UNL A   1      46.587  26.381  27.468  1.00  0.00     0.049 A 
ATOM     22  H   UNL A   1      44.787  27.265  28.105  1.00  0.00     0.167 HD
ATOM     23  C   UNL A   1      40.968  28.797  29.297  1.00  0.00     0.037 A 
ATOM     24  C   UNL A   1      47.487  27.315  27.105  1.00  0.00     0.037 A 
ATOM     25  C   UNL A   1      41.913  29.872  29.345  1.00  0.00     0.049 A 
ATOM     26  C   UNL A   1      47.069  28.719  27.311  1.00  0.00     0.074 A 
ATOM     27  C   UNL A   1      41.732  31.161  29.797  1.00  0.00     0.029 A 
ATOM     28  N   UNL A   1      43.216  29.791  28.856  1.00  0.00    -0.354 N 
ATOM     29  N   UNL A   1      45.900  29.145  27.710  1.00  0.00    -0.248 NA
ATOM     30  C   UNL A   1      48.086  29.752  27.129  1.00  0.00     0.031 C 
ATOM     31  C   UNL A   1      42.893  31.884  29.500  1.00  0.00     0.029 A 
ATOM     32  C   UNL A   1      43.831  31.027  28.941  1.00  0.00     0.049 A 
ATOM     33  H   UNL A   1      43.636  28.975  28.500  1.00  0.00     0.167 HD
ATOM     34  C   UNL A   1      46.066  30.485  27.963  1.00  0.00     0.074 A 
ATOM     35  C   UNL A   1      47.432  30.813  27.585  1.00  0.00     0.031 C 
ATOM     36  C   UNL A   1      45.183  31.332  28.538  1.00  0.00     0.037 A 
BRANCH  23  37
ATOM     37  C   UNL A   1      39.564  28.949  29.786  1.00  0.00     0.064 A 
ATOM     38  C   UNL A   1      38.568  29.528  28.978  1.00  0.00     0.173 A 
ATOM     39  C   UNL A   1      39.264  28.701  31.130  1.00  0.00     0.173 A 
ATOM     40  F   UNL A   1      38.834  29.847  27.701  1.00  0.00    -0.203 F 
ATOM     41  C   UNL A   1      37.340  29.898  29.517  1.00  0.00     0.198 A 
ATOM     42  C   UNL A   1      38.024  29.044  31.656  1.00  0.00     0.198 A 
ATOM     43  F   UNL A   1      40.197  28.190  31.948  1.00  0.00    -0.203 F 
ATOM     44  F   UNL A   1      36.444  30.545  28.758  1.00  0.00    -0.200 F 
ATOM     45  C   UNL A   1      37.070  29.657  30.855  1.00  0.00     0.200 A 
ATOM     46  F   UNL A   1      37.769  28.829  32.953  1.00  0.00    -0.200 F 
ATOM     47  F   UNL A   1      35.903  30.049  31.385  1.00  0.00    -0.200 F 
ENDBRANCH  23  37
BRANCH  24  48
ATOM     48  C   UNL A   1      48.789  26.948  26.468  1.00  0.00     0.064 A 
ATOM     49  C   UNL A   1      48.970  26.985  25.082  1.00  0.00     0.173 A 
ATOM     50  C   UNL A   1      49.905  26.592  27.252  1.00  0.00     0.173 A 
ATOM     51  F   UNL A   1      47.942  27.314  24.286  1.00  0.00    -0.203 F 
ATOM     52  C   UNL A   1      50.201  26.673  24.501  1.00  0.00     0.198 A 
ATOM     53  C   UNL A   1      51.140  26.291  26.671  1.00  0.00     0.198 A 
ATOM     54  F   UNL A   1      49.806  26.563  28.590  1.00  0.00    -0.203 F 
ATOM     55  F   UNL A   1      50.337  26.703  23.167  1.00  0.00    -0.200 F 
ATOM     56  C   UNL A   1      51.286  26.328  25.294  1.00  0.00     0.200 A 
ATOM     57  F   UNL A   1      52.190  25.975  27.444  1.00  0.00    -0.200 F 
ATOM     58  F   UNL A   1      52.467  26.034  24.732  1.00  0.00    -0.200 F 
ENDBRANCH  24  48
BRANCH  36  59
ATOM     59  C   UNL A   1      45.713  32.682  28.876  1.00  0.00     0.064 A 
ATOM     60  C   UNL A   1      45.597  33.767  28.001  1.00  0.00     0.173 A 
ATOM     61  C   UNL A   1      46.339  32.878  30.115  1.00  0.00     0.173 A 
ATOM     62  F   UNL A   1      45.041  33.603  26.790  1.00  0.00    -0.203 F 
ATOM     63  C   UNL A   1      46.107  35.009  28.351  1.00  0.00     0.198 A 
ATOM     64  C   UNL A   1      46.811  34.131  30.477  1.00  0.00     0.198 A 
ATOM     65  F   UNL A   1      46.486  31.855  30.971  1.00  0.00    -0.203 F 
ATOM     66  F   UNL A   1      46.042  36.024  27.479  1.00  0.00    -0.200 F 
ATOM     67  C   UNL A   1      46.700  35.193  29.592  1.00  0.00     0.200 A 
ATOM     68  F   UNL A   1      47.375  34.309  31.679  1.00  0.00    -0.200 F 
ATOM     69  F   UNL A   1      47.176  36.397  29.934  1.00  0.00    -0.200 F 
ENDBRANCH  36  59
ENDBRANCH  10  11
ENDBRANCH   3   5
ENDBRANCH   2   3
ENDBRANCH   1   2
BRANCH   1  70
ATOM     70  C   UNL A   1      38.561  21.709  25.751  1.00  0.00     0.274 C 
BRANCH  70  71
ATOM     71  O   UNL A   1      37.206  21.836  25.297  1.00  0.00    -0.462 OA
BRANCH  71  72
ATOM     72  C   UNL A   1      36.564  23.012  25.436  1.00  0.00     0.310 C 
ATOM     73  O   UNL A   1      36.991  23.997  26.034  1.00  0.00    -0.252 OA
BRANCH  72  74
ATOM     74  C   UNL A   1      35.298  22.949  24.642  1.00  0.00     0.119 C 
ATOM     75  C   UNL A   1      34.480  21.641  24.557  1.00  0.00     0.101 C 
ATOM     76  C   UNL A   1      34.365  24.209  24.565  1.00  0.00     0.026 C 
ATOM     77  C   UNL A   1      33.263  22.090  23.759  1.00  0.00     0.025 C 
ATOM     78  C   UNL A   1      33.000  23.929  25.196  1.00  0.00    -0.027 C 
ATOM     79  C   UNL A   1      34.033  24.371  23.047  1.00  0.00     0.009 C 
ATOM     80  C   UNL A   1      32.385  22.837  24.716  1.00  0.00    -0.027 C 
ATOM     81  C   UNL A   1      33.517  23.006  22.539  1.00  0.00     0.009 C 
BRANCH  75  82
ATOM     82  C   UNL A   1      33.921  20.446  25.459  1.00  0.00     0.238 C 
ATOM     83  O   UNL A   1      33.718  20.633  26.668  1.00  0.00    -0.273 OA
ATOM     84  N   UNL A   1      33.970  19.113  25.158  1.00  0.00    -0.288 N 
ATOM     85  H   UNL A   1      34.816  18.616  25.240  1.00  0.00     0.185 HD
BRANCH  84  86
ATOM     86  N   UNL A   1      32.771  18.441  24.718  1.00  0.00    -0.217 NA
ATOM     87  C   UNL A   1      32.528  17.229  25.531  1.00  0.00     0.136 C 
ATOM     88  C   UNL A   1      32.900  18.011  23.326  1.00  0.00     0.136 C 
ATOM     89  C   UNL A   1      33.670  16.220  25.376  1.00  0.00     0.177 C 
ATOM     90  C   UNL A   1      34.028  16.981  23.194  1.00  0.00     0.177 C 
ATOM     91  O   UNL A   1      33.798  15.828  24.003  1.00  0.00    -0.379 OA
ENDBRANCH  84  86
ENDBRANCH  75  82
ENDBRANCH  72  74
ENDBRANCH  71  72
ENDBRANCH  70  71
ENDBRANCH   1  70
TORSDOF 13
ENDMDL
