MODEL 1
REMARK VINA RESULT:     -11.6      0.000      0.000
REMARK SMILES CCC[NH2+]CC(=O)N1[C@@H](C(=O)OCCOC(=O)c2ccc(-c3c4nc(c(-c5c(F)c(F)c(F)c(F)c5F)c5ccc([nH]5)c(-c5c(F)c(F)c(F)c(F)c5F)c5nc(c(-c6c(F)c(F)c(F)c(F)c6F)c6ccc3[nH]6)C=C5)C=C4)cc2)CC[C@@H]2CCCC[C@@H]21
REMARK SMILES IDX 12 1 10 2 11 3 9 4 8 5 88 6 81 7 83 8 87 9 82 10 84 11 86 12
REMARK SMILES IDX 85 13 6 14 7 15 5 16 4 17 3 20 2 21 1 22 13 23 14 24 15 25
REMARK SMILES IDX 16 26 17 27 18 28 19 29 80 30 20 31 79 32 21 33 22 34 23 35
REMARK SMILES IDX 73 36 24 37 78 38 72 39 74 40 25 41 77 42 71 43 70 44 26 46
REMARK SMILES IDX 58 47 38 48 57 49 39 50 42 51 56 52 75 53 40 54 41 55 55 57
REMARK SMILES IDX 76 58 43 59 27 60 28 61 36 62 29 63 30 64 34 65 37 66 31 67
REMARK SMILES IDX 32 68 35 69 33 70 59 71 60 72 68 73 61 74 62 75 66 76 69 77
REMARK SMILES IDX 63 78 64 79 67 80 65 81 44 82 45 83 53 84 46 85 47 86 51 87
REMARK SMILES IDX 54 88 48 89 49 90 52 91 50 92
REMARK H PARENT 4 18 4 19 74 45 42 56
REMARK Flexibility Score: inf
ROOT
ATOM      1  O   UNL A   1      32.596  26.786  26.490  1.00  0.00    -0.461 OA
ENDROOT
BRANCH   1   2
ATOM      2  C   UNL A   1      32.158  25.480  26.473  1.00  0.00     0.328 C 
ATOM      3  O   UNL A   1      30.993  25.148  26.646  1.00  0.00    -0.250 OA
BRANCH   2   4
ATOM      4  C   UNL A   1      33.322  24.518  26.074  1.00  0.00     0.195 C 
ATOM      5  N   UNL A   1      33.374  24.133  24.632  1.00  0.00    -0.321 N 
ATOM      6  C   UNL A   1      34.057  22.886  24.175  1.00  0.00     0.089 C 
ATOM      7  C   UNL A   1      33.425  23.341  27.031  1.00  0.00     0.037 C 
ATOM      8  C   UNL A   1      34.390  21.863  25.280  1.00  0.00     0.012 C 
ATOM      9  C   UNL A   1      35.227  23.168  23.165  1.00  0.00     0.025 C 
ATOM     10  C   UNL A   1      34.647  22.516  26.642  1.00  0.00     0.008 C 
ATOM     11  C   UNL A   1      35.524  20.915  24.878  1.00  0.00     0.006 C 
ATOM     12  C   UNL A   1      36.635  22.630  23.411  1.00  0.00     0.002 C 
ATOM     13  C   UNL A   1      36.809  21.652  24.555  1.00  0.00     0.000 C 
BRANCH   5  14
ATOM     14  C   UNL A   1      33.108  25.053  23.609  1.00  0.00     0.278 C 
ATOM     15  O   UNL A   1      33.813  26.062  23.468  1.00  0.00    -0.268 OA
BRANCH  14  16
ATOM     16  C   UNL A   1      31.856  24.902  22.724  1.00  0.00     0.362 C 
BRANCH  16  17
ATOM     17  N   UNL A   1      30.553  25.075  23.407  1.00  0.00    -0.338 N 
ATOM     18  H   UNL A   1      29.844  24.574  22.871  1.00  0.00     0.346 HD
ATOM     19  H   UNL A   1      30.671  24.711  24.352  1.00  0.00     0.346 HD
BRANCH  17  20
ATOM     20  C   UNL A   1      30.118  26.465  23.549  1.00  0.00     0.260 C 
BRANCH  20  21
ATOM     21  C   UNL A   1      30.599  27.522  22.514  1.00  0.00     0.058 C 
ATOM     22  C   UNL A   1      29.969  28.908  22.438  1.00  0.00     0.010 C 
ENDBRANCH  20  21
ENDBRANCH  17  20
ENDBRANCH  16  17
ENDBRANCH  14  16
ENDBRANCH   5  14
ENDBRANCH   2   4
ENDBRANCH   1   2
BRANCH   1  23
ATOM     23  C   UNL A   1      31.610  27.769  26.876  1.00  0.00     0.274 C 
BRANCH  23  24
ATOM     24  C   UNL A   1      31.577  28.977  25.904  1.00  0.00     0.275 C 
BRANCH  24  25
ATOM     25  O   UNL A   1      32.769  29.811  25.831  1.00  0.00    -0.458 OA
BRANCH  25  26
ATOM     26  C   UNL A   1      32.901  30.813  26.736  1.00  0.00     0.338 C 
ATOM     27  O   UNL A   1      32.130  31.751  26.870  1.00  0.00    -0.246 OA
BRANCH  26  28
ATOM     28  C   UNL A   1      34.246  30.779  27.386  1.00  0.00     0.060 A 
ATOM     29  C   UNL A   1      34.744  29.524  27.700  1.00  0.00     0.016 A 
ATOM     30  C   UNL A   1      35.006  31.890  27.765  1.00  0.00     0.016 A 
ATOM     31  C   UNL A   1      35.841  29.382  28.554  1.00  0.00     0.010 A 
ATOM     32  C   UNL A   1      36.241  31.717  28.456  1.00  0.00     0.010 A 
ATOM     33  C   UNL A   1      36.676  30.452  28.897  1.00  0.00    -0.014 A 
BRANCH  33  34
ATOM     34  C   UNL A   1      37.960  30.179  29.665  1.00  0.00     0.031 A 
ATOM     35  C   UNL A   1      39.111  29.378  29.075  1.00  0.00     0.074 A 
ATOM     36  C   UNL A   1      38.159  30.702  30.903  1.00  0.00     0.049 A 
ATOM     37  N   UNL A   1      40.173  28.885  29.675  1.00  0.00    -0.248 NA
ATOM     38  C   UNL A   1      39.075  29.102  27.632  1.00  0.00     0.031 C 
ATOM     39  C   UNL A   1      37.216  31.552  31.637  1.00  0.00     0.029 A 
ATOM     40  N   UNL A   1      39.236  30.626  31.767  1.00  0.00    -0.354 N 
ATOM     41  C   UNL A   1      40.891  28.192  28.704  1.00  0.00     0.074 A 
ATOM     42  C   UNL A   1      40.151  28.341  27.466  1.00  0.00     0.031 C 
ATOM     43  C   UNL A   1      37.789  32.011  32.754  1.00  0.00     0.029 A 
ATOM     44  C   UNL A   1      39.059  31.329  32.940  1.00  0.00     0.049 A 
ATOM     45  H   UNL A   1      40.053  30.117  31.564  1.00  0.00     0.167 HD
ATOM     46  C   UNL A   1      42.048  27.489  28.829  1.00  0.00     0.037 A 
ATOM     47  C   UNL A   1      39.765  31.373  34.088  1.00  0.00     0.037 A 
ATOM     48  C   UNL A   1      42.826  27.378  30.042  1.00  0.00     0.049 A 
ATOM     49  C   UNL A   1      40.988  30.515  34.231  1.00  0.00     0.074 A 
ATOM     50  C   UNL A   1      43.975  26.634  30.270  1.00  0.00     0.029 A 
ATOM     51  N   UNL A   1      42.557  28.052  31.223  1.00  0.00    -0.354 N 
ATOM     52  N   UNL A   1      41.568  29.749  33.344  1.00  0.00    -0.248 NA
ATOM     53  C   UNL A   1      41.633  30.502  35.552  1.00  0.00     0.031 C 
ATOM     54  C   UNL A   1      44.379  26.832  31.596  1.00  0.00     0.029 A 
ATOM     55  C   UNL A   1      43.514  27.739  32.179  1.00  0.00     0.049 A 
ATOM     56  H   UNL A   1      41.799  28.664  31.362  1.00  0.00     0.167 HD
ATOM     57  C   UNL A   1      42.654  29.179  33.990  1.00  0.00     0.074 A 
ATOM     58  C   UNL A   1      42.670  29.709  35.337  1.00  0.00     0.031 C 
ATOM     59  C   UNL A   1      43.550  28.284  33.510  1.00  0.00     0.037 A 
BRANCH  46  60
ATOM     60  C   UNL A   1      42.546  26.727  27.629  1.00  0.00     0.064 A 
ATOM     61  C   UNL A   1      43.523  27.243  26.767  1.00  0.00     0.173 A 
ATOM     62  C   UNL A   1      42.088  25.419  27.389  1.00  0.00     0.173 A 
ATOM     63  F   UNL A   1      43.993  28.486  26.946  1.00  0.00    -0.203 F 
ATOM     64  C   UNL A   1      44.008  26.487  25.699  1.00  0.00     0.198 A 
ATOM     65  C   UNL A   1      42.596  24.658  26.339  1.00  0.00     0.198 A 
ATOM     66  F   UNL A   1      41.168  24.867  28.194  1.00  0.00    -0.203 F 
ATOM     67  F   UNL A   1      44.917  27.015  24.866  1.00  0.00    -0.200 F 
ATOM     68  C   UNL A   1      43.550  25.195  25.491  1.00  0.00     0.200 A 
ATOM     69  F   UNL A   1      42.165  23.402  26.153  1.00  0.00    -0.200 F 
ATOM     70  F   UNL A   1      44.027  24.468  24.471  1.00  0.00    -0.200 F 
ENDBRANCH  46  60
BRANCH  47  71
ATOM     71  C   UNL A   1      39.269  32.170  35.250  1.00  0.00     0.064 A 
ATOM     72  C   UNL A   1      39.617  33.519  35.409  1.00  0.00     0.173 A 
ATOM     73  C   UNL A   1      38.478  31.583  36.252  1.00  0.00     0.173 A 
ATOM     74  F   UNL A   1      40.400  34.121  34.503  1.00  0.00    -0.203 F 
ATOM     75  C   UNL A   1      39.212  34.239  36.532  1.00  0.00     0.198 A 
ATOM     76  C   UNL A   1      38.033  32.316  37.347  1.00  0.00     0.198 A 
ATOM     77  F   UNL A   1      38.123  30.292  36.159  1.00  0.00    -0.203 F 
ATOM     78  F   UNL A   1      39.618  35.505  36.695  1.00  0.00    -0.200 F 
ATOM     79  C   UNL A   1      38.413  33.641  37.495  1.00  0.00     0.200 A 
ATOM     80  F   UNL A   1      37.244  31.737  38.262  1.00  0.00    -0.200 F 
ATOM     81  F   UNL A   1      38.022  34.334  38.573  1.00  0.00    -0.200 F 
ENDBRANCH  47  71
BRANCH  59  82
ATOM     82  C   UNL A   1      44.664  27.875  34.429  1.00  0.00     0.064 A 
ATOM     83  C   UNL A   1      44.557  26.761  35.276  1.00  0.00     0.173 A 
ATOM     84  C   UNL A   1      45.853  28.619  34.471  1.00  0.00     0.173 A 
ATOM     85  F   UNL A   1      43.432  26.030  35.290  1.00  0.00    -0.203 F 
ATOM     86  C   UNL A   1      45.583  26.431  36.157  1.00  0.00     0.198 A 
ATOM     87  C   UNL A   1      46.890  28.266  35.331  1.00  0.00     0.198 A 
ATOM     88  F   UNL A   1      46.008  29.692  33.682  1.00  0.00    -0.203 F 
ATOM     89  F   UNL A   1      45.432  25.402  37.003  1.00  0.00    -0.200 F 
ATOM     90  C   UNL A   1      46.750  27.180  36.181  1.00  0.00     0.200 A 
ATOM     91  F   UNL A   1      48.020  28.987  35.346  1.00  0.00    -0.200 F 
ATOM     92  F   UNL A   1      47.734  26.863  37.033  1.00  0.00    -0.200 F 
ENDBRANCH  59  82
ENDBRANCH  33  34
ENDBRANCH  26  28
ENDBRANCH  25  26
ENDBRANCH  24  25
ENDBRANCH  23  24
ENDBRANCH   1  23
TORSDOF 16
ENDMDL
MODEL 2
REMARK VINA RESULT:     -11.5      0.163      1.610
REMARK SMILES CCC[NH2+]CC(=O)N1[C@@H](C(=O)OCCOC(=O)c2ccc(-c3c4nc(c(-c5c(F)c(F)c(F)c(F)c5F)c5ccc([nH]5)c(-c5c(F)c(F)c(F)c(F)c5F)c5nc(c(-c6c(F)c(F)c(F)c(F)c6F)c6ccc3[nH]6)C=C5)C=C4)cc2)CC[C@@H]2CCCC[C@@H]21
REMARK SMILES IDX 12 1 10 2 11 3 9 4 8 5 88 6 81 7 83 8 87 9 82 10 84 11 86 12
REMARK SMILES IDX 85 13 6 14 7 15 5 16 4 17 3 20 2 21 1 22 13 23 14 24 15 25
REMARK SMILES IDX 16 26 17 27 18 28 19 29 80 30 20 31 79 32 21 33 22 34 23 35
REMARK SMILES IDX 73 36 24 37 78 38 72 39 74 40 25 41 77 42 71 43 70 44 26 46
REMARK SMILES IDX 58 47 38 48 57 49 39 50 42 51 56 52 75 53 40 54 41 55 55 57
REMARK SMILES IDX 76 58 43 59 27 60 28 61 36 62 29 63 30 64 34 65 37 66 31 67
REMARK SMILES IDX 32 68 35 69 33 70 59 71 60 72 68 73 61 74 62 75 66 76 69 77
REMARK SMILES IDX 63 78 64 79 67 80 65 81 44 82 45 83 53 84 46 85 47 86 51 87
REMARK SMILES IDX 54 88 48 89 49 90 52 91 50 92
REMARK H PARENT 4 18 4 19 74 45 42 56
REMARK Flexibility Score: inf
ROOT
ATOM      1  O   UNL A   1      32.612  26.773  26.539  1.00  0.00    -0.461 OA
ENDROOT
BRANCH   1   2
ATOM      2  C   UNL A   1      32.170  25.469  26.473  1.00  0.00     0.328 C 
ATOM      3  O   UNL A   1      30.999  25.137  26.609  1.00  0.00    -0.250 OA
BRANCH   2   4
ATOM      4  C   UNL A   1      33.339  24.514  26.075  1.00  0.00     0.195 C 
ATOM      5  N   UNL A   1      33.387  24.120  24.634  1.00  0.00    -0.321 N 
ATOM      6  C   UNL A   1      34.077  22.875  24.182  1.00  0.00     0.089 C 
ATOM      7  C   UNL A   1      33.457  23.344  27.039  1.00  0.00     0.037 C 
ATOM      8  C   UNL A   1      34.424  21.863  25.292  1.00  0.00     0.012 C 
ATOM      9  C   UNL A   1      35.239  23.160  23.164  1.00  0.00     0.025 C 
ATOM     10  C   UNL A   1      34.683  22.527  26.648  1.00  0.00     0.008 C 
ATOM     11  C   UNL A   1      35.564  20.921  24.890  1.00  0.00     0.006 C 
ATOM     12  C   UNL A   1      36.652  22.635  23.406  1.00  0.00     0.002 C 
ATOM     13  C   UNL A   1      36.841  21.667  24.555  1.00  0.00     0.000 C 
BRANCH   5  14
ATOM     14  C   UNL A   1      33.107  25.031  23.607  1.00  0.00     0.278 C 
ATOM     15  O   UNL A   1      33.813  26.035  23.444  1.00  0.00    -0.268 OA
BRANCH  14  16
ATOM     16  C   UNL A   1      31.840  24.876  22.744  1.00  0.00     0.362 C 
BRANCH  16  17
ATOM     17  N   UNL A   1      30.553  25.143  23.426  1.00  0.00    -0.338 N 
ATOM     18  H   UNL A   1      29.820  24.633  22.934  1.00  0.00     0.346 HD
ATOM     19  H   UNL A   1      30.670  24.843  24.393  1.00  0.00     0.346 HD
BRANCH  17  20
ATOM     20  C   UNL A   1      30.170  26.555  23.474  1.00  0.00     0.260 C 
BRANCH  20  21
ATOM     21  C   UNL A   1      30.624  27.506  22.329  1.00  0.00     0.058 C 
ATOM     22  C   UNL A   1      30.723  29.013  22.536  1.00  0.00     0.010 C 
ENDBRANCH  20  21
ENDBRANCH  17  20
ENDBRANCH  16  17
ENDBRANCH  14  16
ENDBRANCH   5  14
ENDBRANCH   2   4
ENDBRANCH   1   2
BRANCH   1  23
ATOM     23  C   UNL A   1      31.620  27.748  26.933  1.00  0.00     0.274 C 
BRANCH  23  24
ATOM     24  C   UNL A   1      31.599  28.974  25.984  1.00  0.00     0.275 C 
BRANCH  24  25
ATOM     25  O   UNL A   1      32.806  29.785  25.909  1.00  0.00    -0.458 OA
BRANCH  25  26
ATOM     26  C   UNL A   1      32.948  30.800  26.797  1.00  0.00     0.338 C 
ATOM     27  O   UNL A   1      32.189  31.750  26.911  1.00  0.00    -0.246 OA
BRANCH  26  28
ATOM     28  C   UNL A   1      34.289  30.758  27.455  1.00  0.00     0.060 A 
ATOM     29  C   UNL A   1      34.766  29.502  27.795  1.00  0.00     0.016 A 
ATOM     30  C   UNL A   1      35.064  31.865  27.815  1.00  0.00     0.016 A 
ATOM     31  C   UNL A   1      35.857  29.360  28.658  1.00  0.00     0.010 A 
ATOM     32  C   UNL A   1      36.293  31.687  28.517  1.00  0.00     0.010 A 
ATOM     33  C   UNL A   1      36.706  30.424  28.984  1.00  0.00    -0.014 A 
BRANCH  33  34
ATOM     34  C   UNL A   1      37.982  30.147  29.764  1.00  0.00     0.031 A 
ATOM     35  C   UNL A   1      39.126  29.323  29.194  1.00  0.00     0.074 A 
ATOM     36  C   UNL A   1      38.180  30.686  30.996  1.00  0.00     0.049 A 
ATOM     37  N   UNL A   1      40.179  28.825  29.807  1.00  0.00    -0.248 NA
ATOM     38  C   UNL A   1      39.095  29.025  27.755  1.00  0.00     0.031 C 
ATOM     39  C   UNL A   1      37.243  31.560  31.711  1.00  0.00     0.029 A 
ATOM     40  N   UNL A   1      39.251  30.610  31.867  1.00  0.00    -0.354 N 
ATOM     41  C   UNL A   1      40.893  28.109  28.851  1.00  0.00     0.074 A 
ATOM     42  C   UNL A   1      40.163  28.249  27.607  1.00  0.00     0.031 C 
ATOM     43  C   UNL A   1      37.815  32.028  32.824  1.00  0.00     0.029 A 
ATOM     44  C   UNL A   1      39.076  31.334  33.028  1.00  0.00     0.049 A 
ATOM     45  H   UNL A   1      40.063  30.088  31.677  1.00  0.00     0.167 HD
ATOM     46  C   UNL A   1      42.041  27.394  28.994  1.00  0.00     0.037 A 
ATOM     47  C   UNL A   1      39.775  31.386  34.180  1.00  0.00     0.037 A 
ATOM     48  C   UNL A   1      42.809  27.292  30.214  1.00  0.00     0.049 A 
ATOM     49  C   UNL A   1      40.986  30.515  34.343  1.00  0.00     0.074 A 
ATOM     50  C   UNL A   1      43.948  26.537  30.460  1.00  0.00     0.029 A 
ATOM     51  N   UNL A   1      42.542  27.987  31.382  1.00  0.00    -0.354 N 
ATOM     52  N   UNL A   1      41.563  29.729  33.471  1.00  0.00    -0.248 NA
ATOM     53  C   UNL A   1      41.623  30.514  35.668  1.00  0.00     0.031 C 
ATOM     54  C   UNL A   1      44.347  26.749  31.785  1.00  0.00     0.029 A 
ATOM     55  C   UNL A   1      43.490  27.677  32.349  1.00  0.00     0.049 A 
ATOM     56  H   UNL A   1      41.791  28.611  31.508  1.00  0.00     0.167 HD
ATOM     57  C   UNL A   1      42.637  29.155  34.133  1.00  0.00     0.074 A 
ATOM     58  C   UNL A   1      42.652  29.705  35.471  1.00  0.00     0.031 C 
ATOM     59  C   UNL A   1      43.525  28.241  33.672  1.00  0.00     0.037 A 
BRANCH  46  60
ATOM     60  C   UNL A   1      42.536  26.607  27.809  1.00  0.00     0.064 A 
ATOM     61  C   UNL A   1      42.026  25.343  27.484  1.00  0.00     0.173 A 
ATOM     62  C   UNL A   1      43.483  27.172  26.937  1.00  0.00     0.173 A 
ATOM     63  F   UNL A   1      41.122  24.755  28.282  1.00  0.00    -0.203 F 
ATOM     64  C   UNL A   1      42.460  24.665  26.345  1.00  0.00     0.198 A 
ATOM     65  C   UNL A   1      43.893  26.504  25.786  1.00  0.00     0.198 A 
ATOM     66  F   UNL A   1      43.992  28.388  27.188  1.00  0.00    -0.203 F 
ATOM     67  F   UNL A   1      41.984  23.441  26.074  1.00  0.00    -0.200 F 
ATOM     68  C   UNL A   1      43.386  25.248  25.494  1.00  0.00     0.200 A 
ATOM     69  F   UNL A   1      44.775  27.080  24.955  1.00  0.00    -0.200 F 
ATOM     70  F   UNL A   1      43.793  24.599  24.395  1.00  0.00    -0.200 F 
ENDBRANCH  46  60
BRANCH  47  71
ATOM     71  C   UNL A   1      39.283  32.206  35.326  1.00  0.00     0.064 A 
ATOM     72  C   UNL A   1      39.638  33.556  35.462  1.00  0.00     0.173 A 
ATOM     73  C   UNL A   1      38.487  31.643  36.337  1.00  0.00     0.173 A 
ATOM     74  F   UNL A   1      40.427  34.137  34.546  1.00  0.00    -0.203 F 
ATOM     75  C   UNL A   1      39.236  34.299  36.571  1.00  0.00     0.198 A 
ATOM     76  C   UNL A   1      38.045  32.398  37.418  1.00  0.00     0.198 A 
ATOM     77  F   UNL A   1      38.124  30.353  36.267  1.00  0.00    -0.203 F 
ATOM     78  F   UNL A   1      39.650  35.565  36.711  1.00  0.00    -0.200 F 
ATOM     79  C   UNL A   1      38.432  33.723  37.543  1.00  0.00     0.200 A 
ATOM     80  F   UNL A   1      37.251  31.840  38.342  1.00  0.00    -0.200 F 
ATOM     81  F   UNL A   1      38.044  34.438  38.607  1.00  0.00    -0.200 F 
ENDBRANCH  47  71
BRANCH  59  82
ATOM     82  C   UNL A   1      44.628  27.833  34.604  1.00  0.00     0.064 A 
ATOM     83  C   UNL A   1      45.849  28.523  34.656  1.00  0.00     0.173 A 
ATOM     84  C   UNL A   1      44.464  26.724  35.448  1.00  0.00     0.173 A 
ATOM     85  F   UNL A   1      46.064  29.575  33.852  1.00  0.00    -0.203 F 
ATOM     86  C   UNL A   1      46.878  28.094  35.491  1.00  0.00     0.198 A 
ATOM     87  C   UNL A   1      45.484  26.319  36.306  1.00  0.00     0.198 A 
ATOM     88  F   UNL A   1      43.317  26.030  35.439  1.00  0.00    -0.203 F 
ATOM     89  F   UNL A   1      48.058  28.730  35.476  1.00  0.00    -0.200 F 
ATOM     90  C   UNL A   1      46.693  26.997  36.318  1.00  0.00     0.200 A 
ATOM     91  F   UNL A   1      45.301  25.262  37.110  1.00  0.00    -0.200 F 
ATOM     92  F   UNL A   1      47.686  26.584  37.118  1.00  0.00    -0.200 F 
ENDBRANCH  59  82
ENDBRANCH  33  34
ENDBRANCH  26  28
ENDBRANCH  25  26
ENDBRANCH  24  25
ENDBRANCH  23  24
ENDBRANCH   1  23
TORSDOF 16
ENDMDL
MODEL 3
REMARK VINA RESULT:     -11.3      1.058      2.333
REMARK SMILES CCC[NH2+]CC(=O)N1[C@@H](C(=O)OCCOC(=O)c2ccc(-c3c4nc(c(-c5c(F)c(F)c(F)c(F)c5F)c5ccc([nH]5)c(-c5c(F)c(F)c(F)c(F)c5F)c5nc(c(-c6c(F)c(F)c(F)c(F)c6F)c6ccc3[nH]6)C=C5)C=C4)cc2)CC[C@@H]2CCCC[C@@H]21
REMARK SMILES IDX 12 1 10 2 11 3 9 4 8 5 88 6 81 7 83 8 87 9 82 10 84 11 86 12
REMARK SMILES IDX 85 13 6 14 7 15 5 16 4 17 3 20 2 21 1 22 13 23 14 24 15 25
REMARK SMILES IDX 16 26 17 27 18 28 19 29 80 30 20 31 79 32 21 33 22 34 23 35
REMARK SMILES IDX 73 36 24 37 78 38 72 39 74 40 25 41 77 42 71 43 70 44 26 46
REMARK SMILES IDX 58 47 38 48 57 49 39 50 42 51 56 52 75 53 40 54 41 55 55 57
REMARK SMILES IDX 76 58 43 59 27 60 28 61 36 62 29 63 30 64 34 65 37 66 31 67
REMARK SMILES IDX 32 68 35 69 33 70 59 71 60 72 68 73 61 74 62 75 66 76 69 77
REMARK SMILES IDX 63 78 64 79 67 80 65 81 44 82 45 83 53 84 46 85 47 86 51 87
REMARK SMILES IDX 54 88 48 89 49 90 52 91 50 92
REMARK H PARENT 4 18 4 19 74 45 42 56
REMARK Flexibility Score: inf
ROOT
ATOM      1  O   UNL A   1      32.274  26.896  26.833  1.00  0.00    -0.461 OA
ENDROOT
BRANCH   1   2
ATOM      2  C   UNL A   1      31.789  25.787  26.173  1.00  0.00     0.328 C 
ATOM      3  O   UNL A   1      30.603  25.598  25.936  1.00  0.00    -0.250 OA
BRANCH   2   4
ATOM      4  C   UNL A   1      32.966  24.895  25.666  1.00  0.00     0.195 C 
ATOM      5  N   UNL A   1      33.332  23.748  26.550  1.00  0.00    -0.321 N 
ATOM      6  C   UNL A   1      34.686  23.121  26.506  1.00  0.00     0.089 C 
ATOM      7  C   UNL A   1      34.153  25.735  25.223  1.00  0.00     0.037 C 
ATOM      8  C   UNL A   1      35.772  23.929  25.767  1.00  0.00     0.012 C 
ATOM      9  C   UNL A   1      34.639  21.595  26.139  1.00  0.00     0.025 C 
ATOM     10  C   UNL A   1      35.208  24.801  24.641  1.00  0.00     0.008 C 
ATOM     11  C   UNL A   1      36.930  23.049  25.283  1.00  0.00     0.006 C 
ATOM     12  C   UNL A   1      35.461  21.030  24.982  1.00  0.00     0.002 C 
ATOM     13  C   UNL A   1      36.471  21.957  24.338  1.00  0.00     0.000 C 
BRANCH   5  14
ATOM     14  C   UNL A   1      32.361  22.979  27.205  1.00  0.00     0.278 C 
ATOM     15  O   UNL A   1      32.530  22.611  28.376  1.00  0.00    -0.268 OA
BRANCH  14  16
ATOM     16  C   UNL A   1      31.126  22.459  26.445  1.00  0.00     0.362 C 
BRANCH  16  17
ATOM     17  N   UNL A   1      31.401  21.641  25.241  1.00  0.00    -0.338 N 
ATOM     18  H   UNL A   1      32.282  21.149  25.384  1.00  0.00     0.346 HD
ATOM     19  H   UNL A   1      30.605  21.012  25.131  1.00  0.00     0.346 HD
BRANCH  17  20
ATOM     20  C   UNL A   1      31.501  22.402  23.995  1.00  0.00     0.260 C 
BRANCH  20  21
ATOM     21  C   UNL A   1      32.748  22.207  23.083  1.00  0.00     0.058 C 
ATOM     22  C   UNL A   1      33.135  23.238  22.030  1.00  0.00     0.010 C 
ENDBRANCH  20  21
ENDBRANCH  17  20
ENDBRANCH  16  17
ENDBRANCH  14  16
ENDBRANCH   5  14
ENDBRANCH   2   4
ENDBRANCH   1   2
BRANCH   1  23
ATOM     23  C   UNL A   1      31.407  28.052  26.831  1.00  0.00     0.274 C 
BRANCH  23  24
ATOM     24  C   UNL A   1      31.671  28.977  25.615  1.00  0.00     0.275 C 
BRANCH  24  25
ATOM     25  O   UNL A   1      32.854  29.824  25.662  1.00  0.00    -0.458 OA
BRANCH  25  26
ATOM     26  C   UNL A   1      32.946  30.735  26.662  1.00  0.00     0.338 C 
ATOM     27  O   UNL A   1      32.145  31.632  26.876  1.00  0.00    -0.246 OA
BRANCH  26  28
ATOM     28  C   UNL A   1      34.284  30.676  27.326  1.00  0.00     0.060 A 
ATOM     29  C   UNL A   1      34.760  29.411  27.633  1.00  0.00     0.016 A 
ATOM     30  C   UNL A   1      35.057  31.772  27.721  1.00  0.00     0.016 A 
ATOM     31  C   UNL A   1      35.847  29.246  28.497  1.00  0.00     0.010 A 
ATOM     32  C   UNL A   1      36.282  31.576  28.423  1.00  0.00     0.010 A 
ATOM     33  C   UNL A   1      36.694  30.300  28.857  1.00  0.00    -0.014 A 
BRANCH  33  34
ATOM     34  C   UNL A   1      37.966  30.002  29.635  1.00  0.00     0.031 A 
ATOM     35  C   UNL A   1      39.107  29.181  29.054  1.00  0.00     0.074 A 
ATOM     36  C   UNL A   1      38.164  30.519  30.876  1.00  0.00     0.049 A 
ATOM     37  N   UNL A   1      40.154  28.667  29.662  1.00  0.00    -0.248 NA
ATOM     38  C   UNL A   1      39.077  28.908  27.610  1.00  0.00     0.031 C 
ATOM     39  C   UNL A   1      37.231  31.386  31.604  1.00  0.00     0.029 A 
ATOM     40  N   UNL A   1      39.232  30.422  31.749  1.00  0.00    -0.354 N 
ATOM     41  C   UNL A   1      40.867  27.963  28.695  1.00  0.00     0.074 A 
ATOM     42  C   UNL A   1      40.141  28.128  27.452  1.00  0.00     0.031 C 
ATOM     43  C   UNL A   1      37.803  31.831  32.727  1.00  0.00     0.029 A 
ATOM     44  C   UNL A   1      39.058  31.126  32.921  1.00  0.00     0.049 A 
ATOM     45  H   UNL A   1      40.041  29.898  31.552  1.00  0.00     0.167 HD
ATOM     46  C   UNL A   1      42.010  27.238  28.829  1.00  0.00     0.037 A 
ATOM     47  C   UNL A   1      39.755  31.154  34.076  1.00  0.00     0.037 A 
ATOM     48  C   UNL A   1      42.775  27.110  30.048  1.00  0.00     0.049 A 
ATOM     49  C   UNL A   1      40.960  30.274  34.228  1.00  0.00     0.074 A 
ATOM     50  C   UNL A   1      43.908  26.345  30.285  1.00  0.00     0.029 A 
ATOM     51  N   UNL A   1      42.509  27.787  31.228  1.00  0.00    -0.354 N 
ATOM     52  N   UNL A   1      41.534  29.499  33.344  1.00  0.00    -0.248 NA
ATOM     53  C   UNL A   1      41.594  30.246  35.553  1.00  0.00     0.031 C 
ATOM     54  C   UNL A   1      44.304  26.532  31.614  1.00  0.00     0.029 A 
ATOM     55  C   UNL A   1      43.452  27.455  32.191  1.00  0.00     0.049 A 
ATOM     56  H   UNL A   1      41.761  28.413  31.362  1.00  0.00     0.167 HD
ATOM     57  C   UNL A   1      42.604  28.908  33.998  1.00  0.00     0.074 A 
ATOM     58  C   UNL A   1      42.618  29.434  35.346  1.00  0.00     0.031 C 
ATOM     59  C   UNL A   1      43.487  27.996  33.524  1.00  0.00     0.037 A 
BRANCH  46  60
ATOM     60  C   UNL A   1      42.503  26.469  27.632  1.00  0.00     0.064 A 
ATOM     61  C   UNL A   1      43.495  26.968  26.777  1.00  0.00     0.173 A 
ATOM     62  C   UNL A   1      42.025  25.169  27.387  1.00  0.00     0.173 A 
ATOM     63  F   UNL A   1      43.986  28.203  26.962  1.00  0.00    -0.203 F 
ATOM     64  C   UNL A   1      43.976  26.206  25.712  1.00  0.00     0.198 A 
ATOM     65  C   UNL A   1      42.527  24.401  26.339  1.00  0.00     0.198 A 
ATOM     66  F   UNL A   1      41.089  24.632  28.184  1.00  0.00    -0.203 F 
ATOM     67  F   UNL A   1      44.900  26.719  24.887  1.00  0.00    -0.200 F 
ATOM     68  C   UNL A   1      43.497  24.922  25.499  1.00  0.00     0.200 A 
ATOM     69  F   UNL A   1      42.076  23.152  26.148  1.00  0.00    -0.200 F 
ATOM     70  F   UNL A   1      43.969  24.188  24.482  1.00  0.00    -0.200 F 
ENDBRANCH  46  60
BRANCH  47  71
ATOM     71  C   UNL A   1      39.265  31.958  35.235  1.00  0.00     0.064 A 
ATOM     72  C   UNL A   1      38.477  31.381  36.242  1.00  0.00     0.173 A 
ATOM     73  C   UNL A   1      39.532  33.334  35.333  1.00  0.00     0.173 A 
ATOM     74  F   UNL A   1      38.160  30.080  36.180  1.00  0.00    -0.203 F 
ATOM     75  C   UNL A   1      37.962  32.151  37.283  1.00  0.00     0.198 A 
ATOM     76  C   UNL A   1      39.058  34.091  36.400  1.00  0.00     0.198 A 
ATOM     77  F   UNL A   1      40.271  33.944  34.393  1.00  0.00    -0.203 F 
ATOM     78  F   UNL A   1      37.153  31.588  38.191  1.00  0.00    -0.200 F 
ATOM     79  C   UNL A   1      38.260  33.503  37.367  1.00  0.00     0.200 A 
ATOM     80  F   UNL A   1      39.368  35.392  36.484  1.00  0.00    -0.200 F 
ATOM     81  F   UNL A   1      37.766  34.241  38.370  1.00  0.00    -0.200 F 
ENDBRANCH  47  71
BRANCH  59  82
ATOM     82  C   UNL A   1      44.585  27.565  34.452  1.00  0.00     0.064 A 
ATOM     83  C   UNL A   1      45.796  28.268  34.545  1.00  0.00     0.173 A 
ATOM     84  C   UNL A   1      44.427  26.423  35.250  1.00  0.00     0.173 A 
ATOM     85  F   UNL A   1      46.007  29.354  33.785  1.00  0.00    -0.203 F 
ATOM     86  C   UNL A   1      46.822  27.820  35.373  1.00  0.00     0.198 A 
ATOM     87  C   UNL A   1      45.442  25.997  36.102  1.00  0.00     0.198 A 
ATOM     88  F   UNL A   1      43.289  25.715  35.201  1.00  0.00    -0.203 F 
ATOM     89  F   UNL A   1      47.993  28.470  35.397  1.00  0.00    -0.200 F 
ATOM     90  C   UNL A   1      46.642  26.689  36.155  1.00  0.00     0.200 A 
ATOM     91  F   UNL A   1      45.264  24.907  36.862  1.00  0.00    -0.200 F 
ATOM     92  F   UNL A   1      47.632  26.257  36.949  1.00  0.00    -0.200 F 
ENDBRANCH  59  82
ENDBRANCH  33  34
ENDBRANCH  26  28
ENDBRANCH  25  26
ENDBRANCH  24  25
ENDBRANCH  23  24
ENDBRANCH   1  23
TORSDOF 16
ENDMDL
