MODEL 1
REMARK VINA RESULT:     -11.5      0.000      0.000
REMARK SMILES COc1ccccc1C[N@@H+](C)[C@@H](C)c1ccc(C(=O)OCCOC(=O)c2ccc(-c3c4nc(c(-c5c(F)c(F)c(F)c(F)c5F)c5ccc([nH]5)c(-c5c(F)c(F)c(F)c(F)c5F)c5nc(c(-c6c(F)c(F)c(F)c(F)c6F)c6ccc3[nH]6)C=C5)C=C4)cc2)o1
REMARK SMILES IDX 20 1 18 2 19 3 17 4 14 5 15 6 89 7 16 8 12 9 13 10 10 11
REMARK SMILES IDX 11 12 9 14 8 15 3 16 4 17 5 18 7 19 6 20 2 21 1 22 21 23
REMARK SMILES IDX 22 24 23 25 24 26 25 27 26 28 27 29 88 30 28 31 87 32 29 33
REMARK SMILES IDX 30 34 31 35 81 36 32 37 86 38 80 39 82 40 33 41 85 42 79 43
REMARK SMILES IDX 78 44 34 46 66 47 46 48 65 49 47 50 50 51 64 52 83 53 48 54
REMARK SMILES IDX 49 55 63 57 84 58 51 59 35 60 36 61 44 62 37 63 38 64 42 65
REMARK SMILES IDX 45 66 39 67 40 68 43 69 41 70 67 71 68 72 76 73 69 74 70 75
REMARK SMILES IDX 74 76 77 77 71 78 72 79 75 80 73 81 52 82 53 83 61 84 54 85
REMARK SMILES IDX 55 86 59 87 62 88 56 89 57 90 60 91 58 92
REMARK H PARENT 10 13 82 45 50 56
REMARK Flexibility Score: inf
ROOT
ATOM      1  O   UNL A   1      34.791  33.372  29.359  1.00  0.00    -0.456 OA
ENDROOT
BRANCH   1   2
ATOM      2  C   UNL A   1      33.916  33.087  28.347  1.00  0.00     0.374 C 
ATOM      3  O   UNL A   1      33.107  33.882  27.888  1.00  0.00    -0.242 OA
BRANCH   2   4
ATOM      4  C   UNL A   1      34.106  31.732  27.889  1.00  0.00     0.212 A 
ATOM      5  C   UNL A   1      33.409  29.802  27.055  1.00  0.00     0.162 A 
ATOM      6  C   UNL A   1      34.768  29.681  27.272  1.00  0.00     0.053 A 
ATOM      7  O   UNL A   1      32.996  31.018  27.518  1.00  0.00    -0.448 OA
ATOM      8  C   UNL A   1      35.225  30.940  27.734  1.00  0.00     0.059 A 
BRANCH   5   9
ATOM      9  C   UNL A   1      32.340  28.902  26.486  1.00  0.00     0.248 C 
ATOM     10  C   UNL A   1      31.576  28.183  27.608  1.00  0.00     0.084 C 
BRANCH   9  11
ATOM     11  N   UNL A   1      32.815  28.031  25.372  1.00  0.00    -0.325 N 
ATOM     12  C   UNL A   1      32.758  28.743  24.088  1.00  0.00     0.333 C 
ATOM     13  H   UNL A   1      33.776  27.806  25.632  1.00  0.00     0.348 HD
BRANCH  11  14
ATOM     14  C   UNL A   1      32.113  26.739  25.225  1.00  0.00     0.303 C 
BRANCH  14  15
ATOM     15  C   UNL A   1      32.932  25.522  25.585  1.00  0.00     0.048 A 
ATOM     16  C   UNL A   1      32.458  24.440  26.344  1.00  0.00     0.127 A 
ATOM     17  C   UNL A   1      33.332  23.407  26.715  1.00  0.00     0.047 A 
ATOM     18  C   UNL A   1      34.663  23.412  26.299  1.00  0.00     0.004 A 
ATOM     19  C   UNL A   1      34.275  25.492  25.150  1.00  0.00     0.013 A 
ATOM     20  C   UNL A   1      35.131  24.451  25.506  1.00  0.00     0.001 A 
BRANCH  16  21
ATOM     21  O   UNL A   1      31.226  24.380  26.942  1.00  0.00    -0.496 OA
ATOM     22  C   UNL A   1      30.575  23.118  26.882  1.00  0.00     0.278 C 
ENDBRANCH  16  21
ENDBRANCH  14  15
ENDBRANCH  11  14
ENDBRANCH   9  11
ENDBRANCH   5   9
ENDBRANCH   2   4
ENDBRANCH   1   2
BRANCH   1  23
ATOM     23  C   UNL A   1      34.324  34.324  30.334  1.00  0.00     0.275 C 
BRANCH  23  24
ATOM     24  C   UNL A   1      34.396  33.789  31.769  1.00  0.00     0.275 C 
BRANCH  24  25
ATOM     25  O   UNL A   1      34.898  32.441  31.799  1.00  0.00    -0.458 OA
BRANCH  25  26
ATOM     26  C   UNL A   1      35.930  32.217  32.645  1.00  0.00     0.338 C 
ATOM     27  O   UNL A   1      35.954  32.395  33.851  1.00  0.00    -0.246 OA
BRANCH  26  28
ATOM     28  C   UNL A   1      37.046  31.612  31.904  1.00  0.00     0.060 A 
ATOM     29  C   UNL A   1      38.091  31.048  32.636  1.00  0.00     0.016 A 
ATOM     30  C   UNL A   1      37.110  31.672  30.512  1.00  0.00     0.016 A 
ATOM     31  C   UNL A   1      39.199  30.515  31.986  1.00  0.00     0.010 A 
ATOM     32  C   UNL A   1      38.231  31.150  29.856  1.00  0.00     0.010 A 
ATOM     33  C   UNL A   1      39.283  30.571  30.590  1.00  0.00    -0.014 A 
BRANCH  33  34
ATOM     34  C   UNL A   1      40.509  30.086  29.912  1.00  0.00     0.031 A 
ATOM     35  C   UNL A   1      41.680  31.009  29.745  1.00  0.00     0.074 A 
ATOM     36  C   UNL A   1      40.583  28.815  29.479  1.00  0.00     0.049 A 
ATOM     37  N   UNL A   1      42.815  30.810  29.124  1.00  0.00    -0.248 NA
ATOM     38  C   UNL A   1      41.556  32.339  30.362  1.00  0.00     0.031 C 
ATOM     39  C   UNL A   1      39.534  27.810  29.639  1.00  0.00     0.029 A 
ATOM     40  N   UNL A   1      41.586  28.153  28.818  1.00  0.00    -0.354 N 
ATOM     41  C   UNL A   1      43.530  31.993  29.254  1.00  0.00     0.074 A 
ATOM     42  C   UNL A   1      42.697  32.911  30.002  1.00  0.00     0.031 C 
ATOM     43  C   UNL A   1      39.949  26.656  29.093  1.00  0.00     0.029 A 
ATOM     44  C   UNL A   1      41.272  26.854  28.506  1.00  0.00     0.049 A 
ATOM     45  H   UNL A   1      42.449  28.570  28.590  1.00  0.00     0.167 HD
ATOM     46  C   UNL A   1      44.769  32.283  28.789  1.00  0.00     0.037 A 
ATOM     47  C   UNL A   1      41.965  25.938  27.803  1.00  0.00     0.037 A 
ATOM     48  C   UNL A   1      45.598  31.358  28.061  1.00  0.00     0.049 A 
ATOM     49  C   UNL A   1      43.312  26.304  27.244  1.00  0.00     0.074 A 
ATOM     50  C   UNL A   1      46.875  31.550  27.563  1.00  0.00     0.029 A 
ATOM     51  N   UNL A   1      45.228  30.063  27.722  1.00  0.00    -0.354 N 
ATOM     52  N   UNL A   1      43.981  27.427  27.363  1.00  0.00    -0.248 NA
ATOM     53  C   UNL A   1      44.000  25.279  26.445  1.00  0.00     0.031 C 
ATOM     54  C   UNL A   1      47.260  30.387  26.885  1.00  0.00     0.029 A 
ATOM     55  C   UNL A   1      46.242  29.453  27.002  1.00  0.00     0.049 A 
ATOM     56  H   UNL A   1      44.370  29.641  27.960  1.00  0.00     0.167 HD
ATOM     57  C   UNL A   1      45.171  27.238  26.674  1.00  0.00     0.074 A 
ATOM     58  C   UNL A   1      45.141  25.888  26.151  1.00  0.00     0.031 C 
ATOM     59  C   UNL A   1      46.196  28.106  26.491  1.00  0.00     0.037 A 
BRANCH  46  60
ATOM     60  C   UNL A   1      45.284  33.673  29.022  1.00  0.00     0.064 A 
ATOM     61  C   UNL A   1      45.134  34.689  28.067  1.00  0.00     0.173 A 
ATOM     62  C   UNL A   1      45.924  33.995  30.228  1.00  0.00     0.173 A 
ATOM     63  F   UNL A   1      44.540  34.429  26.892  1.00  0.00    -0.203 F 
ATOM     64  C   UNL A   1      45.631  35.969  28.300  1.00  0.00     0.198 A 
ATOM     65  C   UNL A   1      46.395  35.282  30.469  1.00  0.00     0.198 A 
ATOM     66  F   UNL A   1      46.089  33.060  31.176  1.00  0.00    -0.203 F 
ATOM     67  F   UNL A   1      45.519  36.912  27.355  1.00  0.00    -0.200 F 
ATOM     68  C   UNL A   1      46.257  36.266  29.501  1.00  0.00     0.200 A 
ATOM     69  F   UNL A   1      46.990  35.570  31.635  1.00  0.00    -0.200 F 
ATOM     70  F   UNL A   1      46.734  37.498  29.725  1.00  0.00    -0.200 F 
ENDBRANCH  46  60
BRANCH  47  71
ATOM     71  C   UNL A   1      41.384  24.589  27.576  1.00  0.00     0.064 A 
ATOM     72  C   UNL A   1      40.269  24.414  26.747  1.00  0.00     0.173 A 
ATOM     73  C   UNL A   1      41.938  23.449  28.178  1.00  0.00     0.173 A 
ATOM     74  F   UNL A   1      39.687  25.476  26.172  1.00  0.00    -0.203 F 
ATOM     75  C   UNL A   1      39.723  23.149  26.535  1.00  0.00     0.198 A 
ATOM     76  C   UNL A   1      41.408  22.182  27.943  1.00  0.00     0.198 A 
ATOM     77  F   UNL A   1      43.001  23.566  28.986  1.00  0.00    -0.203 F 
ATOM     78  F   UNL A   1      38.633  23.012  25.767  1.00  0.00    -0.200 F 
ATOM     79  C   UNL A   1      40.299  22.034  27.126  1.00  0.00     0.200 A 
ATOM     80  F   UNL A   1      41.972  21.107  28.510  1.00  0.00    -0.200 F 
ATOM     81  F   UNL A   1      39.778  20.817  26.915  1.00  0.00    -0.200 F 
ENDBRANCH  47  71
BRANCH  59  82
ATOM     82  C   UNL A   1      47.383  27.612  25.716  1.00  0.00     0.064 A 
ATOM     83  C   UNL A   1      47.449  27.728  24.321  1.00  0.00     0.173 A 
ATOM     84  C   UNL A   1      48.481  27.048  26.384  1.00  0.00     0.173 A 
ATOM     85  F   UNL A   1      46.417  28.244  23.636  1.00  0.00    -0.203 F 
ATOM     86  C   UNL A   1      48.564  27.276  23.618  1.00  0.00     0.198 A 
ATOM     87  C   UNL A   1      49.605  26.624  25.680  1.00  0.00     0.198 A 
ATOM     88  F   UNL A   1      48.469  26.921  27.719  1.00  0.00    -0.203 F 
ATOM     89  F   UNL A   1      48.588  27.356  22.281  1.00  0.00    -0.200 F 
ATOM     90  C   UNL A   1      49.642  26.731  24.299  1.00  0.00     0.200 A 
ATOM     91  F   UNL A   1      50.651  26.108  26.341  1.00  0.00    -0.200 F 
ATOM     92  F   UNL A   1      50.717  26.303  23.621  1.00  0.00    -0.200 F 
ENDBRANCH  59  82
ENDBRANCH  33  34
ENDBRANCH  26  28
ENDBRANCH  25  26
ENDBRANCH  24  25
ENDBRANCH  23  24
ENDBRANCH   1  23
TORSDOF 16
ENDMDL
MODEL 2
REMARK VINA RESULT:     -11.5      5.500     10.703
REMARK SMILES COc1ccccc1C[N@@H+](C)[C@@H](C)c1ccc(C(=O)OCCOC(=O)c2ccc(-c3c4nc(c(-c5c(F)c(F)c(F)c(F)c5F)c5ccc([nH]5)c(-c5c(F)c(F)c(F)c(F)c5F)c5nc(c(-c6c(F)c(F)c(F)c(F)c6F)c6ccc3[nH]6)C=C5)C=C4)cc2)o1
REMARK SMILES IDX 20 1 18 2 19 3 17 4 14 5 15 6 89 7 16 8 12 9 13 10 10 11
REMARK SMILES IDX 11 12 9 14 8 15 3 16 4 17 5 18 7 19 6 20 2 21 1 22 21 23
REMARK SMILES IDX 22 24 23 25 24 26 25 27 26 28 27 29 88 30 28 31 87 32 29 33
REMARK SMILES IDX 30 34 31 35 81 36 32 37 86 38 80 39 82 40 33 41 85 42 79 43
REMARK SMILES IDX 78 44 34 46 66 47 46 48 65 49 47 50 50 51 64 52 83 53 48 54
REMARK SMILES IDX 49 55 63 57 84 58 51 59 35 60 36 61 44 62 37 63 38 64 42 65
REMARK SMILES IDX 45 66 39 67 40 68 43 69 41 70 67 71 68 72 76 73 69 74 70 75
REMARK SMILES IDX 74 76 77 77 71 78 72 79 75 80 73 81 52 82 53 83 61 84 54 85
REMARK SMILES IDX 55 86 59 87 62 88 56 89 57 90 60 91 58 92
REMARK H PARENT 10 13 82 45 50 56
REMARK Flexibility Score: inf
ROOT
ATOM      1  O   UNL A   1      41.599  21.305  26.533  1.00  0.00    -0.456 OA
ENDROOT
BRANCH   1   2
ATOM      2  C   UNL A   1      40.391  20.814  26.117  1.00  0.00     0.374 C 
ATOM      3  O   UNL A   1      40.189  19.648  25.806  1.00  0.00    -0.242 OA
BRANCH   2   4
ATOM      4  C   UNL A   1      39.397  21.860  26.128  1.00  0.00     0.212 A 
ATOM      5  C   UNL A   1      37.438  22.742  25.590  1.00  0.00     0.162 A 
ATOM      6  C   UNL A   1      38.106  23.678  26.354  1.00  0.00     0.053 A 
ATOM      7  O   UNL A   1      38.264  21.676  25.378  1.00  0.00    -0.448 OA
ATOM      8  C   UNL A   1      39.326  23.084  26.760  1.00  0.00     0.059 A 
BRANCH   5   9
ATOM      9  C   UNL A   1      36.078  22.676  24.939  1.00  0.00     0.248 C 
ATOM     10  C   UNL A   1      36.182  22.927  23.427  1.00  0.00     0.084 C 
BRANCH   9  11
ATOM     11  N   UNL A   1      35.031  23.465  25.650  1.00  0.00    -0.325 N 
ATOM     12  C   UNL A   1      34.440  22.684  26.746  1.00  0.00     0.333 C 
ATOM     13  H   UNL A   1      35.536  24.279  26.002  1.00  0.00     0.348 HD
BRANCH  11  14
ATOM     14  C   UNL A   1      33.938  23.990  24.804  1.00  0.00     0.303 C 
BRANCH  14  15
ATOM     15  C   UNL A   1      33.131  25.107  25.423  1.00  0.00     0.048 A 
ATOM     16  C   UNL A   1      31.756  25.036  25.698  1.00  0.00     0.127 A 
ATOM     17  C   UNL A   1      31.077  26.169  26.173  1.00  0.00     0.047 A 
ATOM     18  C   UNL A   1      31.759  27.359  26.426  1.00  0.00     0.004 A 
ATOM     19  C   UNL A   1      33.807  26.311  25.713  1.00  0.00     0.013 A 
ATOM     20  C   UNL A   1      33.129  27.425  26.205  1.00  0.00     0.001 A 
BRANCH  16  21
ATOM     21  O   UNL A   1      30.939  23.989  25.357  1.00  0.00    -0.496 OA
ATOM     22  C   UNL A   1      30.723  23.023  26.377  1.00  0.00     0.278 C 
ENDBRANCH  16  21
ENDBRANCH  14  15
ENDBRANCH  11  14
ENDBRANCH   9  11
ENDBRANCH   5   9
ENDBRANCH   2   4
ENDBRANCH   1   2
BRANCH   1  23
ATOM     23  C   UNL A   1      42.753  20.760  25.864  1.00  0.00     0.275 C 
BRANCH  23  24
ATOM     24  C   UNL A   1      43.705  21.844  25.345  1.00  0.00     0.275 C 
BRANCH  24  25
ATOM     25  O   UNL A   1      43.011  23.084  25.115  1.00  0.00    -0.458 OA
BRANCH  25  26
ATOM     26  C   UNL A   1      43.751  24.207  25.257  1.00  0.00     0.338 C 
ATOM     27  O   UNL A   1      44.717  24.548  24.596  1.00  0.00    -0.246 OA
BRANCH  26  28
ATOM     28  C   UNL A   1      43.158  25.054  26.302  1.00  0.00     0.060 A 
ATOM     29  C   UNL A   1      43.556  26.389  26.368  1.00  0.00     0.016 A 
ATOM     30  C   UNL A   1      42.289  24.527  27.257  1.00  0.00     0.016 A 
ATOM     31  C   UNL A   1      43.070  27.219  27.374  1.00  0.00     0.010 A 
ATOM     32  C   UNL A   1      41.810  25.356  28.279  1.00  0.00     0.010 A 
ATOM     33  C   UNL A   1      42.201  26.707  28.344  1.00  0.00    -0.014 A 
BRANCH  33  34
ATOM     34  C   UNL A   1      41.764  27.573  29.464  1.00  0.00     0.031 A 
ATOM     35  C   UNL A   1      42.518  27.547  30.761  1.00  0.00     0.074 A 
ATOM     36  C   UNL A   1      40.717  28.403  29.307  1.00  0.00     0.049 A 
ATOM     37  N   UNL A   1      42.262  28.169  31.884  1.00  0.00    -0.248 NA
ATOM     38  C   UNL A   1      43.723  26.705  30.799  1.00  0.00     0.031 C 
ATOM     39  C   UNL A   1      39.947  28.560  28.075  1.00  0.00     0.029 A 
ATOM     40  N   UNL A   1      40.125  29.271  30.188  1.00  0.00    -0.354 N 
ATOM     41  C   UNL A   1      43.259  27.777  32.768  1.00  0.00     0.074 A 
ATOM     42  C   UNL A   1      44.117  26.853  32.056  1.00  0.00     0.031 C 
ATOM     43  C   UNL A   1      38.982  29.472  28.277  1.00  0.00     0.029 A 
ATOM     44  C   UNL A   1      39.040  29.928  29.664  1.00  0.00     0.049 A 
ATOM     45  H   UNL A   1      40.447  29.409  31.109  1.00  0.00     0.167 HD
ATOM     46  C   UNL A   1      43.438  28.156  34.056  1.00  0.00     0.037 A 
ATOM     47  C   UNL A   1      38.176  30.781  30.247  1.00  0.00     0.037 A 
ATOM     48  C   UNL A   1      42.590  29.090  34.752  1.00  0.00     0.049 A 
ATOM     49  C   UNL A   1      38.360  31.139  31.696  1.00  0.00     0.074 A 
ATOM     50  C   UNL A   1      42.698  29.552  36.052  1.00  0.00     0.029 A 
ATOM     51  N   UNL A   1      41.471  29.701  34.202  1.00  0.00    -0.354 N 
ATOM     52  N   UNL A   1      39.299  30.759  32.529  1.00  0.00    -0.248 NA
ATOM     53  C   UNL A   1      37.359  32.037  32.290  1.00  0.00     0.031 C 
ATOM     54  C   UNL A   1      41.620  30.409  36.302  1.00  0.00     0.029 A 
ATOM     55  C   UNL A   1      40.867  30.519  35.144  1.00  0.00     0.049 A 
ATOM     56  H   UNL A   1      41.155  29.573  33.278  1.00  0.00     0.167 HD
ATOM     57  C   UNL A   1      39.016  31.385  33.736  1.00  0.00     0.074 A 
ATOM     58  C   UNL A   1      37.825  32.181  33.523  1.00  0.00     0.031 C 
ATOM     59  C   UNL A   1      39.682  31.306  34.914  1.00  0.00     0.037 A 
BRANCH  46  60
ATOM     60  C   UNL A   1      44.575  27.528  34.808  1.00  0.00     0.064 A 
ATOM     61  C   UNL A   1      44.425  26.318  35.501  1.00  0.00     0.173 A 
ATOM     62  C   UNL A   1      45.837  28.139  34.818  1.00  0.00     0.173 A 
ATOM     63  F   UNL A   1      43.235  25.699  35.533  1.00  0.00    -0.203 F 
ATOM     64  C   UNL A   1      45.491  25.759  36.202  1.00  0.00     0.198 A 
ATOM     65  C   UNL A   1      46.907  27.563  35.497  1.00  0.00     0.198 A 
ATOM     66  F   UNL A   1      46.034  29.295  34.166  1.00  0.00    -0.203 F 
ATOM     67  F   UNL A   1      45.314  24.627  36.898  1.00  0.00    -0.200 F 
ATOM     68  C   UNL A   1      46.732  26.379  36.196  1.00  0.00     0.200 A 
ATOM     69  F   UNL A   1      48.108  28.158  35.480  1.00  0.00    -0.200 F 
ATOM     70  F   UNL A   1      47.757  25.839  36.870  1.00  0.00    -0.200 F 
ENDBRANCH  46  60
BRANCH  47  71
ATOM     71  C   UNL A   1      37.049  31.343  29.458  1.00  0.00     0.064 A 
ATOM     72  C   UNL A   1      35.949  30.550  29.105  1.00  0.00     0.173 A 
ATOM     73  C   UNL A   1      37.047  32.685  29.047  1.00  0.00     0.173 A 
ATOM     74  F   UNL A   1      35.919  29.255  29.450  1.00  0.00    -0.203 F 
ATOM     75  C   UNL A   1      34.892  31.076  28.365  1.00  0.00     0.198 A 
ATOM     76  C   UNL A   1      35.977  33.216  28.331  1.00  0.00     0.198 A 
ATOM     77  F   UNL A   1      38.080  33.483  29.354  1.00  0.00    -0.203 F 
ATOM     78  F   UNL A   1      33.869  30.288  28.007  1.00  0.00    -0.200 F 
ATOM     79  C   UNL A   1      34.903  32.411  27.986  1.00  0.00     0.200 A 
ATOM     80  F   UNL A   1      35.988  34.508  27.974  1.00  0.00    -0.200 F 
ATOM     81  F   UNL A   1      33.883  32.918  27.280  1.00  0.00    -0.200 F 
ENDBRANCH  47  71
BRANCH  59  82
ATOM     82  C   UNL A   1      39.154  32.124  36.056  1.00  0.00     0.064 A 
ATOM     83  C   UNL A   1      38.232  31.599  36.971  1.00  0.00     0.173 A 
ATOM     84  C   UNL A   1      39.606  33.438  36.255  1.00  0.00     0.173 A 
ATOM     85  F   UNL A   1      37.758  30.354  36.813  1.00  0.00    -0.203 F 
ATOM     86  C   UNL A   1      37.762  32.368  38.034  1.00  0.00     0.198 A 
ATOM     87  C   UNL A   1      39.155  34.193  37.335  1.00  0.00     0.198 A 
ATOM     88  F   UNL A   1      40.493  33.985  35.410  1.00  0.00    -0.203 F 
ATOM     89  F   UNL A   1      36.848  31.861  38.871  1.00  0.00    -0.200 F 
ATOM     90  C   UNL A   1      38.229  33.661  38.218  1.00  0.00     0.200 A 
ATOM     91  F   UNL A   1      39.616  35.438  37.517  1.00  0.00    -0.200 F 
ATOM     92  F   UNL A   1      37.781  34.396  39.245  1.00  0.00    -0.200 F 
ENDBRANCH  59  82
ENDBRANCH  33  34
ENDBRANCH  26  28
ENDBRANCH  25  26
ENDBRANCH  24  25
ENDBRANCH  23  24
ENDBRANCH   1  23
TORSDOF 16
ENDMDL
MODEL 3
REMARK VINA RESULT:     -11.4      4.658      9.080
REMARK SMILES COc1ccccc1C[N@@H+](C)[C@@H](C)c1ccc(C(=O)OCCOC(=O)c2ccc(-c3c4nc(c(-c5c(F)c(F)c(F)c(F)c5F)c5ccc([nH]5)c(-c5c(F)c(F)c(F)c(F)c5F)c5nc(c(-c6c(F)c(F)c(F)c(F)c6F)c6ccc3[nH]6)C=C5)C=C4)cc2)o1
REMARK SMILES IDX 20 1 18 2 19 3 17 4 14 5 15 6 89 7 16 8 12 9 13 10 10 11
REMARK SMILES IDX 11 12 9 14 8 15 3 16 4 17 5 18 7 19 6 20 2 21 1 22 21 23
REMARK SMILES IDX 22 24 23 25 24 26 25 27 26 28 27 29 88 30 28 31 87 32 29 33
REMARK SMILES IDX 30 34 31 35 81 36 32 37 86 38 80 39 82 40 33 41 85 42 79 43
REMARK SMILES IDX 78 44 34 46 66 47 46 48 65 49 47 50 50 51 64 52 83 53 48 54
REMARK SMILES IDX 49 55 63 57 84 58 51 59 35 60 36 61 44 62 37 63 38 64 42 65
REMARK SMILES IDX 45 66 39 67 40 68 43 69 41 70 67 71 68 72 76 73 69 74 70 75
REMARK SMILES IDX 74 76 77 77 71 78 72 79 75 80 73 81 52 82 53 83 61 84 54 85
REMARK SMILES IDX 55 86 59 87 62 88 56 89 57 90 60 91 58 92
REMARK H PARENT 10 13 82 45 50 56
REMARK Flexibility Score: inf
ROOT
ATOM      1  O   UNL A   1      32.489  28.198  25.502  1.00  0.00    -0.456 OA
ENDROOT
BRANCH   1   2
ATOM      2  C   UNL A   1      32.203  26.952  25.990  1.00  0.00     0.374 C 
ATOM      3  O   UNL A   1      31.374  26.724  26.861  1.00  0.00    -0.242 OA
BRANCH   2   4
ATOM      4  C   UNL A   1      32.997  25.956  25.312  1.00  0.00     0.212 A 
ATOM      5  C   UNL A   1      34.359  24.210  25.247  1.00  0.00     0.162 A 
ATOM      6  C   UNL A   1      34.112  24.579  23.939  1.00  0.00     0.053 A 
ATOM      7  O   UNL A   1      33.753  25.108  26.079  1.00  0.00    -0.448 OA
ATOM      8  C   UNL A   1      33.182  25.647  23.980  1.00  0.00     0.059 A 
BRANCH   5   9
ATOM      9  C   UNL A   1      35.152  23.110  25.909  1.00  0.00     0.248 C 
ATOM     10  C   UNL A   1      36.607  23.113  25.416  1.00  0.00     0.084 C 
BRANCH   9  11
ATOM     11  N   UNL A   1      34.471  21.783  25.894  1.00  0.00    -0.325 N 
ATOM     12  C   UNL A   1      34.017  21.413  27.242  1.00  0.00     0.333 C 
ATOM     13  H   UNL A   1      33.684  21.921  25.260  1.00  0.00     0.348 HD
BRANCH  11  14
ATOM     14  C   UNL A   1      35.260  20.664  25.339  1.00  0.00     0.303 C 
BRANCH  14  15
ATOM     15  C   UNL A   1      34.450  19.594  24.646  1.00  0.00     0.048 A 
ATOM     16  C   UNL A   1      33.195  19.806  24.051  1.00  0.00     0.127 A 
ATOM     17  C   UNL A   1      32.476  18.721  23.528  1.00  0.00     0.047 A 
ATOM     18  C   UNL A   1      33.010  17.433  23.543  1.00  0.00     0.004 A 
ATOM     19  C   UNL A   1      34.985  18.288  24.625  1.00  0.00     0.013 A 
ATOM     20  C   UNL A   1      34.272  17.219  24.083  1.00  0.00     0.001 A 
BRANCH  16  21
ATOM     21  O   UNL A   1      32.491  20.980  24.101  1.00  0.00    -0.496 OA
ATOM     22  C   UNL A   1      32.238  21.598  22.846  1.00  0.00     0.278 C 
ENDBRANCH  16  21
ENDBRANCH  14  15
ENDBRANCH  11  14
ENDBRANCH   9  11
ENDBRANCH   5   9
ENDBRANCH   2   4
ENDBRANCH   1   2
BRANCH   1  23
ATOM     23  C   UNL A   1      31.358  29.075  25.341  1.00  0.00     0.275 C 
BRANCH  23  24
ATOM     24  C   UNL A   1      31.633  30.497  25.844  1.00  0.00     0.275 C 
BRANCH  24  25
ATOM     25  O   UNL A   1      33.030  30.690  26.129  1.00  0.00    -0.458 OA
BRANCH  25  26
ATOM     26  C   UNL A   1      33.317  31.645  27.043  1.00  0.00     0.338 C 
ATOM     27  O   UNL A   1      32.637  32.610  27.347  1.00  0.00    -0.246 OA
BRANCH  26  28
ATOM     28  C   UNL A   1      34.575  31.305  27.725  1.00  0.00     0.060 A 
ATOM     29  C   UNL A   1      34.789  29.973  28.079  1.00  0.00     0.016 A 
ATOM     30  C   UNL A   1      35.492  32.290  28.090  1.00  0.00     0.016 A 
ATOM     31  C   UNL A   1      35.935  29.607  28.778  1.00  0.00     0.010 A 
ATOM     32  C   UNL A   1      36.639  31.926  28.806  1.00  0.00     0.010 A 
ATOM     33  C   UNL A   1      36.864  30.582  29.157  1.00  0.00    -0.014 A 
BRANCH  33  34
ATOM     34  C   UNL A   1      38.034  30.196  29.982  1.00  0.00     0.031 A 
ATOM     35  C   UNL A   1      39.077  29.282  29.410  1.00  0.00     0.074 A 
ATOM     36  C   UNL A   1      38.176  30.691  31.224  1.00  0.00     0.049 A 
ATOM     37  N   UNL A   1      40.136  28.768  29.983  1.00  0.00    -0.248 NA
ATOM     38  C   UNL A   1      38.903  28.894  28.002  1.00  0.00     0.031 C 
ATOM     39  C   UNL A   1      37.259  31.634  31.863  1.00  0.00     0.029 A 
ATOM     40  N   UNL A   1      39.145  30.470  32.169  1.00  0.00    -0.354 N 
ATOM     41  C   UNL A   1      40.742  27.978  29.015  1.00  0.00     0.074 A 
ATOM     42  C   UNL A   1      39.926  28.070  27.822  1.00  0.00     0.031 C 
ATOM     43  C   UNL A   1      37.712  31.914  33.097  1.00  0.00     0.029 A 
ATOM     44  C   UNL A   1      38.923  31.135  33.349  1.00  0.00     0.049 A 
ATOM     45  H   UNL A   1      39.926  29.889  32.015  1.00  0.00     0.167 HD
ATOM     46  C   UNL A   1      41.876  27.244  29.117  1.00  0.00     0.037 A 
ATOM     47  C   UNL A   1      39.605  31.098  34.509  1.00  0.00     0.037 A 
ATOM     48  C   UNL A   1      42.691  27.172  30.301  1.00  0.00     0.049 A 
ATOM     49  C   UNL A   1      40.826  30.227  34.616  1.00  0.00     0.074 A 
ATOM     50  C   UNL A   1      43.868  26.471  30.500  1.00  0.00     0.029 A 
ATOM     51  N   UNL A   1      42.409  27.824  31.494  1.00  0.00    -0.354 N 
ATOM     52  N   UNL A   1      41.391  29.476  33.701  1.00  0.00    -0.248 NA
ATOM     53  C   UNL A   1      41.502  30.191  35.921  1.00  0.00     0.031 C 
ATOM     54  C   UNL A   1      44.274  26.663  31.825  1.00  0.00     0.029 A 
ATOM     55  C   UNL A   1      43.377  27.523  32.439  1.00  0.00     0.049 A 
ATOM     56  H   UNL A   1      41.635  28.414  31.646  1.00  0.00     0.167 HD
ATOM     57  C   UNL A   1      42.496  28.896  34.310  1.00  0.00     0.074 A 
ATOM     58  C   UNL A   1      42.531  29.392  35.670  1.00  0.00     0.031 C 
ATOM     59  C   UNL A   1      43.397  28.028  33.789  1.00  0.00     0.037 A 
BRANCH  46  60
ATOM     60  C   UNL A   1      42.278  26.428  27.923  1.00  0.00     0.064 A 
ATOM     61  C   UNL A   1      41.731  25.161  27.673  1.00  0.00     0.173 A 
ATOM     62  C   UNL A   1      43.213  26.932  27.007  1.00  0.00     0.173 A 
ATOM     63  F   UNL A   1      40.842  24.628  28.526  1.00  0.00    -0.203 F 
ATOM     64  C   UNL A   1      42.129  24.416  26.565  1.00  0.00     0.198 A 
ATOM     65  C   UNL A   1      43.587  26.196  25.886  1.00  0.00     0.198 A 
ATOM     66  F   UNL A   1      43.762  28.141  27.197  1.00  0.00    -0.203 F 
ATOM     67  F   UNL A   1      41.630  23.187  26.371  1.00  0.00    -0.200 F 
ATOM     68  C   UNL A   1      43.052  24.936  25.670  1.00  0.00     0.200 A 
ATOM     69  F   UNL A   1      44.472  26.705  25.016  1.00  0.00    -0.200 F 
ATOM     70  F   UNL A   1      43.433  24.219  24.604  1.00  0.00    -0.200 F 
ENDBRANCH  46  60
BRANCH  47  71
ATOM     71  C   UNL A   1      39.135  31.902  35.667  1.00  0.00     0.064 A 
ATOM     72  C   UNL A   1      39.552  33.229  35.841  1.00  0.00     0.173 A 
ATOM     73  C   UNL A   1      38.256  31.362  36.619  1.00  0.00     0.173 A 
ATOM     74  F   UNL A   1      40.414  33.779  34.974  1.00  0.00    -0.203 F 
ATOM     75  C   UNL A   1      39.113  33.983  36.927  1.00  0.00     0.198 A 
ATOM     76  C   UNL A   1      37.798  32.126  37.689  1.00  0.00     0.198 A 
ATOM     77  F   UNL A   1      37.835  30.095  36.500  1.00  0.00    -0.203 F 
ATOM     78  F   UNL A   1      39.555  35.237  37.092  1.00  0.00    -0.200 F 
ATOM     79  C   UNL A   1      38.229  33.434  37.845  1.00  0.00     0.200 A 
ATOM     80  F   UNL A   1      36.938  31.594  38.568  1.00  0.00    -0.200 F 
ATOM     81  F   UNL A   1      37.802  34.162  38.886  1.00  0.00    -0.200 F 
ENDBRANCH  47  71
BRANCH  59  82
ATOM     82  C   UNL A   1      44.517  27.584  34.684  1.00  0.00     0.064 A 
ATOM     83  C   UNL A   1      44.419  26.421  35.461  1.00  0.00     0.173 A 
ATOM     84  C   UNL A   1      45.716  28.312  34.736  1.00  0.00     0.173 A 
ATOM     85  F   UNL A   1      43.287  25.701  35.458  1.00  0.00    -0.203 F 
ATOM     86  C   UNL A   1      45.472  26.016  36.277  1.00  0.00     0.198 A 
ATOM     87  C   UNL A   1      46.776  27.888  35.532  1.00  0.00     0.198 A 
ATOM     88  F   UNL A   1      45.861  29.429  34.008  1.00  0.00    -0.203 F 
ATOM     89  F   UNL A   1      45.340  24.926  37.045  1.00  0.00    -0.200 F 
ATOM     90  C   UNL A   1      46.652  26.745  36.306  1.00  0.00     0.200 A 
ATOM     91  F   UNL A   1      47.919  28.588  35.550  1.00  0.00    -0.200 F 
ATOM     92  F   UNL A   1      47.667  26.349  37.087  1.00  0.00    -0.200 F 
ENDBRANCH  59  82
ENDBRANCH  33  34
ENDBRANCH  26  28
ENDBRANCH  25  26
ENDBRANCH  24  25
ENDBRANCH  23  24
ENDBRANCH   1  23
TORSDOF 16
ENDMDL
