MODEL 1
REMARK VINA RESULT:     -12.3      0.000      0.000
REMARK SMILES C=CCS(=O)(=O)Nc1ccc(C)cc1C(=O)OCCOC(=O)c1ccc(-c2c3nc(c(-c4c(F)c(F)c(F)c(F)c4F)c4ccc([nH]4)c(-c4c(F)c(F)c(F)c(F)c4F)c4nc(c(-c5c(F)c(F)c(F)c(F)c5F)c5ccc2[nH]5)C=C4)C=C3)cc1
REMARK SMILES IDX 18 1 17 2 15 3 16 4 14 5 8 6 9 7 10 8 13 9 11 10 12 11 7 12
REMARK SMILES IDX 4 14 5 15 6 16 3 17 2 18 1 19 19 20 20 21 21 22 22 23 23 24
REMARK SMILES IDX 24 25 85 26 25 27 84 28 26 29 27 30 28 31 78 32 29 33 83 34
REMARK SMILES IDX 77 35 79 36 30 37 82 38 76 39 75 40 31 42 63 43 43 44 62 45
REMARK SMILES IDX 44 46 47 47 61 48 80 49 45 50 46 51 60 53 81 54 48 55 32 56
REMARK SMILES IDX 33 57 41 58 34 59 35 60 39 61 42 62 36 63 37 64 40 65 38 66
REMARK SMILES IDX 64 67 65 68 73 69 66 70 67 71 71 72 74 73 68 74 69 75 72 76
REMARK SMILES IDX 70 77 49 78 50 79 58 80 51 81 52 82 56 83 59 84 53 85 54 86
REMARK SMILES IDX 57 87 55 88
REMARK H PARENT 7 13 79 41 47 52
REMARK Flexibility Score: inf
ROOT
ATOM      1  C   UNL A   1      33.697  27.910  26.596  1.00  0.00     0.275 C 
ENDROOT
BRANCH   1   2
ATOM      2  O   UNL A   1      34.128  27.023  25.545  1.00  0.00    -0.458 OA
BRANCH   2   3
ATOM      3  C   UNL A   1      33.504  25.821  25.638  1.00  0.00     0.340 C 
ATOM      4  O   UNL A   1      32.394  25.645  26.131  1.00  0.00    -0.246 OA
BRANCH   3   5
ATOM      5  C   UNL A   1      34.228  24.642  25.112  1.00  0.00     0.084 A 
ATOM      6  C   UNL A   1      33.923  24.260  23.795  1.00  0.00     0.063 A 
ATOM      7  C   UNL A   1      34.803  23.451  23.077  1.00  0.00     0.028 A 
ATOM      8  C   UNL A   1      35.955  22.960  23.686  1.00  0.00     0.005 A 
ATOM      9  C   UNL A   1      35.342  24.078  25.751  1.00  0.00     0.021 A 
ATOM     10  C   UNL A   1      36.221  23.243  25.032  1.00  0.00    -0.050 A 
ATOM     11  C   UNL A   1      37.509  22.746  25.629  1.00  0.00     0.044 C 
BRANCH   6  12
ATOM     12  N   UNL A   1      32.731  24.678  23.097  1.00  0.00    -0.282 N 
ATOM     13  H   UNL A   1      31.850  24.311  23.337  1.00  0.00     0.180 HD
BRANCH  12  14
ATOM     14  S   UNL A   1      32.889  25.824  21.849  1.00  0.00     0.236 S 
ATOM     15  O   UNL A   1      32.903  25.078  20.608  1.00  0.00    -0.206 OA
ATOM     16  O   UNL A   1      34.028  26.655  22.193  1.00  0.00    -0.206 OA
BRANCH  14  17
ATOM     17  C   UNL A   1      31.435  26.900  21.888  1.00  0.00     0.186 C 
BRANCH  17  18
ATOM     18  C   UNL A   1      31.283  27.600  23.205  1.00  0.00    -0.017 C 
ATOM     19  C   UNL A   1      30.239  27.405  24.022  1.00  0.00     0.005 C 
ENDBRANCH  17  18
ENDBRANCH  14  17
ENDBRANCH  12  14
ENDBRANCH   6  12
ENDBRANCH   3   5
ENDBRANCH   2   3
ENDBRANCH   1   2
BRANCH   1  20
ATOM     20  C   UNL A   1      34.305  29.319  26.561  1.00  0.00     0.275 C 
BRANCH  20  21
ATOM     21  O   UNL A   1      34.803  29.933  27.781  1.00  0.00    -0.458 OA
BRANCH  21  22
ATOM     22  C   UNL A   1      35.959  30.615  27.933  1.00  0.00     0.338 C 
ATOM     23  O   UNL A   1      36.016  31.839  27.866  1.00  0.00    -0.246 OA
BRANCH  22  24
ATOM     24  C   UNL A   1      37.170  29.823  28.192  1.00  0.00     0.060 A 
ATOM     25  C   UNL A   1      37.211  28.999  29.332  1.00  0.00     0.016 A 
ATOM     26  C   UNL A   1      38.191  29.799  27.250  1.00  0.00     0.016 A 
ATOM     27  C   UNL A   1      38.220  28.061  29.479  1.00  0.00     0.010 A 
ATOM     28  C   UNL A   1      39.107  28.786  27.315  1.00  0.00     0.010 A 
ATOM     29  C   UNL A   1      39.154  27.966  28.454  1.00  0.00    -0.014 A 
BRANCH  29  30
ATOM     30  C   UNL A   1      40.435  27.309  28.615  1.00  0.00     0.031 A 
ATOM     31  C   UNL A   1      40.593  25.874  28.367  1.00  0.00     0.074 A 
ATOM     32  C   UNL A   1      41.401  28.227  28.843  1.00  0.00     0.049 A 
ATOM     33  N   UNL A   1      41.571  25.172  28.811  1.00  0.00    -0.248 NA
ATOM     34  C   UNL A   1      39.630  25.068  27.624  1.00  0.00     0.031 C 
ATOM     35  C   UNL A   1      42.846  28.176  28.774  1.00  0.00     0.029 A 
ATOM     36  N   UNL A   1      41.144  29.512  29.372  1.00  0.00    -0.354 N 
ATOM     37  C   UNL A   1      41.562  23.975  28.118  1.00  0.00     0.074 A 
ATOM     38  C   UNL A   1      40.253  23.888  27.529  1.00  0.00     0.031 C 
ATOM     39  C   UNL A   1      43.334  29.170  29.549  1.00  0.00     0.029 A 
ATOM     40  C   UNL A   1      42.202  29.781  30.245  1.00  0.00     0.049 A 
ATOM     41  H   UNL A   1      40.379  30.097  29.169  1.00  0.00     0.167 HD
ATOM     42  C   UNL A   1      42.748  23.317  27.965  1.00  0.00     0.037 A 
ATOM     43  C   UNL A   1      41.914  29.682  31.580  1.00  0.00     0.037 A 
ATOM     44  C   UNL A   1      43.793  24.062  28.665  1.00  0.00     0.049 A 
ATOM     45  C   UNL A   1      42.574  28.467  32.204  1.00  0.00     0.074 A 
ATOM     46  C   UNL A   1      44.686  25.044  28.266  1.00  0.00     0.029 A 
ATOM     47  N   UNL A   1      43.701  24.168  30.038  1.00  0.00    -0.354 N 
ATOM     48  N   UNL A   1      43.044  27.453  31.526  1.00  0.00    -0.248 NA
ATOM     49  C   UNL A   1      42.711  28.285  33.643  1.00  0.00     0.031 C 
ATOM     50  C   UNL A   1      45.094  25.766  29.431  1.00  0.00     0.029 A 
ATOM     51  C   UNL A   1      44.445  25.223  30.525  1.00  0.00     0.049 A 
ATOM     52  H   UNL A   1      43.167  23.564  30.602  1.00  0.00     0.167 HD
ATOM     53  C   UNL A   1      43.640  26.567  32.376  1.00  0.00     0.074 A 
ATOM     54  C   UNL A   1      43.320  27.089  33.697  1.00  0.00     0.031 C 
ATOM     55  C   UNL A   1      44.374  25.494  31.951  1.00  0.00     0.037 A 
BRANCH  42  56
ATOM     56  C   UNL A   1      43.038  22.198  26.991  1.00  0.00     0.064 A 
ATOM     57  C   UNL A   1      42.337  20.974  27.099  1.00  0.00     0.173 A 
ATOM     58  C   UNL A   1      43.980  22.245  25.945  1.00  0.00     0.173 A 
ATOM     59  F   UNL A   1      41.364  20.803  28.003  1.00  0.00    -0.203 F 
ATOM     60  C   UNL A   1      42.605  19.874  26.283  1.00  0.00     0.198 A 
ATOM     61  C   UNL A   1      44.269  21.130  25.145  1.00  0.00     0.198 A 
ATOM     62  F   UNL A   1      44.613  23.379  25.625  1.00  0.00    -0.203 F 
ATOM     63  F   UNL A   1      41.904  18.742  26.445  1.00  0.00    -0.200 F 
ATOM     64  C   UNL A   1      43.586  19.942  25.318  1.00  0.00     0.200 A 
ATOM     65  F   UNL A   1      45.212  21.217  24.194  1.00  0.00    -0.200 F 
ATOM     66  F   UNL A   1      43.853  18.880  24.547  1.00  0.00    -0.200 F 
ENDBRANCH  42  56
BRANCH  43  67
ATOM     67  C   UNL A   1      40.548  30.214  31.943  1.00  0.00     0.064 A 
ATOM     68  C   UNL A   1      39.531  29.299  32.314  1.00  0.00     0.173 A 
ATOM     69  C   UNL A   1      40.296  31.564  32.216  1.00  0.00     0.173 A 
ATOM     70  F   UNL A   1      39.685  27.987  32.071  1.00  0.00    -0.203 F 
ATOM     71  C   UNL A   1      38.401  29.695  33.032  1.00  0.00     0.198 A 
ATOM     72  C   UNL A   1      39.140  31.964  32.900  1.00  0.00     0.198 A 
ATOM     73  F   UNL A   1      41.198  32.506  31.906  1.00  0.00    -0.203 F 
ATOM     74  F   UNL A   1      37.541  28.774  33.491  1.00  0.00    -0.200 F 
ATOM     75  C   UNL A   1      38.212  31.029  33.335  1.00  0.00     0.200 A 
ATOM     76  F   UNL A   1      38.975  33.255  33.230  1.00  0.00    -0.200 F 
ATOM     77  F   UNL A   1      37.173  31.411  34.091  1.00  0.00    -0.200 F 
ENDBRANCH  43  67
BRANCH  55  78
ATOM     78  C   UNL A   1      45.084  24.568  32.897  1.00  0.00     0.064 A 
ATOM     79  C   UNL A   1      46.388  24.817  33.342  1.00  0.00     0.173 A 
ATOM     80  C   UNL A   1      44.503  23.357  33.340  1.00  0.00     0.173 A 
ATOM     81  F   UNL A   1      47.103  25.839  32.849  1.00  0.00    -0.203 F 
ATOM     82  C   UNL A   1      46.999  24.008  34.296  1.00  0.00     0.198 A 
ATOM     83  C   UNL A   1      45.144  22.515  34.238  1.00  0.00     0.198 A 
ATOM     84  F   UNL A   1      43.291  22.953  32.942  1.00  0.00    -0.203 F 
ATOM     85  F   UNL A   1      48.200  24.351  34.781  1.00  0.00    -0.200 F 
ATOM     86  C   UNL A   1      46.373  22.862  34.751  1.00  0.00     0.200 A 
ATOM     87  F   UNL A   1      44.545  21.377  34.618  1.00  0.00    -0.200 F 
ATOM     88  F   UNL A   1      46.956  22.092  35.677  1.00  0.00    -0.200 F 
ENDBRANCH  55  78
ENDBRANCH  29  30
ENDBRANCH  22  24
ENDBRANCH  21  22
ENDBRANCH  20  21
ENDBRANCH   1  20
TORSDOF 15
ENDMDL
MODEL 2
REMARK VINA RESULT:     -12.3      1.663      2.913
REMARK SMILES C=CCS(=O)(=O)Nc1ccc(C)cc1C(=O)OCCOC(=O)c1ccc(-c2c3nc(c(-c4c(F)c(F)c(F)c(F)c4F)c4ccc([nH]4)c(-c4c(F)c(F)c(F)c(F)c4F)c4nc(c(-c5c(F)c(F)c(F)c(F)c5F)c5ccc2[nH]5)C=C4)C=C3)cc1
REMARK SMILES IDX 18 1 17 2 15 3 16 4 14 5 8 6 9 7 10 8 13 9 11 10 12 11 7 12
REMARK SMILES IDX 4 14 5 15 6 16 3 17 2 18 1 19 19 20 20 21 21 22 22 23 23 24
REMARK SMILES IDX 24 25 85 26 25 27 84 28 26 29 27 30 28 31 78 32 29 33 83 34
REMARK SMILES IDX 77 35 79 36 30 37 82 38 76 39 75 40 31 42 63 43 43 44 62 45
REMARK SMILES IDX 44 46 47 47 61 48 80 49 45 50 46 51 60 53 81 54 48 55 32 56
REMARK SMILES IDX 33 57 41 58 34 59 35 60 39 61 42 62 36 63 37 64 40 65 38 66
REMARK SMILES IDX 64 67 65 68 73 69 66 70 67 71 71 72 74 73 68 74 69 75 72 76
REMARK SMILES IDX 70 77 49 78 50 79 58 80 51 81 52 82 56 83 59 84 53 85 54 86
REMARK SMILES IDX 57 87 55 88
REMARK H PARENT 7 13 79 41 47 52
REMARK Flexibility Score: inf
ROOT
ATOM      1  C   UNL A   1      32.701  30.011  27.238  1.00  0.00     0.275 C 
ENDROOT
BRANCH   1   2
ATOM      2  O   UNL A   1      32.866  28.599  27.002  1.00  0.00    -0.458 OA
BRANCH   2   3
ATOM      3  C   UNL A   1      31.663  27.972  26.954  1.00  0.00     0.340 C 
ATOM      4  O   UNL A   1      30.971  27.709  27.933  1.00  0.00    -0.246 OA
BRANCH   3   5
ATOM      5  C   UNL A   1      31.163  27.573  25.619  1.00  0.00     0.084 A 
ATOM      6  C   UNL A   1      30.450  26.364  25.556  1.00  0.00     0.063 A 
ATOM      7  C   UNL A   1      29.611  26.100  24.474  1.00  0.00     0.028 A 
ATOM      8  C   UNL A   1      29.529  27.002  23.417  1.00  0.00     0.005 A 
ATOM      9  C   UNL A   1      31.147  28.439  24.516  1.00  0.00     0.021 A 
ATOM     10  C   UNL A   1      30.314  28.162  23.413  1.00  0.00    -0.050 A 
ATOM     11  C   UNL A   1      30.145  29.140  22.282  1.00  0.00     0.044 C 
BRANCH   6  12
ATOM     12  N   UNL A   1      30.508  25.347  26.579  1.00  0.00    -0.282 N 
ATOM     13  H   UNL A   1      29.864  25.343  27.324  1.00  0.00     0.180 HD
BRANCH  12  14
ATOM     14  S   UNL A   1      31.717  24.156  26.462  1.00  0.00     0.236 S 
ATOM     15  O   UNL A   1      31.643  23.378  27.682  1.00  0.00    -0.206 OA
ATOM     16  O   UNL A   1      32.949  24.847  26.133  1.00  0.00    -0.206 OA
BRANCH  14  17
ATOM     17  C   UNL A   1      31.326  23.097  25.049  1.00  0.00     0.186 C 
BRANCH  17  18
ATOM     18  C   UNL A   1      31.729  21.671  25.281  1.00  0.00    -0.017 C 
ATOM     19  C   UNL A   1      32.406  20.945  24.381  1.00  0.00     0.005 C 
ENDBRANCH  17  18
ENDBRANCH  14  17
ENDBRANCH  12  14
ENDBRANCH   6  12
ENDBRANCH   3   5
ENDBRANCH   2   3
ENDBRANCH   1   2
BRANCH   1  20
ATOM     20  C   UNL A   1      34.002  30.823  27.311  1.00  0.00     0.275 C 
BRANCH  20  21
ATOM     21  O   UNL A   1      35.194  30.247  27.913  1.00  0.00    -0.458 OA
BRANCH  21  22
ATOM     22  C   UNL A   1      36.377  30.865  28.121  1.00  0.00     0.338 C 
ATOM     23  O   UNL A   1      36.494  32.087  28.105  1.00  0.00    -0.246 OA
BRANCH  22  24
ATOM     24  C   UNL A   1      37.540  30.005  28.380  1.00  0.00     0.060 A 
ATOM     25  C   UNL A   1      37.491  29.102  29.458  1.00  0.00     0.016 A 
ATOM     26  C   UNL A   1      38.605  30.003  27.488  1.00  0.00     0.016 A 
ATOM     27  C   UNL A   1      38.454  28.113  29.584  1.00  0.00     0.010 A 
ATOM     28  C   UNL A   1      39.477  28.950  27.523  1.00  0.00     0.010 A 
ATOM     29  C   UNL A   1      39.433  28.051  28.601  1.00  0.00    -0.014 A 
BRANCH  29  30
ATOM     30  C   UNL A   1      40.677  27.330  28.774  1.00  0.00     0.031 A 
ATOM     31  C   UNL A   1      40.775  25.896  28.489  1.00  0.00     0.074 A 
ATOM     32  C   UNL A   1      41.680  28.193  29.052  1.00  0.00     0.049 A 
ATOM     33  N   UNL A   1      41.707  25.136  28.937  1.00  0.00    -0.248 NA
ATOM     34  C   UNL A   1      39.794  25.157  27.700  1.00  0.00     0.031 C 
ATOM     35  C   UNL A   1      43.122  28.076  29.017  1.00  0.00     0.029 A 
ATOM     36  N   UNL A   1      41.470  29.475  29.611  1.00  0.00    -0.354 N 
ATOM     37  C   UNL A   1      41.660  23.961  28.210  1.00  0.00     0.074 A 
ATOM     38  C   UNL A   1      40.364  23.952  27.587  1.00  0.00     0.031 C 
ATOM     39  C   UNL A   1      43.635  29.024  29.832  1.00  0.00     0.029 A 
ATOM     40  C   UNL A   1      42.515  29.669  30.518  1.00  0.00     0.049 A 
ATOM     41  H   UNL A   1      40.738  30.100  29.406  1.00  0.00     0.167 HD
ATOM     42  C   UNL A   1      42.817  23.252  28.068  1.00  0.00     0.037 A 
ATOM     43  C   UNL A   1      42.189  29.548  31.841  1.00  0.00     0.037 A 
ATOM     44  C   UNL A   1      43.878  23.926  28.814  1.00  0.00     0.049 A 
ATOM     45  C   UNL A   1      42.774  28.286  32.446  1.00  0.00     0.074 A 
ATOM     46  C   UNL A   1      44.826  24.875  28.465  1.00  0.00     0.029 A 
ATOM     47  N   UNL A   1      43.755  23.999  30.186  1.00  0.00    -0.354 N 
ATOM     48  N   UNL A   1      43.215  27.269  31.751  1.00  0.00    -0.248 NA
ATOM     49  C   UNL A   1      42.866  28.058  33.883  1.00  0.00     0.031 C 
ATOM     50  C   UNL A   1      45.237  25.545  29.659  1.00  0.00     0.029 A 
ATOM     51  C   UNL A   1      44.535  25.003  30.722  1.00  0.00     0.049 A 
ATOM     52  H   UNL A   1      43.179  23.406  30.720  1.00  0.00     0.167 HD
ATOM     53  C   UNL A   1      43.746  26.333  32.590  1.00  0.00     0.074 A 
ATOM     54  C   UNL A   1      43.417  26.833  33.917  1.00  0.00     0.031 C 
ATOM     55  C   UNL A   1      44.440  25.238  32.152  1.00  0.00     0.037 A 
BRANCH  42  56
ATOM     56  C   UNL A   1      43.080  22.147  27.069  1.00  0.00     0.064 A 
ATOM     57  C   UNL A   1      42.321  20.955  27.125  1.00  0.00     0.173 A 
ATOM     58  C   UNL A   1      44.049  22.178  26.047  1.00  0.00     0.173 A 
ATOM     59  F   UNL A   1      41.318  20.805  28.000  1.00  0.00    -0.203 F 
ATOM     60  C   UNL A   1      42.558  19.865  26.285  1.00  0.00     0.198 A 
ATOM     61  C   UNL A   1      44.306  21.073  25.223  1.00  0.00     0.198 A 
ATOM     62  F   UNL A   1      44.742  23.289  25.776  1.00  0.00    -0.203 F 
ATOM     63  F   UNL A   1      41.801  18.764  26.398  1.00  0.00    -0.200 F 
ATOM     64  C   UNL A   1      43.565  19.914  25.347  1.00  0.00     0.200 A 
ATOM     65  F   UNL A   1      45.276  21.141  24.298  1.00  0.00    -0.200 F 
ATOM     66  F   UNL A   1      43.802  18.863  24.552  1.00  0.00    -0.200 F 
ENDBRANCH  42  56
BRANCH  43  67
ATOM     67  C   UNL A   1      40.841  30.133  32.186  1.00  0.00     0.064 A 
ATOM     68  C   UNL A   1      39.767  29.257  32.484  1.00  0.00     0.173 A 
ATOM     69  C   UNL A   1      40.648  31.482  32.510  1.00  0.00     0.173 A 
ATOM     70  F   UNL A   1      39.862  27.951  32.189  1.00  0.00    -0.203 F 
ATOM     71  C   UNL A   1      38.635  29.680  33.184  1.00  0.00     0.198 A 
ATOM     72  C   UNL A   1      39.492  31.912  33.176  1.00  0.00     0.198 A 
ATOM     73  F   UNL A   1      41.606  32.388  32.269  1.00  0.00    -0.203 F 
ATOM     74  F   UNL A   1      37.716  28.786  33.576  1.00  0.00    -0.200 F 
ATOM     75  C   UNL A   1      38.504  31.009  33.540  1.00  0.00     0.200 A 
ATOM     76  F   UNL A   1      39.382  33.194  33.557  1.00  0.00    -0.200 F 
ATOM     77  F   UNL A   1      37.462  31.411  34.280  1.00  0.00    -0.200 F 
ENDBRANCH  43  67
BRANCH  55  78
ATOM     78  C   UNL A   1      45.080  24.254  33.089  1.00  0.00     0.064 A 
ATOM     79  C   UNL A   1      44.394  23.133  33.570  1.00  0.00     0.173 A 
ATOM     80  C   UNL A   1      46.389  24.438  33.592  1.00  0.00     0.173 A 
ATOM     81  F   UNL A   1      43.092  22.952  33.305  1.00  0.00    -0.203 F 
ATOM     82  C   UNL A   1      45.027  22.173  34.356  1.00  0.00     0.198 A 
ATOM     83  C   UNL A   1      46.995  23.514  34.433  1.00  0.00     0.198 A 
ATOM     84  F   UNL A   1      47.139  25.500  33.274  1.00  0.00    -0.203 F 
ATOM     85  F   UNL A   1      44.367  21.058  34.696  1.00  0.00    -0.200 F 
ATOM     86  C   UNL A   1      46.330  22.360  34.780  1.00  0.00     0.200 A 
ATOM     87  F   UNL A   1      48.236  23.746  34.882  1.00  0.00    -0.200 F 
ATOM     88  F   UNL A   1      46.942  21.431  35.524  1.00  0.00    -0.200 F 
ENDBRANCH  55  78
ENDBRANCH  29  30
ENDBRANCH  22  24
ENDBRANCH  21  22
ENDBRANCH  20  21
ENDBRANCH   1  20
TORSDOF 15
ENDMDL
MODEL 3
REMARK VINA RESULT:     -12.1      1.271      2.946
REMARK SMILES C=CCS(=O)(=O)Nc1ccc(C)cc1C(=O)OCCOC(=O)c1ccc(-c2c3nc(c(-c4c(F)c(F)c(F)c(F)c4F)c4ccc([nH]4)c(-c4c(F)c(F)c(F)c(F)c4F)c4nc(c(-c5c(F)c(F)c(F)c(F)c5F)c5ccc2[nH]5)C=C4)C=C3)cc1
REMARK SMILES IDX 18 1 17 2 15 3 16 4 14 5 8 6 9 7 10 8 13 9 11 10 12 11 7 12
REMARK SMILES IDX 4 14 5 15 6 16 3 17 2 18 1 19 19 20 20 21 21 22 22 23 23 24
REMARK SMILES IDX 24 25 85 26 25 27 84 28 26 29 27 30 28 31 78 32 29 33 83 34
REMARK SMILES IDX 77 35 79 36 30 37 82 38 76 39 75 40 31 42 63 43 43 44 62 45
REMARK SMILES IDX 44 46 47 47 61 48 80 49 45 50 46 51 60 53 81 54 48 55 32 56
REMARK SMILES IDX 33 57 41 58 34 59 35 60 39 61 42 62 36 63 37 64 40 65 38 66
REMARK SMILES IDX 64 67 65 68 73 69 66 70 67 71 71 72 74 73 68 74 69 75 72 76
REMARK SMILES IDX 70 77 49 78 50 79 58 80 51 81 52 82 56 83 59 84 53 85 54 86
REMARK SMILES IDX 57 87 55 88
REMARK H PARENT 7 13 79 41 47 52
REMARK Flexibility Score: inf
ROOT
ATOM      1  C   UNL A   1      32.653  29.968  26.725  1.00  0.00     0.275 C 
ENDROOT
BRANCH   1   2
ATOM      2  O   UNL A   1      31.843  29.013  26.011  1.00  0.00    -0.458 OA
BRANCH   2   3
ATOM      3  C   UNL A   1      31.969  29.178  24.670  1.00  0.00     0.340 C 
ATOM      4  O   UNL A   1      33.038  29.260  24.072  1.00  0.00    -0.246 OA
BRANCH   3   5
ATOM      5  C   UNL A   1      30.720  29.272  23.881  1.00  0.00     0.084 A 
ATOM      6  C   UNL A   1      30.216  28.066  23.366  1.00  0.00     0.063 A 
ATOM      7  C   UNL A   1      28.881  27.976  22.972  1.00  0.00     0.028 A 
ATOM      8  C   UNL A   1      28.060  29.099  23.022  1.00  0.00     0.005 A 
ATOM      9  C   UNL A   1      29.919  30.423  23.849  1.00  0.00     0.021 A 
ATOM     10  C   UNL A   1      28.576  30.336  23.430  1.00  0.00    -0.050 A 
ATOM     11  C   UNL A   1      27.637  31.508  23.530  1.00  0.00     0.044 C 
BRANCH   6  12
ATOM     12  N   UNL A   1      31.002  26.863  23.232  1.00  0.00    -0.282 N 
ATOM     13  H   UNL A   1      31.754  26.819  22.600  1.00  0.00     0.180 HD
BRANCH  12  14
ATOM     14  S   UNL A   1      30.592  25.523  24.198  1.00  0.00     0.236 S 
ATOM     15  O   UNL A   1      30.027  24.533  23.304  1.00  0.00    -0.206 OA
ATOM     16  O   UNL A   1      29.791  26.032  25.294  1.00  0.00    -0.206 OA
BRANCH  14  17
ATOM     17  C   UNL A   1      32.114  24.873  24.928  1.00  0.00     0.186 C 
BRANCH  17  18
ATOM     18  C   UNL A   1      33.307  25.720  24.599  1.00  0.00    -0.017 C 
ATOM     19  C   UNL A   1      34.168  26.163  25.525  1.00  0.00     0.005 C 
ENDBRANCH  17  18
ENDBRANCH  14  17
ENDBRANCH  12  14
ENDBRANCH   6  12
ENDBRANCH   3   5
ENDBRANCH   2   3
ENDBRANCH   1   2
BRANCH   1  20
ATOM     20  C   UNL A   1      34.011  29.446  27.215  1.00  0.00     0.275 C 
BRANCH  20  21
ATOM     21  O   UNL A   1      34.746  30.166  28.242  1.00  0.00    -0.458 OA
BRANCH  21  22
ATOM     22  C   UNL A   1      35.933  30.795  28.101  1.00  0.00     0.338 C 
ATOM     23  O   UNL A   1      36.016  31.981  27.796  1.00  0.00    -0.246 OA
BRANCH  22  24
ATOM     24  C   UNL A   1      37.143  29.996  28.336  1.00  0.00     0.060 A 
ATOM     25  C   UNL A   1      37.188  29.144  29.455  1.00  0.00     0.016 A 
ATOM     26  C   UNL A   1      38.160  29.994  27.390  1.00  0.00     0.016 A 
ATOM     27  C   UNL A   1      38.196  28.202  29.576  1.00  0.00     0.010 A 
ATOM     28  C   UNL A   1      39.076  28.979  27.426  1.00  0.00     0.010 A 
ATOM     29  C   UNL A   1      39.126  28.131  28.546  1.00  0.00    -0.014 A 
BRANCH  29  30
ATOM     30  C   UNL A   1      40.407  27.469  28.685  1.00  0.00     0.031 A 
ATOM     31  C   UNL A   1      40.558  26.036  28.423  1.00  0.00     0.074 A 
ATOM     32  C   UNL A   1      41.379  28.382  28.909  1.00  0.00     0.049 A 
ATOM     33  N   UNL A   1      41.538  25.327  28.850  1.00  0.00    -0.248 NA
ATOM     34  C   UNL A   1      39.583  25.239  27.685  1.00  0.00     0.031 C 
ATOM     35  C   UNL A   1      42.822  28.328  28.823  1.00  0.00     0.029 A 
ATOM     36  N   UNL A   1      41.132  29.663  29.453  1.00  0.00    -0.354 N 
ATOM     37  C   UNL A   1      41.518  24.136  28.147  1.00  0.00     0.074 A 
ATOM     38  C   UNL A   1      40.202  24.058  27.572  1.00  0.00     0.031 C 
ATOM     39  C   UNL A   1      43.322  29.313  29.601  1.00  0.00     0.029 A 
ATOM     40  C   UNL A   1      42.200  29.921  30.316  1.00  0.00     0.049 A 
ATOM     41  H   UNL A   1      40.366  30.252  29.263  1.00  0.00     0.167 HD
ATOM     42  C   UNL A   1      42.700  23.476  27.974  1.00  0.00     0.037 A 
ATOM     43  C   UNL A   1      41.928  29.812  31.652  1.00  0.00     0.037 A 
ATOM     44  C   UNL A   1      43.756  24.212  28.667  1.00  0.00     0.049 A 
ATOM     45  C   UNL A   1      42.591  28.590  32.258  1.00  0.00     0.074 A 
ATOM     46  C   UNL A   1      44.647  25.194  28.266  1.00  0.00     0.029 A 
ATOM     47  N   UNL A   1      43.680  24.306  30.042  1.00  0.00    -0.354 N 
ATOM     48  N   UNL A   1      43.051  27.580  31.566  1.00  0.00    -0.248 NA
ATOM     49  C   UNL A   1      42.745  28.395  33.694  1.00  0.00     0.031 C 
ATOM     50  C   UNL A   1      45.071  25.905  29.432  1.00  0.00     0.029 A 
ATOM     51  C   UNL A   1      44.433  25.355  30.530  1.00  0.00     0.049 A 
ATOM     52  H   UNL A   1      43.151  23.699  30.607  1.00  0.00     0.167 HD
ATOM     53  C   UNL A   1      43.654  26.685  32.401  1.00  0.00     0.074 A 
ATOM     54  C   UNL A   1      43.352  27.196  33.730  1.00  0.00     0.031 C 
ATOM     55  C   UNL A   1      44.380  25.614  31.958  1.00  0.00     0.037 A 
BRANCH  42  56
ATOM     56  C   UNL A   1      42.975  22.365  26.987  1.00  0.00     0.064 A 
ATOM     57  C   UNL A   1      42.312  21.123  27.125  1.00  0.00     0.173 A 
ATOM     58  C   UNL A   1      43.867  22.436  25.899  1.00  0.00     0.173 A 
ATOM     59  F   UNL A   1      41.386  20.926  28.071  1.00  0.00    -0.203 F 
ATOM     60  C   UNL A   1      42.572  20.029  26.297  1.00  0.00     0.198 A 
ATOM     61  C   UNL A   1      44.149  21.328  25.086  1.00  0.00     0.198 A 
ATOM     62  F   UNL A   1      44.456  23.586  25.552  1.00  0.00    -0.203 F 
ATOM     63  F   UNL A   1      41.909  18.880  26.489  1.00  0.00    -0.200 F 
ATOM     64  C   UNL A   1      43.506  20.123  25.289  1.00  0.00     0.200 A 
ATOM     65  F   UNL A   1      45.046  21.439  24.094  1.00  0.00    -0.200 F 
ATOM     66  F   UNL A   1      43.765  19.069  24.505  1.00  0.00    -0.200 F 
ENDBRANCH  42  56
BRANCH  43  67
ATOM     67  C   UNL A   1      40.569  30.344  32.037  1.00  0.00     0.064 A 
ATOM     68  C   UNL A   1      39.547  29.428  32.393  1.00  0.00     0.173 A 
ATOM     69  C   UNL A   1      40.327  31.690  32.341  1.00  0.00     0.173 A 
ATOM     70  F   UNL A   1      39.690  28.121  32.120  1.00  0.00    -0.203 F 
ATOM     71  C   UNL A   1      38.424  29.815  33.127  1.00  0.00     0.198 A 
ATOM     72  C   UNL A   1      39.178  32.082  33.042  1.00  0.00     0.198 A 
ATOM     73  F   UNL A   1      41.234  32.632  32.047  1.00  0.00    -0.203 F 
ATOM     74  F   UNL A   1      37.561  28.890  33.571  1.00  0.00    -0.200 F 
ATOM     75  C   UNL A   1      38.246  31.144  33.461  1.00  0.00     0.200 A 
ATOM     76  F   UNL A   1      39.024  33.366  33.402  1.00  0.00    -0.200 F 
ATOM     77  F   UNL A   1      37.215  31.516  34.233  1.00  0.00    -0.200 F 
ENDBRANCH  43  67
BRANCH  55  78
ATOM     78  C   UNL A   1      45.098  24.677  32.888  1.00  0.00     0.064 A 
ATOM     79  C   UNL A   1      46.424  24.893  33.281  1.00  0.00     0.173 A 
ATOM     80  C   UNL A   1      44.500  23.489  33.366  1.00  0.00     0.173 A 
ATOM     81  F   UNL A   1      47.149  25.889  32.750  1.00  0.00    -0.203 F 
ATOM     82  C   UNL A   1      47.048  24.077  34.221  1.00  0.00     0.198 A 
ATOM     83  C   UNL A   1      45.150  22.638  34.250  1.00  0.00     0.198 A 
ATOM     84  F   UNL A   1      43.262  23.116  33.019  1.00  0.00    -0.203 F 
ATOM     85  F   UNL A   1      48.276  24.390  34.656  1.00  0.00    -0.200 F 
ATOM     86  C   UNL A   1      46.407  22.954  34.712  1.00  0.00     0.200 A 
ATOM     87  F   UNL A   1      44.533  21.522  34.664  1.00  0.00    -0.200 F 
ATOM     88  F   UNL A   1      47.002  22.177  35.625  1.00  0.00    -0.200 F 
ENDBRANCH  55  78
ENDBRANCH  29  30
ENDBRANCH  22  24
ENDBRANCH  21  22
ENDBRANCH  20  21
ENDBRANCH   1  20
TORSDOF 15
ENDMDL
