MODEL 1
REMARK VINA RESULT:     -10.3      0.000      0.000
REMARK SMILES CCCCc1[nH]ncc1C(=O)OCCOC(=O)c1ccc(-c2c3nc(c(-c4c(F)c(F)c(F)c(F)c4F)c4ccc([nH]4)c(-c4c(F)c(F)c(F)c(F)c4F)c4nc(c(-c5c(F)c(F)c(F)c(F)c5F)c5ccc2[nH]5)C=C4)C=C3)cc1
REMARK SMILES IDX 13 1 12 2 10 3 11 4 9 5 5 6 6 7 7 8 8 10 4 11 3 12 2 13 1 14
REMARK SMILES IDX 14 15 15 16 16 17 17 18 18 19 19 20 80 21 20 22 79 23 21 24
REMARK SMILES IDX 22 25 23 26 73 27 24 28 78 29 72 30 74 31 25 32 77 33 71 34
REMARK SMILES IDX 70 35 26 37 58 38 38 39 57 40 39 41 42 42 56 43 75 44 40 45
REMARK SMILES IDX 41 46 55 48 76 49 43 50 27 51 28 52 36 53 29 54 30 55 34 56
REMARK SMILES IDX 37 57 31 58 32 59 35 60 33 61 59 62 60 63 68 64 61 65 62 66
REMARK SMILES IDX 66 67 69 68 63 69 64 70 67 71 65 72 44 73 45 74 53 75 46 76
REMARK SMILES IDX 47 77 51 78 54 79 48 80 49 81 52 82 50 83
REMARK H PARENT 6 9 74 36 42 47
REMARK Flexibility Score: inf
ROOT
ATOM      1  C   UNL A   1      34.153  34.381  29.134  1.00  0.00     0.275 C 
ENDROOT
BRANCH   1   2
ATOM      2  O   UNL A   1      33.231  34.531  30.230  1.00  0.00    -0.458 OA
BRANCH   2   3
ATOM      3  C   UNL A   1      32.897  35.809  30.576  1.00  0.00     0.341 C 
ATOM      4  O   UNL A   1      32.154  36.529  29.925  1.00  0.00    -0.246 OA
BRANCH   3   5
ATOM      5  C   UNL A   1      33.406  36.201  31.880  1.00  0.00     0.100 A 
ATOM      6  C   UNL A   1      33.714  35.448  33.003  1.00  0.00     0.050 A 
ATOM      7  N   UNL A   1      33.956  36.358  34.000  1.00  0.00    -0.282 N 
ATOM      8  N   UNL A   1      34.028  37.623  33.568  1.00  0.00    -0.183 NA
ATOM      9  H   UNL A   1      34.066  36.105  34.946  1.00  0.00     0.190 HD
ATOM     10  C   UNL A   1      33.723  37.524  32.275  1.00  0.00     0.150 A 
BRANCH   6  11
ATOM     11  C   UNL A   1      33.850  33.984  33.251  1.00  0.00     0.056 C 
BRANCH  11  12
ATOM     12  C   UNL A   1      35.235  33.640  33.826  1.00  0.00     0.006 C 
BRANCH  12  13
ATOM     13  C   UNL A   1      35.963  32.463  33.159  1.00  0.00    -0.003 C 
ATOM     14  C   UNL A   1      35.376  32.064  31.815  1.00  0.00     0.004 C 
ENDBRANCH  12  13
ENDBRANCH  11  12
ENDBRANCH   6  11
ENDBRANCH   3   5
ENDBRANCH   2   3
ENDBRANCH   1   2
BRANCH   1  15
ATOM     15  C   UNL A   1      33.489  33.666  27.953  1.00  0.00     0.275 C 
BRANCH  15  16
ATOM     16  O   UNL A   1      34.425  32.792  27.295  1.00  0.00    -0.458 OA
BRANCH  16  17
ATOM     17  C   UNL A   1      34.349  31.485  27.632  1.00  0.00     0.338 C 
ATOM     18  O   UNL A   1      33.416  30.721  27.458  1.00  0.00    -0.246 OA
BRANCH  17  19
ATOM     19  C   UNL A   1      35.656  31.051  28.148  1.00  0.00     0.060 A 
ATOM     20  C   UNL A   1      35.739  29.774  28.699  1.00  0.00     0.016 A 
ATOM     21  C   UNL A   1      36.759  31.902  28.171  1.00  0.00     0.016 A 
ATOM     22  C   UNL A   1      36.921  29.329  29.280  1.00  0.00     0.010 A 
ATOM     23  C   UNL A   1      37.957  31.452  28.745  1.00  0.00     0.010 A 
ATOM     24  C   UNL A   1      38.042  30.165  29.312  1.00  0.00    -0.014 A 
BRANCH  24  25
ATOM     25  C   UNL A   1      39.274  29.707  30.002  1.00  0.00     0.031 A 
ATOM     26  C   UNL A   1      40.115  28.624  29.389  1.00  0.00     0.074 A 
ATOM     27  C   UNL A   1      39.668  30.294  31.147  1.00  0.00     0.049 A 
ATOM     28  N   UNL A   1      41.166  28.015  29.873  1.00  0.00    -0.248 NA
ATOM     29  C   UNL A   1      39.715  28.166  28.049  1.00  0.00     0.031 C 
ATOM     30  C   UNL A   1      38.977  31.400  31.809  1.00  0.00     0.029 A 
ATOM     31  N   UNL A   1      40.751  30.045  31.953  1.00  0.00    -0.354 N 
ATOM     32  C   UNL A   1      41.534  27.079  28.915  1.00  0.00     0.074 A 
ATOM     33  C   UNL A   1      40.591  27.195  27.824  1.00  0.00     0.031 C 
ATOM     34  C   UNL A   1      39.660  31.744  32.914  1.00  0.00     0.029 A 
ATOM     35  C   UNL A   1      40.803  30.847  33.067  1.00  0.00     0.049 A 
ATOM     36  H   UNL A   1      41.427  29.357  31.752  1.00  0.00     0.167 HD
ATOM     37  C   UNL A   1      42.567  26.203  28.947  1.00  0.00     0.037 A 
ATOM     38  C   UNL A   1      41.657  30.839  34.108  1.00  0.00     0.037 A 
ATOM     39  C   UNL A   1      43.525  26.112  30.018  1.00  0.00     0.049 A 
ATOM     40  C   UNL A   1      42.771  29.828  34.140  1.00  0.00     0.074 A 
ATOM     41  C   UNL A   1      44.604  25.255  30.143  1.00  0.00     0.029 A 
ATOM     42  N   UNL A   1      43.523  26.919  31.147  1.00  0.00    -0.354 N 
ATOM     43  N   UNL A   1      43.083  28.913  33.254  1.00  0.00    -0.248 NA
ATOM     44  C   UNL A   1      43.642  29.838  35.323  1.00  0.00     0.031 C 
ATOM     45  C   UNL A   1      45.238  25.521  31.363  1.00  0.00     0.029 A 
ATOM     46  C   UNL A   1      44.575  26.571  31.979  1.00  0.00     0.049 A 
ATOM     47  H   UNL A   1      42.871  27.632  31.330  1.00  0.00     0.167 HD
ATOM     48  C   UNL A   1      44.190  28.250  33.764  1.00  0.00     0.074 A 
ATOM     49  C   UNL A   1      44.508  28.877  35.029  1.00  0.00     0.031 C 
ATOM     50  C   UNL A   1      44.877  27.209  33.234  1.00  0.00     0.037 A 
BRANCH  37  51
ATOM     51  C   UNL A   1      42.693  25.244  27.801  1.00  0.00     0.064 A 
ATOM     52  C   UNL A   1      41.952  24.056  27.744  1.00  0.00     0.173 A 
ATOM     53  C   UNL A   1      43.553  25.534  26.731  1.00  0.00     0.173 A 
ATOM     54  F   UNL A   1      41.128  23.726  28.751  1.00  0.00    -0.203 F 
ATOM     55  C   UNL A   1      42.082  23.183  26.668  1.00  0.00     0.198 A 
ATOM     56  C   UNL A   1      43.662  24.671  25.644  1.00  0.00     0.198 A 
ATOM     57  F   UNL A   1      44.282  26.660  26.736  1.00  0.00    -0.203 F 
ATOM     58  F   UNL A   1      41.394  22.032  26.653  1.00  0.00    -0.200 F 
ATOM     59  C   UNL A   1      42.932  23.494  25.617  1.00  0.00     0.200 A 
ATOM     60  F   UNL A   1      44.477  24.978  24.626  1.00  0.00    -0.200 F 
ATOM     61  F   UNL A   1      43.053  22.653  24.580  1.00  0.00    -0.200 F 
ENDBRANCH  37  51
BRANCH  38  62
ATOM     62  C   UNL A   1      41.471  31.802  35.223  1.00  0.00     0.064 A 
ATOM     63  C   UNL A   1      42.291  32.932  35.348  1.00  0.00     0.173 A 
ATOM     64  C   UNL A   1      40.471  31.610  36.188  1.00  0.00     0.173 A 
ATOM     65  F   UNL A   1      43.280  33.142  34.468  1.00  0.00    -0.203 F 
ATOM     66  C   UNL A   1      42.123  33.829  36.401  1.00  0.00     0.198 A 
ATOM     67  C   UNL A   1      40.286  32.522  37.225  1.00  0.00     0.198 A 
ATOM     68  F   UNL A   1      39.665  30.540  36.117  1.00  0.00    -0.203 F 
ATOM     69  F   UNL A   1      42.944  34.880  36.521  1.00  0.00    -0.200 F 
ATOM     70  C   UNL A   1      41.115  33.628  37.333  1.00  0.00     0.200 A 
ATOM     71  F   UNL A   1      39.306  32.328  38.118  1.00  0.00    -0.200 F 
ATOM     72  F   UNL A   1      40.950  34.494  38.342  1.00  0.00    -0.200 F 
ENDBRANCH  38  62
BRANCH  50  73
ATOM     73  C   UNL A   1      46.053  26.698  34.013  1.00  0.00     0.064 A 
ATOM     74  C   UNL A   1      47.335  27.239  33.842  1.00  0.00     0.173 A 
ATOM     75  C   UNL A   1      45.888  25.681  34.965  1.00  0.00     0.173 A 
ATOM     76  F   UNL A   1      47.545  28.202  32.932  1.00  0.00    -0.203 F 
ATOM     77  C   UNL A   1      48.414  26.766  34.583  1.00  0.00     0.198 A 
ATOM     78  C   UNL A   1      46.965  25.227  35.721  1.00  0.00     0.198 A 
ATOM     79  F   UNL A   1      44.679  25.135  35.169  1.00  0.00    -0.203 F 
ATOM     80  F   UNL A   1      49.639  27.270  34.376  1.00  0.00    -0.200 F 
ATOM     81  C   UNL A   1      48.227  25.766  35.525  1.00  0.00     0.200 A 
ATOM     82  F   UNL A   1      46.780  24.267  36.638  1.00  0.00    -0.200 F 
ATOM     83  F   UNL A   1      49.267  25.316  36.241  1.00  0.00    -0.200 F 
ENDBRANCH  50  73
ENDBRANCH  24  25
ENDBRANCH  17  19
ENDBRANCH  16  17
ENDBRANCH  15  16
ENDBRANCH   1  15
TORSDOF 14
ENDMDL
MODEL 2
REMARK VINA RESULT:     -10.2      5.648     10.607
REMARK SMILES CCCCc1[nH]ncc1C(=O)OCCOC(=O)c1ccc(-c2c3nc(c(-c4c(F)c(F)c(F)c(F)c4F)c4ccc([nH]4)c(-c4c(F)c(F)c(F)c(F)c4F)c4nc(c(-c5c(F)c(F)c(F)c(F)c5F)c5ccc2[nH]5)C=C4)C=C3)cc1
REMARK SMILES IDX 13 1 12 2 10 3 11 4 9 5 5 6 6 7 7 8 8 10 4 11 3 12 2 13 1 14
REMARK SMILES IDX 14 15 15 16 16 17 17 18 18 19 19 20 80 21 20 22 79 23 21 24
REMARK SMILES IDX 22 25 23 26 73 27 24 28 78 29 72 30 74 31 25 32 77 33 71 34
REMARK SMILES IDX 70 35 26 37 58 38 38 39 57 40 39 41 42 42 56 43 75 44 40 45
REMARK SMILES IDX 41 46 55 48 76 49 43 50 27 51 28 52 36 53 29 54 30 55 34 56
REMARK SMILES IDX 37 57 31 58 32 59 35 60 33 61 59 62 60 63 68 64 61 65 62 66
REMARK SMILES IDX 66 67 69 68 63 69 64 70 67 71 65 72 44 73 45 74 53 75 46 76
REMARK SMILES IDX 47 77 51 78 54 79 48 80 49 81 52 82 50 83
REMARK H PARENT 6 9 74 36 42 47
REMARK Flexibility Score: inf
ROOT
ATOM      1  C   UNL A   1      41.863  19.888  26.709  1.00  0.00     0.275 C 
ENDROOT
BRANCH   1   2
ATOM      2  O   UNL A   1      42.755  20.168  25.614  1.00  0.00    -0.458 OA
BRANCH   2   3
ATOM      3  C   UNL A   1      43.624  19.175  25.264  1.00  0.00     0.341 C 
ATOM      4  O   UNL A   1      43.301  18.012  25.072  1.00  0.00    -0.246 OA
BRANCH   3   5
ATOM      5  C   UNL A   1      44.970  19.656  25.006  1.00  0.00     0.100 A 
ATOM      6  C   UNL A   1      45.424  20.821  24.405  1.00  0.00     0.050 A 
ATOM      7  N   UNL A   1      46.775  20.652  24.247  1.00  0.00    -0.282 N 
ATOM      8  N   UNL A   1      47.259  19.571  24.873  1.00  0.00    -0.183 NA
ATOM      9  H   UNL A   1      47.339  21.267  23.723  1.00  0.00     0.190 HD
ATOM     10  C   UNL A   1      46.166  18.983  25.358  1.00  0.00     0.150 A 
BRANCH   6  11
ATOM     11  C   UNL A   1      44.757  22.091  23.997  1.00  0.00     0.056 C 
BRANCH  11  12
ATOM     12  C   UNL A   1      44.631  23.063  25.182  1.00  0.00     0.006 C 
BRANCH  12  13
ATOM     13  C   UNL A   1      45.943  23.421  25.897  1.00  0.00    -0.003 C 
ATOM     14  C   UNL A   1      46.848  24.340  25.092  1.00  0.00     0.004 C 
ENDBRANCH  12  13
ENDBRANCH  11  12
ENDBRANCH   6  11
ENDBRANCH   3   5
ENDBRANCH   2   3
ENDBRANCH   1   2
BRANCH   1  15
ATOM     15  C   UNL A   1      40.402  19.954  26.257  1.00  0.00     0.275 C 
BRANCH  15  16
ATOM     16  O   UNL A   1      39.670  20.919  27.036  1.00  0.00    -0.458 OA
BRANCH  16  17
ATOM     17  C   UNL A   1      39.111  21.936  26.341  1.00  0.00     0.338 C 
ATOM     18  O   UNL A   1      38.230  21.872  25.501  1.00  0.00    -0.246 OA
BRANCH  17  19
ATOM     19  C   UNL A   1      39.642  23.208  26.851  1.00  0.00     0.060 A 
ATOM     20  C   UNL A   1      39.333  24.367  26.141  1.00  0.00     0.016 A 
ATOM     21  C   UNL A   1      40.494  23.263  27.953  1.00  0.00     0.016 A 
ATOM     22  C   UNL A   1      39.869  25.593  26.518  1.00  0.00     0.010 A 
ATOM     23  C   UNL A   1      41.027  24.500  28.343  1.00  0.00     0.010 A 
ATOM     24  C   UNL A   1      40.725  25.672  27.622  1.00  0.00    -0.014 A 
BRANCH  24  25
ATOM     25  C   UNL A   1      41.350  26.973  27.968  1.00  0.00     0.031 A 
ATOM     26  C   UNL A   1      42.783  27.233  27.604  1.00  0.00     0.074 A 
ATOM     27  C   UNL A   1      40.623  27.938  28.559  1.00  0.00     0.049 A 
ATOM     28  N   UNL A   1      43.542  28.257  27.901  1.00  0.00    -0.248 NA
ATOM     29  C   UNL A   1      43.452  26.200  26.798  1.00  0.00     0.031 C 
ATOM     30  C   UNL A   1      39.204  27.835  28.903  1.00  0.00     0.029 A 
ATOM     31  N   UNL A   1      40.975  29.200  28.968  1.00  0.00    -0.354 N 
ATOM     32  C   UNL A   1      44.785  27.977  27.349  1.00  0.00     0.074 A 
ATOM     33  C   UNL A   1      44.682  26.685  26.704  1.00  0.00     0.031 C 
ATOM     34  C   UNL A   1      38.804  28.990  29.461  1.00  0.00     0.029 A 
ATOM     35  C   UNL A   1      39.949  29.892  29.564  1.00  0.00     0.049 A 
ATOM     36  H   UNL A   1      41.878  29.574  28.848  1.00  0.00     0.167 HD
ATOM     37  C   UNL A   1      45.909  28.732  27.379  1.00  0.00     0.037 A 
ATOM     38  C   UNL A   1      39.940  31.103  30.152  1.00  0.00     0.037 A 
ATOM     39  C   UNL A   1      46.000  30.032  27.990  1.00  0.00     0.049 A 
ATOM     40  C   UNL A   1      41.212  31.904  30.209  1.00  0.00     0.074 A 
ATOM     41  C   UNL A   1      47.097  30.873  28.075  1.00  0.00     0.029 A 
ATOM     42  N   UNL A   1      44.947  30.685  28.614  1.00  0.00    -0.354 N 
ATOM     43  N   UNL A   1      42.395  31.612  29.728  1.00  0.00    -0.248 NA
ATOM     44  C   UNL A   1      41.150  33.197  30.905  1.00  0.00     0.031 C 
ATOM     45  C   UNL A   1      46.715  32.022  28.778  1.00  0.00     0.029 A 
ATOM     46  C   UNL A   1      45.370  31.913  29.097  1.00  0.00     0.049 A 
ATOM     47  H   UNL A   1      44.034  30.329  28.701  1.00  0.00     0.167 HD
ATOM     48  C   UNL A   1      43.214  32.686  30.049  1.00  0.00     0.074 A 
ATOM     49  C   UNL A   1      42.389  33.646  30.752  1.00  0.00     0.031 C 
ATOM     50  C   UNL A   1      44.533  32.857  29.792  1.00  0.00     0.037 A 
BRANCH  37  51
ATOM     51  C   UNL A   1      47.147  28.153  26.760  1.00  0.00     0.064 A 
ATOM     52  C   UNL A   1      48.138  27.531  27.531  1.00  0.00     0.173 A 
ATOM     53  C   UNL A   1      47.327  28.199  25.369  1.00  0.00     0.173 A 
ATOM     54  F   UNL A   1      48.019  27.475  28.866  1.00  0.00    -0.203 F 
ATOM     55  C   UNL A   1      49.277  26.995  26.934  1.00  0.00     0.198 A 
ATOM     56  C   UNL A   1      48.454  27.641  24.774  1.00  0.00     0.198 A 
ATOM     57  F   UNL A   1      46.405  28.780  24.587  1.00  0.00    -0.203 F 
ATOM     58  F   UNL A   1      50.232  26.442  27.694  1.00  0.00    -0.200 F 
ATOM     59  C   UNL A   1      49.430  27.045  25.557  1.00  0.00     0.200 A 
ATOM     60  F   UNL A   1      48.596  27.682  23.442  1.00  0.00    -0.200 F 
ATOM     61  F   UNL A   1      50.525  26.526  24.984  1.00  0.00    -0.200 F 
ENDBRANCH  37  51
BRANCH  38  62
ATOM     62  C   UNL A   1      38.687  31.618  30.763  1.00  0.00     0.064 A 
ATOM     63  C   UNL A   1      37.787  32.397  30.023  1.00  0.00     0.173 A 
ATOM     64  C   UNL A   1      38.367  31.343  32.101  1.00  0.00     0.173 A 
ATOM     65  F   UNL A   1      38.065  32.712  28.750  1.00  0.00    -0.203 F 
ATOM     66  C   UNL A   1      36.619  32.888  30.601  1.00  0.00     0.198 A 
ATOM     67  C   UNL A   1      37.185  31.811  32.670  1.00  0.00     0.198 A 
ATOM     68  F   UNL A   1      39.199  30.607  32.854  1.00  0.00    -0.203 F 
ATOM     69  F   UNL A   1      35.794  33.664  29.885  1.00  0.00    -0.200 F 
ATOM     70  C   UNL A   1      36.315  32.588  31.921  1.00  0.00     0.200 A 
ATOM     71  F   UNL A   1      36.891  31.512  33.943  1.00  0.00    -0.200 F 
ATOM     72  F   UNL A   1      35.187  33.056  32.475  1.00  0.00    -0.200 F 
ENDBRANCH  38  62
BRANCH  50  73
ATOM     73  C   UNL A   1      45.160  34.139  30.254  1.00  0.00     0.064 A 
ATOM     74  C   UNL A   1      45.760  34.247  31.517  1.00  0.00     0.173 A 
ATOM     75  C   UNL A   1      45.193  35.259  29.410  1.00  0.00     0.173 A 
ATOM     76  F   UNL A   1      45.739  33.207  32.365  1.00  0.00    -0.203 F 
ATOM     77  C   UNL A   1      46.352  35.437  31.926  1.00  0.00     0.198 A 
ATOM     78  C   UNL A   1      45.808  36.441  29.814  1.00  0.00     0.198 A 
ATOM     79  F   UNL A   1      44.638  35.204  28.190  1.00  0.00    -0.203 F 
ATOM     80  F   UNL A   1      46.885  35.532  33.153  1.00  0.00    -0.200 F 
ATOM     81  C   UNL A   1      46.381  36.530  31.073  1.00  0.00     0.200 A 
ATOM     82  F   UNL A   1      45.843  37.493  28.985  1.00  0.00    -0.200 F 
ATOM     83  F   UNL A   1      46.957  37.675  31.468  1.00  0.00    -0.200 F 
ENDBRANCH  50  73
ENDBRANCH  24  25
ENDBRANCH  17  19
ENDBRANCH  16  17
ENDBRANCH  15  16
ENDBRANCH   1  15
TORSDOF 14
ENDMDL
MODEL 3
REMARK VINA RESULT:     -10.1      0.962      7.775
REMARK SMILES CCCCc1[nH]ncc1C(=O)OCCOC(=O)c1ccc(-c2c3nc(c(-c4c(F)c(F)c(F)c(F)c4F)c4ccc([nH]4)c(-c4c(F)c(F)c(F)c(F)c4F)c4nc(c(-c5c(F)c(F)c(F)c(F)c5F)c5ccc2[nH]5)C=C4)C=C3)cc1
REMARK SMILES IDX 13 1 12 2 10 3 11 4 9 5 5 6 6 7 7 8 8 10 4 11 3 12 2 13 1 14
REMARK SMILES IDX 14 15 15 16 16 17 17 18 18 19 19 20 80 21 20 22 79 23 21 24
REMARK SMILES IDX 22 25 23 26 73 27 24 28 78 29 72 30 74 31 25 32 77 33 71 34
REMARK SMILES IDX 70 35 26 37 58 38 38 39 57 40 39 41 42 42 56 43 75 44 40 45
REMARK SMILES IDX 41 46 55 48 76 49 43 50 27 51 28 52 36 53 29 54 30 55 34 56
REMARK SMILES IDX 37 57 31 58 32 59 35 60 33 61 59 62 60 63 68 64 61 65 62 66
REMARK SMILES IDX 66 67 69 68 63 69 64 70 67 71 65 72 44 73 45 74 53 75 46 76
REMARK SMILES IDX 47 77 51 78 54 79 48 80 49 81 52 82 50 83
REMARK H PARENT 6 9 74 36 42 47
REMARK Flexibility Score: inf
ROOT
ATOM      1  C   UNL A   1      34.408  34.156  29.441  1.00  0.00     0.275 C 
ENDROOT
BRANCH   1   2
ATOM      2  O   UNL A   1      33.245  34.431  30.244  1.00  0.00    -0.458 OA
BRANCH   2   3
ATOM      3  C   UNL A   1      32.968  35.745  30.489  1.00  0.00     0.341 C 
ATOM      4  O   UNL A   1      32.290  36.455  29.760  1.00  0.00    -0.246 OA
BRANCH   3   5
ATOM      5  C   UNL A   1      33.448  36.201  31.782  1.00  0.00     0.100 A 
ATOM      6  C   UNL A   1      33.817  35.497  32.918  1.00  0.00     0.050 A 
ATOM      7  N   UNL A   1      33.990  36.442  33.897  1.00  0.00    -0.282 N 
ATOM      8  N   UNL A   1      33.961  37.700  33.440  1.00  0.00    -0.183 NA
ATOM      9  H   UNL A   1      34.122  36.217  34.847  1.00  0.00     0.190 HD
ATOM     10  C   UNL A   1      33.661  37.552  32.150  1.00  0.00     0.150 A 
BRANCH   6  11
ATOM     11  C   UNL A   1      34.069  34.053  33.194  1.00  0.00     0.056 C 
BRANCH  11  12
ATOM     12  C   UNL A   1      35.400  33.848  33.937  1.00  0.00     0.006 C 
BRANCH  12  13
ATOM     13  C   UNL A   1      36.227  32.628  33.504  1.00  0.00    -0.003 C 
ATOM     14  C   UNL A   1      35.887  32.121  32.112  1.00  0.00     0.004 C 
ENDBRANCH  12  13
ENDBRANCH  11  12
ENDBRANCH   6  11
ENDBRANCH   3   5
ENDBRANCH   2   3
ENDBRANCH   1   2
BRANCH   1  15
ATOM     15  C   UNL A   1      34.009  33.630  28.060  1.00  0.00     0.275 C 
BRANCH  15  16
ATOM     16  O   UNL A   1      34.994  32.704  27.563  1.00  0.00    -0.458 OA
BRANCH  16  17
ATOM     17  C   UNL A   1      34.791  31.404  27.875  1.00  0.00     0.338 C 
ATOM     18  O   UNL A   1      33.847  30.699  27.565  1.00  0.00    -0.246 OA
BRANCH  17  19
ATOM     19  C   UNL A   1      35.984  30.890  28.564  1.00  0.00     0.060 A 
ATOM     20  C   UNL A   1      37.160  31.630  28.456  1.00  0.00     0.016 A 
ATOM     21  C   UNL A   1      35.981  29.666  29.231  1.00  0.00     0.016 A 
ATOM     22  C   UNL A   1      38.345  31.162  29.012  1.00  0.00     0.010 A 
ATOM     23  C   UNL A   1      37.172  29.196  29.803  1.00  0.00     0.010 A 
ATOM     24  C   UNL A   1      38.364  29.938  29.688  1.00  0.00    -0.014 A 
BRANCH  24  25
ATOM     25  C   UNL A   1      39.651  29.413  30.210  1.00  0.00     0.031 A 
ATOM     26  C   UNL A   1      40.273  30.038  31.426  1.00  0.00     0.074 A 
ATOM     27  C   UNL A   1      40.235  28.349  29.631  1.00  0.00     0.049 A 
ATOM     28  N   UNL A   1      41.434  29.798  31.981  1.00  0.00    -0.248 NA
ATOM     29  C   UNL A   1      39.481  31.074  32.108  1.00  0.00     0.031 C 
ATOM     30  C   UNL A   1      39.698  27.611  28.487  1.00  0.00     0.029 A 
ATOM     31  N   UNL A   1      41.406  27.698  29.929  1.00  0.00    -0.354 N 
ATOM     32  C   UNL A   1      41.527  30.673  33.055  1.00  0.00     0.074 A 
ATOM     33  C   UNL A   1      40.309  31.456  33.071  1.00  0.00     0.031 C 
ATOM     34  C   UNL A   1      40.532  26.601  28.188  1.00  0.00     0.029 A 
ATOM     35  C   UNL A   1      41.686  26.654  29.081  1.00  0.00     0.049 A 
ATOM     36  H   UNL A   1      41.990  27.955  30.679  1.00  0.00     0.167 HD
ATOM     37  C   UNL A   1      42.538  30.810  33.945  1.00  0.00     0.037 A 
ATOM     38  C   UNL A   1      42.765  25.851  29.014  1.00  0.00     0.037 A 
ATOM     39  C   UNL A   1      43.734  30.007  33.948  1.00  0.00     0.049 A 
ATOM     40  C   UNL A   1      43.895  26.051  29.988  1.00  0.00     0.074 A 
ATOM     41  C   UNL A   1      44.817  30.073  34.807  1.00  0.00     0.029 A 
ATOM     42  N   UNL A   1      43.996  28.983  33.051  1.00  0.00    -0.354 N 
ATOM     43  N   UNL A   1      43.997  26.914  30.970  1.00  0.00    -0.248 NA
ATOM     44  C   UNL A   1      45.064  25.175  29.835  1.00  0.00     0.031 C 
ATOM     45  C   UNL A   1      45.750  29.107  34.410  1.00  0.00     0.029 A 
ATOM     46  C   UNL A   1      45.230  28.415  33.328  1.00  0.00     0.049 A 
ATOM     47  H   UNL A   1      43.396  28.699  32.325  1.00  0.00     0.167 HD
ATOM     48  C   UNL A   1      45.231  26.678  31.558  1.00  0.00     0.074 A 
ATOM     49  C   UNL A   1      45.836  25.578  30.835  1.00  0.00     0.031 C 
ATOM     50  C   UNL A   1      45.815  27.320  32.599  1.00  0.00     0.037 A 
BRANCH  37  51
ATOM     51  C   UNL A   1      42.412  31.895  34.972  1.00  0.00     0.064 A 
ATOM     52  C   UNL A   1      42.939  33.177  34.763  1.00  0.00     0.173 A 
ATOM     53  C   UNL A   1      41.728  31.653  36.173  1.00  0.00     0.173 A 
ATOM     54  F   UNL A   1      43.615  33.454  33.638  1.00  0.00    -0.203 F 
ATOM     55  C   UNL A   1      42.806  34.171  35.730  1.00  0.00     0.198 A 
ATOM     56  C   UNL A   1      41.575  32.655  37.126  1.00  0.00     0.198 A 
ATOM     57  F   UNL A   1      41.202  30.443  36.419  1.00  0.00    -0.203 F 
ATOM     58  F   UNL A   1      43.353  35.378  35.528  1.00  0.00    -0.200 F 
ATOM     59  C   UNL A   1      42.119  33.911  36.906  1.00  0.00     0.200 A 
ATOM     60  F   UNL A   1      40.903  32.405  38.258  1.00  0.00    -0.200 F 
ATOM     61  F   UNL A   1      41.988  34.870  37.833  1.00  0.00    -0.200 F 
ENDBRANCH  37  51
BRANCH  38  62
ATOM     62  C   UNL A   1      42.842  24.804  27.963  1.00  0.00     0.064 A 
ATOM     63  C   UNL A   1      43.274  25.110  26.666  1.00  0.00     0.173 A 
ATOM     64  C   UNL A   1      42.480  23.476  28.236  1.00  0.00     0.173 A 
ATOM     65  F   UNL A   1      43.600  26.371  26.350  1.00  0.00    -0.203 F 
ATOM     66  C   UNL A   1      43.334  24.129  25.679  1.00  0.00     0.198 A 
ATOM     67  C   UNL A   1      42.568  22.490  27.256  1.00  0.00     0.198 A 
ATOM     68  F   UNL A   1      42.053  23.133  29.461  1.00  0.00    -0.203 F 
ATOM     69  F   UNL A   1      43.713  24.454  24.436  1.00  0.00    -0.200 F 
ATOM     70  C   UNL A   1      42.989  22.819  25.977  1.00  0.00     0.200 A 
ATOM     71  F   UNL A   1      42.241  21.224  27.550  1.00  0.00    -0.200 F 
ATOM     72  F   UNL A   1      43.053  21.874  25.028  1.00  0.00    -0.200 F 
ENDBRANCH  38  62
BRANCH  50  73
ATOM     73  C   UNL A   1      47.167  26.835  33.031  1.00  0.00     0.064 A 
ATOM     74  C   UNL A   1      48.344  27.384  32.504  1.00  0.00     0.173 A 
ATOM     75  C   UNL A   1      47.285  25.836  34.009  1.00  0.00     0.173 A 
ATOM     76  F   UNL A   1      48.281  28.330  31.555  1.00  0.00    -0.203 F 
ATOM     77  C   UNL A   1      49.592  26.936  32.926  1.00  0.00     0.198 A 
ATOM     78  C   UNL A   1      48.535  25.407  34.446  1.00  0.00     0.198 A 
ATOM     79  F   UNL A   1      46.187  25.283  34.548  1.00  0.00    -0.203 F 
ATOM     80  F   UNL A   1      50.705  27.446  32.381  1.00  0.00    -0.200 F 
ATOM     81  C   UNL A   1      49.687  25.954  33.900  1.00  0.00     0.200 A 
ATOM     82  F   UNL A   1      48.624  24.464  35.394  1.00  0.00    -0.200 F 
ATOM     83  F   UNL A   1      50.890  25.527  34.309  1.00  0.00    -0.200 F 
ENDBRANCH  50  73
ENDBRANCH  24  25
ENDBRANCH  17  19
ENDBRANCH  16  17
ENDBRANCH  15  16
ENDBRANCH   1  15
TORSDOF 14
ENDMDL
