MODEL 1
REMARK VINA RESULT:     -11.9      0.000      0.000
REMARK SMILES CC(=O)N[C@@H](Cc1cc(Br)c(O)c(Br)c1)C(=O)OCCOC(=O)c1ccc(-c2c3nc(c(-c4c(F)c(F)c(F)c(F)c4F)c4ccc([nH]4)c(-c4c(F)c(F)c(F)c(F)c4F)c4nc(c(-c5c(F)c(F)c(F)c(F)c5F)c5ccc2[nH]5)C=C4)C=C3)cc1
REMARK SMILES IDX 19 1 18 2 16 3 17 4 5 5 4 6 1 7 2 8 3 9 6 11 7 12 8 13 15 14
REMARK SMILES IDX 9 15 13 16 10 17 11 18 14 19 12 20 20 22 21 23 22 24 23 25
REMARK SMILES IDX 24 26 25 27 86 28 26 29 85 30 27 31 28 32 29 33 79 34 30 35
REMARK SMILES IDX 84 36 78 37 80 38 31 39 83 40 77 41 76 42 32 44 64 45 44 46
REMARK SMILES IDX 63 47 45 48 48 49 62 50 81 51 46 52 47 53 61 55 82 56 49 57
REMARK SMILES IDX 33 58 34 59 42 60 35 61 36 62 40 63 43 64 37 65 38 66 41 67
REMARK SMILES IDX 39 68 65 69 66 70 74 71 67 72 68 73 72 74 75 75 69 76 70 77
REMARK SMILES IDX 73 78 71 79 50 80 51 81 59 82 52 83 53 84 57 85 60 86 54 87
REMARK SMILES IDX 55 88 58 89 56 90
REMARK H PARENT 4 10 12 21 80 43 48 54
REMARK Flexibility Score: inf
ROOT
ATOM      1  C   UNL A   1      31.777  28.316  26.434  1.00  0.00     0.274 C 
ENDROOT
BRANCH   1   2
ATOM      2  O   UNL A   1      31.465  27.400  25.369  1.00  0.00    -0.461 OA
BRANCH   2   3
ATOM      3  C   UNL A   1      31.503  26.074  25.675  1.00  0.00     0.329 C 
ATOM      4  O   UNL A   1      30.790  25.528  26.511  1.00  0.00    -0.250 OA
BRANCH   3   5
ATOM      5  C   UNL A   1      32.613  25.322  24.924  1.00  0.00     0.196 C 
BRANCH   5   6
ATOM      6  N   UNL A   1      33.114  26.023  23.739  1.00  0.00    -0.343 N 
ATOM      7  C   UNL A   1      32.934  24.128  22.162  1.00  0.00     0.114 C 
ATOM      8  C   UNL A   1      33.262  25.565  22.464  1.00  0.00     0.217 C 
ATOM      9  O   UNL A   1      33.669  26.330  21.591  1.00  0.00    -0.275 OA
ATOM     10  H   UNL A   1      33.383  26.959  23.884  1.00  0.00     0.164 HD
ENDBRANCH   5   6
BRANCH   5  11
ATOM     11  C   UNL A   1      33.747  24.968  25.903  1.00  0.00     0.072 C 
BRANCH  11  12
ATOM     12  C   UNL A   1      34.389  23.626  25.629  1.00  0.00    -0.043 A 
ATOM     13  C   UNL A   1      33.600  22.510  25.313  1.00  0.00     0.023 A 
ATOM     14  C   UNL A   1      35.777  23.467  25.750  1.00  0.00     0.023 A 
ATOM     15  C   UNL A   1      34.187  21.253  25.164  1.00  0.00     0.061 A 
ATOM     16  C   UNL A   1      36.363  22.210  25.579  1.00  0.00     0.061 A 
ATOM     17  Br  UNL A   1      33.067  19.765  24.810  1.00  0.00    -0.047 Br
ATOM     18  C   UNL A   1      35.568  21.096  25.299  1.00  0.00     0.143 A 
ATOM     19  Br  UNL A   1      38.245  22.066  25.762  1.00  0.00    -0.047 Br
BRANCH  18  20
ATOM     20  O   UNL A   1      36.151  19.864  25.166  1.00  0.00    -0.506 OA
ATOM     21  H   UNL A   1      36.214  19.464  24.322  1.00  0.00     0.293 HD
ENDBRANCH  18  20
ENDBRANCH  11  12
ENDBRANCH   5  11
ENDBRANCH   3   5
ENDBRANCH   2   3
ENDBRANCH   1   2
BRANCH   1  22
ATOM     22  C   UNL A   1      31.771  29.763  25.938  1.00  0.00     0.275 C 
BRANCH  22  23
ATOM     23  O   UNL A   1      33.096  30.324  25.951  1.00  0.00    -0.458 OA
BRANCH  23  24
ATOM     24  C   UNL A   1      33.302  31.268  26.898  1.00  0.00     0.338 C 
ATOM     25  O   UNL A   1      32.532  32.129  27.279  1.00  0.00    -0.246 OA
BRANCH  24  26
ATOM     26  C   UNL A   1      34.591  31.023  27.551  1.00  0.00     0.060 A 
ATOM     27  C   UNL A   1      34.865  29.728  27.992  1.00  0.00     0.016 A 
ATOM     28  C   UNL A   1      35.471  32.069  27.818  1.00  0.00     0.016 A 
ATOM     29  C   UNL A   1      36.010  29.467  28.731  1.00  0.00     0.010 A 
ATOM     30  C   UNL A   1      36.644  31.801  28.529  1.00  0.00     0.010 A 
ATOM     31  C   UNL A   1      36.914  30.501  28.995  1.00  0.00    -0.014 A 
BRANCH  31  32
ATOM     32  C   UNL A   1      38.149  30.220  29.757  1.00  0.00     0.031 A 
ATOM     33  C   UNL A   1      39.202  29.329  29.172  1.00  0.00     0.074 A 
ATOM     34  C   UNL A   1      38.317  30.775  30.970  1.00  0.00     0.049 A 
ATOM     35  N   UNL A   1      40.258  28.815  29.745  1.00  0.00    -0.248 NA
ATOM     36  C   UNL A   1      39.047  28.971  27.754  1.00  0.00     0.031 C 
ATOM     37  C   UNL A   1      37.393  31.718  31.604  1.00  0.00     0.029 A 
ATOM     38  N   UNL A   1      39.319  30.618  31.894  1.00  0.00    -0.354 N 
ATOM     39  C   UNL A   1      40.881  28.050  28.768  1.00  0.00     0.074 A 
ATOM     40  C   UNL A   1      40.084  28.166  27.565  1.00  0.00     0.031 C 
ATOM     41  C   UNL A   1      37.868  32.053  32.812  1.00  0.00     0.029 A 
ATOM     42  C   UNL A   1      39.088  31.293  33.067  1.00  0.00     0.049 A 
ATOM     43  H   UNL A   1      40.124  30.076  31.731  1.00  0.00     0.167 HD
ATOM     44  C   UNL A   1      42.013  27.318  28.877  1.00  0.00     0.037 A 
ATOM     45  C   UNL A   1      39.754  31.256  34.236  1.00  0.00     0.037 A 
ATOM     46  C   UNL A   1      42.803  27.226  30.077  1.00  0.00     0.049 A 
ATOM     47  C   UNL A   1      40.948  30.352  34.361  1.00  0.00     0.074 A 
ATOM     48  C   UNL A   1      43.969  26.514  30.295  1.00  0.00     0.029 A 
ATOM     49  N   UNL A   1      42.502  27.875  31.266  1.00  0.00    -0.354 N 
ATOM     50  N   UNL A   1      41.506  29.591  33.452  1.00  0.00    -0.248 NA
ATOM     51  C   UNL A   1      41.586  30.279  35.682  1.00  0.00     0.031 C 
ATOM     52  C   UNL A   1      44.355  26.704  31.626  1.00  0.00     0.029 A 
ATOM     53  C   UNL A   1      43.448  27.562  32.228  1.00  0.00     0.049 A 
ATOM     54  H   UNL A   1      41.731  28.471  31.405  1.00  0.00     0.167 HD
ATOM     55  C   UNL A   1      42.562  28.953  34.085  1.00  0.00     0.074 A 
ATOM     56  C   UNL A   1      42.580  29.432  35.453  1.00  0.00     0.031 C 
ATOM     57  C   UNL A   1      43.436  28.047  33.583  1.00  0.00     0.037 A 
BRANCH  44  58
ATOM     58  C   UNL A   1      42.453  26.533  27.679  1.00  0.00     0.064 A 
ATOM     59  C   UNL A   1      43.414  27.029  26.787  1.00  0.00     0.173 A 
ATOM     60  C   UNL A   1      41.941  25.247  27.449  1.00  0.00     0.173 A 
ATOM     61  F   UNL A   1      43.922  28.259  26.956  1.00  0.00    -0.203 F 
ATOM     62  C   UNL A   1      43.839  26.270  25.699  1.00  0.00     0.198 A 
ATOM     63  C   UNL A   1      42.382  24.483  26.373  1.00  0.00     0.198 A 
ATOM     64  F   UNL A   1      41.021  24.729  28.276  1.00  0.00    -0.203 F 
ATOM     65  F   UNL A   1      44.738  26.772  24.842  1.00  0.00    -0.200 F 
ATOM     66  C   UNL A   1      43.329  24.995  25.498  1.00  0.00     0.200 A 
ATOM     67  F   UNL A   1      41.893  23.249  26.184  1.00  0.00    -0.200 F 
ATOM     68  F   UNL A   1      43.745  24.262  24.456  1.00  0.00    -0.200 F 
ENDBRANCH  44  58
BRANCH  45  69
ATOM     69  C   UNL A   1      39.266  32.048  35.393  1.00  0.00     0.064 A 
ATOM     70  C   UNL A   1      38.450  31.467  36.371  1.00  0.00     0.173 A 
ATOM     71  C   UNL A   1      39.606  33.401  35.542  1.00  0.00     0.173 A 
ATOM     72  F   UNL A   1      38.079  30.184  36.256  1.00  0.00    -0.203 F 
ATOM     73  C   UNL A   1      37.984  32.212  37.452  1.00  0.00     0.198 A 
ATOM     74  C   UNL A   1      39.162  34.137  36.637  1.00  0.00     0.198 A 
ATOM     75  F   UNL A   1      40.382  34.004  34.630  1.00  0.00    -0.203 F 
ATOM     76  F   UNL A   1      37.175  31.642  38.356  1.00  0.00    -0.200 F 
ATOM     77  C   UNL A   1      38.346  33.545  37.589  1.00  0.00     0.200 A 
ATOM     78  F   UNL A   1      39.524  35.421  36.771  1.00  0.00    -0.200 F 
ATOM     79  F   UNL A   1      37.903  34.257  38.632  1.00  0.00    -0.200 F 
ENDBRANCH  45  69
BRANCH  57  80
ATOM     80  C   UNL A   1      44.483  27.525  34.517  1.00  0.00     0.064 A 
ATOM     81  C   UNL A   1      45.696  28.204  34.700  1.00  0.00     0.173 A 
ATOM     82  C   UNL A   1      44.256  26.360  35.262  1.00  0.00     0.173 A 
ATOM     83  F   UNL A   1      45.963  29.313  33.993  1.00  0.00    -0.203 F 
ATOM     84  C   UNL A   1      46.652  27.726  35.591  1.00  0.00     0.198 A 
ATOM     85  C   UNL A   1      45.206  25.897  36.168  1.00  0.00     0.198 A 
ATOM     86  F   UNL A   1      43.109  25.679  35.120  1.00  0.00    -0.203 F 
ATOM     87  F   UNL A   1      47.819  28.370  35.728  1.00  0.00    -0.200 F 
ATOM     88  C   UNL A   1      46.403  26.577  36.329  1.00  0.00     0.200 A 
ATOM     89  F   UNL A   1      44.962  24.791  36.886  1.00  0.00    -0.200 F 
ATOM     90  F   UNL A   1      47.323  26.122  37.190  1.00  0.00    -0.200 F 
ENDBRANCH  57  80
ENDBRANCH  31  32
ENDBRANCH  24  26
ENDBRANCH  23  24
ENDBRANCH  22  23
ENDBRANCH   1  22
TORSDOF 15
ENDMDL
MODEL 2
REMARK VINA RESULT:     -11.8      0.250      1.634
REMARK SMILES CC(=O)N[C@@H](Cc1cc(Br)c(O)c(Br)c1)C(=O)OCCOC(=O)c1ccc(-c2c3nc(c(-c4c(F)c(F)c(F)c(F)c4F)c4ccc([nH]4)c(-c4c(F)c(F)c(F)c(F)c4F)c4nc(c(-c5c(F)c(F)c(F)c(F)c5F)c5ccc2[nH]5)C=C4)C=C3)cc1
REMARK SMILES IDX 19 1 18 2 16 3 17 4 5 5 4 6 1 7 2 8 3 9 6 11 7 12 8 13 15 14
REMARK SMILES IDX 9 15 13 16 10 17 11 18 14 19 12 20 20 22 21 23 22 24 23 25
REMARK SMILES IDX 24 26 25 27 86 28 26 29 85 30 27 31 28 32 29 33 79 34 30 35
REMARK SMILES IDX 84 36 78 37 80 38 31 39 83 40 77 41 76 42 32 44 64 45 44 46
REMARK SMILES IDX 63 47 45 48 48 49 62 50 81 51 46 52 47 53 61 55 82 56 49 57
REMARK SMILES IDX 33 58 34 59 42 60 35 61 36 62 40 63 43 64 37 65 38 66 41 67
REMARK SMILES IDX 39 68 65 69 66 70 74 71 67 72 68 73 72 74 75 75 69 76 70 77
REMARK SMILES IDX 73 78 71 79 50 80 51 81 59 82 52 83 53 84 57 85 60 86 54 87
REMARK SMILES IDX 55 88 58 89 56 90
REMARK H PARENT 4 10 12 21 80 43 48 54
REMARK Flexibility Score: inf
ROOT
ATOM      1  C   UNL A   1      31.783  28.477  26.515  1.00  0.00     0.274 C 
ENDROOT
BRANCH   1   2
ATOM      2  O   UNL A   1      31.482  27.604  25.410  1.00  0.00    -0.461 OA
BRANCH   2   3
ATOM      3  C   UNL A   1      31.447  26.271  25.680  1.00  0.00     0.329 C 
ATOM      4  O   UNL A   1      30.672  25.735  26.466  1.00  0.00    -0.250 OA
BRANCH   3   5
ATOM      5  C   UNL A   1      32.556  25.488  24.959  1.00  0.00     0.196 C 
BRANCH   5   6
ATOM      6  N   UNL A   1      33.120  26.183  23.798  1.00  0.00    -0.343 N 
ATOM      7  C   UNL A   1      32.985  24.291  22.213  1.00  0.00     0.114 C 
ATOM      8  C   UNL A   1      33.319  25.723  22.531  1.00  0.00     0.217 C 
ATOM      9  O   UNL A   1      33.775  26.482  21.678  1.00  0.00    -0.275 OA
ATOM     10  H   UNL A   1      33.396  27.114  23.956  1.00  0.00     0.164 HD
ENDBRANCH   5   6
BRANCH   5  11
ATOM     11  C   UNL A   1      33.644  25.089  25.972  1.00  0.00     0.072 C 
BRANCH  11  12
ATOM     12  C   UNL A   1      34.255  23.730  25.703  1.00  0.00    -0.043 A 
ATOM     13  C   UNL A   1      33.437  22.617  25.462  1.00  0.00     0.023 A 
ATOM     14  C   UNL A   1      35.646  23.557  25.753  1.00  0.00     0.023 A 
ATOM     15  C   UNL A   1      34.000  21.348  25.319  1.00  0.00     0.061 A 
ATOM     16  C   UNL A   1      36.206  22.287  25.588  1.00  0.00     0.061 A 
ATOM     17  Br  UNL A   1      32.845  19.865  25.069  1.00  0.00    -0.047 Br
ATOM     18  C   UNL A   1      35.385  21.177  25.383  1.00  0.00     0.143 A 
ATOM     19  Br  UNL A   1      38.094  22.123  25.673  1.00  0.00    -0.047 Br
BRANCH  18  20
ATOM     20  O   UNL A   1      35.945  19.934  25.255  1.00  0.00    -0.506 OA
ATOM     21  H   UNL A   1      35.957  19.509  24.421  1.00  0.00     0.293 HD
ENDBRANCH  18  20
ENDBRANCH  11  12
ENDBRANCH   5  11
ENDBRANCH   3   5
ENDBRANCH   2   3
ENDBRANCH   1   2
BRANCH   1  22
ATOM     22  C   UNL A   1      31.883  29.933  26.056  1.00  0.00     0.275 C 
BRANCH  22  23
ATOM     23  O   UNL A   1      33.244  30.398  26.089  1.00  0.00    -0.458 OA
BRANCH  23  24
ATOM     24  C   UNL A   1      33.494  31.353  27.014  1.00  0.00     0.338 C 
ATOM     25  O   UNL A   1      32.759  32.249  27.384  1.00  0.00    -0.246 OA
BRANCH  24  26
ATOM     26  C   UNL A   1      34.780  31.075  27.659  1.00  0.00     0.060 A 
ATOM     27  C   UNL A   1      35.009  29.782  28.130  1.00  0.00     0.016 A 
ATOM     28  C   UNL A   1      35.703  32.093  27.890  1.00  0.00     0.016 A 
ATOM     29  C   UNL A   1      36.152  29.497  28.864  1.00  0.00     0.010 A 
ATOM     30  C   UNL A   1      36.872  31.798  28.596  1.00  0.00     0.010 A 
ATOM     31  C   UNL A   1      37.097  30.501  29.092  1.00  0.00    -0.014 A 
BRANCH  31  32
ATOM     32  C   UNL A   1      38.330  30.192  29.848  1.00  0.00     0.031 A 
ATOM     33  C   UNL A   1      39.363  29.283  29.254  1.00  0.00     0.074 A 
ATOM     34  C   UNL A   1      38.514  30.738  31.063  1.00  0.00     0.049 A 
ATOM     35  N   UNL A   1      40.411  28.745  29.821  1.00  0.00    -0.248 NA
ATOM     36  C   UNL A   1      39.195  28.934  27.835  1.00  0.00     0.031 C 
ATOM     37  C   UNL A   1      37.611  31.697  31.704  1.00  0.00     0.029 A 
ATOM     38  N   UNL A   1      39.516  30.557  31.981  1.00  0.00    -0.354 N 
ATOM     39  C   UNL A   1      41.014  27.973  28.838  1.00  0.00     0.074 A 
ATOM     40  C   UNL A   1      40.216  28.110  27.639  1.00  0.00     0.031 C 
ATOM     41  C   UNL A   1      38.098  32.017  32.912  1.00  0.00     0.029 A 
ATOM     42  C   UNL A   1      39.303  31.231  33.159  1.00  0.00     0.049 A 
ATOM     43  H   UNL A   1      40.309  30.000  31.813  1.00  0.00     0.167 HD
ATOM     44  C   UNL A   1      42.132  27.218  28.939  1.00  0.00     0.037 A 
ATOM     45  C   UNL A   1      39.973  31.176  34.324  1.00  0.00     0.037 A 
ATOM     46  C   UNL A   1      42.924  27.105  30.136  1.00  0.00     0.049 A 
ATOM     47  C   UNL A   1      41.149  30.248  34.441  1.00  0.00     0.074 A 
ATOM     48  C   UNL A   1      44.077  26.368  30.346  1.00  0.00     0.029 A 
ATOM     49  N   UNL A   1      42.641  27.754  31.329  1.00  0.00    -0.354 N 
ATOM     50  N   UNL A   1      41.688  29.480  33.526  1.00  0.00    -0.248 NA
ATOM     51  C   UNL A   1      41.790  30.156  35.759  1.00  0.00     0.031 C 
ATOM     52  C   UNL A   1      44.472  26.545  31.677  1.00  0.00     0.029 A 
ATOM     53  C   UNL A   1      43.584  27.418  32.286  1.00  0.00     0.049 A 
ATOM     54  H   UNL A   1      41.883  28.364  31.474  1.00  0.00     0.167 HD
ATOM     55  C   UNL A   1      42.733  28.818  34.153  1.00  0.00     0.074 A 
ATOM     56  C   UNL A   1      42.766  29.290  35.522  1.00  0.00     0.031 C 
ATOM     57  C   UNL A   1      43.588  27.897  33.643  1.00  0.00     0.037 A 
BRANCH  44  58
ATOM     58  C   UNL A   1      42.552  26.430  27.737  1.00  0.00     0.064 A 
ATOM     59  C   UNL A   1      43.505  26.919  26.832  1.00  0.00     0.173 A 
ATOM     60  C   UNL A   1      42.029  25.147  27.513  1.00  0.00     0.173 A 
ATOM     61  F   UNL A   1      44.023  28.145  26.995  1.00  0.00    -0.203 F 
ATOM     62  C   UNL A   1      43.911  26.157  25.740  1.00  0.00     0.198 A 
ATOM     63  C   UNL A   1      42.450  24.380  26.432  1.00  0.00     0.198 A 
ATOM     64  F   UNL A   1      41.115  24.636  28.351  1.00  0.00    -0.203 F 
ATOM     65  F   UNL A   1      44.802  26.653  24.871  1.00  0.00    -0.200 F 
ATOM     66  C   UNL A   1      43.389  24.885  25.545  1.00  0.00     0.200 A 
ATOM     67  F   UNL A   1      41.951  23.149  26.249  1.00  0.00    -0.200 F 
ATOM     68  F   UNL A   1      43.788  24.149  24.498  1.00  0.00    -0.200 F 
ENDBRANCH  44  58
BRANCH  45  69
ATOM     69  C   UNL A   1      39.505  31.972  35.487  1.00  0.00     0.064 A 
ATOM     70  C   UNL A   1      40.006  33.257  35.729  1.00  0.00     0.173 A 
ATOM     71  C   UNL A   1      38.549  31.463  36.379  1.00  0.00     0.173 A 
ATOM     72  F   UNL A   1      40.940  33.774  34.917  1.00  0.00    -0.203 F 
ATOM     73  C   UNL A   1      39.575  34.001  36.825  1.00  0.00     0.198 A 
ATOM     74  C   UNL A   1      38.099  32.219  37.458  1.00  0.00     0.198 A 
ATOM     75  F   UNL A   1      38.041  30.236  36.192  1.00  0.00    -0.203 F 
ATOM     76  F   UNL A   1      40.096  35.214  37.054  1.00  0.00    -0.200 F 
ATOM     77  C   UNL A   1      38.616  33.485  37.684  1.00  0.00     0.200 A 
ATOM     78  F   UNL A   1      37.164  31.720  38.279  1.00  0.00    -0.200 F 
ATOM     79  F   UNL A   1      38.197  34.204  38.733  1.00  0.00    -0.200 F 
ENDBRANCH  45  69
BRANCH  57  80
ATOM     80  C   UNL A   1      44.628  27.350  34.571  1.00  0.00     0.064 A 
ATOM     81  C   UNL A   1      44.409  26.166  35.288  1.00  0.00     0.173 A 
ATOM     82  C   UNL A   1      45.865  27.994  34.712  1.00  0.00     0.173 A 
ATOM     83  F   UNL A   1      43.232  25.528  35.197  1.00  0.00    -0.203 F 
ATOM     84  C   UNL A   1      45.392  25.650  36.127  1.00  0.00     0.198 A 
ATOM     85  C   UNL A   1      46.853  27.463  35.536  1.00  0.00     0.198 A 
ATOM     86  F   UNL A   1      46.118  29.128  34.044  1.00  0.00    -0.203 F 
ATOM     87  F   UNL A   1      45.153  24.536  36.831  1.00  0.00    -0.200 F 
ATOM     88  C   UNL A   1      46.616  26.295  36.245  1.00  0.00     0.200 A 
ATOM     89  F   UNL A   1      48.038  28.083  35.644  1.00  0.00    -0.200 F 
ATOM     90  F   UNL A   1      47.563  25.794  37.049  1.00  0.00    -0.200 F 
ENDBRANCH  57  80
ENDBRANCH  31  32
ENDBRANCH  24  26
ENDBRANCH  23  24
ENDBRANCH  22  23
ENDBRANCH   1  22
TORSDOF 15
ENDMDL
MODEL 3
REMARK VINA RESULT:     -11.7      0.384      1.576
REMARK SMILES CC(=O)N[C@@H](Cc1cc(Br)c(O)c(Br)c1)C(=O)OCCOC(=O)c1ccc(-c2c3nc(c(-c4c(F)c(F)c(F)c(F)c4F)c4ccc([nH]4)c(-c4c(F)c(F)c(F)c(F)c4F)c4nc(c(-c5c(F)c(F)c(F)c(F)c5F)c5ccc2[nH]5)C=C4)C=C3)cc1
REMARK SMILES IDX 19 1 18 2 16 3 17 4 5 5 4 6 1 7 2 8 3 9 6 11 7 12 8 13 15 14
REMARK SMILES IDX 9 15 13 16 10 17 11 18 14 19 12 20 20 22 21 23 22 24 23 25
REMARK SMILES IDX 24 26 25 27 86 28 26 29 85 30 27 31 28 32 29 33 79 34 30 35
REMARK SMILES IDX 84 36 78 37 80 38 31 39 83 40 77 41 76 42 32 44 64 45 44 46
REMARK SMILES IDX 63 47 45 48 48 49 62 50 81 51 46 52 47 53 61 55 82 56 49 57
REMARK SMILES IDX 33 58 34 59 42 60 35 61 36 62 40 63 43 64 37 65 38 66 41 67
REMARK SMILES IDX 39 68 65 69 66 70 74 71 67 72 68 73 72 74 75 75 69 76 70 77
REMARK SMILES IDX 73 78 71 79 50 80 51 81 59 82 52 83 53 84 57 85 60 86 54 87
REMARK SMILES IDX 55 88 58 89 56 90
REMARK H PARENT 4 10 12 21 80 43 48 54
REMARK Flexibility Score: inf
ROOT
ATOM      1  C   UNL A   1      31.414  29.006  24.954  1.00  0.00     0.274 C 
ENDROOT
BRANCH   1   2
ATOM      2  O   UNL A   1      32.542  28.114  25.043  1.00  0.00    -0.461 OA
BRANCH   2   3
ATOM      3  C   UNL A   1      32.304  26.881  25.567  1.00  0.00     0.329 C 
ATOM      4  O   UNL A   1      31.578  26.658  26.531  1.00  0.00    -0.250 OA
BRANCH   3   5
ATOM      5  C   UNL A   1      33.122  25.776  24.881  1.00  0.00     0.196 C 
BRANCH   5   6
ATOM      6  N   UNL A   1      33.492  26.078  23.496  1.00  0.00    -0.343 N 
ATOM      7  C   UNL A   1      32.144  24.306  22.423  1.00  0.00     0.114 C 
ATOM      8  C   UNL A   1      33.077  25.484  22.342  1.00  0.00     0.217 C 
ATOM      9  O   UNL A   1      33.479  25.913  21.263  1.00  0.00    -0.275 OA
ATOM     10  H   UNL A   1      34.133  26.816  23.382  1.00  0.00     0.164 HD
ENDBRANCH   5   6
BRANCH   5  11
ATOM     11  C   UNL A   1      34.352  25.437  25.743  1.00  0.00     0.072 C 
BRANCH  11  12
ATOM     12  C   UNL A   1      34.759  23.981  25.675  1.00  0.00    -0.043 A 
ATOM     13  C   UNL A   1      36.108  23.613  25.770  1.00  0.00     0.023 A 
ATOM     14  C   UNL A   1      33.795  22.987  25.454  1.00  0.00     0.023 A 
ATOM     15  C   UNL A   1      36.488  22.281  25.602  1.00  0.00     0.061 A 
ATOM     16  C   UNL A   1      34.178  21.651  25.307  1.00  0.00     0.061 A 
ATOM     17  Br  UNL A   1      38.333  21.848  25.665  1.00  0.00    -0.047 Br
ATOM     18  C   UNL A   1      35.527  21.295  25.368  1.00  0.00     0.143 A 
ATOM     19  Br  UNL A   1      32.824  20.358  25.004  1.00  0.00    -0.047 Br
BRANCH  18  20
ATOM     20  O   UNL A   1      35.892  19.987  25.190  1.00  0.00    -0.506 OA
ATOM     21  H   UNL A   1      35.497  19.316  25.710  1.00  0.00     0.293 HD
ENDBRANCH  18  20
ENDBRANCH  11  12
ENDBRANCH   5  11
ENDBRANCH   3   5
ENDBRANCH   2   3
ENDBRANCH   1   2
BRANCH   1  22
ATOM     22  C   UNL A   1      31.658  30.286  25.755  1.00  0.00     0.275 C 
BRANCH  22  23
ATOM     23  O   UNL A   1      33.054  30.449  26.065  1.00  0.00    -0.458 OA
BRANCH  23  24
ATOM     24  C   UNL A   1      33.327  31.438  26.947  1.00  0.00     0.338 C 
ATOM     25  O   UNL A   1      32.611  32.362  27.282  1.00  0.00    -0.246 OA
BRANCH  24  26
ATOM     26  C   UNL A   1      34.612  31.163  27.597  1.00  0.00     0.060 A 
ATOM     27  C   UNL A   1      34.858  29.862  28.035  1.00  0.00     0.016 A 
ATOM     28  C   UNL A   1      35.514  32.189  27.865  1.00  0.00     0.016 A 
ATOM     29  C   UNL A   1      35.998  29.574  28.771  1.00  0.00     0.010 A 
ATOM     30  C   UNL A   1      36.682  31.895  28.574  1.00  0.00     0.010 A 
ATOM     31  C   UNL A   1      36.924  30.588  29.036  1.00  0.00    -0.014 A 
BRANCH  31  32
ATOM     32  C   UNL A   1      38.155  30.279  29.795  1.00  0.00     0.031 A 
ATOM     33  C   UNL A   1      39.192  29.374  29.202  1.00  0.00     0.074 A 
ATOM     34  C   UNL A   1      38.333  30.820  31.013  1.00  0.00     0.049 A 
ATOM     35  N   UNL A   1      40.239  28.836  29.770  1.00  0.00    -0.248 NA
ATOM     36  C   UNL A   1      39.031  29.031  27.781  1.00  0.00     0.031 C 
ATOM     37  C   UNL A   1      37.426  31.774  31.655  1.00  0.00     0.029 A 
ATOM     38  N   UNL A   1      39.332  30.637  31.935  1.00  0.00    -0.354 N 
ATOM     39  C   UNL A   1      40.848  28.069  28.787  1.00  0.00     0.074 A 
ATOM     40  C   UNL A   1      40.053  28.209  27.585  1.00  0.00     0.031 C 
ATOM     41  C   UNL A   1      37.907  32.090  32.866  1.00  0.00     0.029 A 
ATOM     42  C   UNL A   1      39.113  31.306  33.114  1.00  0.00     0.049 A 
ATOM     43  H   UNL A   1      40.127  30.082  31.768  1.00  0.00     0.167 HD
ATOM     44  C   UNL A   1      41.967  27.316  28.889  1.00  0.00     0.037 A 
ATOM     45  C   UNL A   1      39.779  31.247  34.282  1.00  0.00     0.037 A 
ATOM     46  C   UNL A   1      42.755  27.200  30.088  1.00  0.00     0.049 A 
ATOM     47  C   UNL A   1      40.957  30.321  34.399  1.00  0.00     0.074 A 
ATOM     48  C   UNL A   1      43.908  26.465  30.299  1.00  0.00     0.029 A 
ATOM     49  N   UNL A   1      42.465  27.843  31.283  1.00  0.00    -0.354 N 
ATOM     50  N   UNL A   1      41.501  29.558  33.483  1.00  0.00    -0.248 NA
ATOM     51  C   UNL A   1      41.593  30.225  35.720  1.00  0.00     0.031 C 
ATOM     52  C   UNL A   1      44.297  26.637  31.632  1.00  0.00     0.029 A 
ATOM     53  C   UNL A   1      43.406  27.505  32.242  1.00  0.00     0.049 A 
ATOM     54  H   UNL A   1      41.705  28.452  31.427  1.00  0.00     0.167 HD
ATOM     55  C   UNL A   1      42.545  28.896  34.111  1.00  0.00     0.074 A 
ATOM     56  C   UNL A   1      42.571  29.362  35.483  1.00  0.00     0.031 C 
ATOM     57  C   UNL A   1      43.403  27.979  33.601  1.00  0.00     0.037 A 
BRANCH  44  58
ATOM     58  C   UNL A   1      42.393  26.534  27.685  1.00  0.00     0.064 A 
ATOM     59  C   UNL A   1      43.353  27.026  26.789  1.00  0.00     0.173 A 
ATOM     60  C   UNL A   1      41.867  25.254  27.450  1.00  0.00     0.173 A 
ATOM     61  F   UNL A   1      43.874  28.250  26.963  1.00  0.00    -0.203 F 
ATOM     62  C   UNL A   1      43.765  26.269  25.696  1.00  0.00     0.198 A 
ATOM     63  C   UNL A   1      42.295  24.492  26.367  1.00  0.00     0.198 A 
ATOM     64  F   UNL A   1      40.946  24.740  28.278  1.00  0.00    -0.203 F 
ATOM     65  F   UNL A   1      44.664  26.767  24.836  1.00  0.00    -0.200 F 
ATOM     66  C   UNL A   1      43.241  25.000  25.490  1.00  0.00     0.200 A 
ATOM     67  F   UNL A   1      41.793  23.264  26.174  1.00  0.00    -0.200 F 
ATOM     68  F   UNL A   1      43.645  24.269  24.441  1.00  0.00    -0.200 F 
ENDBRANCH  44  58
BRANCH  45  69
ATOM     69  C   UNL A   1      39.305  32.037  35.446  1.00  0.00     0.064 A 
ATOM     70  C   UNL A   1      39.676  33.378  35.606  1.00  0.00     0.173 A 
ATOM     71  C   UNL A   1      38.473  31.467  36.422  1.00  0.00     0.173 A 
ATOM     72  F   UNL A   1      40.490  33.957  34.712  1.00  0.00    -0.203 F 
ATOM     73  C   UNL A   1      39.239  34.117  36.703  1.00  0.00     0.198 A 
ATOM     74  C   UNL A   1      38.015  32.215  37.503  1.00  0.00     0.198 A 
ATOM     75  F   UNL A   1      38.093  30.185  36.316  1.00  0.00    -0.203 F 
ATOM     76  F   UNL A   1      39.637  35.389  36.852  1.00  0.00    -0.200 F 
ATOM     77  C   UNL A   1      38.403  33.538  37.647  1.00  0.00     0.200 A 
ATOM     78  F   UNL A   1      37.199  31.654  38.406  1.00  0.00    -0.200 F 
ATOM     79  F   UNL A   1      37.979  34.253  38.697  1.00  0.00    -0.200 F 
ENDBRANCH  45  69
BRANCH  57  80
ATOM     80  C   UNL A   1      44.441  27.430  34.530  1.00  0.00     0.064 A 
ATOM     81  C   UNL A   1      45.657  28.096  34.734  1.00  0.00     0.173 A 
ATOM     82  C   UNL A   1      44.200  26.253  35.251  1.00  0.00     0.173 A 
ATOM     83  F   UNL A   1      45.937  29.216  34.050  1.00  0.00    -0.203 F 
ATOM     84  C   UNL A   1      46.605  27.593  35.620  1.00  0.00     0.198 A 
ATOM     85  C   UNL A   1      45.141  25.764  36.152  1.00  0.00     0.198 A 
ATOM     86  F   UNL A   1      43.049  25.583  35.089  1.00  0.00    -0.203 F 
ATOM     87  F   UNL A   1      47.776  28.225  35.776  1.00  0.00    -0.200 F 
ATOM     88  C   UNL A   1      46.343  26.432  36.333  1.00  0.00     0.200 A 
ATOM     89  F   UNL A   1      44.885  24.646  36.846  1.00  0.00    -0.200 F 
ATOM     90  F   UNL A   1      47.254  25.952  37.191  1.00  0.00    -0.200 F 
ENDBRANCH  57  80
ENDBRANCH  31  32
ENDBRANCH  24  26
ENDBRANCH  23  24
ENDBRANCH  22  23
ENDBRANCH   1  22
TORSDOF 15
ENDMDL
