MODEL 1
REMARK VINA RESULT:     -10.7      0.000      0.000
REMARK SMILES O=C(C[C@H](c1ccsc1)n1cccc1)OCCOC(=O)c1ccc(-c2c3nc(c(-c4c(F)c(F)c(F)c(F)c4F)c4ccc([nH]4)c(-c4c(F)c(F)c(F)c(F)c4F)c4nc(c(-c5c(F)c(F)c(F)c(F)c5F)c5ccc2[nH]5)C=C4)C=C3)cc1
REMARK SMILES IDX 16 1 15 2 2 3 1 4 3 5 4 6 10 7 11 8 14 9 12 10 13 11 5 12
REMARK SMILES IDX 6 13 9 14 7 15 8 16 17 17 18 18 19 19 20 20 21 21 22 22
REMARK SMILES IDX 83 23 23 24 82 25 24 26 25 27 26 28 76 29 27 30 81 31 75 32
REMARK SMILES IDX 77 33 28 34 80 35 74 36 73 37 29 39 61 40 41 41 60 42 42 43
REMARK SMILES IDX 45 44 59 45 78 46 43 47 44 48 58 50 79 51 46 52 30 53 31 54
REMARK SMILES IDX 39 55 32 56 33 57 37 58 40 59 34 60 35 61 38 62 36 63 62 64
REMARK SMILES IDX 63 65 71 66 64 67 65 68 69 69 72 70 66 71 67 72 70 73 68 74
REMARK SMILES IDX 47 75 48 76 56 77 49 78 50 79 54 80 57 81 51 82 52 83 55 84
REMARK SMILES IDX 53 85
REMARK H PARENT 77 38 45 49
REMARK Flexibility Score: inf
ROOT
ATOM      1  C   UNL A   1      33.774  30.791  27.109  1.00  0.00     0.274 C 
ENDROOT
BRANCH   1   2
ATOM      2  O   UNL A   1      33.648  31.655  28.259  1.00  0.00    -0.462 OA
BRANCH   2   3
ATOM      3  C   UNL A   1      33.583  33.007  28.249  1.00  0.00     0.308 C 
ATOM      4  O   UNL A   1      32.695  33.582  27.625  1.00  0.00    -0.252 OA
BRANCH   3   5
ATOM      5  C   UNL A   1      34.598  33.793  29.032  1.00  0.00     0.153 C 
BRANCH   5   6
ATOM      6  C   UNL A   1      34.444  33.561  30.526  1.00  0.00     0.128 C 
BRANCH   6   7
ATOM      7  N   UNL A   1      35.617  32.829  31.044  1.00  0.00    -0.346 N 
ATOM      8  C   UNL A   1      35.539  31.636  31.730  1.00  0.00     0.086 A 
ATOM      9  C   UNL A   1      36.937  33.085  30.763  1.00  0.00     0.086 A 
ATOM     10  C   UNL A   1      36.819  31.176  31.943  1.00  0.00     0.019 A 
ATOM     11  C   UNL A   1      37.704  32.097  31.340  1.00  0.00     0.019 A 
ENDBRANCH   6   7
BRANCH   6  12
ATOM     12  C   UNL A   1      34.136  34.818  31.305  1.00  0.00    -0.014 A 
ATOM     13  C   UNL A   1      34.668  35.177  32.591  1.00  0.00     0.017 A 
ATOM     14  C   UNL A   1      33.365  35.854  30.802  1.00  0.00     0.070 A 
ATOM     15  C   UNL A   1      34.283  36.435  32.997  1.00  0.00     0.065 A 
ATOM     16  S   UNL A   1      33.277  37.199  31.850  1.00  0.00    -0.152 S 
ENDBRANCH   6  12
ENDBRANCH   5   6
ENDBRANCH   3   5
ENDBRANCH   2   3
ENDBRANCH   1   2
BRANCH   1  17
ATOM     17  C   UNL A   1      34.645  29.564  27.361  1.00  0.00     0.275 C 
BRANCH  17  18
ATOM     18  O   UNL A   1      35.554  29.761  28.444  1.00  0.00    -0.458 OA
BRANCH  18  19
ATOM     19  C   UNL A   1      36.708  30.380  28.099  1.00  0.00     0.338 C 
ATOM     20  O   UNL A   1      36.842  31.523  27.720  1.00  0.00    -0.246 OA
BRANCH  19  21
ATOM     21  C   UNL A   1      37.828  29.436  28.191  1.00  0.00     0.060 A 
ATOM     22  C   UNL A   1      37.985  28.746  29.397  1.00  0.00     0.016 A 
ATOM     23  C   UNL A   1      38.802  29.402  27.186  1.00  0.00     0.016 A 
ATOM     24  C   UNL A   1      39.189  28.125  29.657  1.00  0.00     0.010 A 
ATOM     25  C   UNL A   1      40.021  28.819  27.461  1.00  0.00     0.010 A 
ATOM     26  C   UNL A   1      40.215  28.216  28.709  1.00  0.00    -0.014 A 
BRANCH  26  27
ATOM     27  C   UNL A   1      41.476  27.522  28.987  1.00  0.00     0.031 A 
ATOM     28  C   UNL A   1      41.397  26.064  28.455  1.00  0.00     0.074 A 
ATOM     29  C   UNL A   1      42.410  28.276  29.658  1.00  0.00     0.049 A 
ATOM     30  N   UNL A   1      42.118  25.030  28.752  1.00  0.00    -0.248 NA
ATOM     31  C   UNL A   1      40.343  25.685  27.461  1.00  0.00     0.031 C 
ATOM     32  C   UNL A   1      42.267  29.717  30.008  1.00  0.00     0.029 A 
ATOM     33  N   UNL A   1      43.655  28.014  30.193  1.00  0.00    -0.354 N 
ATOM     34  C   UNL A   1      41.783  23.988  27.853  1.00  0.00     0.074 A 
ATOM     35  C   UNL A   1      40.618  24.416  27.150  1.00  0.00     0.031 C 
ATOM     36  C   UNL A   1      43.301  30.149  30.770  1.00  0.00     0.029 A 
ATOM     37  C   UNL A   1      44.237  29.062  30.976  1.00  0.00     0.049 A 
ATOM     38  H   UNL A   1      44.116  27.157  30.047  1.00  0.00     0.167 HD
ATOM     39  C   UNL A   1      42.586  22.898  27.666  1.00  0.00     0.037 A 
ATOM     40  C   UNL A   1      45.365  29.019  31.761  1.00  0.00     0.037 A 
ATOM     41  C   UNL A   1      43.660  22.944  28.596  1.00  0.00     0.049 A 
ATOM     42  C   UNL A   1      45.963  27.728  31.417  1.00  0.00     0.074 A 
ATOM     43  C   UNL A   1      43.674  22.754  29.952  1.00  0.00     0.029 A 
ATOM     44  N   UNL A   1      44.778  23.647  28.215  1.00  0.00    -0.354 N 
ATOM     45  N   UNL A   1      46.560  27.481  30.290  1.00  0.00    -0.248 NA
ATOM     46  C   UNL A   1      45.778  26.601  32.337  1.00  0.00     0.031 C 
ATOM     47  C   UNL A   1      44.494  23.807  30.393  1.00  0.00     0.029 A 
ATOM     48  C   UNL A   1      45.194  24.356  29.311  1.00  0.00     0.049 A 
ATOM     49  H   UNL A   1      45.198  23.643  27.325  1.00  0.00     0.167 HD
ATOM     50  C   UNL A   1      46.492  26.113  30.235  1.00  0.00     0.074 A 
ATOM     51  C   UNL A   1      46.332  25.645  31.596  1.00  0.00     0.031 C 
ATOM     52  C   UNL A   1      46.020  25.517  29.109  1.00  0.00     0.037 A 
BRANCH  39  53
ATOM     53  C   UNL A   1      42.677  21.857  26.587  1.00  0.00     0.064 A 
ATOM     54  C   UNL A   1      42.174  20.561  26.873  1.00  0.00     0.173 A 
ATOM     55  C   UNL A   1      43.564  21.954  25.510  1.00  0.00     0.173 A 
ATOM     56  F   UNL A   1      41.273  20.374  27.852  1.00  0.00    -0.203 F 
ATOM     57  C   UNL A   1      42.658  19.423  26.234  1.00  0.00     0.198 A 
ATOM     58  C   UNL A   1      44.008  20.811  24.835  1.00  0.00     0.198 A 
ATOM     59  F   UNL A   1      44.097  23.131  25.157  1.00  0.00    -0.203 F 
ATOM     60  F   UNL A   1      42.274  18.208  26.651  1.00  0.00    -0.200 F 
ATOM     61  C   UNL A   1      43.594  19.547  25.228  1.00  0.00     0.200 A 
ATOM     62  F   UNL A   1      44.911  20.933  23.852  1.00  0.00    -0.200 F 
ATOM     63  F   UNL A   1      44.124  18.454  24.664  1.00  0.00    -0.200 F 
ENDBRANCH  39  53
BRANCH  40  64
ATOM     64  C   UNL A   1      46.099  29.798  32.843  1.00  0.00     0.064 A 
ATOM     65  C   UNL A   1      47.385  30.341  32.760  1.00  0.00     0.173 A 
ATOM     66  C   UNL A   1      45.413  30.138  34.054  1.00  0.00     0.173 A 
ATOM     67  F   UNL A   1      48.204  30.008  31.754  1.00  0.00    -0.203 F 
ATOM     68  C   UNL A   1      47.878  31.247  33.729  1.00  0.00     0.198 A 
ATOM     69  C   UNL A   1      45.867  31.083  34.973  1.00  0.00     0.198 A 
ATOM     70  F   UNL A   1      44.253  29.561  34.396  1.00  0.00    -0.203 F 
ATOM     71  F   UNL A   1      49.117  31.744  33.610  1.00  0.00    -0.200 F 
ATOM     72  C   UNL A   1      47.099  31.657  34.802  1.00  0.00     0.200 A 
ATOM     73  F   UNL A   1      45.084  31.439  36.003  1.00  0.00    -0.200 F 
ATOM     74  F   UNL A   1      47.533  32.584  35.666  1.00  0.00    -0.200 F 
ENDBRANCH  40  64
BRANCH  52  75
ATOM     75  C   UNL A   1      46.128  26.361  27.848  1.00  0.00     0.064 A 
ATOM     76  C   UNL A   1      47.391  26.784  27.404  1.00  0.00     0.173 A 
ATOM     77  C   UNL A   1      45.032  26.864  27.124  1.00  0.00     0.173 A 
ATOM     78  F   UNL A   1      48.497  26.329  28.013  1.00  0.00    -0.203 F 
ATOM     79  C   UNL A   1      47.544  27.670  26.333  1.00  0.00     0.198 A 
ATOM     80  C   UNL A   1      45.178  27.752  26.053  1.00  0.00     0.198 A 
ATOM     81  F   UNL A   1      43.789  26.497  27.423  1.00  0.00    -0.203 F 
ATOM     82  F   UNL A   1      48.771  28.043  25.946  1.00  0.00    -0.200 F 
ATOM     83  C   UNL A   1      46.438  28.159  25.660  1.00  0.00     0.200 A 
ATOM     84  F   UNL A   1      44.096  28.201  25.398  1.00  0.00    -0.200 F 
ATOM     85  F   UNL A   1      46.585  28.998  24.625  1.00  0.00    -0.200 F 
ENDBRANCH  52  75
ENDBRANCH  26  27
ENDBRANCH  19  21
ENDBRANCH  18  19
ENDBRANCH  17  18
ENDBRANCH   1  17
TORSDOF 14
ENDMDL
MODEL 2
REMARK VINA RESULT:     -10.6      2.891      4.854
REMARK SMILES O=C(C[C@H](c1ccsc1)n1cccc1)OCCOC(=O)c1ccc(-c2c3nc(c(-c4c(F)c(F)c(F)c(F)c4F)c4ccc([nH]4)c(-c4c(F)c(F)c(F)c(F)c4F)c4nc(c(-c5c(F)c(F)c(F)c(F)c5F)c5ccc2[nH]5)C=C4)C=C3)cc1
REMARK SMILES IDX 16 1 15 2 2 3 1 4 3 5 4 6 10 7 11 8 14 9 12 10 13 11 5 12
REMARK SMILES IDX 6 13 9 14 7 15 8 16 17 17 18 18 19 19 20 20 21 21 22 22
REMARK SMILES IDX 83 23 23 24 82 25 24 26 25 27 26 28 76 29 27 30 81 31 75 32
REMARK SMILES IDX 77 33 28 34 80 35 74 36 73 37 29 39 61 40 41 41 60 42 42 43
REMARK SMILES IDX 45 44 59 45 78 46 43 47 44 48 58 50 79 51 46 52 30 53 31 54
REMARK SMILES IDX 39 55 32 56 33 57 37 58 40 59 34 60 35 61 38 62 36 63 62 64
REMARK SMILES IDX 63 65 71 66 64 67 65 68 69 69 72 70 66 71 67 72 70 73 68 74
REMARK SMILES IDX 47 75 48 76 56 77 49 78 50 79 54 80 57 81 51 82 52 83 55 84
REMARK SMILES IDX 53 85
REMARK H PARENT 77 38 45 49
REMARK Flexibility Score: inf
ROOT
ATOM      1  C   UNL A   1      33.330  30.161  26.498  1.00  0.00     0.274 C 
ENDROOT
BRANCH   1   2
ATOM      2  O   UNL A   1      32.194  29.391  26.949  1.00  0.00    -0.462 OA
BRANCH   2   3
ATOM      3  C   UNL A   1      32.134  28.045  27.085  1.00  0.00     0.308 C 
ATOM      4  O   UNL A   1      31.206  27.524  27.697  1.00  0.00    -0.252 OA
BRANCH   3   5
ATOM      5  C   UNL A   1      33.206  27.199  26.456  1.00  0.00     0.153 C 
BRANCH   5   6
ATOM      6  C   UNL A   1      32.607  26.070  25.633  1.00  0.00     0.128 C 
BRANCH   6   7
ATOM      7  N   UNL A   1      32.771  26.356  24.194  1.00  0.00    -0.346 N 
ATOM      8  C   UNL A   1      33.504  27.411  23.697  1.00  0.00     0.086 A 
ATOM      9  C   UNL A   1      32.418  25.539  23.147  1.00  0.00     0.086 A 
ATOM     10  C   UNL A   1      33.552  27.297  22.326  1.00  0.00     0.019 A 
ATOM     11  C   UNL A   1      32.857  26.118  21.977  1.00  0.00     0.019 A 
ENDBRANCH   6   7
BRANCH   6  12
ATOM     12  C   UNL A   1      33.109  24.701  26.029  1.00  0.00    -0.014 A 
ATOM     13  C   UNL A   1      34.459  24.222  25.913  1.00  0.00     0.017 A 
ATOM     14  C   UNL A   1      32.321  23.758  26.670  1.00  0.00     0.070 A 
ATOM     15  C   UNL A   1      34.629  22.967  26.454  1.00  0.00     0.065 A 
ATOM     16  S   UNL A   1      33.178  22.346  27.102  1.00  0.00    -0.152 S 
ENDBRANCH   6  12
ENDBRANCH   5   6
ENDBRANCH   3   5
ENDBRANCH   2   3
ENDBRANCH   1   2
BRANCH   1  17
ATOM     17  C   UNL A   1      34.289  30.545  27.621  1.00  0.00     0.275 C 
BRANCH  17  18
ATOM     18  O   UNL A   1      35.476  29.751  27.612  1.00  0.00    -0.458 OA
BRANCH  18  19
ATOM     19  C   UNL A   1      36.603  30.430  27.932  1.00  0.00     0.338 C 
ATOM     20  O   UNL A   1      36.722  31.627  28.073  1.00  0.00    -0.246 OA
BRANCH  19  21
ATOM     21  C   UNL A   1      37.733  29.499  28.039  1.00  0.00     0.060 A 
ATOM     22  C   UNL A   1      37.855  28.777  29.231  1.00  0.00     0.016 A 
ATOM     23  C   UNL A   1      38.743  29.507  27.071  1.00  0.00     0.016 A 
ATOM     24  C   UNL A   1      39.058  28.165  29.517  1.00  0.00     0.010 A 
ATOM     25  C   UNL A   1      39.960  28.933  27.374  1.00  0.00     0.010 A 
ATOM     26  C   UNL A   1      40.116  28.298  28.611  1.00  0.00    -0.014 A 
BRANCH  26  27
ATOM     27  C   UNL A   1      41.377  27.614  28.916  1.00  0.00     0.031 A 
ATOM     28  C   UNL A   1      41.307  26.144  28.417  1.00  0.00     0.074 A 
ATOM     29  C   UNL A   1      42.303  28.385  29.578  1.00  0.00     0.049 A 
ATOM     30  N   UNL A   1      42.027  25.119  28.744  1.00  0.00    -0.248 NA
ATOM     31  C   UNL A   1      40.263  25.739  27.422  1.00  0.00     0.031 C 
ATOM     32  C   UNL A   1      42.154  29.833  29.894  1.00  0.00     0.029 A 
ATOM     33  N   UNL A   1      43.544  28.139  30.130  1.00  0.00    -0.354 N 
ATOM     34  C   UNL A   1      41.703  24.055  27.866  1.00  0.00     0.074 A 
ATOM     35  C   UNL A   1      40.543  24.464  27.143  1.00  0.00     0.031 C 
ATOM     36  C   UNL A   1      43.180  30.285  30.655  1.00  0.00     0.029 A 
ATOM     37  C   UNL A   1      44.116  29.206  30.894  1.00  0.00     0.049 A 
ATOM     38  H   UNL A   1      44.008  27.279  30.007  1.00  0.00     0.167 HD
ATOM     39  C   UNL A   1      42.510  22.963  27.710  1.00  0.00     0.037 A 
ATOM     40  C   UNL A   1      45.237  29.183  31.691  1.00  0.00     0.037 A 
ATOM     41  C   UNL A   1      43.576  23.034  28.648  1.00  0.00     0.049 A 
ATOM     42  C   UNL A   1      45.842  27.886  31.381  1.00  0.00     0.074 A 
ATOM     43  C   UNL A   1      43.578  22.874  30.009  1.00  0.00     0.029 A 
ATOM     44  N   UNL A   1      44.695  23.730  28.262  1.00  0.00    -0.354 N 
ATOM     45  N   UNL A   1      46.449  27.615  30.265  1.00  0.00    -0.248 NA
ATOM     46  C   UNL A   1      45.651  26.780  32.324  1.00  0.00     0.031 C 
ATOM     47  C   UNL A   1      44.391  23.939  30.433  1.00  0.00     0.029 A 
ATOM     48  C   UNL A   1      45.099  24.466  29.346  1.00  0.00     0.049 A 
ATOM     49  H   UNL A   1      45.123  23.707  27.376  1.00  0.00     0.167 HD
ATOM     50  C   UNL A   1      46.385  26.246  30.240  1.00  0.00     0.074 A 
ATOM     51  C   UNL A   1      46.214  25.809  31.611  1.00  0.00     0.031 C 
ATOM     52  C   UNL A   1      45.925  25.624  29.124  1.00  0.00     0.037 A 
BRANCH  39  53
ATOM     53  C   UNL A   1      42.613  21.899  26.657  1.00  0.00     0.064 A 
ATOM     54  C   UNL A   1      42.116  20.607  26.969  1.00  0.00     0.173 A 
ATOM     55  C   UNL A   1      43.506  21.976  25.582  1.00  0.00     0.173 A 
ATOM     56  F   UNL A   1      41.211  20.436  27.947  1.00  0.00    -0.203 F 
ATOM     57  C   UNL A   1      42.611  19.457  26.359  1.00  0.00     0.198 A 
ATOM     58  C   UNL A   1      43.960  20.821  24.936  1.00  0.00     0.198 A 
ATOM     59  F   UNL A   1      44.034  23.147  25.205  1.00  0.00    -0.203 F 
ATOM     60  F   UNL A   1      42.231  18.249  26.802  1.00  0.00    -0.200 F 
ATOM     61  C   UNL A   1      43.552  19.564  25.356  1.00  0.00     0.200 A 
ATOM     62  F   UNL A   1      44.868  20.925  23.956  1.00  0.00    -0.200 F 
ATOM     63  F   UNL A   1      44.091  18.461  24.821  1.00  0.00    -0.200 F 
ENDBRANCH  39  53
BRANCH  40  64
ATOM     64  C   UNL A   1      45.960  29.988  32.761  1.00  0.00     0.064 A 
ATOM     65  C   UNL A   1      45.638  30.056  34.120  1.00  0.00     0.173 A 
ATOM     66  C   UNL A   1      47.168  30.681  32.426  1.00  0.00     0.173 A 
ATOM     67  F   UNL A   1      44.474  29.573  34.571  1.00  0.00    -0.203 F 
ATOM     68  C   UNL A   1      46.513  30.640  35.067  1.00  0.00     0.198 A 
ATOM     69  C   UNL A   1      48.063  31.194  33.363  1.00  0.00     0.198 A 
ATOM     70  F   UNL A   1      47.536  30.886  31.153  1.00  0.00    -0.203 F 
ATOM     71  F   UNL A   1      46.164  30.684  36.361  1.00  0.00    -0.200 F 
ATOM     72  C   UNL A   1      47.745  31.157  34.695  1.00  0.00     0.200 A 
ATOM     73  F   UNL A   1      49.238  31.698  32.954  1.00  0.00    -0.200 F 
ATOM     74  F   UNL A   1      48.609  31.627  35.605  1.00  0.00    -0.200 F 
ENDBRANCH  40  64
BRANCH  52  75
ATOM     75  C   UNL A   1      46.042  26.439  27.846  1.00  0.00     0.064 A 
ATOM     76  C   UNL A   1      44.887  26.729  27.101  1.00  0.00     0.173 A 
ATOM     77  C   UNL A   1      47.255  26.852  27.266  1.00  0.00     0.173 A 
ATOM     78  F   UNL A   1      43.680  26.404  27.592  1.00  0.00    -0.203 F 
ATOM     79  C   UNL A   1      44.945  27.356  25.853  1.00  0.00     0.198 A 
ATOM     80  C   UNL A   1      47.320  27.478  26.016  1.00  0.00     0.198 A 
ATOM     81  F   UNL A   1      48.411  26.673  27.899  1.00  0.00    -0.203 F 
ATOM     82  F   UNL A   1      43.814  27.612  25.182  1.00  0.00    -0.200 F 
ATOM     83  C   UNL A   1      46.162  27.726  25.307  1.00  0.00     0.200 A 
ATOM     84  F   UNL A   1      48.507  27.849  25.510  1.00  0.00    -0.200 F 
ATOM     85  F   UNL A   1      46.216  28.339  24.116  1.00  0.00    -0.200 F 
ENDBRANCH  52  75
ENDBRANCH  26  27
ENDBRANCH  19  21
ENDBRANCH  18  19
ENDBRANCH  17  18
ENDBRANCH   1  17
TORSDOF 14
ENDMDL
MODEL 3
REMARK VINA RESULT:     -10.5      3.337      5.145
REMARK SMILES O=C(C[C@H](c1ccsc1)n1cccc1)OCCOC(=O)c1ccc(-c2c3nc(c(-c4c(F)c(F)c(F)c(F)c4F)c4ccc([nH]4)c(-c4c(F)c(F)c(F)c(F)c4F)c4nc(c(-c5c(F)c(F)c(F)c(F)c5F)c5ccc2[nH]5)C=C4)C=C3)cc1
REMARK SMILES IDX 16 1 15 2 2 3 1 4 3 5 4 6 10 7 11 8 14 9 12 10 13 11 5 12
REMARK SMILES IDX 6 13 9 14 7 15 8 16 17 17 18 18 19 19 20 20 21 21 22 22
REMARK SMILES IDX 83 23 23 24 82 25 24 26 25 27 26 28 76 29 27 30 81 31 75 32
REMARK SMILES IDX 77 33 28 34 80 35 74 36 73 37 29 39 61 40 41 41 60 42 42 43
REMARK SMILES IDX 45 44 59 45 78 46 43 47 44 48 58 50 79 51 46 52 30 53 31 54
REMARK SMILES IDX 39 55 32 56 33 57 37 58 40 59 34 60 35 61 38 62 36 63 62 64
REMARK SMILES IDX 63 65 71 66 64 67 65 68 69 69 72 70 66 71 67 72 70 73 68 74
REMARK SMILES IDX 47 75 48 76 56 77 49 78 50 79 54 80 57 81 51 82 52 83 55 84
REMARK SMILES IDX 53 85
REMARK H PARENT 77 38 45 49
REMARK Flexibility Score: inf
ROOT
ATOM      1  C   UNL A   1      33.627  28.787  25.819  1.00  0.00     0.274 C 
ENDROOT
BRANCH   1   2
ATOM      2  O   UNL A   1      32.358  28.098  25.808  1.00  0.00    -0.462 OA
BRANCH   2   3
ATOM      3  C   UNL A   1      32.111  26.855  26.284  1.00  0.00     0.308 C 
ATOM      4  O   UNL A   1      31.061  26.613  26.874  1.00  0.00    -0.252 OA
BRANCH   3   5
ATOM      5  C   UNL A   1      33.128  25.771  26.059  1.00  0.00     0.153 C 
BRANCH   5   6
ATOM      6  C   UNL A   1      32.606  24.714  25.099  1.00  0.00     0.128 C 
BRANCH   6   7
ATOM      7  N   UNL A   1      32.607  25.242  23.721  1.00  0.00    -0.346 N 
ATOM      8  C   UNL A   1      31.490  25.300  22.918  1.00  0.00     0.086 A 
ATOM      9  C   UNL A   1      33.624  25.931  23.104  1.00  0.00     0.086 A 
ATOM     10  C   UNL A   1      31.824  25.966  21.759  1.00  0.00     0.019 A 
ATOM     11  C   UNL A   1      33.176  26.357  21.874  1.00  0.00     0.019 A 
ENDBRANCH   6   7
BRANCH   6  12
ATOM     12  C   UNL A   1      33.308  23.382  25.226  1.00  0.00    -0.014 A 
ATOM     13  C   UNL A   1      33.468  22.400  24.190  1.00  0.00     0.017 A 
ATOM     14  C   UNL A   1      33.996  22.991  26.364  1.00  0.00     0.070 A 
ATOM     15  C   UNL A   1      34.246  21.332  24.579  1.00  0.00     0.065 A 
ATOM     16  S   UNL A   1      34.791  21.490  26.188  1.00  0.00    -0.152 S 
ENDBRANCH   6  12
ENDBRANCH   5   6
ENDBRANCH   3   5
ENDBRANCH   2   3
ENDBRANCH   1   2
BRANCH   1  17
ATOM     17  C   UNL A   1      34.134  29.107  27.222  1.00  0.00     0.275 C 
BRANCH  17  18
ATOM     18  O   UNL A   1      35.539  28.889  27.352  1.00  0.00    -0.458 OA
BRANCH  18  19
ATOM     19  C   UNL A   1      36.243  29.986  27.718  1.00  0.00     0.338 C 
ATOM     20  O   UNL A   1      35.899  31.143  27.621  1.00  0.00    -0.246 OA
BRANCH  19  21
ATOM     21  C   UNL A   1      37.562  29.587  28.223  1.00  0.00     0.060 A 
ATOM     22  C   UNL A   1      38.639  29.670  27.334  1.00  0.00     0.016 A 
ATOM     23  C   UNL A   1      37.676  28.956  29.467  1.00  0.00     0.016 A 
ATOM     24  C   UNL A   1      39.804  28.996  27.636  1.00  0.00     0.010 A 
ATOM     25  C   UNL A   1      38.825  28.247  29.751  1.00  0.00     0.010 A 
ATOM     26  C   UNL A   1      39.864  28.246  28.816  1.00  0.00    -0.014 A 
BRANCH  26  27
ATOM     27  C   UNL A   1      41.122  27.564  29.137  1.00  0.00     0.031 A 
ATOM     28  C   UNL A   1      41.096  26.121  28.560  1.00  0.00     0.074 A 
ATOM     29  C   UNL A   1      42.007  28.311  29.878  1.00  0.00     0.049 A 
ATOM     30  N   UNL A   1      41.819  25.090  28.862  1.00  0.00    -0.248 NA
ATOM     31  C   UNL A   1      40.101  25.756  27.502  1.00  0.00     0.031 C 
ATOM     32  C   UNL A   1      41.822  29.738  30.263  1.00  0.00     0.029 A 
ATOM     33  N   UNL A   1      43.228  28.053  30.468  1.00  0.00    -0.354 N 
ATOM     34  C   UNL A   1      41.548  24.070  27.917  1.00  0.00     0.074 A 
ATOM     35  C   UNL A   1      40.413  24.501  27.168  1.00  0.00     0.031 C 
ATOM     36  C   UNL A   1      42.808  30.163  31.089  1.00  0.00     0.029 A 
ATOM     37  C   UNL A   1      43.751  29.085  31.311  1.00  0.00     0.049 A 
ATOM     38  H   UNL A   1      43.710  27.208  30.320  1.00  0.00     0.167 HD
ATOM     39  C   UNL A   1      42.378  23.000  27.739  1.00  0.00     0.037 A 
ATOM     40  C   UNL A   1      44.838  29.036  32.152  1.00  0.00     0.037 A 
ATOM     41  C   UNL A   1      43.403  23.035  28.723  1.00  0.00     0.049 A 
ATOM     42  C   UNL A   1      45.476  27.766  31.801  1.00  0.00     0.074 A 
ATOM     43  C   UNL A   1      43.351  22.803  30.072  1.00  0.00     0.029 A 
ATOM     44  N   UNL A   1      44.526  23.766  28.422  1.00  0.00    -0.354 N 
ATOM     45  N   UNL A   1      46.133  27.562  30.699  1.00  0.00    -0.248 NA
ATOM     46  C   UNL A   1      45.264  26.609  32.675  1.00  0.00     0.031 C 
ATOM     47  C   UNL A   1      44.129  23.855  30.586  1.00  0.00     0.029 A 
ATOM     48  C   UNL A   1      44.873  24.448  29.559  1.00  0.00     0.049 A 
ATOM     49  H   UNL A   1      44.991  23.796  27.555  1.00  0.00     0.167 HD
ATOM     50  C   UNL A   1      46.091  26.196  30.599  1.00  0.00     0.074 A 
ATOM     51  C   UNL A   1      45.871  25.685  31.936  1.00  0.00     0.031 C 
ATOM     52  C   UNL A   1      45.689  25.628  29.434  1.00  0.00     0.037 A 
BRANCH  39  53
ATOM     53  C   UNL A   1      42.542  21.994  26.636  1.00  0.00     0.064 A 
ATOM     54  C   UNL A   1      42.061  20.678  26.862  1.00  0.00     0.173 A 
ATOM     55  C   UNL A   1      43.471  22.145  25.601  1.00  0.00     0.173 A 
ATOM     56  F   UNL A   1      41.124  20.440  27.795  1.00  0.00    -0.203 F 
ATOM     57  C   UNL A   1      42.601  19.572  26.212  1.00  0.00     0.198 A 
ATOM     58  C   UNL A   1      43.973  21.034  24.914  1.00  0.00     0.198 A 
ATOM     59  F   UNL A   1      43.989  23.344  25.306  1.00  0.00    -0.203 F 
ATOM     60  F   UNL A   1      42.231  18.336  26.578  1.00  0.00    -0.200 F 
ATOM     61  C   UNL A   1      43.576  19.749  25.252  1.00  0.00     0.200 A 
ATOM     62  F   UNL A   1      44.914  21.207  23.975  1.00  0.00    -0.200 F 
ATOM     63  F   UNL A   1      44.157  18.686  24.681  1.00  0.00    -0.200 F 
ENDBRANCH  39  53
BRANCH  40  64
ATOM     64  C   UNL A   1      45.503  29.793  33.293  1.00  0.00     0.064 A 
ATOM     65  C   UNL A   1      46.795  30.326  33.306  1.00  0.00     0.173 A 
ATOM     66  C   UNL A   1      44.738  30.123  34.459  1.00  0.00     0.173 A 
ATOM     67  F   UNL A   1      47.678  30.000  32.353  1.00  0.00    -0.203 F 
ATOM     68  C   UNL A   1      47.228  31.213  34.319  1.00  0.00     0.198 A 
ATOM     69  C   UNL A   1      45.135  31.051  35.420  1.00  0.00     0.198 A 
ATOM     70  F   UNL A   1      43.552  29.551  34.711  1.00  0.00    -0.203 F 
ATOM     71  F   UNL A   1      48.477  31.701  34.293  1.00  0.00    -0.200 F 
ATOM     72  C   UNL A   1      46.380  31.616  35.342  1.00  0.00     0.200 A 
ATOM     73  F   UNL A   1      44.286  31.399  36.399  1.00  0.00    -0.200 F 
ATOM     74  F   UNL A   1      46.762  32.527  36.247  1.00  0.00    -0.200 F 
ENDBRANCH  40  64
BRANCH  52  75
ATOM     75  C   UNL A   1      45.845  26.512  28.206  1.00  0.00     0.064 A 
ATOM     76  C   UNL A   1      47.124  26.959  27.833  1.00  0.00     0.173 A 
ATOM     77  C   UNL A   1      44.779  27.027  27.447  1.00  0.00     0.173 A 
ATOM     78  F   UNL A   1      48.205  26.494  28.478  1.00  0.00    -0.203 F 
ATOM     79  C   UNL A   1      47.316  27.879  26.798  1.00  0.00     0.198 A 
ATOM     80  C   UNL A   1      44.965  27.949  26.412  1.00  0.00     0.198 A 
ATOM     81  F   UNL A   1      43.527  26.641  27.677  1.00  0.00    -0.203 F 
ATOM     82  F   UNL A   1      48.556  28.274  26.480  1.00  0.00    -0.200 F 
ATOM     83  C   UNL A   1      46.237  28.379  26.090  1.00  0.00     0.200 A 
ATOM     84  F   UNL A   1      43.909  28.409  25.722  1.00  0.00    -0.200 F 
ATOM     85  F   UNL A   1      46.424  29.251  25.089  1.00  0.00    -0.200 F 
ENDBRANCH  52  75
ENDBRANCH  26  27
ENDBRANCH  19  21
ENDBRANCH  18  19
ENDBRANCH  17  18
ENDBRANCH   1  17
TORSDOF 14
ENDMDL
