MODEL 1
REMARK VINA RESULT:     -12.7      0.000      0.000
REMARK SMILES CC1(C)CCN(C(=O)N[C@](C)(C(=O)OCCOC(=O)c2ccc(-c3c4nc(c(-c5c(F)c(F)c(F)c(F)c5F)c5ccc([nH]5)c(-c5c(F)c(F)c(F)c(F)c5F)c5nc(c(-c6c(F)c(F)c(F)c(F)c6F)c6ccc3[nH]6)C=C5)C=C4)cc2)c2ccccc2)C1
REMARK SMILES IDX 15 1 14 2 12 3 13 4 10 5 11 6 9 7 7 8 8 9 6 11 1 12 2 13
REMARK SMILES IDX 3 14 4 15 89 16 5 17 83 18 84 19 88 20 85 21 87 22 86 23
REMARK SMILES IDX 16 24 17 25 18 26 19 27 20 28 21 29 82 30 22 31 81 32 23 33
REMARK SMILES IDX 24 34 25 35 75 36 26 37 80 38 74 39 76 40 27 41 79 42 73 43
REMARK SMILES IDX 72 44 28 46 60 47 40 48 59 49 41 50 44 51 58 52 77 53 42 54
REMARK SMILES IDX 43 55 57 57 78 58 45 59 29 60 30 61 38 62 31 63 32 64 36 65
REMARK SMILES IDX 39 66 33 67 34 68 37 69 35 70 61 71 62 72 70 73 63 74 64 75
REMARK SMILES IDX 68 76 71 77 65 78 66 79 69 80 67 81 46 82 47 83 55 84 48 85
REMARK SMILES IDX 49 86 53 87 56 88 50 89 51 90 54 91 52 92
REMARK H PARENT 9 10 76 45 44 56
REMARK Flexibility Score: inf
ROOT
ATOM      1  C   UNL A   1      31.920  27.695  27.265  1.00  0.00     0.274 C 
ENDROOT
BRANCH   1   2
ATOM      2  O   UNL A   1      32.397  27.314  25.957  1.00  0.00    -0.460 OA
BRANCH   2   3
ATOM      3  C   UNL A   1      31.512  26.695  25.114  1.00  0.00     0.336 C 
ATOM      4  O   UNL A   1      30.777  25.777  25.455  1.00  0.00    -0.249 OA
BRANCH   3   5
ATOM      5  C   UNL A   1      31.511  27.394  23.701  1.00  0.00     0.162 C 
ATOM      6  C   UNL A   1      32.852  28.180  23.630  1.00  0.00     0.053 C 
BRANCH   5   7
ATOM      7  N   UNL A   1      31.615  26.406  22.572  1.00  0.00    -0.318 N 
ATOM      8  C   UNL A   1      32.627  25.570  22.254  1.00  0.00     0.318 C 
ATOM      9  O   UNL A   1      33.294  25.873  21.260  1.00  0.00    -0.249 OA
ATOM     10  H   UNL A   1      30.830  26.362  21.978  1.00  0.00     0.166 HD
BRANCH   8  11
ATOM     11  N   UNL A   1      32.773  24.355  22.864  1.00  0.00    -0.324 N 
ATOM     12  C   UNL A   1      32.286  20.824  23.255  1.00  0.00     0.013 C 
ATOM     13  C   UNL A   1      32.531  22.193  23.897  1.00  0.00    -0.016 C 
ATOM     14  C   UNL A   1      32.094  22.095  25.366  1.00  0.00     0.013 C 
ATOM     15  C   UNL A   1      34.019  22.596  23.856  1.00  0.00     0.030 C 
ATOM     16  C   UNL A   1      31.797  23.301  23.093  1.00  0.00     0.127 C 
ATOM     17  C   UNL A   1      34.105  23.792  22.927  1.00  0.00     0.122 C 
ENDBRANCH   8  11
ENDBRANCH   5   7
BRANCH   5  18
ATOM     18  C   UNL A   1      30.292  28.306  23.581  1.00  0.00    -0.012 A 
ATOM     19  C   UNL A   1      29.058  27.746  23.221  1.00  0.00     0.007 A 
ATOM     20  C   UNL A   1      30.357  29.704  23.748  1.00  0.00     0.007 A 
ATOM     21  C   UNL A   1      27.976  28.568  22.923  1.00  0.00     0.000 A 
ATOM     22  C   UNL A   1      29.249  30.516  23.497  1.00  0.00     0.000 A 
ATOM     23  C   UNL A   1      28.067  29.947  23.055  1.00  0.00     0.000 A 
ENDBRANCH   5  18
ENDBRANCH   3   5
ENDBRANCH   2   3
ENDBRANCH   1   2
BRANCH   1  24
ATOM     24  C   UNL A   1      31.606  29.192  27.242  1.00  0.00     0.275 C 
BRANCH  24  25
ATOM     25  O   UNL A   1      32.668  29.849  26.524  1.00  0.00    -0.458 OA
BRANCH  25  26
ATOM     26  C   UNL A   1      33.170  30.995  27.034  1.00  0.00     0.338 C 
ATOM     27  O   UNL A   1      32.561  32.047  27.199  1.00  0.00    -0.246 OA
BRANCH  26  28
ATOM     28  C   UNL A   1      34.587  30.785  27.435  1.00  0.00     0.060 A 
ATOM     29  C   UNL A   1      35.118  29.504  27.504  1.00  0.00     0.016 A 
ATOM     30  C   UNL A   1      35.383  31.851  27.859  1.00  0.00     0.016 A 
ATOM     31  C   UNL A   1      36.351  29.286  28.128  1.00  0.00     0.010 A 
ATOM     32  C   UNL A   1      36.660  31.618  28.419  1.00  0.00     0.010 A 
ATOM     33  C   UNL A   1      37.134  30.316  28.675  1.00  0.00    -0.014 A 
BRANCH  33  34
ATOM     34  C   UNL A   1      38.304  30.051  29.618  1.00  0.00     0.031 A 
ATOM     35  C   UNL A   1      39.544  29.307  29.119  1.00  0.00     0.074 A 
ATOM     36  C   UNL A   1      38.416  30.547  30.878  1.00  0.00     0.049 A 
ATOM     37  N   UNL A   1      40.473  28.677  29.803  1.00  0.00    -0.248 NA
ATOM     38  C   UNL A   1      39.777  29.273  27.666  1.00  0.00     0.031 C 
ATOM     39  C   UNL A   1      37.460  31.408  31.569  1.00  0.00     0.029 A 
ATOM     40  N   UNL A   1      39.441  30.424  31.802  1.00  0.00    -0.354 N 
ATOM     41  C   UNL A   1      41.301  28.066  28.867  1.00  0.00     0.074 A 
ATOM     42  C   UNL A   1      40.811  28.450  27.563  1.00  0.00     0.031 C 
ATOM     43  C   UNL A   1      37.996  31.851  32.716  1.00  0.00     0.029 A 
ATOM     44  C   UNL A   1      39.244  31.142  32.960  1.00  0.00     0.049 A 
ATOM     45  H   UNL A   1      40.240  29.871  31.645  1.00  0.00     0.167 HD
ATOM     46  C   UNL A   1      42.361  27.244  29.069  1.00  0.00     0.037 A 
ATOM     47  C   UNL A   1      39.914  31.173  34.132  1.00  0.00     0.037 A 
ATOM     48  C   UNL A   1      42.961  26.971  30.350  1.00  0.00     0.049 A 
ATOM     49  C   UNL A   1      41.053  30.219  34.372  1.00  0.00     0.074 A 
ATOM     50  C   UNL A   1      43.982  26.087  30.663  1.00  0.00     0.029 A 
ATOM     51  N   UNL A   1      42.646  27.639  31.519  1.00  0.00    -0.354 N 
ATOM     52  N   UNL A   1      41.647  29.409  33.535  1.00  0.00    -0.248 NA
ATOM     53  C   UNL A   1      41.563  30.135  35.751  1.00  0.00     0.031 C 
ATOM     54  C   UNL A   1      44.282  26.217  32.023  1.00  0.00     0.029 A 
ATOM     55  C   UNL A   1      43.466  27.203  32.549  1.00  0.00     0.049 A 
ATOM     56  H   UNL A   1      41.944  28.323  31.607  1.00  0.00     0.167 HD
ATOM     57  C   UNL A   1      42.590  28.716  34.285  1.00  0.00     0.074 A 
ATOM     58  C   UNL A   1      42.521  29.226  35.635  1.00  0.00     0.031 C 
ATOM     59  C   UNL A   1      43.419  27.721  33.888  1.00  0.00     0.037 A 
BRANCH  46  60
ATOM     60  C   UNL A   1      42.916  26.507  27.884  1.00  0.00     0.064 A 
ATOM     61  C   UNL A   1      42.420  25.267  27.466  1.00  0.00     0.173 A 
ATOM     62  C   UNL A   1      43.922  27.109  27.110  1.00  0.00     0.173 A 
ATOM     63  F   UNL A   1      41.470  24.645  28.179  1.00  0.00    -0.203 F 
ATOM     64  C   UNL A   1      42.922  24.647  26.323  1.00  0.00     0.198 A 
ATOM     65  C   UNL A   1      44.401  26.501  25.953  1.00  0.00     0.198 A 
ATOM     66  F   UNL A   1      44.422  28.304  27.462  1.00  0.00    -0.203 F 
ATOM     67  F   UNL A   1      42.458  23.444  25.956  1.00  0.00    -0.200 F 
ATOM     68  C   UNL A   1      43.904  25.268  25.563  1.00  0.00     0.200 A 
ATOM     69  F   UNL A   1      45.337  27.113  25.214  1.00  0.00    -0.200 F 
ATOM     70  F   UNL A   1      44.372  24.677  24.455  1.00  0.00    -0.200 F 
ENDBRANCH  46  60
BRANCH  47  71
ATOM     71  C   UNL A   1      39.459  32.056  35.245  1.00  0.00     0.064 A 
ATOM     72  C   UNL A   1      39.971  33.356  35.387  1.00  0.00     0.173 A 
ATOM     73  C   UNL A   1      38.555  31.605  36.220  1.00  0.00     0.173 A 
ATOM     74  F   UNL A   1      40.877  33.818  34.514  1.00  0.00    -0.203 F 
ATOM     75  C   UNL A   1      39.598  34.163  36.463  1.00  0.00     0.198 A 
ATOM     76  C   UNL A   1      38.151  32.428  37.268  1.00  0.00     0.198 A 
ATOM     77  F   UNL A   1      38.055  30.363  36.150  1.00  0.00    -0.203 F 
ATOM     78  F   UNL A   1      40.149  35.375  36.608  1.00  0.00    -0.200 F 
ATOM     79  C   UNL A   1      38.681  33.703  37.394  1.00  0.00     0.200 A 
ATOM     80  F   UNL A   1      37.256  31.981  38.159  1.00  0.00    -0.200 F 
ATOM     81  F   UNL A   1      38.319  34.480  38.424  1.00  0.00    -0.200 F 
ENDBRANCH  47  71
BRANCH  59  82
ATOM     82  C   UNL A   1      44.343  27.137  34.912  1.00  0.00     0.064 A 
ATOM     83  C   UNL A   1      45.589  27.718  35.190  1.00  0.00     0.173 A 
ATOM     84  C   UNL A   1      43.972  25.997  35.642  1.00  0.00     0.173 A 
ATOM     85  F   UNL A   1      45.995  28.799  34.507  1.00  0.00    -0.203 F 
ATOM     86  C   UNL A   1      46.439  27.169  36.146  1.00  0.00     0.198 A 
ATOM     87  C   UNL A   1      44.816  25.462  36.611  1.00  0.00     0.198 A 
ATOM     88  F   UNL A   1      42.791  25.404  35.415  1.00  0.00    -0.203 F 
ATOM     89  F   UNL A   1      47.642  27.718  36.365  1.00  0.00    -0.200 F 
ATOM     90  C   UNL A   1      46.051  26.044  36.859  1.00  0.00     0.200 A 
ATOM     91  F   UNL A   1      44.438  24.379  37.305  1.00  0.00    -0.200 F 
ATOM     92  F   UNL A   1      46.871  25.516  37.778  1.00  0.00    -0.200 F 
ENDBRANCH  59  82
ENDBRANCH  33  34
ENDBRANCH  26  28
ENDBRANCH  25  26
ENDBRANCH  24  25
ENDBRANCH   1  24
TORSDOF 14
ENDMDL
MODEL 2
REMARK VINA RESULT:     -12.6      1.022      3.555
REMARK SMILES CC1(C)CCN(C(=O)N[C@](C)(C(=O)OCCOC(=O)c2ccc(-c3c4nc(c(-c5c(F)c(F)c(F)c(F)c5F)c5ccc([nH]5)c(-c5c(F)c(F)c(F)c(F)c5F)c5nc(c(-c6c(F)c(F)c(F)c(F)c6F)c6ccc3[nH]6)C=C5)C=C4)cc2)c2ccccc2)C1
REMARK SMILES IDX 15 1 14 2 12 3 13 4 10 5 11 6 9 7 7 8 8 9 6 11 1 12 2 13
REMARK SMILES IDX 3 14 4 15 89 16 5 17 83 18 84 19 88 20 85 21 87 22 86 23
REMARK SMILES IDX 16 24 17 25 18 26 19 27 20 28 21 29 82 30 22 31 81 32 23 33
REMARK SMILES IDX 24 34 25 35 75 36 26 37 80 38 74 39 76 40 27 41 79 42 73 43
REMARK SMILES IDX 72 44 28 46 60 47 40 48 59 49 41 50 44 51 58 52 77 53 42 54
REMARK SMILES IDX 43 55 57 57 78 58 45 59 29 60 30 61 38 62 31 63 32 64 36 65
REMARK SMILES IDX 39 66 33 67 34 68 37 69 35 70 61 71 62 72 70 73 63 74 64 75
REMARK SMILES IDX 68 76 71 77 65 78 66 79 69 80 67 81 46 82 47 83 55 84 48 85
REMARK SMILES IDX 49 86 53 87 56 88 50 89 51 90 54 91 52 92
REMARK H PARENT 9 10 76 45 44 56
REMARK Flexibility Score: inf
ROOT
ATOM      1  C   UNL A   1      31.492  27.340  26.312  1.00  0.00     0.274 C 
ENDROOT
BRANCH   1   2
ATOM      2  O   UNL A   1      32.765  26.720  26.032  1.00  0.00    -0.460 OA
BRANCH   2   3
ATOM      3  C   UNL A   1      32.763  25.395  25.683  1.00  0.00     0.336 C 
ATOM      4  O   UNL A   1      32.192  24.523  26.325  1.00  0.00    -0.249 OA
BRANCH   3   5
ATOM      5  C   UNL A   1      33.503  25.184  24.307  1.00  0.00     0.162 C 
ATOM      6  C   UNL A   1      32.479  24.444  23.398  1.00  0.00     0.053 C 
BRANCH   5   7
ATOM      7  N   UNL A   1      33.752  26.480  23.584  1.00  0.00    -0.318 N 
ATOM      8  C   UNL A   1      33.104  27.008  22.523  1.00  0.00     0.318 C 
ATOM      9  O   UNL A   1      33.708  26.981  21.447  1.00  0.00    -0.249 OA
ATOM     10  H   UNL A   1      34.494  27.022  23.937  1.00  0.00     0.166 HD
BRANCH   8  11
ATOM     11  N   UNL A   1      31.945  27.719  22.670  1.00  0.00    -0.324 N 
ATOM     12  C   UNL A   1      29.445  30.110  21.727  1.00  0.00     0.013 C 
ATOM     13  C   UNL A   1      30.196  29.366  22.835  1.00  0.00    -0.016 C 
ATOM     14  C   UNL A   1      30.041  30.186  24.125  1.00  0.00     0.013 C 
ATOM     15  C   UNL A   1      29.621  27.956  23.082  1.00  0.00     0.030 C 
ATOM     16  C   UNL A   1      31.671  29.125  22.415  1.00  0.00     0.127 C 
ATOM     17  C   UNL A   1      30.700  26.981  22.652  1.00  0.00     0.122 C 
ENDBRANCH   8  11
ENDBRANCH   5   7
BRANCH   5  18
ATOM     18  C   UNL A   1      34.779  24.375  24.529  1.00  0.00    -0.012 A 
ATOM     19  C   UNL A   1      35.243  23.544  23.499  1.00  0.00     0.007 A 
ATOM     20  C   UNL A   1      35.483  24.369  25.749  1.00  0.00     0.007 A 
ATOM     21  C   UNL A   1      36.290  22.658  23.733  1.00  0.00     0.000 A 
ATOM     22  C   UNL A   1      36.568  23.514  25.955  1.00  0.00     0.000 A 
ATOM     23  C   UNL A   1      36.950  22.636  24.955  1.00  0.00     0.000 A 
ENDBRANCH   5  18
ENDBRANCH   3   5
ENDBRANCH   2   3
ENDBRANCH   1   2
BRANCH   1  24
ATOM     24  C   UNL A   1      31.745  28.594  27.151  1.00  0.00     0.275 C 
BRANCH  24  25
ATOM     25  O   UNL A   1      32.472  29.527  26.328  1.00  0.00    -0.458 OA
BRANCH  25  26
ATOM     26  C   UNL A   1      32.882  30.687  26.888  1.00  0.00     0.338 C 
ATOM     27  O   UNL A   1      32.187  31.671  27.118  1.00  0.00    -0.246 OA
BRANCH  26  28
ATOM     28  C   UNL A   1      34.320  30.584  27.254  1.00  0.00     0.060 A 
ATOM     29  C   UNL A   1      34.983  29.367  27.174  1.00  0.00     0.016 A 
ATOM     30  C   UNL A   1      35.008  31.674  27.793  1.00  0.00     0.016 A 
ATOM     31  C   UNL A   1      36.243  29.211  27.762  1.00  0.00     0.010 A 
ATOM     32  C   UNL A   1      36.312  31.516  28.314  1.00  0.00     0.010 A 
ATOM     33  C   UNL A   1      36.924  30.251  28.418  1.00  0.00    -0.014 A 
BRANCH  33  34
ATOM     34  C   UNL A   1      38.132  30.006  29.319  1.00  0.00     0.031 A 
ATOM     35  C   UNL A   1      39.360  29.271  28.779  1.00  0.00     0.074 A 
ATOM     36  C   UNL A   1      38.286  30.515  30.568  1.00  0.00     0.049 A 
ATOM     37  N   UNL A   1      40.321  28.657  29.432  1.00  0.00    -0.248 NA
ATOM     38  C   UNL A   1      39.537  29.226  27.318  1.00  0.00     0.031 C 
ATOM     39  C   UNL A   1      37.348  31.372  31.288  1.00  0.00     0.029 A 
ATOM     40  N   UNL A   1      39.347  30.410  31.453  1.00  0.00    -0.354 N 
ATOM     41  C   UNL A   1      41.119  28.045  28.470  1.00  0.00     0.074 A 
ATOM     42  C   UNL A   1      40.575  28.413  27.183  1.00  0.00     0.031 C 
ATOM     43  C   UNL A   1      37.923  31.831  32.410  1.00  0.00     0.029 A 
ATOM     44  C   UNL A   1      39.187  31.137  32.613  1.00  0.00     0.049 A 
ATOM     45  H   UNL A   1      40.146  29.864  31.271  1.00  0.00     0.167 HD
ATOM     46  C   UNL A   1      42.195  27.236  28.639  1.00  0.00     0.037 A 
ATOM     47  C   UNL A   1      39.901  31.186  33.757  1.00  0.00     0.037 A 
ATOM     48  C   UNL A   1      42.846  26.981  29.899  1.00  0.00     0.049 A 
ATOM     49  C   UNL A   1      41.058  30.245  33.962  1.00  0.00     0.074 A 
ATOM     50  C   UNL A   1      43.887  26.110  30.180  1.00  0.00     0.029 A 
ATOM     51  N   UNL A   1      42.569  27.656  31.073  1.00  0.00    -0.354 N 
ATOM     52  N   UNL A   1      41.629  29.434  33.110  1.00  0.00    -0.248 NA
ATOM     53  C   UNL A   1      41.621  30.179  35.321  1.00  0.00     0.031 C 
ATOM     54  C   UNL A   1      44.237  26.256  31.526  1.00  0.00     0.029 A 
ATOM     55  C   UNL A   1      43.431  27.238  32.074  1.00  0.00     0.049 A 
ATOM     56  H   UNL A   1      41.863  28.334  31.181  1.00  0.00     0.167 HD
ATOM     57  C   UNL A   1      42.607  28.757  33.829  1.00  0.00     0.074 A 
ATOM     58  C   UNL A   1      42.584  29.280  35.176  1.00  0.00     0.031 C 
ATOM     59  C   UNL A   1      43.431  27.767  33.410  1.00  0.00     0.037 A 
BRANCH  46  60
ATOM     60  C   UNL A   1      42.712  26.494  27.440  1.00  0.00     0.064 A 
ATOM     61  C   UNL A   1      43.766  26.971  26.654  1.00  0.00     0.173 A 
ATOM     62  C   UNL A   1      42.174  25.234  27.128  1.00  0.00     0.173 A 
ATOM     63  F   UNL A   1      44.304  28.173  26.902  1.00  0.00    -0.203 F 
ATOM     64  C   UNL A   1      44.256  26.218  25.587  1.00  0.00     0.198 A 
ATOM     65  C   UNL A   1      42.684  24.473  26.080  1.00  0.00     0.198 A 
ATOM     66  F   UNL A   1      41.170  24.727  27.860  1.00  0.00    -0.203 F 
ATOM     67  F   UNL A   1      45.246  26.706  24.825  1.00  0.00    -0.200 F 
ATOM     68  C   UNL A   1      43.722  24.968  25.307  1.00  0.00     0.200 A 
ATOM     69  F   UNL A   1      42.176  23.259  25.824  1.00  0.00    -0.200 F 
ATOM     70  F   UNL A   1      44.207  24.241  24.291  1.00  0.00    -0.200 F 
ENDBRANCH  46  60
BRANCH  47  71
ATOM     71  C   UNL A   1      39.479  32.074  34.880  1.00  0.00     0.064 A 
ATOM     72  C   UNL A   1      38.628  31.599  35.890  1.00  0.00     0.173 A 
ATOM     73  C   UNL A   1      39.862  33.423  34.935  1.00  0.00     0.173 A 
ATOM     74  F   UNL A   1      38.189  30.333  35.857  1.00  0.00    -0.203 F 
ATOM     75  C   UNL A   1      38.178  32.442  36.907  1.00  0.00     0.198 A 
ATOM     76  C   UNL A   1      39.447  34.251  35.974  1.00  0.00     0.198 A 
ATOM     77  F   UNL A   1      40.651  33.938  33.980  1.00  0.00    -0.203 F 
ATOM     78  F   UNL A   1      37.318  31.979  37.824  1.00  0.00    -0.200 F 
ATOM     79  C   UNL A   1      38.596  33.762  36.954  1.00  0.00     0.200 A 
ATOM     80  F   UNL A   1      39.863  35.523  36.020  1.00  0.00    -0.200 F 
ATOM     81  F   UNL A   1      38.168  34.571  37.933  1.00  0.00    -0.200 F 
ENDBRANCH  47  71
BRANCH  59  82
ATOM     82  C   UNL A   1      44.399  27.202  34.403  1.00  0.00     0.064 A 
ATOM     83  C   UNL A   1      45.637  27.815  34.648  1.00  0.00     0.173 A 
ATOM     84  C   UNL A   1      44.080  26.049  35.135  1.00  0.00     0.173 A 
ATOM     85  F   UNL A   1      45.994  28.910  33.960  1.00  0.00    -0.203 F 
ATOM     86  C   UNL A   1      46.529  27.283  35.576  1.00  0.00     0.198 A 
ATOM     87  C   UNL A   1      44.965  25.531  36.077  1.00  0.00     0.198 A 
ATOM     88  F   UNL A   1      42.908  25.426  34.939  1.00  0.00    -0.203 F 
ATOM     89  F   UNL A   1      47.722  27.862  35.763  1.00  0.00    -0.200 F 
ATOM     90  C   UNL A   1      46.191  26.145  36.292  1.00  0.00     0.200 A 
ATOM     91  F   UNL A   1      44.636  24.435  36.774  1.00  0.00    -0.200 F 
ATOM     92  F   UNL A   1      47.051  25.633  37.184  1.00  0.00    -0.200 F 
ENDBRANCH  59  82
ENDBRANCH  33  34
ENDBRANCH  26  28
ENDBRANCH  25  26
ENDBRANCH  24  25
ENDBRANCH   1  24
TORSDOF 14
ENDMDL
MODEL 3
REMARK VINA RESULT:     -12.6      1.257      2.854
REMARK SMILES CC1(C)CCN(C(=O)N[C@](C)(C(=O)OCCOC(=O)c2ccc(-c3c4nc(c(-c5c(F)c(F)c(F)c(F)c5F)c5ccc([nH]5)c(-c5c(F)c(F)c(F)c(F)c5F)c5nc(c(-c6c(F)c(F)c(F)c(F)c6F)c6ccc3[nH]6)C=C5)C=C4)cc2)c2ccccc2)C1
REMARK SMILES IDX 15 1 14 2 12 3 13 4 10 5 11 6 9 7 7 8 8 9 6 11 1 12 2 13
REMARK SMILES IDX 3 14 4 15 89 16 5 17 83 18 84 19 88 20 85 21 87 22 86 23
REMARK SMILES IDX 16 24 17 25 18 26 19 27 20 28 21 29 82 30 22 31 81 32 23 33
REMARK SMILES IDX 24 34 25 35 75 36 26 37 80 38 74 39 76 40 27 41 79 42 73 43
REMARK SMILES IDX 72 44 28 46 60 47 40 48 59 49 41 50 44 51 58 52 77 53 42 54
REMARK SMILES IDX 43 55 57 57 78 58 45 59 29 60 30 61 38 62 31 63 32 64 36 65
REMARK SMILES IDX 39 66 33 67 34 68 37 69 35 70 61 71 62 72 70 73 63 74 64 75
REMARK SMILES IDX 68 76 71 77 65 78 66 79 69 80 67 81 46 82 47 83 55 84 48 85
REMARK SMILES IDX 49 86 53 87 56 88 50 89 51 90 54 91 52 92
REMARK H PARENT 9 10 76 45 44 56
REMARK Flexibility Score: inf
ROOT
ATOM      1  C   UNL A   1      32.512  28.878  24.039  1.00  0.00     0.274 C 
ENDROOT
BRANCH   1   2
ATOM      2  O   UNL A   1      33.048  27.669  24.618  1.00  0.00    -0.460 OA
BRANCH   2   3
ATOM      3  C   UNL A   1      32.785  26.487  23.977  1.00  0.00     0.336 C 
ATOM      4  O   UNL A   1      32.519  26.405  22.785  1.00  0.00    -0.249 OA
BRANCH   3   5
ATOM      5  C   UNL A   1      32.971  25.270  24.962  1.00  0.00     0.162 C 
ATOM      6  C   UNL A   1      32.920  25.885  26.390  1.00  0.00     0.053 C 
BRANCH   5   7
ATOM      7  N   UNL A   1      31.800  24.326  24.936  1.00  0.00    -0.318 N 
ATOM      8  C   UNL A   1      31.482  23.378  24.026  1.00  0.00     0.318 C 
ATOM      9  O   UNL A   1      30.531  23.634  23.283  1.00  0.00    -0.249 OA
ATOM     10  H   UNL A   1      31.176  24.410  25.692  1.00  0.00     0.166 HD
BRANCH   8  11
ATOM     11  N   UNL A   1      32.038  22.130  24.066  1.00  0.00    -0.324 N 
ATOM     12  C   UNL A   1      32.461  18.787  25.291  1.00  0.00     0.013 C 
ATOM     13  C   UNL A   1      33.067  20.026  24.625  1.00  0.00    -0.016 C 
ATOM     14  C   UNL A   1      34.590  19.947  24.809  1.00  0.00     0.013 C 
ATOM     15  C   UNL A   1      32.762  20.081  23.114  1.00  0.00     0.030 C 
ATOM     16  C   UNL A   1      32.427  21.315  25.207  1.00  0.00     0.127 C 
ATOM     17  C   UNL A   1      31.849  21.275  22.913  1.00  0.00     0.122 C 
ENDBRANCH   8  11
ENDBRANCH   5   7
BRANCH   5  18
ATOM     18  C   UNL A   1      34.300  24.575  24.672  1.00  0.00    -0.012 A 
ATOM     19  C   UNL A   1      34.534  24.069  23.385  1.00  0.00     0.007 A 
ATOM     20  C   UNL A   1      35.283  24.353  25.656  1.00  0.00     0.007 A 
ATOM     21  C   UNL A   1      35.648  23.272  23.138  1.00  0.00     0.000 A 
ATOM     22  C   UNL A   1      36.424  23.596  25.383  1.00  0.00     0.000 A 
ATOM     23  C   UNL A   1      36.589  23.030  24.130  1.00  0.00     0.000 A 
ENDBRANCH   5  18
ENDBRANCH   3   5
ENDBRANCH   2   3
ENDBRANCH   1   2
BRANCH   1  24
ATOM     24  C   UNL A   1      31.576  29.524  25.062  1.00  0.00     0.275 C 
BRANCH  24  25
ATOM     25  O   UNL A   1      32.245  29.503  26.338  1.00  0.00    -0.458 OA
BRANCH  25  26
ATOM     26  C   UNL A   1      32.687  30.674  26.847  1.00  0.00     0.338 C 
ATOM     27  O   UNL A   1      32.018  31.684  27.039  1.00  0.00    -0.246 OA
BRANCH  26  28
ATOM     28  C   UNL A   1      34.124  30.550  27.210  1.00  0.00     0.060 A 
ATOM     29  C   UNL A   1      34.744  29.308  27.222  1.00  0.00     0.016 A 
ATOM     30  C   UNL A   1      34.855  31.655  27.654  1.00  0.00     0.016 A 
ATOM     31  C   UNL A   1      36.004  29.156  27.811  1.00  0.00     0.010 A 
ATOM     32  C   UNL A   1      36.157  31.493  28.177  1.00  0.00     0.010 A 
ATOM     33  C   UNL A   1      36.727  30.220  28.377  1.00  0.00    -0.014 A 
BRANCH  33  34
ATOM     34  C   UNL A   1      37.935  30.006  29.285  1.00  0.00     0.031 A 
ATOM     35  C   UNL A   1      39.181  29.293  28.756  1.00  0.00     0.074 A 
ATOM     36  C   UNL A   1      38.071  30.524  30.533  1.00  0.00     0.049 A 
ATOM     37  N   UNL A   1      40.151  28.703  29.418  1.00  0.00    -0.248 NA
ATOM     38  C   UNL A   1      39.367  29.244  27.296  1.00  0.00     0.031 C 
ATOM     39  C   UNL A   1      37.112  31.365  31.242  1.00  0.00     0.029 A 
ATOM     40  N   UNL A   1      39.129  30.446  31.424  1.00  0.00    -0.354 N 
ATOM     41  C   UNL A   1      40.967  28.103  28.463  1.00  0.00     0.074 A 
ATOM     42  C   UNL A   1      40.422  28.452  27.171  1.00  0.00     0.031 C 
ATOM     43  C   UNL A   1      37.671  31.842  32.365  1.00  0.00     0.029 A 
ATOM     44  C   UNL A   1      38.948  31.176  32.578  1.00  0.00     0.049 A 
ATOM     45  H   UNL A   1      39.941  29.916  31.249  1.00  0.00     0.167 HD
ATOM     46  C   UNL A   1      42.059  27.317  28.642  1.00  0.00     0.037 A 
ATOM     47  C   UNL A   1      39.655  31.246  33.726  1.00  0.00     0.037 A 
ATOM     48  C   UNL A   1      42.708  27.083  29.906  1.00  0.00     0.049 A 
ATOM     49  C   UNL A   1      40.830  30.331  33.942  1.00  0.00     0.074 A 
ATOM     50  C   UNL A   1      43.766  26.236  30.197  1.00  0.00     0.029 A 
ATOM     51  N   UNL A   1      42.410  27.758  31.075  1.00  0.00    -0.354 N 
ATOM     52  N   UNL A   1      41.423  29.527  33.097  1.00  0.00    -0.248 NA
ATOM     53  C   UNL A   1      41.388  30.284  35.304  1.00  0.00     0.031 C 
ATOM     54  C   UNL A   1      44.106  26.396  31.545  1.00  0.00     0.029 A 
ATOM     55  C   UNL A   1      43.276  27.364  32.083  1.00  0.00     0.049 A 
ATOM     56  H   UNL A   1      41.690  28.422  31.176  1.00  0.00     0.167 HD
ATOM     57  C   UNL A   1      42.411  28.875  33.826  1.00  0.00     0.074 A 
ATOM     58  C   UNL A   1      42.370  29.404  35.170  1.00  0.00     0.031 C 
ATOM     59  C   UNL A   1      43.257  27.900  33.416  1.00  0.00     0.037 A 
BRANCH  46  60
ATOM     60  C   UNL A   1      42.597  26.580  27.450  1.00  0.00     0.064 A 
ATOM     61  C   UNL A   1      43.648  27.073  26.668  1.00  0.00     0.173 A 
ATOM     62  C   UNL A   1      42.085  25.309  27.140  1.00  0.00     0.173 A 
ATOM     63  F   UNL A   1      44.162  28.287  26.915  1.00  0.00    -0.203 F 
ATOM     64  C   UNL A   1      44.159  26.325  25.608  1.00  0.00     0.198 A 
ATOM     65  C   UNL A   1      42.616  24.553  26.098  1.00  0.00     0.198 A 
ATOM     66  F   UNL A   1      41.086  24.786  27.867  1.00  0.00    -0.203 F 
ATOM     67  F   UNL A   1      45.145  26.828  24.851  1.00  0.00    -0.200 F 
ATOM     68  C   UNL A   1      43.650  25.064  25.331  1.00  0.00     0.200 A 
ATOM     69  F   UNL A   1      42.133  23.329  25.845  1.00  0.00    -0.200 F 
ATOM     70  F   UNL A   1      44.155  24.342  24.321  1.00  0.00    -0.200 F 
ENDBRANCH  46  60
BRANCH  47  71
ATOM     71  C   UNL A   1      39.208  32.131  34.842  1.00  0.00     0.064 A 
ATOM     72  C   UNL A   1      39.570  33.487  34.871  1.00  0.00     0.173 A 
ATOM     73  C   UNL A   1      38.468  31.633  35.924  1.00  0.00     0.173 A 
ATOM     74  F   UNL A   1      40.322  34.002  33.888  1.00  0.00    -0.203 F 
ATOM     75  C   UNL A   1      39.211  34.305  35.943  1.00  0.00     0.198 A 
ATOM     76  C   UNL A   1      38.073  32.461  36.972  1.00  0.00     0.198 A 
ATOM     77  F   UNL A   1      38.118  30.339  35.962  1.00  0.00    -0.203 F 
ATOM     78  F   UNL A   1      39.622  35.579  35.976  1.00  0.00    -0.200 F 
ATOM     79  C   UNL A   1      38.454  33.794  36.985  1.00  0.00     0.200 A 
ATOM     80  F   UNL A   1      37.332  31.965  37.971  1.00  0.00    -0.200 F 
ATOM     81  F   UNL A   1      38.104  34.581  38.013  1.00  0.00    -0.200 F 
ENDBRANCH  47  71
BRANCH  59  82
ATOM     82  C   UNL A   1      44.232  27.361  34.417  1.00  0.00     0.064 A 
ATOM     83  C   UNL A   1      45.475  27.974  34.631  1.00  0.00     0.173 A 
ATOM     84  C   UNL A   1      43.913  26.234  35.189  1.00  0.00     0.173 A 
ATOM     85  F   UNL A   1      45.833  29.045  33.906  1.00  0.00    -0.203 F 
ATOM     86  C   UNL A   1      46.373  27.466  35.567  1.00  0.00     0.198 A 
ATOM     87  C   UNL A   1      44.805  25.740  36.137  1.00  0.00     0.198 A 
ATOM     88  F   UNL A   1      42.737  25.612  35.024  1.00  0.00    -0.203 F 
ATOM     89  F   UNL A   1      47.572  28.044  35.724  1.00  0.00    -0.200 F 
ATOM     90  C   UNL A   1      46.036  26.353  36.321  1.00  0.00     0.200 A 
ATOM     91  F   UNL A   1      44.476  24.668  36.872  1.00  0.00    -0.200 F 
ATOM     92  F   UNL A   1      46.902  25.864  37.221  1.00  0.00    -0.200 F 
ENDBRANCH  59  82
ENDBRANCH  33  34
ENDBRANCH  26  28
ENDBRANCH  25  26
ENDBRANCH  24  25
ENDBRANCH   1  24
TORSDOF 14
ENDMDL
