MODEL 1
REMARK VINA RESULT:     -11.5      0.000      0.000
REMARK SMILES CC[NH2+][C@]1(C(=O)OCCOC(=O)c2ccc(-c3c4nc(c(-c5c(F)c(F)c(F)c(F)c5F)c5ccc([nH]5)c(-c5c(F)c(F)c(F)c(F)c5F)c5nc(c(-c6c(F)c(F)c(F)c(F)c6F)c6ccc3[nH]6)C=C5)C=C4)cc2)CCC[C@H]1CCSc1n[nH]c(=O)n1C
REMARK SMILES IDX 8 1 7 2 5 3 6 4 4 5 76 6 79 7 77 8 78 9 3 10 2 13 1 14 80 15
REMARK SMILES IDX 81 16 82 17 83 18 84 19 88 20 85 21 86 22 89 23 87 25 9 26
REMARK SMILES IDX 10 27 11 28 12 29 13 30 14 31 75 32 15 33 74 34 16 35 17 36
REMARK SMILES IDX 18 37 68 38 19 39 73 40 67 41 69 42 20 43 72 44 66 45 65 46
REMARK SMILES IDX 21 48 53 49 33 50 52 51 34 52 37 53 51 54 70 55 35 56 36 57
REMARK SMILES IDX 50 59 71 60 38 61 22 62 23 63 31 64 24 65 25 66 29 67 32 68
REMARK SMILES IDX 26 69 27 70 30 71 28 72 54 73 55 74 63 75 56 76 57 77 61 78
REMARK SMILES IDX 64 79 58 80 59 81 62 82 60 83 39 84 40 85 48 86 41 87 42 88
REMARK SMILES IDX 46 89 49 90 43 91 44 92 47 93 45 94
REMARK H PARENT 3 11 3 12 85 24 69 47 37 58
REMARK Flexibility Score: inf
ROOT
ATOM      1  C   UNL A   1      31.768  28.467  26.831  1.00  0.00     0.274 C 
ENDROOT
BRANCH   1   2
ATOM      2  O   UNL A   1      32.526  27.583  25.976  1.00  0.00    -0.457 OA
BRANCH   2   3
ATOM      3  C   UNL A   1      31.834  26.578  25.383  1.00  0.00     0.368 C 
ATOM      4  O   UNL A   1      30.844  26.047  25.879  1.00  0.00    -0.245 OA
BRANCH   3   5
ATOM      5  C   UNL A   1      32.517  26.063  24.089  1.00  0.00     0.197 C 
ATOM      6  C   UNL A   1      31.953  24.682  23.694  1.00  0.00     0.081 C 
ATOM      7  C   UNL A   1      32.319  26.844  22.744  1.00  0.00     0.063 C 
ATOM      8  C   UNL A   1      32.540  24.402  22.328  1.00  0.00     0.008 C 
ATOM      9  C   UNL A   1      32.500  25.757  21.635  1.00  0.00     0.011 C 
BRANCH   5  10
ATOM     10  N   UNL A   1      33.993  26.015  24.344  1.00  0.00    -0.332 N 
ATOM     11  H   UNL A   1      34.466  25.880  23.451  1.00  0.00     0.347 HD
ATOM     12  H   UNL A   1      34.235  26.896  24.798  1.00  0.00     0.347 HD
BRANCH  10  13
ATOM     13  C   UNL A   1      34.420  24.948  25.254  1.00  0.00     0.257 C 
ATOM     14  C   UNL A   1      35.449  24.058  24.576  1.00  0.00     0.071 C 
ENDBRANCH  10  13
ENDBRANCH   5  10
BRANCH   7  15
ATOM     15  C   UNL A   1      31.001  27.620  22.490  1.00  0.00     0.022 C 
BRANCH  15  16
ATOM     16  C   UNL A   1      31.019  29.159  22.590  1.00  0.00     0.079 C 
BRANCH  16  17
ATOM     17  S   UNL A   1      29.613  29.915  23.468  1.00  0.00    -0.086 SA
BRANCH  17  18
ATOM     18  C   UNL A   1      28.821  30.712  22.156  1.00  0.00     0.191 A 
ATOM     19  N   UNL A   1      28.301  30.102  21.131  1.00  0.00    -0.146 NA
ATOM     20  N   UNL A   1      28.663  32.057  22.166  1.00  0.00    -0.273 N 
ATOM     21  N   UNL A   1      27.741  31.118  20.405  1.00  0.00    -0.226 N 
ATOM     22  C   UNL A   1      27.940  32.338  21.039  1.00  0.00     0.343 A 
ATOM     23  C   UNL A   1      29.001  33.043  23.169  1.00  0.00     0.157 C 
ATOM     24  H   UNL A   1      27.263  31.000  19.553  1.00  0.00     0.195 HD
ATOM     25  O   UNL A   1      27.513  33.418  20.664  1.00  0.00    -0.246 OA
ENDBRANCH  17  18
ENDBRANCH  16  17
ENDBRANCH  15  16
ENDBRANCH   7  15
ENDBRANCH   3   5
ENDBRANCH   2   3
ENDBRANCH   1   2
BRANCH   1  26
ATOM     26  C   UNL A   1      31.798  29.912  26.322  1.00  0.00     0.275 C 
BRANCH  26  27
ATOM     27  O   UNL A   1      33.157  30.375  26.259  1.00  0.00    -0.458 OA
BRANCH  27  28
ATOM     28  C   UNL A   1      33.490  31.402  27.076  1.00  0.00     0.338 C 
ATOM     29  O   UNL A   1      32.822  32.391  27.325  1.00  0.00    -0.246 OA
BRANCH  28  30
ATOM     30  C   UNL A   1      34.795  31.126  27.720  1.00  0.00     0.060 A 
ATOM     31  C   UNL A   1      35.083  29.841  28.171  1.00  0.00     0.016 A 
ATOM     32  C   UNL A   1      35.693  32.156  27.991  1.00  0.00     0.016 A 
ATOM     33  C   UNL A   1      36.200  29.587  28.958  1.00  0.00     0.010 A 
ATOM     34  C   UNL A   1      36.882  31.878  28.684  1.00  0.00     0.010 A 
ATOM     35  C   UNL A   1      37.139  30.592  29.193  1.00  0.00    -0.014 A 
BRANCH  35  36
ATOM     36  C   UNL A   1      38.373  30.287  29.970  1.00  0.00     0.031 A 
ATOM     37  C   UNL A   1      39.443  29.415  29.376  1.00  0.00     0.074 A 
ATOM     38  C   UNL A   1      38.547  30.809  31.202  1.00  0.00     0.049 A 
ATOM     39  N   UNL A   1      40.467  28.846  29.960  1.00  0.00    -0.248 NA
ATOM     40  C   UNL A   1      39.343  29.134  27.935  1.00  0.00     0.031 C 
ATOM     41  C   UNL A   1      37.625  31.729  31.874  1.00  0.00     0.029 A 
ATOM     42  N   UNL A   1      39.565  30.647  32.111  1.00  0.00    -0.354 N 
ATOM     43  C   UNL A   1      41.093  28.090  28.977  1.00  0.00     0.074 A 
ATOM     44  C   UNL A   1      40.344  28.282  27.754  1.00  0.00     0.031 C 
ATOM     45  C   UNL A   1      38.133  32.076  33.065  1.00  0.00     0.029 A 
ATOM     46  C   UNL A   1      39.357  31.319  33.291  1.00  0.00     0.049 A 
ATOM     47  H   UNL A   1      40.365  30.101  31.933  1.00  0.00     0.167 HD
ATOM     48  C   UNL A   1      42.186  27.298  29.097  1.00  0.00     0.037 A 
ATOM     49  C   UNL A   1      40.037  31.285  34.454  1.00  0.00     0.037 A 
ATOM     50  C   UNL A   1      42.953  27.158  30.309  1.00  0.00     0.049 A 
ATOM     51  C   UNL A   1      41.223  30.373  34.571  1.00  0.00     0.074 A 
ATOM     52  C   UNL A   1      44.071  26.376  30.540  1.00  0.00     0.029 A 
ATOM     53  N   UNL A   1      42.688  27.834  31.491  1.00  0.00    -0.354 N 
ATOM     54  N   UNL A   1      41.751  29.585  33.667  1.00  0.00    -0.248 NA
ATOM     55  C   UNL A   1      41.890  30.323  35.878  1.00  0.00     0.031 C 
ATOM     56  C   UNL A   1      44.466  26.556  31.871  1.00  0.00     0.029 A 
ATOM     57  C   UNL A   1      43.618  27.483  32.457  1.00  0.00     0.049 A 
ATOM     58  H   UNL A   1      41.949  28.471  31.625  1.00  0.00     0.167 HD
ATOM     59  C   UNL A   1      42.811  28.946  34.292  1.00  0.00     0.074 A 
ATOM     60  C   UNL A   1      42.870  29.462  35.645  1.00  0.00     0.031 C 
ATOM     61  C   UNL A   1      43.653  28.007  33.796  1.00  0.00     0.037 A 
BRANCH  48  62
ATOM     62  C   UNL A   1      42.599  26.488  27.904  1.00  0.00     0.064 A 
ATOM     63  C   UNL A   1      42.056  25.223  27.636  1.00  0.00     0.173 A 
ATOM     64  C   UNL A   1      43.520  27.014  26.983  1.00  0.00     0.173 A 
ATOM     65  F   UNL A   1      41.185  24.668  28.493  1.00  0.00    -0.203 F 
ATOM     66  C   UNL A   1      42.430  24.510  26.499  1.00  0.00     0.198 A 
ATOM     67  C   UNL A   1      43.872  26.310  25.835  1.00  0.00     0.198 A 
ATOM     68  F   UNL A   1      44.068  28.222  27.191  1.00  0.00    -0.203 F 
ATOM     69  F   UNL A   1      41.925  23.288  26.281  1.00  0.00    -0.200 F 
ATOM     70  C   UNL A   1      43.330  25.057  25.596  1.00  0.00     0.200 A 
ATOM     71  F   UNL A   1      44.734  26.845  24.959  1.00  0.00    -0.200 F 
ATOM     72  F   UNL A   1      43.679  24.374  24.497  1.00  0.00    -0.200 F 
ENDBRANCH  48  62
BRANCH  49  73
ATOM     73  C   UNL A   1      39.561  32.085  35.614  1.00  0.00     0.064 A 
ATOM     74  C   UNL A   1      38.596  31.579  36.494  1.00  0.00     0.173 A 
ATOM     75  C   UNL A   1      40.072  33.368  35.872  1.00  0.00     0.173 A 
ATOM     76  F   UNL A   1      38.056  30.372  36.274  1.00  0.00    -0.203 F 
ATOM     77  C   UNL A   1      38.156  32.328  37.585  1.00  0.00     0.198 A 
ATOM     78  C   UNL A   1      39.657  34.099  36.982  1.00  0.00     0.198 A 
ATOM     79  F   UNL A   1      40.995  33.900  35.057  1.00  0.00    -0.203 F 
ATOM     80  F   UNL A   1      37.203  31.837  38.390  1.00  0.00    -0.200 F 
ATOM     81  C   UNL A   1      38.694  33.581  37.834  1.00  0.00     0.200 A 
ATOM     82  F   UNL A   1      40.194  35.303  37.226  1.00  0.00    -0.200 F 
ATOM     83  F   UNL A   1      38.282  34.293  38.891  1.00  0.00    -0.200 F 
ENDBRANCH  49  73
BRANCH  61  84
ATOM     84  C   UNL A   1      44.715  27.500  34.723  1.00  0.00     0.064 A 
ATOM     85  C   UNL A   1      44.508  26.369  35.525  1.00  0.00     0.173 A 
ATOM     86  C   UNL A   1      45.955  28.151  34.805  1.00  0.00     0.173 A 
ATOM     87  F   UNL A   1      43.331  25.727  35.494  1.00  0.00    -0.203 F 
ATOM     88  C   UNL A   1      45.495  25.924  36.400  1.00  0.00     0.198 A 
ATOM     89  C   UNL A   1      46.948  27.687  35.662  1.00  0.00     0.198 A 
ATOM     90  F   UNL A   1      46.201  29.235  34.055  1.00  0.00    -0.203 F 
ATOM     91  F   UNL A   1      45.258  24.872  37.195  1.00  0.00    -0.200 F 
ATOM     92  C   UNL A   1      46.715  26.580  36.464  1.00  0.00     0.200 A 
ATOM     93  F   UNL A   1      48.130  28.318  35.719  1.00  0.00    -0.200 F 
ATOM     94  F   UNL A   1      47.663  26.153  37.310  1.00  0.00    -0.200 F 
ENDBRANCH  61  84
ENDBRANCH  35  36
ENDBRANCH  28  30
ENDBRANCH  27  28
ENDBRANCH  26  27
ENDBRANCH   1  26
TORSDOF 17
ENDMDL
MODEL 2
REMARK VINA RESULT:     -11.4      1.776      3.667
REMARK SMILES CC[NH2+][C@]1(C(=O)OCCOC(=O)c2ccc(-c3c4nc(c(-c5c(F)c(F)c(F)c(F)c5F)c5ccc([nH]5)c(-c5c(F)c(F)c(F)c(F)c5F)c5nc(c(-c6c(F)c(F)c(F)c(F)c6F)c6ccc3[nH]6)C=C5)C=C4)cc2)CCC[C@H]1CCSc1n[nH]c(=O)n1C
REMARK SMILES IDX 8 1 7 2 5 3 6 4 4 5 76 6 79 7 77 8 78 9 3 10 2 13 1 14 80 15
REMARK SMILES IDX 81 16 82 17 83 18 84 19 88 20 85 21 86 22 89 23 87 25 9 26
REMARK SMILES IDX 10 27 11 28 12 29 13 30 14 31 75 32 15 33 74 34 16 35 17 36
REMARK SMILES IDX 18 37 68 38 19 39 73 40 67 41 69 42 20 43 72 44 66 45 65 46
REMARK SMILES IDX 21 48 53 49 33 50 52 51 34 52 37 53 51 54 70 55 35 56 36 57
REMARK SMILES IDX 50 59 71 60 38 61 22 62 23 63 31 64 24 65 25 66 29 67 32 68
REMARK SMILES IDX 26 69 27 70 30 71 28 72 54 73 55 74 63 75 56 76 57 77 61 78
REMARK SMILES IDX 64 79 58 80 59 81 62 82 60 83 39 84 40 85 48 86 41 87 42 88
REMARK SMILES IDX 46 89 49 90 43 91 44 92 47 93 45 94
REMARK H PARENT 3 11 3 12 85 24 69 47 37 58
REMARK Flexibility Score: inf
ROOT
ATOM      1  C   UNL A   1      31.790  28.519  27.247  1.00  0.00     0.274 C 
ENDROOT
BRANCH   1   2
ATOM      2  O   UNL A   1      32.430  27.716  26.231  1.00  0.00    -0.457 OA
BRANCH   2   3
ATOM      3  C   UNL A   1      31.611  27.115  25.333  1.00  0.00     0.368 C 
ATOM      4  O   UNL A   1      30.697  26.357  25.645  1.00  0.00    -0.245 OA
BRANCH   3   5
ATOM      5  C   UNL A   1      32.049  27.359  23.864  1.00  0.00     0.197 C 
ATOM      6  C   UNL A   1      33.090  28.495  23.794  1.00  0.00     0.081 C 
ATOM      7  C   UNL A   1      32.808  26.231  23.084  1.00  0.00     0.063 C 
ATOM      8  C   UNL A   1      33.578  28.483  22.361  1.00  0.00     0.008 C 
ATOM      9  C   UNL A   1      33.659  27.001  22.022  1.00  0.00     0.011 C 
BRANCH   5  10
ATOM     10  N   UNL A   1      30.817  27.675  23.072  1.00  0.00    -0.332 N 
ATOM     11  H   UNL A   1      31.064  27.665  22.082  1.00  0.00     0.347 HD
ATOM     12  H   UNL A   1      30.125  26.968  23.320  1.00  0.00     0.347 HD
BRANCH  10  13
ATOM     13  C   UNL A   1      30.211  28.974  23.379  1.00  0.00     0.257 C 
ATOM     14  C   UNL A   1      29.848  29.703  22.095  1.00  0.00     0.071 C 
ENDBRANCH  10  13
ENDBRANCH   5  10
BRANCH   7  15
ATOM     15  C   UNL A   1      33.720  25.242  23.854  1.00  0.00     0.022 C 
BRANCH  15  16
ATOM     16  C   UNL A   1      34.051  23.883  23.203  1.00  0.00     0.079 C 
BRANCH  16  17
ATOM     17  S   UNL A   1      33.791  22.416  24.251  1.00  0.00    -0.086 SA
BRANCH  17  18
ATOM     18  C   UNL A   1      32.285  22.825  24.989  1.00  0.00     0.191 A 
ATOM     19  N   UNL A   1      31.218  23.178  24.335  1.00  0.00    -0.146 NA
ATOM     20  N   UNL A   1      32.136  22.746  26.333  1.00  0.00    -0.273 N 
ATOM     21  N   UNL A   1      30.278  23.336  25.318  1.00  0.00    -0.226 N 
ATOM     22  C   UNL A   1      30.824  23.056  26.564  1.00  0.00     0.343 A 
ATOM     23  C   UNL A   1      33.046  22.292  27.362  1.00  0.00     0.157 C 
ATOM     24  H   UNL A   1      29.345  23.609  25.162  1.00  0.00     0.195 HD
ATOM     25  O   UNL A   1      30.223  23.057  27.626  1.00  0.00    -0.246 OA
ENDBRANCH  17  18
ENDBRANCH  16  17
ENDBRANCH  15  16
ENDBRANCH   7  15
ENDBRANCH   3   5
ENDBRANCH   2   3
ENDBRANCH   1   2
BRANCH   1  26
ATOM     26  C   UNL A   1      31.652  29.981  26.810  1.00  0.00     0.275 C 
BRANCH  26  27
ATOM     27  O   UNL A   1      32.940  30.499  26.436  1.00  0.00    -0.458 OA
BRANCH  27  28
ATOM     28  C   UNL A   1      33.382  31.582  27.118  1.00  0.00     0.338 C 
ATOM     29  O   UNL A   1      32.804  32.644  27.267  1.00  0.00    -0.246 OA
BRANCH  28  30
ATOM     30  C   UNL A   1      34.685  31.275  27.753  1.00  0.00     0.060 A 
ATOM     31  C   UNL A   1      34.938  29.988  28.216  1.00  0.00     0.016 A 
ATOM     32  C   UNL A   1      35.615  32.280  28.003  1.00  0.00     0.016 A 
ATOM     33  C   UNL A   1      36.054  29.709  28.996  1.00  0.00     0.010 A 
ATOM     34  C   UNL A   1      36.802  31.976  28.690  1.00  0.00     0.010 A 
ATOM     35  C   UNL A   1      37.025  30.689  29.212  1.00  0.00    -0.014 A 
BRANCH  35  36
ATOM     36  C   UNL A   1      38.257  30.356  29.981  1.00  0.00     0.031 A 
ATOM     37  C   UNL A   1      39.316  29.483  29.370  1.00  0.00     0.074 A 
ATOM     38  C   UNL A   1      38.438  30.854  31.222  1.00  0.00     0.049 A 
ATOM     39  N   UNL A   1      40.334  28.892  29.942  1.00  0.00    -0.248 NA
ATOM     40  C   UNL A   1      39.211  29.228  27.924  1.00  0.00     0.031 C 
ATOM     41  C   UNL A   1      37.527  31.772  31.912  1.00  0.00     0.029 A 
ATOM     42  N   UNL A   1      39.455  30.664  32.127  1.00  0.00    -0.354 N 
ATOM     43  C   UNL A   1      40.951  28.147  28.946  1.00  0.00     0.074 A 
ATOM     44  C   UNL A   1      40.202  28.369  27.727  1.00  0.00     0.031 C 
ATOM     45  C   UNL A   1      38.041  32.092  33.107  1.00  0.00     0.029 A 
ATOM     46  C   UNL A   1      39.256  31.318  33.319  1.00  0.00     0.049 A 
ATOM     47  H   UNL A   1      40.249  30.113  31.938  1.00  0.00     0.167 HD
ATOM     48  C   UNL A   1      42.035  27.341  29.050  1.00  0.00     0.037 A 
ATOM     49  C   UNL A   1      39.937  31.256  34.480  1.00  0.00     0.037 A 
ATOM     50  C   UNL A   1      42.802  27.171  30.258  1.00  0.00     0.049 A 
ATOM     51  C   UNL A   1      41.113  30.328  34.579  1.00  0.00     0.074 A 
ATOM     52  C   UNL A   1      43.911  26.372  30.473  1.00  0.00     0.029 A 
ATOM     53  N   UNL A   1      42.546  27.829  31.452  1.00  0.00    -0.354 N 
ATOM     54  N   UNL A   1      41.631  29.551  33.660  1.00  0.00    -0.248 NA
ATOM     55  C   UNL A   1      41.781  30.248  35.884  1.00  0.00     0.031 C 
ATOM     56  C   UNL A   1      44.310  26.525  31.807  1.00  0.00     0.029 A 
ATOM     57  C   UNL A   1      43.473  27.450  32.410  1.00  0.00     0.049 A 
ATOM     58  H   UNL A   1      41.814  28.472  31.598  1.00  0.00     0.167 HD
ATOM     59  C   UNL A   1      42.685  28.889  34.273  1.00  0.00     0.074 A 
ATOM     60  C   UNL A   1      42.751  29.380  35.634  1.00  0.00     0.031 C 
ATOM     61  C   UNL A   1      43.516  27.950  33.759  1.00  0.00     0.037 A 
BRANCH  48  62
ATOM     62  C   UNL A   1      42.438  26.548  27.841  1.00  0.00     0.064 A 
ATOM     63  C   UNL A   1      43.425  26.993  26.952  1.00  0.00     0.173 A 
ATOM     64  C   UNL A   1      41.856  25.293  27.600  1.00  0.00     0.173 A 
ATOM     65  F   UNL A   1      44.001  28.192  27.127  1.00  0.00    -0.203 F 
ATOM     66  C   UNL A   1      43.806  26.217  25.859  1.00  0.00     0.198 A 
ATOM     67  C   UNL A   1      42.257  24.509  26.522  1.00  0.00     0.198 A 
ATOM     68  F   UNL A   1      40.907  24.819  28.423  1.00  0.00    -0.203 F 
ATOM     69  F   UNL A   1      44.729  26.677  25.002  1.00  0.00    -0.200 F 
ATOM     70  C   UNL A   1      43.229  24.973  25.650  1.00  0.00     0.200 A 
ATOM     71  F   UNL A   1      41.704  23.303  26.329  1.00  0.00    -0.200 F 
ATOM     72  F   UNL A   1      43.605  24.224  24.605  1.00  0.00    -0.200 F 
ENDBRANCH  48  62
BRANCH  49  73
ATOM     73  C   UNL A   1      39.472  32.040  35.654  1.00  0.00     0.064 A 
ATOM     74  C   UNL A   1      38.499  31.532  36.524  1.00  0.00     0.173 A 
ATOM     75  C   UNL A   1      40.001  33.310  35.937  1.00  0.00     0.173 A 
ATOM     76  F   UNL A   1      37.941  30.337  36.280  1.00  0.00    -0.203 F 
ATOM     77  C   UNL A   1      38.068  32.265  37.629  1.00  0.00     0.198 A 
ATOM     78  C   UNL A   1      39.596  34.026  37.061  1.00  0.00     0.198 A 
ATOM     79  F   UNL A   1      40.932  33.844  35.134  1.00  0.00    -0.203 F 
ATOM     80  F   UNL A   1      37.107  31.774  38.423  1.00  0.00    -0.200 F 
ATOM     81  C   UNL A   1      38.624  33.506  37.902  1.00  0.00     0.200 A 
ATOM     82  F   UNL A   1      40.149  35.217  37.329  1.00  0.00    -0.200 F 
ATOM     83  F   UNL A   1      38.221  34.203  38.973  1.00  0.00    -0.200 F 
ENDBRANCH  49  73
BRANCH  61  84
ATOM     84  C   UNL A   1      44.574  27.415  34.675  1.00  0.00     0.064 A 
ATOM     85  C   UNL A   1      44.361  26.262  35.444  1.00  0.00     0.173 A 
ATOM     86  C   UNL A   1      45.815  28.060  34.779  1.00  0.00     0.173 A 
ATOM     87  F   UNL A   1      43.182  25.624  35.391  1.00  0.00    -0.203 F 
ATOM     88  C   UNL A   1      45.343  25.790  36.310  1.00  0.00     0.198 A 
ATOM     89  C   UNL A   1      46.804  27.570  35.626  1.00  0.00     0.198 A 
ATOM     90  F   UNL A   1      46.066  29.164  34.061  1.00  0.00    -0.203 F 
ATOM     91  F   UNL A   1      45.101  24.717  37.075  1.00  0.00    -0.200 F 
ATOM     92  C   UNL A   1      46.565  26.442  36.397  1.00  0.00     0.200 A 
ATOM     93  F   UNL A   1      47.987  28.196  35.705  1.00  0.00    -0.200 F 
ATOM     94  F   UNL A   1      47.508  25.989  37.233  1.00  0.00    -0.200 F 
ENDBRANCH  61  84
ENDBRANCH  35  36
ENDBRANCH  28  30
ENDBRANCH  27  28
ENDBRANCH  26  27
ENDBRANCH   1  26
TORSDOF 17
ENDMDL
MODEL 3
REMARK VINA RESULT:     -11.3      1.009      2.342
REMARK SMILES CC[NH2+][C@]1(C(=O)OCCOC(=O)c2ccc(-c3c4nc(c(-c5c(F)c(F)c(F)c(F)c5F)c5ccc([nH]5)c(-c5c(F)c(F)c(F)c(F)c5F)c5nc(c(-c6c(F)c(F)c(F)c(F)c6F)c6ccc3[nH]6)C=C5)C=C4)cc2)CCC[C@H]1CCSc1n[nH]c(=O)n1C
REMARK SMILES IDX 8 1 7 2 5 3 6 4 4 5 76 6 79 7 77 8 78 9 3 10 2 13 1 14 80 15
REMARK SMILES IDX 81 16 82 17 83 18 84 19 88 20 85 21 86 22 89 23 87 25 9 26
REMARK SMILES IDX 10 27 11 28 12 29 13 30 14 31 75 32 15 33 74 34 16 35 17 36
REMARK SMILES IDX 18 37 68 38 19 39 73 40 67 41 69 42 20 43 72 44 66 45 65 46
REMARK SMILES IDX 21 48 53 49 33 50 52 51 34 52 37 53 51 54 70 55 35 56 36 57
REMARK SMILES IDX 50 59 71 60 38 61 22 62 23 63 31 64 24 65 25 66 29 67 32 68
REMARK SMILES IDX 26 69 27 70 30 71 28 72 54 73 55 74 63 75 56 76 57 77 61 78
REMARK SMILES IDX 64 79 58 80 59 81 62 82 60 83 39 84 40 85 48 86 41 87 42 88
REMARK SMILES IDX 46 89 49 90 43 91 44 92 47 93 45 94
REMARK H PARENT 3 11 3 12 85 24 69 47 37 58
REMARK Flexibility Score: inf
ROOT
ATOM      1  C   UNL A   1      32.295  27.721  26.529  1.00  0.00     0.274 C 
ENDROOT
BRANCH   1   2
ATOM      2  O   UNL A   1      32.647  26.671  25.600  1.00  0.00    -0.457 OA
BRANCH   2   3
ATOM      3  C   UNL A   1      32.209  25.424  25.907  1.00  0.00     0.368 C 
ATOM      4  O   UNL A   1      31.509  25.168  26.883  1.00  0.00    -0.245 OA
BRANCH   3   5
ATOM      5  C   UNL A   1      32.816  24.332  24.986  1.00  0.00     0.197 C 
ATOM      6  C   UNL A   1      32.411  22.927  25.476  1.00  0.00     0.081 C 
ATOM      7  C   UNL A   1      32.371  24.249  23.486  1.00  0.00     0.063 C 
ATOM      8  C   UNL A   1      32.883  21.988  24.387  1.00  0.00     0.008 C 
ATOM      9  C   UNL A   1      32.583  22.748  23.102  1.00  0.00     0.011 C 
BRANCH   5  10
ATOM     10  N   UNL A   1      34.303  24.519  24.983  1.00  0.00    -0.332 N 
ATOM     11  H   UNL A   1      34.672  24.121  24.120  1.00  0.00     0.347 HD
ATOM     12  H   UNL A   1      34.467  25.523  25.063  1.00  0.00     0.347 HD
BRANCH  10  13
ATOM     13  C   UNL A   1      34.999  23.893  26.110  1.00  0.00     0.257 C 
ATOM     14  C   UNL A   1      36.470  23.702  25.781  1.00  0.00     0.071 C 
ENDBRANCH  10  13
ENDBRANCH   5  10
BRANCH   7  15
ATOM     15  C   UNL A   1      30.938  24.684  23.082  1.00  0.00     0.022 C 
BRANCH  15  16
ATOM     16  C   UNL A   1      30.714  26.131  22.600  1.00  0.00     0.079 C 
BRANCH  16  17
ATOM     17  S   UNL A   1      29.576  27.136  23.608  1.00  0.00    -0.086 SA
BRANCH  17  18
ATOM     18  C   UNL A   1      29.651  28.637  22.757  1.00  0.00     0.191 A 
ATOM     19  N   UNL A   1      30.712  29.089  22.156  1.00  0.00    -0.146 NA
ATOM     20  N   UNL A   1      28.548  29.413  22.638  1.00  0.00    -0.273 N 
ATOM     21  N   UNL A   1      30.282  30.254  21.580  1.00  0.00    -0.226 N 
ATOM     22  C   UNL A   1      28.936  30.465  21.853  1.00  0.00     0.343 A 
ATOM     23  C   UNL A   1      27.184  29.194  23.067  1.00  0.00     0.157 C 
ATOM     24  H   UNL A   1      30.847  30.857  21.045  1.00  0.00     0.195 HD
ATOM     25  O   UNL A   1      28.256  31.387  21.434  1.00  0.00    -0.246 OA
ENDBRANCH  17  18
ENDBRANCH  16  17
ENDBRANCH  15  16
ENDBRANCH   7  15
ENDBRANCH   3   5
ENDBRANCH   2   3
ENDBRANCH   1   2
BRANCH   1  26
ATOM     26  C   UNL A   1      31.940  29.023  25.803  1.00  0.00     0.275 C 
BRANCH  26  27
ATOM     27  O   UNL A   1      33.097  29.875  25.744  1.00  0.00    -0.458 OA
BRANCH  27  28
ATOM     28  C   UNL A   1      33.238  30.781  26.740  1.00  0.00     0.338 C 
ATOM     29  O   UNL A   1      32.411  31.591  27.120  1.00  0.00    -0.246 OA
BRANCH  28  30
ATOM     30  C   UNL A   1      34.557  30.606  27.392  1.00  0.00     0.060 A 
ATOM     31  C   UNL A   1      34.992  29.329  27.732  1.00  0.00     0.016 A 
ATOM     32  C   UNL A   1      35.316  31.706  27.780  1.00  0.00     0.016 A 
ATOM     33  C   UNL A   1      36.119  29.138  28.523  1.00  0.00     0.010 A 
ATOM     34  C   UNL A   1      36.519  31.511  28.478  1.00  0.00     0.010 A 
ATOM     35  C   UNL A   1      36.924  30.224  28.875  1.00  0.00    -0.014 A 
BRANCH  35  36
ATOM     36  C   UNL A   1      38.173  29.999  29.655  1.00  0.00     0.031 A 
ATOM     37  C   UNL A   1      39.286  29.172  29.076  1.00  0.00     0.074 A 
ATOM     38  C   UNL A   1      38.321  30.553  30.876  1.00  0.00     0.049 A 
ATOM     39  N   UNL A   1      40.339  28.669  29.669  1.00  0.00    -0.248 NA
ATOM     40  C   UNL A   1      39.199  28.858  27.641  1.00  0.00     0.031 C 
ATOM     41  C   UNL A   1      37.353  31.437  31.532  1.00  0.00     0.029 A 
ATOM     42  N   UNL A   1      39.347  30.462  31.786  1.00  0.00    -0.354 N 
ATOM     43  C   UNL A   1      41.003  27.927  28.700  1.00  0.00     0.074 A 
ATOM     44  C   UNL A   1      40.243  28.056  27.474  1.00  0.00     0.031 C 
ATOM     45  C   UNL A   1      37.844  31.833  32.715  1.00  0.00     0.029 A 
ATOM     46  C   UNL A   1      39.106  31.146  32.953  1.00  0.00     0.049 A 
ATOM     47  H   UNL A   1      40.174  29.956  31.617  1.00  0.00     0.167 HD
ATOM     48  C   UNL A   1      42.135  27.196  28.833  1.00  0.00     0.037 A 
ATOM     49  C   UNL A   1      39.788  31.170  34.115  1.00  0.00     0.037 A 
ATOM     50  C   UNL A   1      42.910  27.120  30.045  1.00  0.00     0.049 A 
ATOM     51  C   UNL A   1      41.020  30.324  34.247  1.00  0.00     0.074 A 
ATOM     52  C   UNL A   1      44.068  26.402  30.289  1.00  0.00     0.029 A 
ATOM     53  N   UNL A   1      42.612  27.805  31.215  1.00  0.00    -0.354 N 
ATOM     54  N   UNL A   1      41.588  29.547  33.357  1.00  0.00    -0.248 NA
ATOM     55  C   UNL A   1      41.691  30.335  35.554  1.00  0.00     0.031 C 
ATOM     56  C   UNL A   1      44.454  26.629  31.615  1.00  0.00     0.029 A 
ATOM     57  C   UNL A   1      43.560  27.521  32.185  1.00  0.00     0.049 A 
ATOM     58  H   UNL A   1      41.841  28.405  31.337  1.00  0.00     0.167 HD
ATOM     59  C   UNL A   1      42.680  28.977  33.993  1.00  0.00     0.074 A 
ATOM     60  C   UNL A   1      42.714  29.521  35.335  1.00  0.00     0.031 C 
ATOM     61  C   UNL A   1      43.569  28.073  33.514  1.00  0.00     0.037 A 
BRANCH  48  62
ATOM     62  C   UNL A   1      42.589  26.385  27.654  1.00  0.00     0.064 A 
ATOM     63  C   UNL A   1      43.554  26.855  26.752  1.00  0.00     0.173 A 
ATOM     64  C   UNL A   1      42.081  25.091  27.456  1.00  0.00     0.173 A 
ATOM     65  F   UNL A   1      44.059  28.091  26.887  1.00  0.00    -0.203 F 
ATOM     66  C   UNL A   1      43.985  26.064  25.689  1.00  0.00     0.198 A 
ATOM     67  C   UNL A   1      42.531  24.295  26.407  1.00  0.00     0.198 A 
ATOM     68  F   UNL A   1      41.156  24.593  28.292  1.00  0.00    -0.203 F 
ATOM     69  F   UNL A   1      44.883  26.546  24.819  1.00  0.00    -0.200 F 
ATOM     70  C   UNL A   1      43.480  24.783  25.522  1.00  0.00     0.200 A 
ATOM     71  F   UNL A   1      42.049  23.053  26.254  1.00  0.00    -0.200 F 
ATOM     72  F   UNL A   1      43.904  24.020  24.505  1.00  0.00    -0.200 F 
ENDBRANCH  48  62
BRANCH  49  73
ATOM     73  C   UNL A   1      39.273  31.967  35.260  1.00  0.00     0.064 A 
ATOM     74  C   UNL A   1      39.567  33.330  35.384  1.00  0.00     0.173 A 
ATOM     75  C   UNL A   1      38.464  31.382  36.249  1.00  0.00     0.173 A 
ATOM     76  F   UNL A   1      40.360  33.928  34.482  1.00  0.00    -0.203 F 
ATOM     77  C   UNL A   1      39.079  34.078  36.454  1.00  0.00     0.198 A 
ATOM     78  C   UNL A   1      37.948  32.137  37.298  1.00  0.00     0.198 A 
ATOM     79  F   UNL A   1      38.156  30.078  36.180  1.00  0.00    -0.203 F 
ATOM     80  F   UNL A   1      39.408  35.371  36.571  1.00  0.00    -0.200 F 
ATOM     81  C   UNL A   1      38.261  33.483  37.404  1.00  0.00     0.200 A 
ATOM     82  F   UNL A   1      37.145  31.561  38.204  1.00  0.00    -0.200 F 
ATOM     83  F   UNL A   1      37.779  34.206  38.424  1.00  0.00    -0.200 F 
ENDBRANCH  49  73
BRANCH  61  84
ATOM     84  C   UNL A   1      44.658  27.641  34.448  1.00  0.00     0.064 A 
ATOM     85  C   UNL A   1      45.866  28.346  34.540  1.00  0.00     0.173 A 
ATOM     86  C   UNL A   1      44.486  26.514  35.264  1.00  0.00     0.173 A 
ATOM     87  F   UNL A   1      46.082  29.419  33.763  1.00  0.00    -0.203 F 
ATOM     88  C   UNL A   1      46.878  27.919  35.394  1.00  0.00     0.198 A 
ATOM     89  C   UNL A   1      45.490  26.105  36.136  1.00  0.00     0.198 A 
ATOM     90  F   UNL A   1      43.346  25.809  35.214  1.00  0.00    -0.203 F 
ATOM     91  F   UNL A   1      48.046  28.576  35.429  1.00  0.00    -0.200 F 
ATOM     92  C   UNL A   1      46.688  26.803  36.195  1.00  0.00     0.200 A 
ATOM     93  F   UNL A   1      45.304  25.030  36.915  1.00  0.00    -0.200 F 
ATOM     94  F   UNL A   1      47.665  26.391  37.014  1.00  0.00    -0.200 F 
ENDBRANCH  61  84
ENDBRANCH  35  36
ENDBRANCH  28  30
ENDBRANCH  27  28
ENDBRANCH  26  27
ENDBRANCH   1  26
TORSDOF 17
ENDMDL
