MODEL 1
REMARK VINA RESULT:     -12.0      0.000      0.000
REMARK SMILES COc1cccc(C[C@H](C(=O)OCCOC(=O)c2ccc(-c3c4nc(c(-c5c(F)c(F)c(F)c(F)c5F)c5ccc([nH]5)c(-c5c(F)c(F)c(F)c(F)c5F)c5nc(c(-c6c(F)c(F)c(F)c(F)c6F)c6ccc3[nH]6)C=C5)C=C4)cc2)c2cccc(C)c2)n1
REMARK SMILES IDX 13 1 12 2 10 3 11 4 9 5 8 6 7 7 3 8 4 9 88 10 5 11 6 12 2 13
REMARK SMILES IDX 1 14 81 15 82 16 87 17 83 18 85 19 84 20 86 21 14 22 15 23
REMARK SMILES IDX 16 24 17 25 18 26 19 27 80 28 20 29 79 30 21 31 22 32 23 33
REMARK SMILES IDX 73 34 24 35 78 36 72 37 74 38 25 39 77 40 71 41 70 42 26 44
REMARK SMILES IDX 58 45 38 46 57 47 39 48 42 49 56 50 75 51 40 52 41 53 55 55
REMARK SMILES IDX 76 56 43 57 27 58 28 59 36 60 29 61 30 62 34 63 37 64 31 65
REMARK SMILES IDX 32 66 35 67 33 68 59 69 60 70 68 71 61 72 62 73 66 74 69 75
REMARK SMILES IDX 63 76 64 77 67 78 65 79 44 80 45 81 53 82 46 83 47 84 51 85
REMARK SMILES IDX 54 86 48 87 49 88 52 89 50 90
REMARK H PARENT 74 43 42 54
REMARK Flexibility Score: inf
ROOT
ATOM      1  C   UNL A   1      31.759  28.488  25.867  1.00  0.00     0.274 C 
ENDROOT
BRANCH   1   2
ATOM      2  O   UNL A   1      33.023  27.984  25.396  1.00  0.00    -0.462 OA
BRANCH   2   3
ATOM      3  C   UNL A   1      33.120  27.713  24.070  1.00  0.00     0.313 C 
ATOM      4  O   UNL A   1      33.697  28.424  23.252  1.00  0.00    -0.252 OA
BRANCH   3   5
ATOM      5  C   UNL A   1      32.416  26.422  23.667  1.00  0.00     0.135 C 
BRANCH   5   6
ATOM      6  C   UNL A   1      31.495  26.731  22.450  1.00  0.00     0.076 C 
BRANCH   6   7
ATOM      7  C   UNL A   1      30.298  27.616  22.689  1.00  0.00     0.046 A 
ATOM      8  C   UNL A   1      29.081  29.460  22.017  1.00  0.00     0.213 A 
ATOM      9  C   UNL A   1      27.969  29.047  22.740  1.00  0.00     0.068 A 
ATOM     10  N   UNL A   1      30.247  28.784  22.016  1.00  0.00    -0.219 NA
ATOM     11  C   UNL A   1      28.064  27.888  23.502  1.00  0.00     0.007 A 
ATOM     12  C   UNL A   1      29.248  27.163  23.487  1.00  0.00     0.024 A 
BRANCH   8  13
ATOM     13  O   UNL A   1      29.101  30.591  21.250  1.00  0.00    -0.481 OA
ATOM     14  C   UNL A   1      28.024  31.483  21.507  1.00  0.00     0.280 C 
ENDBRANCH   8  13
ENDBRANCH   6   7
ENDBRANCH   5   6
BRANCH   5  15
ATOM     15  C   UNL A   1      33.326  25.192  23.639  1.00  0.00    -0.033 A 
ATOM     16  C   UNL A   1      33.102  24.145  22.729  1.00  0.00     0.004 A 
ATOM     17  C   UNL A   1      34.406  25.057  24.525  1.00  0.00     0.008 A 
ATOM     18  C   UNL A   1      33.829  22.958  22.804  1.00  0.00     0.001 A 
ATOM     19  C   UNL A   1      35.096  23.845  24.658  1.00  0.00    -0.051 A 
ATOM     20  C   UNL A   1      34.801  22.796  23.786  1.00  0.00     0.003 A 
ATOM     21  C   UNL A   1      36.099  23.659  25.756  1.00  0.00     0.044 C 
ENDBRANCH   5  15
ENDBRANCH   3   5
ENDBRANCH   2   3
ENDBRANCH   1   2
BRANCH   1  22
ATOM     22  C   UNL A   1      31.717  30.005  25.754  1.00  0.00     0.275 C 
BRANCH  22  23
ATOM     23  O   UNL A   1      33.049  30.515  25.912  1.00  0.00    -0.458 OA
BRANCH  23  24
ATOM     24  C   UNL A   1      33.234  31.359  26.945  1.00  0.00     0.338 C 
ATOM     25  O   UNL A   1      32.530  32.302  27.280  1.00  0.00    -0.246 OA
BRANCH  24  26
ATOM     26  C   UNL A   1      34.492  31.021  27.626  1.00  0.00     0.060 A 
ATOM     27  C   UNL A   1      34.783  29.705  27.990  1.00  0.00     0.016 A 
ATOM     28  C   UNL A   1      35.364  32.054  27.968  1.00  0.00     0.016 A 
ATOM     29  C   UNL A   1      35.902  29.429  28.771  1.00  0.00     0.010 A 
ATOM     30  C   UNL A   1      36.537  31.762  28.661  1.00  0.00     0.010 A 
ATOM     31  C   UNL A   1      36.803  30.451  29.094  1.00  0.00    -0.014 A 
BRANCH  31  32
ATOM     32  C   UNL A   1      38.031  30.163  29.875  1.00  0.00     0.031 A 
ATOM     33  C   UNL A   1      39.102  29.282  29.297  1.00  0.00     0.074 A 
ATOM     34  C   UNL A   1      38.164  30.664  31.117  1.00  0.00     0.049 A 
ATOM     35  N   UNL A   1      40.152  28.761  29.882  1.00  0.00    -0.248 NA
ATOM     36  C   UNL A   1      38.967  28.924  27.876  1.00  0.00     0.031 C 
ATOM     37  C   UNL A   1      37.210  31.556  31.777  1.00  0.00     0.029 A 
ATOM     38  N   UNL A   1      39.153  30.488  32.053  1.00  0.00    -0.354 N 
ATOM     39  C   UNL A   1      40.770  27.977  28.917  1.00  0.00     0.074 A 
ATOM     40  C   UNL A   1      39.980  28.087  27.711  1.00  0.00     0.031 C 
ATOM     41  C   UNL A   1      37.671  31.871  32.997  1.00  0.00     0.029 A 
ATOM     42  C   UNL A   1      38.908  31.138  33.236  1.00  0.00     0.049 A 
ATOM     43  H   UNL A   1      39.960  29.948  31.889  1.00  0.00     0.167 HD
ATOM     44  C   UNL A   1      41.896  27.233  29.036  1.00  0.00     0.037 A 
ATOM     45  C   UNL A   1      39.580  31.111  34.402  1.00  0.00     0.037 A 
ATOM     46  C   UNL A   1      42.700  27.168  30.229  1.00  0.00     0.049 A 
ATOM     47  C   UNL A   1      40.798  30.242  34.520  1.00  0.00     0.074 A 
ATOM     48  C   UNL A   1      43.889  26.491  30.434  1.00  0.00     0.029 A 
ATOM     49  N   UNL A   1      42.394  27.809  31.421  1.00  0.00    -0.354 N 
ATOM     50  N   UNL A   1      41.370  29.492  33.610  1.00  0.00    -0.248 NA
ATOM     51  C   UNL A   1      41.449  30.198  35.836  1.00  0.00     0.031 C 
ATOM     52  C   UNL A   1      44.281  26.689  31.763  1.00  0.00     0.029 A 
ATOM     53  C   UNL A   1      43.358  27.522  32.374  1.00  0.00     0.049 A 
ATOM     54  H   UNL A   1      41.608  28.385  31.567  1.00  0.00     0.167 HD
ATOM     55  C   UNL A   1      42.451  28.892  34.236  1.00  0.00     0.074 A 
ATOM     56  C   UNL A   1      42.467  29.381  35.601  1.00  0.00     0.031 C 
ATOM     57  C   UNL A   1      43.348  28.012  33.729  1.00  0.00     0.037 A 
BRANCH  44  58
ATOM     58  C   UNL A   1      42.305  26.399  27.857  1.00  0.00     0.064 A 
ATOM     59  C   UNL A   1      43.288  26.824  26.952  1.00  0.00     0.173 A 
ATOM     60  C   UNL A   1      41.721  25.141  27.648  1.00  0.00     0.173 A 
ATOM     61  F   UNL A   1      43.869  28.024  27.099  1.00  0.00    -0.203 F 
ATOM     62  C   UNL A   1      43.653  26.029  25.867  1.00  0.00     0.198 A 
ATOM     63  C   UNL A   1      42.105  24.338  26.578  1.00  0.00     0.198 A 
ATOM     64  F   UNL A   1      40.777  24.686  28.488  1.00  0.00    -0.203 F 
ATOM     65  F   UNL A   1      44.564  26.473  24.990  1.00  0.00    -0.200 F 
ATOM     66  C   UNL A   1      43.066  24.786  25.685  1.00  0.00     0.200 A 
ATOM     67  F   UNL A   1      41.544  23.133  26.409  1.00  0.00    -0.200 F 
ATOM     68  F   UNL A   1      43.421  24.022  24.643  1.00  0.00    -0.200 F 
ENDBRANCH  44  58
BRANCH  45  69
ATOM     69  C   UNL A   1      39.090  31.915  35.549  1.00  0.00     0.064 A 
ATOM     70  C   UNL A   1      38.247  31.347  36.512  1.00  0.00     0.173 A 
ATOM     71  C   UNL A   1      39.479  33.252  35.726  1.00  0.00     0.173 A 
ATOM     72  F   UNL A   1      37.831  30.080  36.372  1.00  0.00    -0.203 F 
ATOM     73  C   UNL A   1      37.810  32.085  37.610  1.00  0.00     0.198 A 
ATOM     74  C   UNL A   1      39.064  33.980  36.837  1.00  0.00     0.198 A 
ATOM     75  F   UNL A   1      40.285  33.840  34.830  1.00  0.00    -0.203 F 
ATOM     76  F   UNL A   1      36.983  31.526  38.503  1.00  0.00    -0.200 F 
ATOM     77  C   UNL A   1      38.226  33.398  37.776  1.00  0.00     0.200 A 
ATOM     78  F   UNL A   1      39.479  35.244  37.000  1.00  0.00    -0.200 F 
ATOM     79  F   UNL A   1      37.818  34.102  38.840  1.00  0.00    -0.200 F 
ENDBRANCH  45  69
BRANCH  57  80
ATOM     80  C   UNL A   1      44.427  27.536  34.653  1.00  0.00     0.064 A 
ATOM     81  C   UNL A   1      44.279  26.362  35.404  1.00  0.00     0.173 A 
ATOM     82  C   UNL A   1      45.630  28.248  34.769  1.00  0.00     0.173 A 
ATOM     83  F   UNL A   1      43.138  25.659  35.340  1.00  0.00    -0.203 F 
ATOM     84  C   UNL A   1      45.290  25.927  36.257  1.00  0.00     0.198 A 
ATOM     85  C   UNL A   1      46.648  27.797  35.604  1.00  0.00     0.198 A 
ATOM     86  F   UNL A   1      45.818  29.376  34.069  1.00  0.00    -0.203 F 
ATOM     87  F   UNL A   1      45.112  24.826  37.000  1.00  0.00    -0.200 F 
ATOM     88  C   UNL A   1      46.476  26.642  36.351  1.00  0.00     0.200 A 
ATOM     89  F   UNL A   1      47.796  28.484  35.688  1.00  0.00    -0.200 F 
ATOM     90  F   UNL A   1      47.449  26.221  37.171  1.00  0.00    -0.200 F 
ENDBRANCH  57  80
ENDBRANCH  31  32
ENDBRANCH  24  26
ENDBRANCH  23  24
ENDBRANCH  22  23
ENDBRANCH   1  22
TORSDOF 15
ENDMDL
MODEL 2
REMARK VINA RESULT:     -11.8      1.429      2.161
REMARK SMILES COc1cccc(C[C@H](C(=O)OCCOC(=O)c2ccc(-c3c4nc(c(-c5c(F)c(F)c(F)c(F)c5F)c5ccc([nH]5)c(-c5c(F)c(F)c(F)c(F)c5F)c5nc(c(-c6c(F)c(F)c(F)c(F)c6F)c6ccc3[nH]6)C=C5)C=C4)cc2)c2cccc(C)c2)n1
REMARK SMILES IDX 13 1 12 2 10 3 11 4 9 5 8 6 7 7 3 8 4 9 88 10 5 11 6 12 2 13
REMARK SMILES IDX 1 14 81 15 82 16 87 17 83 18 85 19 84 20 86 21 14 22 15 23
REMARK SMILES IDX 16 24 17 25 18 26 19 27 80 28 20 29 79 30 21 31 22 32 23 33
REMARK SMILES IDX 73 34 24 35 78 36 72 37 74 38 25 39 77 40 71 41 70 42 26 44
REMARK SMILES IDX 58 45 38 46 57 47 39 48 42 49 56 50 75 51 40 52 41 53 55 55
REMARK SMILES IDX 76 56 43 57 27 58 28 59 36 60 29 61 30 62 34 63 37 64 31 65
REMARK SMILES IDX 32 66 35 67 33 68 59 69 60 70 68 71 61 72 62 73 66 74 69 75
REMARK SMILES IDX 63 76 64 77 67 78 65 79 44 80 45 81 53 82 46 83 47 84 51 85
REMARK SMILES IDX 54 86 48 87 49 88 52 89 50 90
REMARK H PARENT 74 43 42 54
REMARK Flexibility Score: inf
ROOT
ATOM      1  C   UNL A   1      31.416  28.750  24.680  1.00  0.00     0.274 C 
ENDROOT
BRANCH   1   2
ATOM      2  O   UNL A   1      32.173  27.731  25.357  1.00  0.00    -0.462 OA
BRANCH   2   3
ATOM      3  C   UNL A   1      31.520  27.008  26.303  1.00  0.00     0.313 C 
ATOM      4  O   UNL A   1      31.028  27.478  27.326  1.00  0.00    -0.252 OA
BRANCH   3   5
ATOM      5  C   UNL A   1      31.464  25.517  25.989  1.00  0.00     0.135 C 
BRANCH   5   6
ATOM      6  C   UNL A   1      30.661  25.329  24.668  1.00  0.00     0.076 C 
BRANCH   6   7
ATOM      7  C   UNL A   1      31.324  24.563  23.551  1.00  0.00     0.046 A 
ATOM      8  C   UNL A   1      32.695  24.631  21.694  1.00  0.00     0.213 A 
ATOM      9  C   UNL A   1      32.908  23.260  21.744  1.00  0.00     0.068 A 
ATOM     10  N   UNL A   1      31.886  25.279  22.555  1.00  0.00    -0.219 NA
ATOM     11  C   UNL A   1      32.251  22.520  22.721  1.00  0.00     0.007 A 
ATOM     12  C   UNL A   1      31.438  23.176  23.634  1.00  0.00     0.024 A 
BRANCH   8  13
ATOM     13  O   UNL A   1      33.277  25.450  20.766  1.00  0.00    -0.481 OA
ATOM     14  C   UNL A   1      32.531  25.578  19.563  1.00  0.00     0.280 C 
ENDBRANCH   8  13
ENDBRANCH   6   7
ENDBRANCH   5   6
BRANCH   5  15
ATOM     15  C   UNL A   1      32.794  24.784  26.181  1.00  0.00    -0.033 A 
ATOM     16  C   UNL A   1      33.978  25.264  25.597  1.00  0.00     0.004 A 
ATOM     17  C   UNL A   1      32.878  23.602  26.934  1.00  0.00     0.008 A 
ATOM     18  C   UNL A   1      35.155  24.518  25.640  1.00  0.00     0.001 A 
ATOM     19  C   UNL A   1      34.033  22.810  26.924  1.00  0.00    -0.051 A 
ATOM     20  C   UNL A   1      35.174  23.280  26.273  1.00  0.00     0.003 A 
ATOM     21  C   UNL A   1      34.026  21.452  27.558  1.00  0.00     0.044 C 
ENDBRANCH   5  15
ENDBRANCH   3   5
ENDBRANCH   2   3
ENDBRANCH   1   2
BRANCH   1  22
ATOM     22  C   UNL A   1      31.584  30.091  25.379  1.00  0.00     0.275 C 
BRANCH  22  23
ATOM     23  O   UNL A   1      32.926  30.183  25.879  1.00  0.00    -0.458 OA
BRANCH  23  24
ATOM     24  C   UNL A   1      33.123  31.081  26.864  1.00  0.00     0.338 C 
ATOM     25  O   UNL A   1      32.417  32.036  27.162  1.00  0.00    -0.246 OA
BRANCH  24  26
ATOM     26  C   UNL A   1      34.396  30.789  27.538  1.00  0.00     0.060 A 
ATOM     27  C   UNL A   1      34.742  29.482  27.888  1.00  0.00     0.016 A 
ATOM     28  C   UNL A   1      35.225  31.853  27.888  1.00  0.00     0.016 A 
ATOM     29  C   UNL A   1      35.873  29.244  28.663  1.00  0.00     0.010 A 
ATOM     30  C   UNL A   1      36.411  31.602  28.575  1.00  0.00     0.010 A 
ATOM     31  C   UNL A   1      36.733  30.299  28.994  1.00  0.00    -0.014 A 
BRANCH  31  32
ATOM     32  C   UNL A   1      37.973  30.054  29.769  1.00  0.00     0.031 A 
ATOM     33  C   UNL A   1      39.056  29.181  29.201  1.00  0.00     0.074 A 
ATOM     34  C   UNL A   1      38.108  30.586  30.998  1.00  0.00     0.049 A 
ATOM     35  N   UNL A   1      40.122  28.696  29.786  1.00  0.00    -0.248 NA
ATOM     36  C   UNL A   1      38.915  28.788  27.790  1.00  0.00     0.031 C 
ATOM     37  C   UNL A   1      37.142  31.474  31.647  1.00  0.00     0.029 A 
ATOM     38  N   UNL A   1      39.110  30.451  31.927  1.00  0.00    -0.354 N 
ATOM     39  C   UNL A   1      40.747  27.902  28.834  1.00  0.00     0.074 A 
ATOM     40  C   UNL A   1      39.943  27.967  27.633  1.00  0.00     0.031 C 
ATOM     41  C   UNL A   1      37.609  31.826  32.854  1.00  0.00     0.029 A 
ATOM     42  C   UNL A   1      38.863  31.123  33.098  1.00  0.00     0.049 A 
ATOM     43  H   UNL A   1      39.926  29.924  31.768  1.00  0.00     0.167 HD
ATOM     44  C   UNL A   1      41.889  27.183  28.959  1.00  0.00     0.037 A 
ATOM     45  C   UNL A   1      39.547  31.137  34.257  1.00  0.00     0.037 A 
ATOM     46  C   UNL A   1      42.705  27.162  30.144  1.00  0.00     0.049 A 
ATOM     47  C   UNL A   1      40.783  30.295  34.383  1.00  0.00     0.074 A 
ATOM     48  C   UNL A   1      43.910  26.514  30.353  1.00  0.00     0.029 A 
ATOM     49  N   UNL A   1      42.398  27.824  31.324  1.00  0.00    -0.354 N 
ATOM     50  N   UNL A   1      41.361  29.536  33.485  1.00  0.00    -0.248 NA
ATOM     51  C   UNL A   1      41.448  30.295  35.692  1.00  0.00     0.031 C 
ATOM     52  C   UNL A   1      44.311  26.750  31.673  1.00  0.00     0.029 A 
ATOM     53  C   UNL A   1      43.377  27.579  32.274  1.00  0.00     0.049 A 
ATOM     54  H   UNL A   1      41.602  28.388  31.465  1.00  0.00     0.167 HD
ATOM     55  C   UNL A   1      42.460  28.973  34.113  1.00  0.00     0.074 A 
ATOM     56  C   UNL A   1      42.480  29.494  35.466  1.00  0.00     0.031 C 
ATOM     57  C   UNL A   1      43.370  28.099  33.617  1.00  0.00     0.037 A 
BRANCH  44  58
ATOM     58  C   UNL A   1      42.303  26.331  27.795  1.00  0.00     0.064 A 
ATOM     59  C   UNL A   1      43.272  26.752  26.873  1.00  0.00     0.173 A 
ATOM     60  C   UNL A   1      41.739  25.058  27.618  1.00  0.00     0.173 A 
ATOM     61  F   UNL A   1      43.833  27.965  26.989  1.00  0.00    -0.203 F 
ATOM     62  C   UNL A   1      43.642  25.940  25.803  1.00  0.00     0.198 A 
ATOM     63  C   UNL A   1      42.128  24.239  26.563  1.00  0.00     0.198 A 
ATOM     64  F   UNL A   1      40.809  24.606  28.475  1.00  0.00    -0.203 F 
ATOM     65  F   UNL A   1      44.539  26.380  24.909  1.00  0.00    -0.200 F 
ATOM     66  C   UNL A   1      43.075  24.683  25.652  1.00  0.00     0.200 A 
ATOM     67  F   UNL A   1      41.586  23.021  26.424  1.00  0.00    -0.200 F 
ATOM     68  F   UNL A   1      43.436  23.902  24.624  1.00  0.00    -0.200 F 
ENDBRANCH  44  58
BRANCH  45  69
ATOM     69  C   UNL A   1      39.051  31.958  35.391  1.00  0.00     0.064 A 
ATOM     70  C   UNL A   1      38.285  31.379  36.410  1.00  0.00     0.173 A 
ATOM     71  C   UNL A   1      39.361  33.322  35.496  1.00  0.00     0.173 A 
ATOM     72  F   UNL A   1      37.945  30.084  36.339  1.00  0.00    -0.203 F 
ATOM     73  C   UNL A   1      37.846  32.136  37.494  1.00  0.00     0.198 A 
ATOM     74  C   UNL A   1      38.944  34.070  36.594  1.00  0.00     0.198 A 
ATOM     75  F   UNL A   1      40.093  33.921  34.545  1.00  0.00    -0.203 F 
ATOM     76  F   UNL A   1      37.092  31.566  38.444  1.00  0.00    -0.200 F 
ATOM     77  C   UNL A   1      38.183  33.478  37.590  1.00  0.00     0.200 A 
ATOM     78  F   UNL A   1      39.284  35.363  36.689  1.00  0.00    -0.200 F 
ATOM     79  F   UNL A   1      37.773  34.200  38.641  1.00  0.00    -0.200 F 
ENDBRANCH  45  69
BRANCH  57  80
ATOM     80  C   UNL A   1      44.468  27.666  34.541  1.00  0.00     0.064 A 
ATOM     81  C   UNL A   1      44.349  26.509  35.323  1.00  0.00     0.173 A 
ATOM     82  C   UNL A   1      45.658  28.403  34.626  1.00  0.00     0.173 A 
ATOM     83  F   UNL A   1      43.220  25.785  35.290  1.00  0.00    -0.203 F 
ATOM     84  C   UNL A   1      45.376  26.115  36.175  1.00  0.00     0.198 A 
ATOM     85  C   UNL A   1      46.693  27.992  35.460  1.00  0.00     0.198 A 
ATOM     86  F   UNL A   1      45.819  29.515  33.895  1.00  0.00    -0.203 F 
ATOM     87  F   UNL A   1      45.226  25.030  36.948  1.00  0.00    -0.200 F 
ATOM     88  C   UNL A   1      46.550  26.853  36.238  1.00  0.00     0.200 A 
ATOM     89  F   UNL A   1      47.830  28.701  35.514  1.00  0.00    -0.200 F 
ATOM     90  F   UNL A   1      47.539  26.470  37.057  1.00  0.00    -0.200 F 
ENDBRANCH  57  80
ENDBRANCH  31  32
ENDBRANCH  24  26
ENDBRANCH  23  24
ENDBRANCH  22  23
ENDBRANCH   1  22
TORSDOF 15
ENDMDL
MODEL 3
REMARK VINA RESULT:     -11.8      5.059     10.259
REMARK SMILES COc1cccc(C[C@H](C(=O)OCCOC(=O)c2ccc(-c3c4nc(c(-c5c(F)c(F)c(F)c(F)c5F)c5ccc([nH]5)c(-c5c(F)c(F)c(F)c(F)c5F)c5nc(c(-c6c(F)c(F)c(F)c(F)c6F)c6ccc3[nH]6)C=C5)C=C4)cc2)c2cccc(C)c2)n1
REMARK SMILES IDX 13 1 12 2 10 3 11 4 9 5 8 6 7 7 3 8 4 9 88 10 5 11 6 12 2 13
REMARK SMILES IDX 1 14 81 15 82 16 87 17 83 18 85 19 84 20 86 21 14 22 15 23
REMARK SMILES IDX 16 24 17 25 18 26 19 27 80 28 20 29 79 30 21 31 22 32 23 33
REMARK SMILES IDX 73 34 24 35 78 36 72 37 74 38 25 39 77 40 71 41 70 42 26 44
REMARK SMILES IDX 58 45 38 46 57 47 39 48 42 49 56 50 75 51 40 52 41 53 55 55
REMARK SMILES IDX 76 56 43 57 27 58 28 59 36 60 29 61 30 62 34 63 37 64 31 65
REMARK SMILES IDX 32 66 35 67 33 68 59 69 60 70 68 71 61 72 62 73 66 74 69 75
REMARK SMILES IDX 63 76 64 77 67 78 65 79 44 80 45 81 53 82 46 83 47 84 51 85
REMARK SMILES IDX 54 86 48 87 49 88 52 89 50 90
REMARK H PARENT 74 43 42 54
REMARK Flexibility Score: inf
ROOT
ATOM      1  C   UNL A   1      35.565  21.271  24.889  1.00  0.00     0.274 C 
ENDROOT
BRANCH   1   2
ATOM      2  O   UNL A   1      35.217  22.036  26.058  1.00  0.00    -0.462 OA
BRANCH   2   3
ATOM      3  C   UNL A   1      33.959  21.878  26.543  1.00  0.00     0.313 C 
ATOM      4  O   UNL A   1      33.691  21.431  27.655  1.00  0.00    -0.252 OA
BRANCH   3   5
ATOM      5  C   UNL A   1      32.877  22.296  25.555  1.00  0.00     0.135 C 
BRANCH   5   6
ATOM      6  C   UNL A   1      31.850  21.131  25.436  1.00  0.00     0.076 C 
BRANCH   6   7
ATOM      7  C   UNL A   1      32.316  19.855  24.781  1.00  0.00     0.046 A 
ATOM      8  C   UNL A   1      32.703  17.589  24.997  1.00  0.00     0.213 A 
ATOM      9  C   UNL A   1      32.732  17.416  23.620  1.00  0.00     0.068 A 
ATOM     10  N   UNL A   1      32.538  18.792  25.581  1.00  0.00    -0.219 NA
ATOM     11  C   UNL A   1      32.592  18.534  22.805  1.00  0.00     0.007 A 
ATOM     12  C   UNL A   1      32.391  19.777  23.391  1.00  0.00     0.024 A 
BRANCH   8  13
ATOM     13  O   UNL A   1      32.847  16.562  25.888  1.00  0.00    -0.481 OA
ATOM     14  C   UNL A   1      32.831  15.273  25.290  1.00  0.00     0.280 C 
ENDBRANCH   8  13
ENDBRANCH   6   7
ENDBRANCH   5   6
BRANCH   5  15
ATOM     15  C   UNL A   1      32.379  23.732  25.738  1.00  0.00    -0.033 A 
ATOM     16  C   UNL A   1      31.016  24.048  25.610  1.00  0.00     0.004 A 
ATOM     17  C   UNL A   1      33.262  24.784  26.027  1.00  0.00     0.008 A 
ATOM     18  C   UNL A   1      30.581  25.373  25.621  1.00  0.00     0.001 A 
ATOM     19  C   UNL A   1      32.850  26.121  25.969  1.00  0.00    -0.051 A 
ATOM     20  C   UNL A   1      31.499  26.408  25.768  1.00  0.00     0.003 A 
ATOM     21  C   UNL A   1      33.853  27.229  26.069  1.00  0.00     0.044 C 
ENDBRANCH   5  15
ENDBRANCH   3   5
ENDBRANCH   2   3
ENDBRANCH   1   2
BRANCH   1  22
ATOM     22  C   UNL A   1      37.074  21.091  24.801  1.00  0.00     0.275 C 
BRANCH  22  23
ATOM     23  O   UNL A   1      37.668  21.603  26.004  1.00  0.00    -0.458 OA
BRANCH  23  24
ATOM     24  C   UNL A   1      38.992  21.391  26.138  1.00  0.00     0.338 C 
ATOM     25  O   UNL A   1      39.605  20.344  25.976  1.00  0.00    -0.246 OA
BRANCH  24  26
ATOM     26  C   UNL A   1      39.638  22.633  26.584  1.00  0.00     0.060 A 
ATOM     27  C   UNL A   1      39.184  23.878  26.146  1.00  0.00     0.016 A 
ATOM     28  C   UNL A   1      40.762  22.542  27.403  1.00  0.00     0.016 A 
ATOM     29  C   UNL A   1      39.904  25.030  26.452  1.00  0.00     0.010 A 
ATOM     30  C   UNL A   1      41.422  23.706  27.794  1.00  0.00     0.010 A 
ATOM     31  C   UNL A   1      41.017  24.958  27.300  1.00  0.00    -0.014 A 
BRANCH  31  32
ATOM     32  C   UNL A   1      41.759  26.183  27.684  1.00  0.00     0.031 A 
ATOM     33  C   UNL A   1      41.093  27.234  28.527  1.00  0.00     0.074 A 
ATOM     34  C   UNL A   1      43.018  26.366  27.244  1.00  0.00     0.049 A 
ATOM     35  N   UNL A   1      41.498  28.446  28.813  1.00  0.00    -0.248 NA
ATOM     36  C   UNL A   1      39.791  26.881  29.115  1.00  0.00     0.031 C 
ATOM     37  C   UNL A   1      43.784  25.407  26.446  1.00  0.00     0.029 A 
ATOM     38  N   UNL A   1      43.875  27.427  27.399  1.00  0.00    -0.354 N 
ATOM     39  C   UNL A   1      40.480  29.015  29.567  1.00  0.00     0.074 A 
ATOM     40  C   UNL A   1      39.439  28.020  29.694  1.00  0.00     0.031 C 
ATOM     41  C   UNL A   1      45.003  25.910  26.205  1.00  0.00     0.029 A 
ATOM     42  C   UNL A   1      45.076  27.257  26.757  1.00  0.00     0.049 A 
ATOM     43  H   UNL A   1      43.649  28.231  27.920  1.00  0.00     0.167 HD
ATOM     44  C   UNL A   1      40.426  30.260  30.100  1.00  0.00     0.037 A 
ATOM     45  C   UNL A   1      46.105  28.108  26.591  1.00  0.00     0.037 A 
ATOM     46  C   UNL A   1      41.489  31.226  30.005  1.00  0.00     0.049 A 
ATOM     47  C   UNL A   1      45.999  29.496  27.152  1.00  0.00     0.074 A 
ATOM     48  C   UNL A   1      41.557  32.493  30.559  1.00  0.00     0.029 A 
ATOM     49  N   UNL A   1      42.673  31.030  29.310  1.00  0.00    -0.354 N 
ATOM     50  N   UNL A   1      45.030  30.033  27.851  1.00  0.00    -0.248 NA
ATOM     51  C   UNL A   1      47.122  30.404  26.880  1.00  0.00     0.031 C 
ATOM     52  C   UNL A   1      42.766  33.078  30.165  1.00  0.00     0.029 A 
ATOM     53  C   UNL A   1      43.468  32.162  29.398  1.00  0.00     0.049 A 
ATOM     54  H   UNL A   1      42.914  30.206  28.826  1.00  0.00     0.167 HD
ATOM     55  C   UNL A   1      45.425  31.336  28.111  1.00  0.00     0.074 A 
ATOM     56  C   UNL A   1      46.733  31.504  27.509  1.00  0.00     0.031 C 
ATOM     57  C   UNL A   1      44.762  32.309  28.783  1.00  0.00     0.037 A 
BRANCH  44  58
ATOM     58  C   UNL A   1      39.161  30.660  30.802  1.00  0.00     0.064 A 
ATOM     59  C   UNL A   1      38.091  31.260  30.123  1.00  0.00     0.173 A 
ATOM     60  C   UNL A   1      39.010  30.411  32.175  1.00  0.00     0.173 A 
ATOM     61  F   UNL A   1      38.190  31.531  28.813  1.00  0.00    -0.203 F 
ATOM     62  C   UNL A   1      36.926  31.618  30.797  1.00  0.00     0.198 A 
ATOM     63  C   UNL A   1      37.835  30.747  32.841  1.00  0.00     0.198 A 
ATOM     64  F   UNL A   1      40.003  29.836  32.871  1.00  0.00    -0.203 F 
ATOM     65  F   UNL A   1      35.932  32.229  30.137  1.00  0.00    -0.200 F 
ATOM     66  C   UNL A   1      36.797  31.356  32.154  1.00  0.00     0.200 A 
ATOM     67  F   UNL A   1      37.709  30.484  34.149  1.00  0.00    -0.200 F 
ATOM     68  F   UNL A   1      35.673  31.698  32.799  1.00  0.00    -0.200 F 
ENDBRANCH  44  58
BRANCH  45  69
ATOM     69  C   UNL A   1      47.305  27.669  25.836  1.00  0.00     0.064 A 
ATOM     70  C   UNL A   1      47.333  27.733  24.437  1.00  0.00     0.173 A 
ATOM     71  C   UNL A   1      48.457  27.212  26.494  1.00  0.00     0.173 A 
ATOM     72  F   UNL A   1      46.247  28.141  23.765  1.00  0.00    -0.203 F 
ATOM     73  C   UNL A   1      48.468  27.354  23.724  1.00  0.00     0.198 A 
ATOM     74  C   UNL A   1      49.600  26.860  25.781  1.00  0.00     0.198 A 
ATOM     75  F   UNL A   1      48.479  27.134  27.833  1.00  0.00    -0.203 F 
ATOM     76  F   UNL A   1      48.460  27.399  22.385  1.00  0.00    -0.200 F 
ATOM     77  C   UNL A   1      49.603  26.927  24.396  1.00  0.00     0.200 A 
ATOM     78  F   UNL A   1      50.699  26.461  26.436  1.00  0.00    -0.200 F 
ATOM     79  F   UNL A   1      50.700  26.578  23.710  1.00  0.00    -0.200 F 
ENDBRANCH  45  69
BRANCH  57  80
ATOM     80  C   UNL A   1      45.451  33.633  28.912  1.00  0.00     0.064 A 
ATOM     81  C   UNL A   1      46.331  33.898  29.971  1.00  0.00     0.173 A 
ATOM     82  C   UNL A   1      45.248  34.638  27.955  1.00  0.00     0.173 A 
ATOM     83  F   UNL A   1      46.540  32.974  30.922  1.00  0.00    -0.203 F 
ATOM     84  C   UNL A   1      46.968  35.130  30.079  1.00  0.00     0.198 A 
ATOM     85  C   UNL A   1      45.906  35.860  28.052  1.00  0.00     0.198 A 
ATOM     86  F   UNL A   1      44.418  34.430  26.923  1.00  0.00    -0.203 F 
ATOM     87  F   UNL A   1      47.771  35.380  31.122  1.00  0.00    -0.200 F 
ATOM     88  C   UNL A   1      46.760  36.108  29.116  1.00  0.00     0.200 A 
ATOM     89  F   UNL A   1      45.711  36.801  27.117  1.00  0.00    -0.200 F 
ATOM     90  F   UNL A   1      47.377  37.294  29.220  1.00  0.00    -0.200 F 
ENDBRANCH  57  80
ENDBRANCH  31  32
ENDBRANCH  24  26
ENDBRANCH  23  24
ENDBRANCH  22  23
ENDBRANCH   1  22
TORSDOF 15
ENDMDL
