MODEL 1
REMARK VINA RESULT:     -10.5      0.000      0.000
REMARK SMILES O=C(C[NH+]1CC[NH+](Cc2cc(Cl)ccc2[N+](=O)[O-])CC1)OCCOC(=O)c1ccc(-c2c3nc(c(-c4c(F)c(F)c(F)c(F)c4F)c4ccc([nH]4)c(-c4c(F)c(F)c(F)c(F)c4F)c4nc(c(-c5c(F)c(F)c(F)c(F)c5F)c5ccc2[nH]5)C=C4)C=C3)cc1
REMARK SMILES IDX 22 1 21 2 2 3 1 4 3 5 4 6 5 7 20 8 6 10 19 11 7 12 8 14 9 15
REMARK SMILES IDX 10 16 15 17 11 18 14 19 12 20 13 21 16 22 17 23 18 24 23 25
REMARK SMILES IDX 24 26 25 27 26 28 27 29 28 30 89 31 29 32 88 33 30 34 31 35
REMARK SMILES IDX 32 36 82 37 33 38 87 39 81 40 83 41 34 42 86 43 80 44 79 45
REMARK SMILES IDX 35 47 67 48 47 49 66 50 48 51 51 52 65 53 84 54 49 55 50 56
REMARK SMILES IDX 64 58 85 59 52 60 36 61 37 62 45 63 38 64 39 65 43 66 46 67
REMARK SMILES IDX 40 68 41 69 44 70 42 71 68 72 69 73 77 74 70 75 71 76 75 77
REMARK SMILES IDX 78 78 72 79 73 80 76 81 74 82 53 83 54 84 62 85 55 86 56 87
REMARK SMILES IDX 60 88 63 89 57 90 58 91 61 92 59 93
REMARK H PARENT 4 9 7 13 83 46 51 57
REMARK Flexibility Score: inf
ROOT
ATOM      1  C   UNL A   1      33.645  34.755  28.684  1.00  0.00     0.274 C 
ENDROOT
BRANCH   1   2
ATOM      2  O   UNL A   1      32.615  34.936  29.674  1.00  0.00    -0.458 OA
BRANCH   2   3
ATOM      3  C   UNL A   1      32.878  35.682  30.788  1.00  0.00     0.361 C 
ATOM      4  O   UNL A   1      32.220  36.686  31.039  1.00  0.00    -0.245 OA
BRANCH   3   5
ATOM      5  C   UNL A   1      34.131  35.269  31.568  1.00  0.00     0.386 C 
BRANCH   5   6
ATOM      6  N   UNL A   1      34.037  33.976  32.266  1.00  0.00    -0.316 N 
ATOM      7  C   UNL A   1      34.823  32.918  31.613  1.00  0.00     0.325 C 
ATOM      8  C   UNL A   1      34.467  34.152  33.672  1.00  0.00     0.325 C 
ATOM      9  H   UNL A   1      33.063  33.674  32.232  1.00  0.00     0.348 HD
ATOM     10  C   UNL A   1      36.348  32.926  31.878  1.00  0.00     0.324 C 
ATOM     11  C   UNL A   1      36.002  34.224  33.898  1.00  0.00     0.324 C 
ATOM     12  N   UNL A   1      36.775  33.156  33.259  1.00  0.00    -0.322 N 
ATOM     13  H   UNL A   1      37.725  33.522  33.201  1.00  0.00     0.348 HD
BRANCH  12  14
ATOM     14  C   UNL A   1      37.041  31.954  34.062  1.00  0.00     0.306 C 
BRANCH  14  15
ATOM     15  C   UNL A   1      38.240  31.125  33.648  1.00  0.00     0.085 A 
ATOM     16  C   UNL A   1      37.987  29.875  33.046  1.00  0.00     0.037 A 
ATOM     17  C   UNL A   1      39.583  31.442  33.941  1.00  0.00     0.278 A 
ATOM     18  C   UNL A   1      38.998  28.925  32.895  1.00  0.00     0.042 A 
ATOM     19  C   UNL A   1      40.605  30.487  33.772  1.00  0.00     0.088 A 
ATOM     20  Cl  UNL A   1      38.611  27.362  32.292  1.00  0.00    -0.084 Cl
ATOM     21  C   UNL A   1      40.301  29.218  33.280  1.00  0.00     0.027 A 
BRANCH  17  22
ATOM     22  N   UNL A   1      39.988  32.753  34.462  1.00  0.00     0.063 N 
ATOM     23  O   UNL A   1      39.748  33.742  33.755  1.00  0.00    -0.258 OA
ATOM     24  O   UNL A   1      40.511  32.799  35.582  1.00  0.00    -0.258 OA
ENDBRANCH  17  22
ENDBRANCH  14  15
ENDBRANCH  12  14
ENDBRANCH   5   6
ENDBRANCH   3   5
ENDBRANCH   2   3
ENDBRANCH   1   2
BRANCH   1  25
ATOM     25  C   UNL A   1      33.616  33.397  27.964  1.00  0.00     0.275 C 
BRANCH  25  26
ATOM     26  O   UNL A   1      34.697  32.540  28.353  1.00  0.00    -0.458 OA
BRANCH  26  27
ATOM     27  C   UNL A   1      34.448  31.218  28.178  1.00  0.00     0.338 C 
ATOM     28  O   UNL A   1      33.401  30.714  27.811  1.00  0.00    -0.246 OA
BRANCH  27  29
ATOM     29  C   UNL A   1      35.722  30.480  28.291  1.00  0.00     0.060 A 
ATOM     30  C   UNL A   1      36.101  30.020  29.560  1.00  0.00     0.016 A 
ATOM     31  C   UNL A   1      36.525  30.224  27.175  1.00  0.00     0.016 A 
ATOM     32  C   UNL A   1      37.318  29.361  29.728  1.00  0.00     0.010 A 
ATOM     33  C   UNL A   1      37.752  29.577  27.348  1.00  0.00     0.010 A 
ATOM     34  C   UNL A   1      38.174  29.190  28.632  1.00  0.00    -0.014 A 
BRANCH  34  35
ATOM     35  C   UNL A   1      39.607  28.890  28.864  1.00  0.00     0.031 A 
ATOM     36  C   UNL A   1      40.441  29.961  29.512  1.00  0.00     0.074 A 
ATOM     37  C   UNL A   1      40.168  27.723  28.505  1.00  0.00     0.049 A 
ATOM     38  N   UNL A   1      41.722  29.976  29.782  1.00  0.00    -0.248 NA
ATOM     39  C   UNL A   1      39.728  31.189  29.902  1.00  0.00     0.031 C 
ATOM     40  C   UNL A   1      39.469  26.596  27.897  1.00  0.00     0.029 A 
ATOM     41  N   UNL A   1      41.474  27.307  28.593  1.00  0.00    -0.354 N 
ATOM     42  C   UNL A   1      41.962  31.209  30.372  1.00  0.00     0.074 A 
ATOM     43  C   UNL A   1      40.709  31.928  30.393  1.00  0.00     0.031 C 
ATOM     44  C   UNL A   1      40.360  25.620  27.645  1.00  0.00     0.029 A 
ATOM     45  C   UNL A   1      41.693  26.065  28.055  1.00  0.00     0.049 A 
ATOM     46  H   UNL A   1      42.186  27.850  29.003  1.00  0.00     0.167 HD
ATOM     47  C   UNL A   1      43.125  31.699  30.862  1.00  0.00     0.037 A 
ATOM     48  C   UNL A   1      42.843  25.379  27.898  1.00  0.00     0.037 A 
ATOM     49  C   UNL A   1      44.377  31.001  30.826  1.00  0.00     0.049 A 
ATOM     50  C   UNL A   1      44.143  25.974  28.384  1.00  0.00     0.074 A 
ATOM     51  C   UNL A   1      45.608  31.410  31.306  1.00  0.00     0.029 A 
ATOM     52  N   UNL A   1      44.560  29.749  30.261  1.00  0.00    -0.354 N 
ATOM     53  N   UNL A   1      44.356  27.120  28.985  1.00  0.00    -0.248 NA
ATOM     54  C   UNL A   1      45.361  25.176  28.172  1.00  0.00     0.031 C 
ATOM     55  C   UNL A   1      46.547  30.424  30.989  1.00  0.00     0.029 A 
ATOM     56  C   UNL A   1      45.891  29.379  30.355  1.00  0.00     0.049 A 
ATOM     57  H   UNL A   1      43.849  29.203  29.853  1.00  0.00     0.167 HD
ATOM     58  C   UNL A   1      45.720  27.165  29.251  1.00  0.00     0.074 A 
ATOM     59  C   UNL A   1      46.286  25.933  28.747  1.00  0.00     0.031 C 
ATOM     60  C   UNL A   1      46.436  28.140  29.865  1.00  0.00     0.037 A 
BRANCH  47  61
ATOM     61  C   UNL A   1      43.083  33.078  31.445  1.00  0.00     0.064 A 
ATOM     62  C   UNL A   1      43.076  34.221  30.630  1.00  0.00     0.173 A 
ATOM     63  C   UNL A   1      43.071  33.260  32.836  1.00  0.00     0.173 A 
ATOM     64  F   UNL A   1      43.111  34.098  29.295  1.00  0.00    -0.203 F 
ATOM     65  C   UNL A   1      43.094  35.496  31.189  1.00  0.00     0.198 A 
ATOM     66  C   UNL A   1      43.061  34.536  33.390  1.00  0.00     0.198 A 
ATOM     67  F   UNL A   1      43.080  32.198  33.656  1.00  0.00    -0.203 F 
ATOM     68  F   UNL A   1      43.149  36.573  30.393  1.00  0.00    -0.200 F 
ATOM     69  C   UNL A   1      43.083  35.652  32.567  1.00  0.00     0.200 A 
ATOM     70  F   UNL A   1      43.046  34.687  34.722  1.00  0.00    -0.200 F 
ATOM     71  F   UNL A   1      43.108  36.880  33.104  1.00  0.00    -0.200 F 
ENDBRANCH  47  61
BRANCH  48  72
ATOM     72  C   UNL A   1      42.824  24.046  27.244  1.00  0.00     0.064 A 
ATOM     73  C   UNL A   1      42.484  22.892  27.963  1.00  0.00     0.173 A 
ATOM     74  C   UNL A   1      43.162  23.897  25.891  1.00  0.00     0.173 A 
ATOM     75  F   UNL A   1      42.183  22.981  29.267  1.00  0.00    -0.203 F 
ATOM     76  C   UNL A   1      42.493  21.638  27.356  1.00  0.00     0.198 A 
ATOM     77  C   UNL A   1      43.149  22.644  25.280  1.00  0.00     0.198 A 
ATOM     78  F   UNL A   1      43.502  24.970  25.161  1.00  0.00    -0.203 F 
ATOM     79  F   UNL A   1      42.203  20.545  28.076  1.00  0.00    -0.200 F 
ATOM     80  C   UNL A   1      42.820  21.516  26.014  1.00  0.00     0.200 A 
ATOM     81  F   UNL A   1      43.459  22.532  23.981  1.00  0.00    -0.200 F 
ATOM     82  F   UNL A   1      42.827  20.309  25.431  1.00  0.00    -0.200 F 
ENDBRANCH  48  72
BRANCH  60  83
ATOM     83  C   UNL A   1      47.904  27.907  30.074  1.00  0.00     0.064 A 
ATOM     84  C   UNL A   1      48.388  27.227  31.201  1.00  0.00     0.173 A 
ATOM     85  C   UNL A   1      48.827  28.292  29.090  1.00  0.00     0.173 A 
ATOM     86  F   UNL A   1      47.547  26.848  32.174  1.00  0.00    -0.203 F 
ATOM     87  C   UNL A   1      49.746  26.949  31.338  1.00  0.00     0.198 A 
ATOM     88  C   UNL A   1      50.180  27.991  29.218  1.00  0.00     0.198 A 
ATOM     89  F   UNL A   1      48.411  28.938  27.991  1.00  0.00    -0.203 F 
ATOM     90  F   UNL A   1      50.192  26.320  32.434  1.00  0.00    -0.200 F 
ATOM     91  C   UNL A   1      50.639  27.322  30.342  1.00  0.00     0.200 A 
ATOM     92  F   UNL A   1      51.037  28.339  28.250  1.00  0.00    -0.200 F 
ATOM     93  F   UNL A   1      51.942  27.036  30.468  1.00  0.00    -0.200 F 
ENDBRANCH  60  83
ENDBRANCH  34  35
ENDBRANCH  27  29
ENDBRANCH  26  27
ENDBRANCH  25  26
ENDBRANCH   1  25
TORSDOF 15
ENDMDL
MODEL 2
REMARK VINA RESULT:     -10.3      5.467     11.430
REMARK SMILES O=C(C[NH+]1CC[NH+](Cc2cc(Cl)ccc2[N+](=O)[O-])CC1)OCCOC(=O)c1ccc(-c2c3nc(c(-c4c(F)c(F)c(F)c(F)c4F)c4ccc([nH]4)c(-c4c(F)c(F)c(F)c(F)c4F)c4nc(c(-c5c(F)c(F)c(F)c(F)c5F)c5ccc2[nH]5)C=C4)C=C3)cc1
REMARK SMILES IDX 22 1 21 2 2 3 1 4 3 5 4 6 5 7 20 8 6 10 19 11 7 12 8 14 9 15
REMARK SMILES IDX 10 16 15 17 11 18 14 19 12 20 13 21 16 22 17 23 18 24 23 25
REMARK SMILES IDX 24 26 25 27 26 28 27 29 28 30 89 31 29 32 88 33 30 34 31 35
REMARK SMILES IDX 32 36 82 37 33 38 87 39 81 40 83 41 34 42 86 43 80 44 79 45
REMARK SMILES IDX 35 47 67 48 47 49 66 50 48 51 51 52 65 53 84 54 49 55 50 56
REMARK SMILES IDX 64 58 85 59 52 60 36 61 37 62 45 63 38 64 39 65 43 66 46 67
REMARK SMILES IDX 40 68 41 69 44 70 42 71 68 72 69 73 77 74 70 75 71 76 75 77
REMARK SMILES IDX 78 78 72 79 73 80 76 81 74 82 53 83 54 84 62 85 55 86 56 87
REMARK SMILES IDX 60 88 63 89 57 90 58 91 61 92 59 93
REMARK H PARENT 4 9 7 13 83 46 51 57
REMARK Flexibility Score: inf
ROOT
ATOM      1  C   UNL A   1      42.396  21.027  26.088  1.00  0.00     0.274 C 
ENDROOT
BRANCH   1   2
ATOM      2  O   UNL A   1      41.038  21.288  25.686  1.00  0.00    -0.458 OA
BRANCH   2   3
ATOM      3  C   UNL A   1      40.072  21.439  26.641  1.00  0.00     0.361 C 
ATOM      4  O   UNL A   1      40.367  21.464  27.831  1.00  0.00    -0.245 OA
BRANCH   3   5
ATOM      5  C   UNL A   1      38.631  21.394  26.122  1.00  0.00     0.386 C 
BRANCH   5   6
ATOM      6  N   UNL A   1      38.324  22.349  25.044  1.00  0.00    -0.316 N 
ATOM      7  C   UNL A   1      37.201  21.910  24.200  1.00  0.00     0.325 C 
ATOM      8  C   UNL A   1      38.043  23.677  25.636  1.00  0.00     0.325 C 
ATOM      9  H   UNL A   1      39.139  22.402  24.433  1.00  0.00     0.348 HD
ATOM     10  C   UNL A   1      35.779  22.132  24.771  1.00  0.00     0.324 C 
ATOM     11  C   UNL A   1      36.631  23.846  26.261  1.00  0.00     0.324 C 
ATOM     12  N   UNL A   1      35.519  23.424  25.406  1.00  0.00    -0.322 N 
ATOM     13  H   UNL A   1      34.742  23.268  26.049  1.00  0.00     0.348 HD
BRANCH  12  14
ATOM     14  C   UNL A   1      34.907  24.452  24.553  1.00  0.00     0.306 C 
BRANCH  14  15
ATOM     15  C   UNL A   1      33.400  24.393  24.411  1.00  0.00     0.085 A 
ATOM     16  C   UNL A   1      32.654  24.043  25.556  1.00  0.00     0.037 A 
ATOM     17  C   UNL A   1      32.695  24.521  23.195  1.00  0.00     0.278 A 
ATOM     18  C   UNL A   1      31.309  23.683  25.464  1.00  0.00     0.042 A 
ATOM     19  C   UNL A   1      31.333  24.173  23.109  1.00  0.00     0.088 A 
ATOM     20  Cl  UNL A   1      30.483  23.123  26.864  1.00  0.00    -0.084 Cl
ATOM     21  C   UNL A   1      30.653  23.721  24.239  1.00  0.00     0.027 A 
BRANCH  17  22
ATOM     22  N   UNL A   1      33.334  24.988  21.960  1.00  0.00     0.063 N 
ATOM     23  O   UNL A   1      33.949  26.063  22.011  1.00  0.00    -0.258 OA
ATOM     24  O   UNL A   1      33.252  24.272  20.954  1.00  0.00    -0.258 OA
ENDBRANCH  17  22
ENDBRANCH  14  15
ENDBRANCH  12  14
ENDBRANCH   5   6
ENDBRANCH   3   5
ENDBRANCH   2   3
ENDBRANCH   1   2
BRANCH   1  25
ATOM     25  C   UNL A   1      43.454  21.898  25.391  1.00  0.00     0.275 C 
BRANCH  25  26
ATOM     26  O   UNL A   1      42.900  23.093  24.824  1.00  0.00    -0.458 OA
BRANCH  26  27
ATOM     27  C   UNL A   1      43.658  24.201  25.018  1.00  0.00     0.338 C 
ATOM     28  O   UNL A   1      44.718  24.466  24.478  1.00  0.00    -0.246 OA
BRANCH  27  29
ATOM     29  C   UNL A   1      42.888  25.162  25.834  1.00  0.00     0.060 A 
ATOM     30  C   UNL A   1      43.353  26.482  25.902  1.00  0.00     0.016 A 
ATOM     31  C   UNL A   1      41.720  24.786  26.506  1.00  0.00     0.016 A 
ATOM     32  C   UNL A   1      42.690  27.415  26.697  1.00  0.00     0.010 A 
ATOM     33  C   UNL A   1      41.065  25.718  27.316  1.00  0.00     0.010 A 
ATOM     34  C   UNL A   1      41.578  27.021  27.453  1.00  0.00    -0.014 A 
BRANCH  34  35
ATOM     35  C   UNL A   1      41.137  27.856  28.596  1.00  0.00     0.031 A 
ATOM     36  C   UNL A   1      41.906  27.727  29.883  1.00  0.00     0.074 A 
ATOM     37  C   UNL A   1      40.086  28.689  28.518  1.00  0.00     0.049 A 
ATOM     38  N   UNL A   1      41.701  28.302  31.040  1.00  0.00    -0.248 NA
ATOM     39  C   UNL A   1      43.062  26.816  29.858  1.00  0.00     0.031 C 
ATOM     40  C   UNL A   1      39.277  28.928  27.328  1.00  0.00     0.029 A 
ATOM     41  N   UNL A   1      39.515  29.482  29.483  1.00  0.00    -0.354 N 
ATOM     42  C   UNL A   1      42.702  27.823  31.875  1.00  0.00     0.074 A 
ATOM     43  C   UNL A   1      43.492  26.889  31.106  1.00  0.00     0.031 C 
ATOM     44  C   UNL A   1      38.296  29.794  27.639  1.00  0.00     0.029 A 
ATOM     45  C   UNL A   1      38.398  30.153  29.055  1.00  0.00     0.049 A 
ATOM     46  H   UNL A   1      39.874  29.562  30.397  1.00  0.00     0.167 HD
ATOM     47  C   UNL A   1      42.948  28.138  33.168  1.00  0.00     0.037 A 
ATOM     48  C   UNL A   1      37.550  30.948  29.737  1.00  0.00     0.037 A 
ATOM     49  C   UNL A   1      42.157  29.048  33.944  1.00  0.00     0.049 A 
ATOM     50  C   UNL A   1      37.798  31.229  31.199  1.00  0.00     0.074 A 
ATOM     51  C   UNL A   1      42.332  29.440  35.259  1.00  0.00     0.029 A 
ATOM     52  N   UNL A   1      41.025  29.697  33.476  1.00  0.00    -0.354 N 
ATOM     53  N   UNL A   1      38.773  30.812  31.969  1.00  0.00    -0.248 NA
ATOM     54  C   UNL A   1      36.828  32.098  31.884  1.00  0.00     0.031 C 
ATOM     55  C   UNL A   1      41.277  30.292  35.602  1.00  0.00     0.029 A 
ATOM     56  C   UNL A   1      40.474  30.468  34.486  1.00  0.00     0.049 A 
ATOM     57  H   UNL A   1      40.666  29.622  32.562  1.00  0.00     0.167 HD
ATOM     58  C   UNL A   1      38.554  31.390  33.215  1.00  0.00     0.074 A 
ATOM     59  C   UNL A   1      37.352  32.188  33.099  1.00  0.00     0.031 C 
ATOM     60  C   UNL A   1      39.287  31.273  34.349  1.00  0.00     0.037 A 
BRANCH  47  61
ATOM     61  C   UNL A   1      44.110  27.453  33.820  1.00  0.00     0.064 A 
ATOM     62  C   UNL A   1      43.966  26.213  34.461  1.00  0.00     0.173 A 
ATOM     63  C   UNL A   1      45.377  28.054  33.822  1.00  0.00     0.173 A 
ATOM     64  F   UNL A   1      42.768  25.611  34.505  1.00  0.00    -0.203 F 
ATOM     65  C   UNL A   1      45.043  25.616  35.111  1.00  0.00     0.198 A 
ATOM     66  C   UNL A   1      46.457  27.441  34.450  1.00  0.00     0.198 A 
ATOM     67  F   UNL A   1      45.563  29.241  33.226  1.00  0.00    -0.203 F 
ATOM     68  F   UNL A   1      44.870  24.462  35.768  1.00  0.00    -0.200 F 
ATOM     69  C   UNL A   1      46.288  26.229  35.102  1.00  0.00     0.200 A 
ATOM     70  F   UNL A   1      47.661  28.032  34.437  1.00  0.00    -0.200 F 
ATOM     71  F   UNL A   1      47.322  25.658  35.734  1.00  0.00    -0.200 F 
ENDBRANCH  47  61
BRANCH  48  72
ATOM     72  C   UNL A   1      36.374  31.537  29.047  1.00  0.00     0.064 A 
ATOM     73  C   UNL A   1      36.304  32.912  28.783  1.00  0.00     0.173 A 
ATOM     74  C   UNL A   1      35.290  30.740  28.652  1.00  0.00     0.173 A 
ATOM     75  F   UNL A   1      37.304  33.718  29.168  1.00  0.00    -0.203 F 
ATOM     76  C   UNL A   1      35.189  33.469  28.160  1.00  0.00     0.198 A 
ATOM     77  C   UNL A   1      34.185  31.295  28.009  1.00  0.00     0.198 A 
ATOM     78  F   UNL A   1      35.305  29.420  28.889  1.00  0.00    -0.203 F 
ATOM     79  F   UNL A   1      35.129  34.791  27.955  1.00  0.00    -0.200 F 
ATOM     80  C   UNL A   1      34.133  32.659  27.769  1.00  0.00     0.200 A 
ATOM     81  F   UNL A   1      33.169  30.508  27.627  1.00  0.00    -0.200 F 
ATOM     82  F   UNL A   1      33.061  33.196  27.169  1.00  0.00    -0.200 F 
ENDBRANCH  48  72
BRANCH  60  83
ATOM     83  C   UNL A   1      38.850  32.057  35.552  1.00  0.00     0.064 A 
ATOM     84  C   UNL A   1      38.154  31.455  36.610  1.00  0.00     0.173 A 
ATOM     85  C   UNL A   1      39.211  33.406  35.684  1.00  0.00     0.173 A 
ATOM     86  F   UNL A   1      37.777  30.171  36.526  1.00  0.00    -0.203 F 
ATOM     87  C   UNL A   1      37.827  32.180  37.754  1.00  0.00     0.198 A 
ATOM     88  C   UNL A   1      38.906  34.121  36.839  1.00  0.00     0.198 A 
ATOM     89  F   UNL A   1      39.885  34.024  34.703  1.00  0.00    -0.203 F 
ATOM     90  F   UNL A   1      37.141  31.593  38.743  1.00  0.00    -0.200 F 
ATOM     91  C   UNL A   1      38.213  33.508  37.872  1.00  0.00     0.200 A 
ATOM     92  F   UNL A   1      39.291  35.399  36.957  1.00  0.00    -0.200 F 
ATOM     93  F   UNL A   1      37.915  34.197  38.982  1.00  0.00    -0.200 F 
ENDBRANCH  60  83
ENDBRANCH  34  35
ENDBRANCH  27  29
ENDBRANCH  26  27
ENDBRANCH  25  26
ENDBRANCH   1  25
TORSDOF 15
ENDMDL
MODEL 3
REMARK VINA RESULT:     -10.2      4.724      9.852
REMARK SMILES O=C(C[NH+]1CC[NH+](Cc2cc(Cl)ccc2[N+](=O)[O-])CC1)OCCOC(=O)c1ccc(-c2c3nc(c(-c4c(F)c(F)c(F)c(F)c4F)c4ccc([nH]4)c(-c4c(F)c(F)c(F)c(F)c4F)c4nc(c(-c5c(F)c(F)c(F)c(F)c5F)c5ccc2[nH]5)C=C4)C=C3)cc1
REMARK SMILES IDX 22 1 21 2 2 3 1 4 3 5 4 6 5 7 20 8 6 10 19 11 7 12 8 14 9 15
REMARK SMILES IDX 10 16 15 17 11 18 14 19 12 20 13 21 16 22 17 23 18 24 23 25
REMARK SMILES IDX 24 26 25 27 26 28 27 29 28 30 89 31 29 32 88 33 30 34 31 35
REMARK SMILES IDX 32 36 82 37 33 38 87 39 81 40 83 41 34 42 86 43 80 44 79 45
REMARK SMILES IDX 35 47 67 48 47 49 66 50 48 51 51 52 65 53 84 54 49 55 50 56
REMARK SMILES IDX 64 58 85 59 52 60 36 61 37 62 45 63 38 64 39 65 43 66 46 67
REMARK SMILES IDX 40 68 41 69 44 70 42 71 68 72 69 73 77 74 70 75 71 76 75 77
REMARK SMILES IDX 78 78 72 79 73 80 76 81 74 82 53 83 54 84 62 85 55 86 56 87
REMARK SMILES IDX 60 88 63 89 57 90 58 91 61 92 59 93
REMARK H PARENT 4 9 7 13 83 46 51 57
REMARK Flexibility Score: inf
ROOT
ATOM      1  C   UNL A   1      31.364  29.617  25.010  1.00  0.00     0.274 C 
ENDROOT
BRANCH   1   2
ATOM      2  O   UNL A   1      30.366  29.773  23.984  1.00  0.00    -0.458 OA
BRANCH   2   3
ATOM      3  C   UNL A   1      30.654  29.397  22.702  1.00  0.00     0.361 C 
ATOM      4  O   UNL A   1      29.788  29.419  21.834  1.00  0.00    -0.245 OA
BRANCH   3   5
ATOM      5  C   UNL A   1      32.050  28.802  22.496  1.00  0.00     0.386 C 
BRANCH   5   6
ATOM      6  N   UNL A   1      32.073  27.411  22.012  1.00  0.00    -0.316 N 
ATOM      7  C   UNL A   1      33.356  26.740  22.273  1.00  0.00     0.325 C 
ATOM      8  C   UNL A   1      30.957  26.662  22.634  1.00  0.00     0.325 C 
ATOM      9  H   UNL A   1      31.961  27.432  20.999  1.00  0.00     0.348 HD
ATOM     10  C   UNL A   1      33.584  26.218  23.712  1.00  0.00     0.324 C 
ATOM     11  C   UNL A   1      31.189  26.211  24.102  1.00  0.00     0.324 C 
ATOM     12  N   UNL A   1      32.461  25.527  24.348  1.00  0.00    -0.322 N 
ATOM     13  H   UNL A   1      32.612  25.614  25.353  1.00  0.00     0.348 HD
BRANCH  12  14
ATOM     14  C   UNL A   1      32.460  24.061  24.241  1.00  0.00     0.306 C 
BRANCH  14  15
ATOM     15  C   UNL A   1      33.179  23.311  25.344  1.00  0.00     0.085 A 
ATOM     16  C   UNL A   1      34.389  22.669  25.009  1.00  0.00     0.037 A 
ATOM     17  C   UNL A   1      32.665  23.087  26.639  1.00  0.00     0.278 A 
ATOM     18  C   UNL A   1      34.970  21.727  25.859  1.00  0.00     0.042 A 
ATOM     19  C   UNL A   1      33.263  22.148  27.502  1.00  0.00     0.088 A 
ATOM     20  Cl  UNL A   1      36.364  20.863  25.343  1.00  0.00    -0.084 Cl
ATOM     21  C   UNL A   1      34.397  21.446  27.093  1.00  0.00     0.027 A 
BRANCH  17  22
ATOM     22  N   UNL A   1      31.478  23.784  27.147  1.00  0.00     0.063 N 
ATOM     23  O   UNL A   1      30.487  23.090  27.420  1.00  0.00    -0.258 OA
ATOM     24  O   UNL A   1      31.543  25.009  27.304  1.00  0.00    -0.258 OA
ENDBRANCH  17  22
ENDBRANCH  14  15
ENDBRANCH  12  14
ENDBRANCH   5   6
ENDBRANCH   3   5
ENDBRANCH   2   3
ENDBRANCH   1   2
BRANCH   1  25
ATOM     25  C   UNL A   1      31.573  30.853  25.900  1.00  0.00     0.275 C 
BRANCH  25  26
ATOM     26  O   UNL A   1      32.559  30.640  26.919  1.00  0.00    -0.458 OA
BRANCH  26  27
ATOM     27  C   UNL A   1      33.199  31.769  27.315  1.00  0.00     0.338 C 
ATOM     28  O   UNL A   1      32.713  32.879  27.442  1.00  0.00    -0.246 OA
BRANCH  27  29
ATOM     29  C   UNL A   1      34.548  31.403  27.791  1.00  0.00     0.060 A 
ATOM     30  C   UNL A   1      34.809  30.048  28.039  1.00  0.00     0.016 A 
ATOM     31  C   UNL A   1      35.550  32.362  27.972  1.00  0.00     0.016 A 
ATOM     32  C   UNL A   1      36.051  29.656  28.536  1.00  0.00     0.010 A 
ATOM     33  C   UNL A   1      36.790  31.970  28.485  1.00  0.00     0.010 A 
ATOM     34  C   UNL A   1      37.025  30.623  28.815  1.00  0.00    -0.014 A 
BRANCH  34  35
ATOM     35  C   UNL A   1      38.153  30.285  29.717  1.00  0.00     0.031 A 
ATOM     36  C   UNL A   1      39.165  29.292  29.214  1.00  0.00     0.074 A 
ATOM     37  C   UNL A   1      38.281  30.817  30.943  1.00  0.00     0.049 A 
ATOM     38  N   UNL A   1      40.213  28.789  29.815  1.00  0.00    -0.248 NA
ATOM     39  C   UNL A   1      38.959  28.794  27.844  1.00  0.00     0.031 C 
ATOM     40  C   UNL A   1      37.390  31.808  31.538  1.00  0.00     0.029 A 
ATOM     41  N   UNL A   1      39.220  30.576  31.917  1.00  0.00    -0.354 N 
ATOM     42  C   UNL A   1      40.787  27.921  28.897  1.00  0.00     0.074 A 
ATOM     43  C   UNL A   1      39.958  27.938  27.713  1.00  0.00     0.031 C 
ATOM     44  C   UNL A   1      37.812  32.075  32.787  1.00  0.00     0.029 A 
ATOM     45  C   UNL A   1      38.990  31.259  33.084  1.00  0.00     0.049 A 
ATOM     46  H   UNL A   1      39.985  29.970  31.788  1.00  0.00     0.167 HD
ATOM     47  C   UNL A   1      41.911  27.178  29.023  1.00  0.00     0.037 A 
ATOM     48  C   UNL A   1      39.649  31.211  34.259  1.00  0.00     0.037 A 
ATOM     49  C   UNL A   1      42.728  27.139  30.201  1.00  0.00     0.049 A 
ATOM     50  C   UNL A   1      40.858  30.319  34.405  1.00  0.00     0.074 A 
ATOM     51  C   UNL A   1      43.892  26.426  30.422  1.00  0.00     0.029 A 
ATOM     52  N   UNL A   1      42.454  27.836  31.368  1.00  0.00    -0.354 N 
ATOM     53  N   UNL A   1      41.423  29.537  33.518  1.00  0.00    -0.248 NA
ATOM     54  C   UNL A   1      41.522  30.308  35.718  1.00  0.00     0.031 C 
ATOM     55  C   UNL A   1      44.297  26.654  31.741  1.00  0.00     0.029 A 
ATOM     56  C   UNL A   1      43.413  27.549  32.324  1.00  0.00     0.049 A 
ATOM     57  H   UNL A   1      41.691  28.445  31.497  1.00  0.00     0.167 HD
ATOM     58  C   UNL A   1      42.523  28.970  34.152  1.00  0.00     0.074 A 
ATOM     59  C   UNL A   1      42.547  29.496  35.499  1.00  0.00     0.031 C 
ATOM     60  C   UNL A   1      43.434  28.096  33.656  1.00  0.00     0.037 A 
BRANCH  47  61
ATOM     61  C   UNL A   1      42.289  26.321  27.853  1.00  0.00     0.064 A 
ATOM     62  C   UNL A   1      43.218  26.754  26.895  1.00  0.00     0.173 A 
ATOM     63  C   UNL A   1      41.698  25.062  27.678  1.00  0.00     0.173 A 
ATOM     64  F   UNL A   1      43.791  27.961  27.008  1.00  0.00    -0.203 F 
ATOM     65  C   UNL A   1      43.515  25.970  25.784  1.00  0.00     0.198 A 
ATOM     66  C   UNL A   1      42.018  24.269  26.580  1.00  0.00     0.198 A 
ATOM     67  F   UNL A   1      40.801  24.606  28.565  1.00  0.00    -0.203 F 
ATOM     68  F   UNL A   1      44.359  26.427  24.850  1.00  0.00    -0.200 F 
ATOM     69  C   UNL A   1      42.918  24.727  25.629  1.00  0.00     0.200 A 
ATOM     70  F   UNL A   1      41.444  23.066  26.434  1.00  0.00    -0.200 F 
ATOM     71  F   UNL A   1      43.199  23.976  24.556  1.00  0.00    -0.200 F 
ENDBRANCH  47  61
BRANCH  48  72
ATOM     72  C   UNL A   1      39.176  32.031  35.404  1.00  0.00     0.064 A 
ATOM     73  C   UNL A   1      39.523  33.385  35.515  1.00  0.00     0.173 A 
ATOM     74  C   UNL A   1      38.382  31.475  36.417  1.00  0.00     0.173 A 
ATOM     75  F   UNL A   1      40.305  33.953  34.585  1.00  0.00    -0.203 F 
ATOM     76  C   UNL A   1      39.103  34.148  36.603  1.00  0.00     0.198 A 
ATOM     77  C   UNL A   1      37.944  32.245  37.493  1.00  0.00     0.198 A 
ATOM     78  F   UNL A   1      38.029  30.182  36.360  1.00  0.00    -0.203 F 
ATOM     79  F   UNL A   1      39.481  35.429  36.706  1.00  0.00    -0.200 F 
ATOM     80  C   UNL A   1      38.309  33.579  37.587  1.00  0.00     0.200 A 
ATOM     81  F   UNL A   1      37.172  31.693  38.439  1.00  0.00    -0.200 F 
ATOM     82  F   UNL A   1      37.904  34.314  38.633  1.00  0.00    -0.200 F 
ENDBRANCH  48  72
BRANCH  60  83
ATOM     83  C   UNL A   1      44.566  27.680  34.549  1.00  0.00     0.064 A 
ATOM     84  C   UNL A   1      44.492  26.529  35.345  1.00  0.00     0.173 A 
ATOM     85  C   UNL A   1      45.772  28.397  34.538  1.00  0.00     0.173 A 
ATOM     86  F   UNL A   1      43.356  25.816  35.398  1.00  0.00    -0.203 F 
ATOM     87  C   UNL A   1      45.583  26.114  36.106  1.00  0.00     0.198 A 
ATOM     88  C   UNL A   1      46.870  27.966  35.279  1.00  0.00     0.198 A 
ATOM     89  F   UNL A   1      45.896  29.500  33.786  1.00  0.00    -0.203 F 
ATOM     90  F   UNL A   1      45.483  25.025  36.879  1.00  0.00    -0.200 F 
ATOM     91  C   UNL A   1      46.773  26.827  36.063  1.00  0.00     0.200 A 
ATOM     92  F   UNL A   1      48.022  28.647  35.227  1.00  0.00    -0.200 F 
ATOM     93  F   UNL A   1      47.827  26.415  36.781  1.00  0.00    -0.200 F 
ENDBRANCH  60  83
ENDBRANCH  34  35
ENDBRANCH  27  29
ENDBRANCH  26  27
ENDBRANCH  25  26
ENDBRANCH   1  25
TORSDOF 15
ENDMDL
