MODEL 1
REMARK VINA RESULT:     -12.2      0.000      0.000
REMARK SMILES Cc1ccccc1N[C@H](C(=O)OCCOC(=O)c1ccc(-c2c3nc(c(-c4c(F)c(F)c(F)c(F)c4F)c4ccc([nH]4)c(-c4c(F)c(F)c(F)c(F)c4F)c4nc(c(-c5c(F)c(F)c(F)c(F)c5F)c5ccc2[nH]5)C=C4)C=C3)cc1)c1ccccc1
REMARK SMILES IDX 13 1 12 2 10 3 11 4 9 5 8 6 7 8 1 9 2 10 3 11 4 12 6 13 5 14
REMARK SMILES IDX 81 15 82 16 86 17 83 18 85 19 84 20 14 21 15 22 16 23 17 24
REMARK SMILES IDX 18 25 19 26 80 27 20 28 79 29 21 30 22 31 23 32 73 33 24 34
REMARK SMILES IDX 78 35 72 36 74 37 25 38 77 39 71 40 70 41 26 43 58 44 38 45
REMARK SMILES IDX 57 46 39 47 42 48 56 49 75 50 40 51 41 52 55 54 76 55 43 56
REMARK SMILES IDX 27 57 28 58 36 59 29 60 30 61 34 62 37 63 31 64 32 65 35 66
REMARK SMILES IDX 33 67 59 68 60 69 68 70 61 71 62 72 66 73 69 74 63 75 64 76
REMARK SMILES IDX 67 77 65 78 44 79 45 80 53 81 46 82 47 83 51 84 54 85 48 86
REMARK SMILES IDX 49 87 52 88 50 89
REMARK H PARENT 8 7 74 42 42 53
REMARK Flexibility Score: inf
ROOT
ATOM      1  C   UNL A   1      43.037  19.207  25.633  1.00  0.00     0.274 C 
ENDROOT
BRANCH   1   2
ATOM      2  O   UNL A   1      42.230  20.405  25.740  1.00  0.00    -0.460 OA
BRANCH   2   3
ATOM      3  C   UNL A   1      40.947  20.435  26.161  1.00  0.00     0.333 C 
ATOM      4  O   UNL A   1      40.217  19.446  26.126  1.00  0.00    -0.249 OA
BRANCH   3   5
ATOM      5  C   UNL A   1      40.415  21.899  26.497  1.00  0.00     0.221 C 
BRANCH   5   6
ATOM      6  N   UNL A   1      38.927  21.760  26.485  1.00  0.00    -0.368 N 
ATOM      7  H   UNL A   1      38.612  21.141  27.182  1.00  0.00     0.161 HD
BRANCH   6   8
ATOM      8  C   UNL A   1      37.893  22.274  25.753  1.00  0.00     0.038 A 
ATOM      9  C   UNL A   1      37.406  20.018  24.627  1.00  0.00     0.046 C 
ATOM     10  C   UNL A   1      37.016  21.405  25.071  1.00  0.00    -0.028 A 
ATOM     11  C   UNL A   1      35.720  21.840  24.749  1.00  0.00     0.005 A 
ATOM     12  C   UNL A   1      35.346  23.162  24.961  1.00  0.00     0.000 A 
ATOM     13  C   UNL A   1      37.582  23.633  25.736  1.00  0.00     0.026 A 
ATOM     14  C   UNL A   1      36.304  24.077  25.378  1.00  0.00     0.002 A 
ENDBRANCH   6   8
ENDBRANCH   5   6
BRANCH   5  15
ATOM     15  C   UNL A   1      41.211  22.669  27.579  1.00  0.00    -0.015 A 
ATOM     16  C   UNL A   1      41.150  24.050  27.793  1.00  0.00     0.006 A 
ATOM     17  C   UNL A   1      42.241  22.027  28.309  1.00  0.00     0.006 A 
ATOM     18  C   UNL A   1      41.996  24.737  28.678  1.00  0.00     0.000 A 
ATOM     19  C   UNL A   1      43.055  22.684  29.243  1.00  0.00     0.000 A 
ATOM     20  C   UNL A   1      42.918  24.045  29.439  1.00  0.00     0.000 A 
ENDBRANCH   5  15
ENDBRANCH   3   5
ENDBRANCH   2   3
ENDBRANCH   1   2
BRANCH   1  21
ATOM     21  C   UNL A   1      44.172  19.122  24.581  1.00  0.00     0.275 C 
BRANCH  21  22
ATOM     22  O   UNL A   1      44.828  20.357  24.194  1.00  0.00    -0.458 OA
BRANCH  22  23
ATOM     23  C   UNL A   1      45.917  20.789  24.899  1.00  0.00     0.338 C 
ATOM     24  O   UNL A   1      46.776  20.090  25.377  1.00  0.00    -0.246 OA
BRANCH  23  25
ATOM     25  C   UNL A   1      45.816  22.260  25.091  1.00  0.00     0.060 A 
ATOM     26  C   UNL A   1      46.477  23.211  24.294  1.00  0.00     0.016 A 
ATOM     27  C   UNL A   1      44.900  22.681  26.042  1.00  0.00     0.016 A 
ATOM     28  C   UNL A   1      46.230  24.577  24.514  1.00  0.00     0.010 A 
ATOM     29  C   UNL A   1      44.399  23.939  25.978  1.00  0.00     0.010 A 
ATOM     30  C   UNL A   1      45.195  24.921  25.383  1.00  0.00    -0.014 A 
BRANCH  30  31
ATOM     31  C   UNL A   1      45.010  26.155  26.141  1.00  0.00     0.031 A 
ATOM     32  C   UNL A   1      43.700  26.811  26.227  1.00  0.00     0.074 A 
ATOM     33  C   UNL A   1      45.896  26.144  27.174  1.00  0.00     0.049 A 
ATOM     34  N   UNL A   1      43.332  27.455  27.272  1.00  0.00    -0.248 NA
ATOM     35  C   UNL A   1      42.680  26.783  25.187  1.00  0.00     0.031 C 
ATOM     36  C   UNL A   1      45.775  26.556  28.565  1.00  0.00     0.029 A 
ATOM     37  N   UNL A   1      47.196  25.601  27.131  1.00  0.00    -0.354 N 
ATOM     38  C   UNL A   1      42.013  27.809  27.142  1.00  0.00     0.074 A 
ATOM     39  C   UNL A   1      41.649  27.379  25.813  1.00  0.00     0.031 C 
ATOM     40  C   UNL A   1      47.016  26.633  29.091  1.00  0.00     0.029 A 
ATOM     41  C   UNL A   1      47.956  26.399  28.001  1.00  0.00     0.049 A 
ATOM     42  H   UNL A   1      47.504  24.829  26.606  1.00  0.00     0.167 HD
ATOM     43  C   UNL A   1      41.431  28.396  28.227  1.00  0.00     0.037 A 
ATOM     44  C   UNL A   1      48.728  27.334  27.365  1.00  0.00     0.037 A 
ATOM     45  C   UNL A   1      42.489  28.931  29.090  1.00  0.00     0.049 A 
ATOM     46  C   UNL A   1      48.110  28.726  27.467  1.00  0.00     0.074 A 
ATOM     47  C   UNL A   1      43.181  28.527  30.216  1.00  0.00     0.029 A 
ATOM     48  N   UNL A   1      43.250  29.936  28.526  1.00  0.00    -0.354 N 
ATOM     49  N   UNL A   1      46.973  28.993  28.057  1.00  0.00    -0.248 NA
ATOM     50  C   UNL A   1      48.705  29.917  26.875  1.00  0.00     0.031 C 
ATOM     51  C   UNL A   1      44.459  29.199  30.189  1.00  0.00     0.029 A 
ATOM     52  C   UNL A   1      44.512  30.026  29.075  1.00  0.00     0.049 A 
ATOM     53  H   UNL A   1      42.926  30.525  27.807  1.00  0.00     0.167 HD
ATOM     54  C   UNL A   1      46.650  30.305  27.906  1.00  0.00     0.074 A 
ATOM     55  C   UNL A   1      47.770  30.845  27.147  1.00  0.00     0.031 C 
ATOM     56  C   UNL A   1      45.497  30.864  28.388  1.00  0.00     0.037 A 
BRANCH  43  57
ATOM     57  C   UNL A   1      39.965  28.512  28.558  1.00  0.00     0.064 A 
ATOM     58  C   UNL A   1      39.093  29.175  27.666  1.00  0.00     0.173 A 
ATOM     59  C   UNL A   1      39.381  28.144  29.784  1.00  0.00     0.173 A 
ATOM     60  F   UNL A   1      39.499  29.532  26.439  1.00  0.00    -0.203 F 
ATOM     61  C   UNL A   1      37.778  29.511  28.006  1.00  0.00     0.198 A 
ATOM     62  C   UNL A   1      38.066  28.482  30.127  1.00  0.00     0.198 A 
ATOM     63  F   UNL A   1      40.056  27.452  30.702  1.00  0.00    -0.203 F 
ATOM     64  F   UNL A   1      37.014  30.179  27.130  1.00  0.00    -0.200 F 
ATOM     65  C   UNL A   1      37.271  29.183  29.246  1.00  0.00     0.200 A 
ATOM     66  F   UNL A   1      37.588  28.141  31.334  1.00  0.00    -0.200 F 
ATOM     67  F   UNL A   1      36.026  29.540  29.591  1.00  0.00    -0.200 F 
ENDBRANCH  43  57
BRANCH  44  68
ATOM     68  C   UNL A   1      49.363  26.705  26.137  1.00  0.00     0.064 A 
ATOM     69  C   UNL A   1      48.883  27.132  24.870  1.00  0.00     0.173 A 
ATOM     70  C   UNL A   1      50.653  26.150  26.159  1.00  0.00     0.173 A 
ATOM     71  F   UNL A   1      47.669  27.698  24.773  1.00  0.00    -0.203 F 
ATOM     72  C   UNL A   1      49.703  27.157  23.739  1.00  0.00     0.198 A 
ATOM     73  C   UNL A   1      51.453  26.133  25.007  1.00  0.00     0.198 A 
ATOM     74  F   UNL A   1      51.200  25.745  27.314  1.00  0.00    -0.203 F 
ATOM     75  F   UNL A   1      49.271  27.741  22.611  1.00  0.00    -0.200 F 
ATOM     76  C   UNL A   1      50.996  26.676  23.814  1.00  0.00     0.200 A 
ATOM     77  F   UNL A   1      52.717  25.688  25.080  1.00  0.00    -0.200 F 
ATOM     78  F   UNL A   1      51.818  26.787  22.761  1.00  0.00    -0.200 F 
ENDBRANCH  44  68
BRANCH  56  79
ATOM     79  C   UNL A   1      45.223  32.327  28.192  1.00  0.00     0.064 A 
ATOM     80  C   UNL A   1      44.543  32.783  27.054  1.00  0.00     0.173 A 
ATOM     81  C   UNL A   1      45.693  33.321  29.076  1.00  0.00     0.173 A 
ATOM     82  F   UNL A   1      44.116  31.917  26.121  1.00  0.00    -0.203 F 
ATOM     83  C   UNL A   1      44.281  34.136  26.855  1.00  0.00     0.198 A 
ATOM     84  C   UNL A   1      45.510  34.677  28.828  1.00  0.00     0.198 A 
ATOM     85  F   UNL A   1      46.307  33.013  30.228  1.00  0.00    -0.203 F 
ATOM     86  F   UNL A   1      43.535  34.517  25.810  1.00  0.00    -0.200 F 
ATOM     87  C   UNL A   1      44.778  35.084  27.732  1.00  0.00     0.200 A 
ATOM     88  F   UNL A   1      46.030  35.581  29.670  1.00  0.00    -0.200 F 
ATOM     89  F   UNL A   1      44.542  36.386  27.530  1.00  0.00    -0.200 F 
ENDBRANCH  56  79
ENDBRANCH  30  31
ENDBRANCH  23  25
ENDBRANCH  22  23
ENDBRANCH  21  22
ENDBRANCH   1  21
TORSDOF 14
ENDMDL
MODEL 2
REMARK VINA RESULT:     -11.2      7.157     12.693
REMARK SMILES Cc1ccccc1N[C@H](C(=O)OCCOC(=O)c1ccc(-c2c3nc(c(-c4c(F)c(F)c(F)c(F)c4F)c4ccc([nH]4)c(-c4c(F)c(F)c(F)c(F)c4F)c4nc(c(-c5c(F)c(F)c(F)c(F)c5F)c5ccc2[nH]5)C=C4)C=C3)cc1)c1ccccc1
REMARK SMILES IDX 13 1 12 2 10 3 11 4 9 5 8 6 7 8 1 9 2 10 3 11 4 12 6 13 5 14
REMARK SMILES IDX 81 15 82 16 86 17 83 18 85 19 84 20 14 21 15 22 16 23 17 24
REMARK SMILES IDX 18 25 19 26 80 27 20 28 79 29 21 30 22 31 23 32 73 33 24 34
REMARK SMILES IDX 78 35 72 36 74 37 25 38 77 39 71 40 70 41 26 43 58 44 38 45
REMARK SMILES IDX 57 46 39 47 42 48 56 49 75 50 40 51 41 52 55 54 76 55 43 56
REMARK SMILES IDX 27 57 28 58 36 59 29 60 30 61 34 62 37 63 31 64 32 65 35 66
REMARK SMILES IDX 33 67 59 68 60 69 68 70 61 71 62 72 66 73 69 74 63 75 64 76
REMARK SMILES IDX 67 77 65 78 44 79 45 80 53 81 46 82 47 83 51 84 54 85 48 86
REMARK SMILES IDX 49 87 52 88 50 89
REMARK H PARENT 8 7 74 42 42 53
REMARK Flexibility Score: inf
ROOT
ATOM      1  C   UNL A   1      33.315  34.585  30.308  1.00  0.00     0.274 C 
ENDROOT
BRANCH   1   2
ATOM      2  O   UNL A   1      33.245  34.702  28.866  1.00  0.00    -0.460 OA
BRANCH   2   3
ATOM      3  C   UNL A   1      34.228  34.331  28.015  1.00  0.00     0.333 C 
ATOM      4  O   UNL A   1      34.465  34.941  26.974  1.00  0.00    -0.249 OA
BRANCH   3   5
ATOM      5  C   UNL A   1      34.891  32.927  28.373  1.00  0.00     0.221 C 
BRANCH   5   6
ATOM      6  N   UNL A   1      34.400  32.007  27.303  1.00  0.00    -0.368 N 
ATOM      7  H   UNL A   1      34.635  32.332  26.404  1.00  0.00     0.161 HD
BRANCH   6   8
ATOM      8  C   UNL A   1      33.709  30.828  27.255  1.00  0.00     0.038 A 
ATOM      9  C   UNL A   1      31.476  32.014  26.806  1.00  0.00     0.046 C 
ATOM     10  C   UNL A   1      32.384  30.811  26.772  1.00  0.00    -0.028 A 
ATOM     11  C   UNL A   1      31.849  29.618  26.257  1.00  0.00     0.005 A 
ATOM     12  C   UNL A   1      32.557  28.426  26.356  1.00  0.00     0.000 A 
ATOM     13  C   UNL A   1      34.292  29.598  27.556  1.00  0.00     0.026 A 
ATOM     14  C   UNL A   1      33.742  28.402  27.080  1.00  0.00     0.002 A 
ENDBRANCH   6   8
ENDBRANCH   5   6
BRANCH   5  15
ATOM     15  C   UNL A   1      36.357  32.986  28.868  1.00  0.00    -0.015 A 
ATOM     16  C   UNL A   1      37.077  34.159  29.118  1.00  0.00     0.006 A 
ATOM     17  C   UNL A   1      37.154  31.815  28.900  1.00  0.00     0.006 A 
ATOM     18  C   UNL A   1      38.448  34.181  29.419  1.00  0.00     0.000 A 
ATOM     19  C   UNL A   1      38.510  31.809  29.258  1.00  0.00     0.000 A 
ATOM     20  C   UNL A   1      39.154  32.999  29.534  1.00  0.00     0.000 A 
ENDBRANCH   5  15
ENDBRANCH   3   5
ENDBRANCH   2   3
ENDBRANCH   1   2
BRANCH   1  21
ATOM     21  C   UNL A   1      33.228  35.851  31.198  1.00  0.00     0.275 C 
BRANCH  21  22
ATOM     22  O   UNL A   1      34.424  36.264  31.906  1.00  0.00    -0.458 OA
BRANCH  22  23
ATOM     23  C   UNL A   1      34.504  36.074  33.258  1.00  0.00     0.338 C 
ATOM     24  O   UNL A   1      33.974  36.753  34.102  1.00  0.00    -0.246 OA
BRANCH  23  25
ATOM     25  C   UNL A   1      35.452  34.962  33.535  1.00  0.00     0.060 A 
ATOM     26  C   UNL A   1      35.526  34.269  34.755  1.00  0.00     0.016 A 
ATOM     27  C   UNL A   1      36.200  34.526  32.453  1.00  0.00     0.016 A 
ATOM     28  C   UNL A   1      36.399  33.173  34.867  1.00  0.00     0.010 A 
ATOM     29  C   UNL A   1      36.724  33.275  32.461  1.00  0.00     0.010 A 
ATOM     30  C   UNL A   1      37.010  32.704  33.704  1.00  0.00    -0.014 A 
BRANCH  30  31
ATOM     31  C   UNL A   1      38.249  31.946  33.564  1.00  0.00     0.031 A 
ATOM     32  C   UNL A   1      38.311  30.725  32.752  1.00  0.00     0.074 A 
ATOM     33  C   UNL A   1      39.285  32.824  33.653  1.00  0.00     0.049 A 
ATOM     34  N   UNL A   1      39.369  30.390  32.111  1.00  0.00    -0.248 NA
ATOM     35  C   UNL A   1      37.208  29.795  32.553  1.00  0.00     0.031 C 
ATOM     36  C   UNL A   1      40.542  32.922  32.926  1.00  0.00     0.029 A 
ATOM     37  N   UNL A   1      39.318  33.970  34.472  1.00  0.00    -0.354 N 
ATOM     38  C   UNL A   1      39.089  29.313  31.309  1.00  0.00     0.074 A 
ATOM     39  C   UNL A   1      37.726  28.965  31.629  1.00  0.00     0.031 C 
ATOM     40  C   UNL A   1      41.351  33.771  33.596  1.00  0.00     0.029 A 
ATOM     41  C   UNL A   1      40.666  34.124  34.834  1.00  0.00     0.049 A 
ATOM     42  H   UNL A   1      38.560  34.540  34.733  1.00  0.00     0.167 HD
ATOM     43  C   UNL A   1      40.082  28.910  30.464  1.00  0.00     0.037 A 
ATOM     44  C   UNL A   1      40.958  33.671  36.094  1.00  0.00     0.037 A 
ATOM     45  C   UNL A   1      41.359  29.429  30.966  1.00  0.00     0.049 A 
ATOM     46  C   UNL A   1      41.666  32.320  36.047  1.00  0.00     0.074 A 
ATOM     47  C   UNL A   1      42.179  30.514  30.721  1.00  0.00     0.029 A 
ATOM     48  N   UNL A   1      41.742  28.943  32.200  1.00  0.00    -0.354 N 
ATOM     49  N   UNL A   1      41.933  31.659  34.950  1.00  0.00    -0.248 NA
ATOM     50  C   UNL A   1      42.088  31.590  37.236  1.00  0.00     0.031 C 
ATOM     51  C   UNL A   1      42.927  30.759  31.932  1.00  0.00     0.029 A 
ATOM     52  C   UNL A   1      42.582  29.803  32.877  1.00  0.00     0.049 A 
ATOM     53  H   UNL A   1      41.447  28.075  32.559  1.00  0.00     0.167 HD
ATOM     54  C   UNL A   1      42.490  30.452  35.241  1.00  0.00     0.074 A 
ATOM     55  C   UNL A   1      42.560  30.452  36.696  1.00  0.00     0.031 C 
ATOM     56  C   UNL A   1      42.842  29.529  34.292  1.00  0.00     0.037 A 
BRANCH  43  57
ATOM     57  C   UNL A   1      39.968  28.078  29.212  1.00  0.00     0.064 A 
ATOM     58  C   UNL A   1      39.405  26.784  29.276  1.00  0.00     0.173 A 
ATOM     59  C   UNL A   1      40.525  28.415  27.965  1.00  0.00     0.173 A 
ATOM     60  F   UNL A   1      38.789  26.352  30.386  1.00  0.00    -0.203 F 
ATOM     61  C   UNL A   1      39.470  25.880  28.210  1.00  0.00     0.198 A 
ATOM     62  C   UNL A   1      40.593  27.511  26.898  1.00  0.00     0.198 A 
ATOM     63  F   UNL A   1      41.033  29.624  27.727  1.00  0.00    -0.203 F 
ATOM     64  F   UNL A   1      38.954  24.651  28.348  1.00  0.00    -0.200 F 
ATOM     65  C   UNL A   1      40.083  26.237  27.027  1.00  0.00     0.200 A 
ATOM     66  F   UNL A   1      41.181  27.882  25.751  1.00  0.00    -0.200 F 
ATOM     67  F   UNL A   1      40.182  25.359  26.018  1.00  0.00    -0.200 F 
ENDBRANCH  43  57
BRANCH  44  68
ATOM     68  C   UNL A   1      39.848  34.089  37.043  1.00  0.00     0.064 A 
ATOM     69  C   UNL A   1      38.996  33.063  37.532  1.00  0.00     0.173 A 
ATOM     70  C   UNL A   1      39.922  35.259  37.817  1.00  0.00     0.173 A 
ATOM     71  F   UNL A   1      38.895  31.903  36.861  1.00  0.00    -0.203 F 
ATOM     72  C   UNL A   1      38.395  33.139  38.792  1.00  0.00     0.198 A 
ATOM     73  C   UNL A   1      39.275  35.347  39.058  1.00  0.00     0.198 A 
ATOM     74  F   UNL A   1      40.722  36.269  37.448  1.00  0.00    -0.203 F 
ATOM     75  F   UNL A   1      37.754  32.073  39.293  1.00  0.00    -0.200 F 
ATOM     76  C   UNL A   1      38.553  34.274  39.563  1.00  0.00     0.200 A 
ATOM     77  F   UNL A   1      39.444  36.437  39.821  1.00  0.00    -0.200 F 
ATOM     78  F   UNL A   1      38.062  34.315  40.810  1.00  0.00    -0.200 F 
ENDBRANCH  44  68
BRANCH  56  79
ATOM     79  C   UNL A   1      43.467  28.226  34.697  1.00  0.00     0.064 A 
ATOM     80  C   UNL A   1      44.852  28.033  34.592  1.00  0.00     0.173 A 
ATOM     81  C   UNL A   1      42.714  27.111  35.119  1.00  0.00     0.173 A 
ATOM     82  F   UNL A   1      45.646  29.014  34.135  1.00  0.00    -0.203 F 
ATOM     83  C   UNL A   1      45.450  26.830  34.962  1.00  0.00     0.198 A 
ATOM     84  C   UNL A   1      43.303  25.883  35.399  1.00  0.00     0.198 A 
ATOM     85  F   UNL A   1      41.388  27.183  35.315  1.00  0.00    -0.203 F 
ATOM     86  F   UNL A   1      46.785  26.725  34.948  1.00  0.00    -0.200 F 
ATOM     87  C   UNL A   1      44.675  25.751  35.349  1.00  0.00     0.200 A 
ATOM     88  F   UNL A   1      42.533  24.840  35.738  1.00  0.00    -0.200 F 
ATOM     89  F   UNL A   1      45.249  24.590  35.685  1.00  0.00    -0.200 F 
ENDBRANCH  56  79
ENDBRANCH  30  31
ENDBRANCH  23  25
ENDBRANCH  22  23
ENDBRANCH  21  22
ENDBRANCH   1  21
TORSDOF 14
ENDMDL
MODEL 3
REMARK VINA RESULT:     -11.2      5.513     10.949
REMARK SMILES Cc1ccccc1N[C@H](C(=O)OCCOC(=O)c1ccc(-c2c3nc(c(-c4c(F)c(F)c(F)c(F)c4F)c4ccc([nH]4)c(-c4c(F)c(F)c(F)c(F)c4F)c4nc(c(-c5c(F)c(F)c(F)c(F)c5F)c5ccc2[nH]5)C=C4)C=C3)cc1)c1ccccc1
REMARK SMILES IDX 13 1 12 2 10 3 11 4 9 5 8 6 7 8 1 9 2 10 3 11 4 12 6 13 5 14
REMARK SMILES IDX 81 15 82 16 86 17 83 18 85 19 84 20 14 21 15 22 16 23 17 24
REMARK SMILES IDX 18 25 19 26 80 27 20 28 79 29 21 30 22 31 23 32 73 33 24 34
REMARK SMILES IDX 78 35 72 36 74 37 25 38 77 39 71 40 70 41 26 43 58 44 38 45
REMARK SMILES IDX 57 46 39 47 42 48 56 49 75 50 40 51 41 52 55 54 76 55 43 56
REMARK SMILES IDX 27 57 28 58 36 59 29 60 30 61 34 62 37 63 31 64 32 65 35 66
REMARK SMILES IDX 33 67 59 68 60 69 68 70 61 71 62 72 66 73 69 74 63 75 64 76
REMARK SMILES IDX 67 77 65 78 44 79 45 80 53 81 46 82 47 83 51 84 54 85 48 86
REMARK SMILES IDX 49 87 52 88 50 89
REMARK H PARENT 8 7 74 42 42 53
REMARK Flexibility Score: inf
ROOT
ATOM      1  C   UNL A   1      31.984  30.552  26.314  1.00  0.00     0.274 C 
ENDROOT
BRANCH   1   2
ATOM      2  O   UNL A   1      31.809  29.317  25.579  1.00  0.00    -0.460 OA
BRANCH   2   3
ATOM      3  C   UNL A   1      32.410  29.028  24.403  1.00  0.00     0.333 C 
ATOM      4  O   UNL A   1      33.505  29.493  24.090  1.00  0.00    -0.249 OA
BRANCH   3   5
ATOM      5  C   UNL A   1      31.484  28.219  23.391  1.00  0.00     0.221 C 
BRANCH   5   6
ATOM      6  N   UNL A   1      31.813  26.786  23.660  1.00  0.00    -0.368 N 
ATOM      7  H   UNL A   1      31.533  26.201  22.920  1.00  0.00     0.161 HD
BRANCH   6   8
ATOM      8  C   UNL A   1      32.403  26.081  24.672  1.00  0.00     0.038 A 
ATOM      9  C   UNL A   1      30.247  26.036  26.065  1.00  0.00     0.046 C 
ATOM     10  C   UNL A   1      31.608  25.510  25.687  1.00  0.00    -0.028 A 
ATOM     11  C   UNL A   1      32.097  24.414  26.417  1.00  0.00     0.005 A 
ATOM     12  C   UNL A   1      33.409  23.985  26.253  1.00  0.00     0.000 A 
ATOM     13  C   UNL A   1      33.768  25.794  24.696  1.00  0.00     0.026 A 
ATOM     14  C   UNL A   1      34.267  24.728  25.453  1.00  0.00     0.002 A 
ENDBRANCH   6   8
ENDBRANCH   5   6
BRANCH   5  15
ATOM     15  C   UNL A   1      30.046  28.766  23.213  1.00  0.00    -0.015 A 
ATOM     16  C   UNL A   1      29.686  30.116  23.268  1.00  0.00     0.006 A 
ATOM     17  C   UNL A   1      28.938  27.884  23.191  1.00  0.00     0.006 A 
ATOM     18  C   UNL A   1      28.357  30.567  23.255  1.00  0.00     0.000 A 
ATOM     19  C   UNL A   1      27.606  28.315  23.117  1.00  0.00     0.000 A 
ATOM     20  C   UNL A   1      27.317  29.666  23.133  1.00  0.00     0.000 A 
ENDBRANCH   5  15
ENDBRANCH   3   5
ENDBRANCH   2   3
ENDBRANCH   1   2
BRANCH   1  21
ATOM     21  C   UNL A   1      33.083  30.661  27.403  1.00  0.00     0.275 C 
BRANCH  21  22
ATOM     22  O   UNL A   1      34.452  30.852  26.965  1.00  0.00    -0.458 OA
BRANCH  22  23
ATOM     23  C   UNL A   1      35.275  31.682  27.674  1.00  0.00     0.338 C 
ATOM     24  O   UNL A   1      35.240  32.888  27.670  1.00  0.00    -0.246 OA
BRANCH  23  25
ATOM     25  C   UNL A   1      36.308  30.866  28.365  1.00  0.00     0.060 A 
ATOM     26  C   UNL A   1      36.231  30.461  29.709  1.00  0.00     0.016 A 
ATOM     27  C   UNL A   1      37.330  30.384  27.563  1.00  0.00     0.016 A 
ATOM     28  C   UNL A   1      37.225  29.612  30.225  1.00  0.00     0.010 A 
ATOM     29  C   UNL A   1      38.034  29.294  27.957  1.00  0.00     0.010 A 
ATOM     30  C   UNL A   1      38.136  29.055  29.329  1.00  0.00    -0.014 A 
BRANCH  30  31
ATOM     31  C   UNL A   1      39.482  28.553  29.589  1.00  0.00     0.031 A 
ATOM     32  C   UNL A   1      39.869  27.182  29.235  1.00  0.00     0.074 A 
ATOM     33  C   UNL A   1      40.341  29.605  29.502  1.00  0.00     0.049 A 
ATOM     34  N   UNL A   1      41.060  26.887  28.865  1.00  0.00    -0.248 NA
ATOM     35  C   UNL A   1      38.971  26.034  29.228  1.00  0.00     0.031 C 
ATOM     36  C   UNL A   1      41.675  29.728  28.931  1.00  0.00     0.029 A 
ATOM     37  N   UNL A   1      40.058  30.927  29.897  1.00  0.00    -0.354 N 
ATOM     38  C   UNL A   1      41.089  25.585  28.434  1.00  0.00     0.074 A 
ATOM     39  C   UNL A   1      39.761  25.086  28.694  1.00  0.00     0.031 C 
ATOM     40  C   UNL A   1      42.216  30.883  29.372  1.00  0.00     0.029 A 
ATOM     41  C   UNL A   1      41.284  31.449  30.339  1.00  0.00     0.049 A 
ATOM     42  H   UNL A   1      39.188  31.387  29.868  1.00  0.00     0.167 HD
ATOM     43  C   UNL A   1      42.262  25.152  27.888  1.00  0.00     0.037 A 
ATOM     44  C   UNL A   1      41.421  31.467  31.702  1.00  0.00     0.037 A 
ATOM     45  C   UNL A   1      43.339  26.042  28.333  1.00  0.00     0.049 A 
ATOM     46  C   UNL A   1      42.324  30.334  32.183  1.00  0.00     0.074 A 
ATOM     47  C   UNL A   1      44.014  27.143  27.840  1.00  0.00     0.029 A 
ATOM     48  N   UNL A   1      43.575  26.039  29.694  1.00  0.00    -0.354 N 
ATOM     49  N   UNL A   1      42.874  29.440  31.402  1.00  0.00    -0.248 NA
ATOM     50  C   UNL A   1      42.642  30.097  33.585  1.00  0.00     0.031 C 
ATOM     51  C   UNL A   1      44.496  27.887  28.980  1.00  0.00     0.029 A 
ATOM     52  C   UNL A   1      44.144  27.213  30.142  1.00  0.00     0.049 A 
ATOM     53  H   UNL A   1      43.358  25.280  30.282  1.00  0.00     0.167 HD
ATOM     54  C   UNL A   1      43.550  28.514  32.134  1.00  0.00     0.074 A 
ATOM     55  C   UNL A   1      43.368  28.967  33.507  1.00  0.00     0.031 C 
ATOM     56  C   UNL A   1      44.196  27.437  31.588  1.00  0.00     0.037 A 
BRANCH  43  57
ATOM     57  C   UNL A   1      42.494  23.976  26.974  1.00  0.00     0.064 A 
ATOM     58  C   UNL A   1      42.299  22.662  27.456  1.00  0.00     0.173 A 
ATOM     59  C   UNL A   1      43.050  24.051  25.684  1.00  0.00     0.173 A 
ATOM     60  F   UNL A   1      41.725  22.440  28.647  1.00  0.00    -0.203 F 
ATOM     61  C   UNL A   1      42.704  21.529  26.742  1.00  0.00     0.198 A 
ATOM     62  C   UNL A   1      43.458  22.919  24.969  1.00  0.00     0.198 A 
ATOM     63  F   UNL A   1      43.230  25.219  25.066  1.00  0.00    -0.203 F 
ATOM     64  F   UNL A   1      42.530  20.311  27.272  1.00  0.00    -0.200 F 
ATOM     65  C   UNL A   1      43.303  21.659  25.506  1.00  0.00     0.200 A 
ATOM     66  F   UNL A   1      44.026  23.066  23.762  1.00  0.00    -0.200 F 
ATOM     67  F   UNL A   1      43.729  20.578  24.837  1.00  0.00    -0.200 F 
ENDBRANCH  43  57
BRANCH  44  68
ATOM     68  C   UNL A   1      40.114  31.921  32.329  1.00  0.00     0.064 A 
ATOM     69  C   UNL A   1      39.361  30.945  33.035  1.00  0.00     0.173 A 
ATOM     70  C   UNL A   1      39.870  33.261  32.671  1.00  0.00     0.173 A 
ATOM     71  F   UNL A   1      39.558  29.640  32.783  1.00  0.00    -0.203 F 
ATOM     72  C   UNL A   1      38.550  31.280  34.122  1.00  0.00     0.198 A 
ATOM     73  C   UNL A   1      39.015  33.593  33.732  1.00  0.00     0.198 A 
ATOM     74  F   UNL A   1      40.554  34.250  32.077  1.00  0.00    -0.203 F 
ATOM     75  F   UNL A   1      38.007  30.313  34.876  1.00  0.00    -0.200 F 
ATOM     76  C   UNL A   1      38.394  32.605  34.483  1.00  0.00     0.200 A 
ATOM     77  F   UNL A   1      38.879  34.876  34.101  1.00  0.00    -0.200 F 
ATOM     78  F   UNL A   1      37.698  32.926  35.583  1.00  0.00    -0.200 F 
ENDBRANCH  44  68
BRANCH  56  79
ATOM     79  C   UNL A   1      44.934  26.469  32.467  1.00  0.00     0.064 A 
ATOM     80  C   UNL A   1      46.317  26.284  32.325  1.00  0.00     0.173 A 
ATOM     81  C   UNL A   1      44.290  25.644  33.412  1.00  0.00     0.173 A 
ATOM     82  F   UNL A   1      47.008  26.975  31.405  1.00  0.00    -0.203 F 
ATOM     83  C   UNL A   1      47.018  25.390  33.130  1.00  0.00     0.198 A 
ATOM     84  C   UNL A   1      44.978  24.688  34.149  1.00  0.00     0.198 A 
ATOM     85  F   UNL A   1      42.981  25.764  33.683  1.00  0.00    -0.203 F 
ATOM     86  F   UNL A   1      48.353  25.323  33.035  1.00  0.00    -0.200 F 
ATOM     87  C   UNL A   1      46.348  24.580  34.030  1.00  0.00     0.200 A 
ATOM     88  F   UNL A   1      44.306  23.888  34.989  1.00  0.00    -0.200 F 
ATOM     89  F   UNL A   1      47.021  23.708  34.790  1.00  0.00    -0.200 F 
ENDBRANCH  56  79
ENDBRANCH  30  31
ENDBRANCH  23  25
ENDBRANCH  22  23
ENDBRANCH  21  22
ENDBRANCH   1  21
TORSDOF 14
ENDMDL
