MODEL 1
REMARK VINA RESULT:     -10.2      0.000      0.000
REMARK SMILES CCCCOC(=O)c1ccc(N2C[C@H](C(=O)OCCOC(=O)c3ccc(-c4c5nc(c(-c6c(F)c(F)c(F)c(F)c6F)c6ccc([nH]6)c(-c6c(F)c(F)c(F)c(F)c6F)c6nc(c(-c7c(F)c(F)c(F)c(F)c7F)c7ccc4[nH]7)C=C6)C=C5)cc3)CC2=O)cc1
REMARK SMILES IDX 15 1 16 2 14 3 12 4 13 5 87 6 86 7 88 8 11 9 8 10 9 11 90 12
REMARK SMILES IDX 10 13 89 14 6 15 7 16 5 17 4 18 3 19 2 20 1 21 17 22 18 23
REMARK SMILES IDX 19 24 20 25 21 26 22 27 23 28 24 29 85 30 25 31 84 32 26 33
REMARK SMILES IDX 27 34 28 35 78 36 29 37 83 38 77 39 79 40 30 41 82 42 76 43
REMARK SMILES IDX 75 44 31 46 63 47 43 48 62 49 44 50 47 51 61 52 80 53 45 54
REMARK SMILES IDX 46 55 60 57 81 58 48 59 32 60 33 61 41 62 34 63 35 64 39 65
REMARK SMILES IDX 42 66 36 67 37 68 40 69 38 70 64 71 65 72 73 73 66 74 67 75
REMARK SMILES IDX 71 76 74 77 68 78 69 79 72 80 70 81 49 82 50 83 58 84 51 85
REMARK SMILES IDX 52 86 56 87 59 88 53 89 54 90 57 91 55 92
REMARK H PARENT 79 45 47 56
REMARK Flexibility Score: inf
ROOT
ATOM      1  C   UNL A   1      33.214  35.786  29.477  1.00  0.00     0.311 C 
ATOM      2  O   UNL A   1      32.476  36.529  28.838  1.00  0.00    -0.252 OA
ENDROOT
BRANCH   1   3
ATOM      3  C   UNL A   1      32.869  35.336  30.877  1.00  0.00     0.128 C 
ATOM      4  N   UNL A   1      34.521  35.218  32.538  1.00  0.00    -0.312 N 
ATOM      5  C   UNL A   1      33.890  34.420  31.522  1.00  0.00     0.141 C 
ATOM      6  C   UNL A   1      33.872  36.435  32.742  1.00  0.00     0.227 C 
ATOM      7  C   UNL A   1      32.692  36.512  31.817  1.00  0.00     0.117 C 
ATOM      8  O   UNL A   1      34.157  37.327  33.528  1.00  0.00    -0.274 OA
BRANCH   4   9
ATOM      9  C   UNL A   1      35.620  34.758  33.295  1.00  0.00     0.044 A 
ATOM     10  C   UNL A   1      37.780  33.667  34.682  1.00  0.00     0.060 A 
ATOM     11  C   UNL A   1      36.530  33.731  35.302  1.00  0.00     0.018 A 
ATOM     12  C   UNL A   1      37.976  34.184  33.405  1.00  0.00     0.018 A 
ATOM     13  C   UNL A   1      35.456  34.306  34.614  1.00  0.00     0.027 A 
ATOM     14  C   UNL A   1      36.893  34.715  32.713  1.00  0.00     0.027 A 
BRANCH  10  15
ATOM     15  C   UNL A   1      38.869  32.898  35.279  1.00  0.00     0.338 C 
ATOM     16  O   UNL A   1      39.952  33.398  35.538  1.00  0.00    -0.246 OA
BRANCH  15  17
ATOM     17  O   UNL A   1      38.445  31.642  35.534  1.00  0.00    -0.462 OA
BRANCH  17  18
ATOM     18  C   UNL A   1      38.692  30.686  34.491  1.00  0.00     0.233 C 
BRANCH  18  19
ATOM     19  C   UNL A   1      40.110  30.123  34.576  1.00  0.00     0.041 C 
BRANCH  19  20
ATOM     20  C   UNL A   1      40.355  28.850  33.761  1.00  0.00     0.000 C 
ATOM     21  C   UNL A   1      41.733  28.241  33.980  1.00  0.00     0.004 C 
ENDBRANCH  19  20
ENDBRANCH  18  19
ENDBRANCH  17  18
ENDBRANCH  15  17
ENDBRANCH  10  15
ENDBRANCH   4   9
ENDBRANCH   1   3
BRANCH   1  22
ATOM     22  O   UNL A   1      34.388  35.283  29.026  1.00  0.00    -0.462 OA
BRANCH  22  23
ATOM     23  C   UNL A   1      34.331  34.509  27.812  1.00  0.00     0.274 C 
BRANCH  23  24
ATOM     24  C   UNL A   1      33.990  33.042  28.098  1.00  0.00     0.275 C 
BRANCH  24  25
ATOM     25  O   UNL A   1      34.982  32.146  27.560  1.00  0.00    -0.458 OA
BRANCH  25  26
ATOM     26  C   UNL A   1      34.801  30.840  27.862  1.00  0.00     0.338 C 
ATOM     27  O   UNL A   1      33.764  30.201  27.818  1.00  0.00    -0.246 OA
BRANCH  26  28
ATOM     28  C   UNL A   1      36.097  30.202  28.135  1.00  0.00     0.060 A 
ATOM     29  C   UNL A   1      36.299  29.654  29.404  1.00  0.00     0.016 A 
ATOM     30  C   UNL A   1      37.139  30.256  27.213  1.00  0.00     0.016 A 
ATOM     31  C   UNL A   1      37.547  29.163  29.768  1.00  0.00     0.010 A 
ATOM     32  C   UNL A   1      38.393  29.753  27.576  1.00  0.00     0.010 A 
ATOM     33  C   UNL A   1      38.608  29.216  28.860  1.00  0.00    -0.014 A 
BRANCH  33  34
ATOM     34  C   UNL A   1      39.961  28.775  29.273  1.00  0.00     0.031 A 
ATOM     35  C   UNL A   1      40.798  29.674  30.135  1.00  0.00     0.074 A 
ATOM     36  C   UNL A   1      40.428  27.574  28.884  1.00  0.00     0.049 A 
ATOM     37  N   UNL A   1      42.059  29.572  30.462  1.00  0.00    -0.248 NA
ATOM     38  C   UNL A   1      40.120  30.850  30.706  1.00  0.00     0.031 C 
ATOM     39  C   UNL A   1      39.678  26.583  28.114  1.00  0.00     0.029 A 
ATOM     40  N   UNL A   1      41.656  26.992  29.073  1.00  0.00    -0.354 N 
ATOM     41  C   UNL A   1      42.336  30.682  31.248  1.00  0.00     0.074 A 
ATOM     42  C   UNL A   1      41.114  31.452  31.345  1.00  0.00     0.031 C 
ATOM     43  C   UNL A   1      40.465  25.521  27.882  1.00  0.00     0.029 A 
ATOM     44  C   UNL A   1      41.792  25.786  28.431  1.00  0.00     0.049 A 
ATOM     45  H   UNL A   1      42.369  27.397  29.616  1.00  0.00     0.167 HD
ATOM     46  C   UNL A   1      43.508  31.023  31.834  1.00  0.00     0.037 A 
ATOM     47  C   UNL A   1      42.880  25.009  28.262  1.00  0.00     0.037 A 
ATOM     48  C   UNL A   1      44.712  30.239  31.742  1.00  0.00     0.049 A 
ATOM     49  C   UNL A   1      44.191  25.454  28.853  1.00  0.00     0.074 A 
ATOM     50  C   UNL A   1      45.958  30.502  32.283  1.00  0.00     0.029 A 
ATOM     51  N   UNL A   1      44.814  29.030  31.070  1.00  0.00    -0.354 N 
ATOM     52  N   UNL A   1      44.460  26.523  29.563  1.00  0.00    -0.248 NA
ATOM     53  C   UNL A   1      45.355  24.589  28.611  1.00  0.00     0.031 C 
ATOM     54  C   UNL A   1      46.826  29.474  31.902  1.00  0.00     0.029 A 
ATOM     55  C   UNL A   1      46.106  28.541  31.173  1.00  0.00     0.049 A 
ATOM     56  H   UNL A   1      44.078  28.586  30.591  1.00  0.00     0.167 HD
ATOM     57  C   UNL A   1      45.806  26.438  29.887  1.00  0.00     0.074 A 
ATOM     58  C   UNL A   1      46.301  25.212  29.298  1.00  0.00     0.031 C 
ATOM     59  C   UNL A   1      46.566  27.298  30.608  1.00  0.00     0.037 A 
BRANCH  46  60
ATOM     60  C   UNL A   1      43.560  32.312  32.601  1.00  0.00     0.064 A 
ATOM     61  C   UNL A   1      43.391  32.351  33.993  1.00  0.00     0.173 A 
ATOM     62  C   UNL A   1      43.837  33.518  31.940  1.00  0.00     0.173 A 
ATOM     63  F   UNL A   1      43.110  31.229  34.671  1.00  0.00    -0.203 F 
ATOM     64  C   UNL A   1      43.482  33.553  34.692  1.00  0.00     0.198 A 
ATOM     65  C   UNL A   1      43.955  34.713  32.645  1.00  0.00     0.198 A 
ATOM     66  F   UNL A   1      44.010  33.536  30.609  1.00  0.00    -0.203 F 
ATOM     67  F   UNL A   1      43.281  33.573  36.017  1.00  0.00    -0.200 F 
ATOM     68  C   UNL A   1      43.773  34.730  34.019  1.00  0.00     0.200 A 
ATOM     69  F   UNL A   1      44.248  35.848  31.994  1.00  0.00    -0.200 F 
ATOM     70  F   UNL A   1      43.873  35.884  34.694  1.00  0.00    -0.200 F 
ENDBRANCH  46  60
BRANCH  47  71
ATOM     71  C   UNL A   1      42.790  23.756  27.466  1.00  0.00     0.064 A 
ATOM     72  C   UNL A   1      42.402  22.548  28.062  1.00  0.00     0.173 A 
ATOM     73  C   UNL A   1      43.122  23.732  26.103  1.00  0.00     0.173 A 
ATOM     74  F   UNL A   1      42.099  22.512  29.368  1.00  0.00    -0.203 F 
ATOM     75  C   UNL A   1      42.377  21.360  27.332  1.00  0.00     0.198 A 
ATOM     76  C   UNL A   1      43.063  22.551  25.366  1.00  0.00     0.198 A 
ATOM     77  F   UNL A   1      43.501  24.859  25.483  1.00  0.00    -0.203 F 
ATOM     78  F   UNL A   1      42.059  20.210  27.941  1.00  0.00    -0.200 F 
ATOM     79  C   UNL A   1      42.702  21.364  25.984  1.00  0.00     0.200 A 
ATOM     80  F   UNL A   1      43.365  22.562  24.060  1.00  0.00    -0.200 F 
ATOM     81  F   UNL A   1      42.678  20.222  25.283  1.00  0.00    -0.200 F 
ENDBRANCH  47  71
BRANCH  59  82
ATOM     82  C   UNL A   1      47.992  26.910  30.869  1.00  0.00     0.064 A 
ATOM     83  C   UNL A   1      48.346  26.045  31.914  1.00  0.00     0.173 A 
ATOM     84  C   UNL A   1      49.010  27.368  30.019  1.00  0.00     0.173 A 
ATOM     85  F   UNL A   1      47.410  25.592  32.762  1.00  0.00    -0.203 F 
ATOM     86  C   UNL A   1      49.672  25.670  32.112  1.00  0.00     0.198 A 
ATOM     87  C   UNL A   1      50.330  26.968  30.202  1.00  0.00     0.198 A 
ATOM     88  F   UNL A   1      48.722  28.192  29.000  1.00  0.00    -0.203 F 
ATOM     89  F   UNL A   1      49.995  24.877  33.143  1.00  0.00    -0.200 F 
ATOM     90  C   UNL A   1      50.661  26.124  31.250  1.00  0.00     0.200 A 
ATOM     91  F   UNL A   1      51.282  27.395  29.360  1.00  0.00    -0.200 F 
ATOM     92  F   UNL A   1      51.935  25.752  31.436  1.00  0.00    -0.200 F 
ENDBRANCH  59  82
ENDBRANCH  33  34
ENDBRANCH  26  28
ENDBRANCH  25  26
ENDBRANCH  24  25
ENDBRANCH  23  24
ENDBRANCH  22  23
ENDBRANCH   1  22
TORSDOF 17
ENDMDL
MODEL 2
REMARK VINA RESULT:      -9.9      4.617     11.084
REMARK SMILES CCCCOC(=O)c1ccc(N2C[C@H](C(=O)OCCOC(=O)c3ccc(-c4c5nc(c(-c6c(F)c(F)c(F)c(F)c6F)c6ccc([nH]6)c(-c6c(F)c(F)c(F)c(F)c6F)c6nc(c(-c7c(F)c(F)c(F)c(F)c7F)c7ccc4[nH]7)C=C6)C=C5)cc3)CC2=O)cc1
REMARK SMILES IDX 15 1 16 2 14 3 12 4 13 5 87 6 86 7 88 8 11 9 8 10 9 11 90 12
REMARK SMILES IDX 10 13 89 14 6 15 7 16 5 17 4 18 3 19 2 20 1 21 17 22 18 23
REMARK SMILES IDX 19 24 20 25 21 26 22 27 23 28 24 29 85 30 25 31 84 32 26 33
REMARK SMILES IDX 27 34 28 35 78 36 29 37 83 38 77 39 79 40 30 41 82 42 76 43
REMARK SMILES IDX 75 44 31 46 63 47 43 48 62 49 44 50 47 51 61 52 80 53 45 54
REMARK SMILES IDX 46 55 60 57 81 58 48 59 32 60 33 61 41 62 34 63 35 64 39 65
REMARK SMILES IDX 42 66 36 67 37 68 40 69 38 70 64 71 65 72 73 73 66 74 67 75
REMARK SMILES IDX 71 76 74 77 68 78 69 79 72 80 70 81 49 82 50 83 58 84 51 85
REMARK SMILES IDX 52 86 56 87 59 88 53 89 54 90 57 91 55 92
REMARK H PARENT 79 45 47 56
REMARK Flexibility Score: inf
ROOT
ATOM      1  C   UNL A   1      42.744  22.690  28.113  1.00  0.00     0.311 C 
ATOM      2  O   UNL A   1      43.517  22.792  29.059  1.00  0.00    -0.252 OA
ENDROOT
BRANCH   1   3
ATOM      3  C   UNL A   1      43.153  23.070  26.709  1.00  0.00     0.128 C 
ATOM      4  N   UNL A   1      44.904  24.587  26.341  1.00  0.00    -0.312 N 
ATOM      5  C   UNL A   1      43.477  24.538  26.516  1.00  0.00     0.141 C 
ATOM      6  C   UNL A   1      45.469  23.322  26.190  1.00  0.00     0.227 C 
ATOM      7  C   UNL A   1      44.373  22.296  26.251  1.00  0.00     0.117 C 
ATOM      8  O   UNL A   1      46.643  23.027  26.024  1.00  0.00    -0.274 OA
BRANCH   4   9
ATOM      9  C   UNL A   1      45.618  25.801  26.246  1.00  0.00     0.044 A 
ATOM     10  C   UNL A   1      46.866  28.294  26.155  1.00  0.00     0.060 A 
ATOM     11  C   UNL A   1      46.272  27.784  24.999  1.00  0.00     0.018 A 
ATOM     12  C   UNL A   1      46.890  27.558  27.336  1.00  0.00     0.018 A 
ATOM     13  C   UNL A   1      45.673  26.520  25.041  1.00  0.00     0.027 A 
ATOM     14  C   UNL A   1      46.255  26.321  27.379  1.00  0.00     0.027 A 
BRANCH  10  15
ATOM     15  C   UNL A   1      47.319  29.682  26.209  1.00  0.00     0.338 C 
ATOM     16  O   UNL A   1      48.419  29.990  26.638  1.00  0.00    -0.246 OA
BRANCH  15  17
ATOM     17  O   UNL A   1      46.379  30.483  25.665  1.00  0.00    -0.462 OA
BRANCH  17  18
ATOM     18  C   UNL A   1      45.856  31.498  26.537  1.00  0.00     0.233 C 
BRANCH  18  19
ATOM     19  C   UNL A   1      44.334  31.585  26.440  1.00  0.00     0.041 C 
BRANCH  19  20
ATOM     20  C   UNL A   1      43.570  30.516  27.225  1.00  0.00     0.000 C 
ATOM     21  C   UNL A   1      42.764  29.572  26.344  1.00  0.00     0.004 C 
ENDBRANCH  19  20
ENDBRANCH  18  19
ENDBRANCH  17  18
ENDBRANCH  15  17
ENDBRANCH  10  15
ENDBRANCH   4   9
ENDBRANCH   1   3
BRANCH   1  22
ATOM     22  O   UNL A   1      41.471  22.234  28.196  1.00  0.00    -0.462 OA
BRANCH  22  23
ATOM     23  C   UNL A   1      41.126  21.135  27.330  1.00  0.00     0.274 C 
BRANCH  23  24
ATOM     24  C   UNL A   1      39.787  21.378  26.624  1.00  0.00     0.275 C 
BRANCH  24  25
ATOM     25  O   UNL A   1      39.773  22.634  25.917  1.00  0.00    -0.458 OA
BRANCH  25  26
ATOM     26  C   UNL A   1      38.812  23.502  26.307  1.00  0.00     0.338 C 
ATOM     27  O   UNL A   1      37.604  23.361  26.227  1.00  0.00    -0.246 OA
BRANCH  26  28
ATOM     28  C   UNL A   1      39.418  24.645  27.004  1.00  0.00     0.060 A 
ATOM     29  C   UNL A   1      39.137  24.803  28.363  1.00  0.00     0.016 A 
ATOM     30  C   UNL A   1      40.139  25.616  26.312  1.00  0.00     0.016 A 
ATOM     31  C   UNL A   1      39.565  25.937  29.043  1.00  0.00     0.010 A 
ATOM     32  C   UNL A   1      40.578  26.753  26.999  1.00  0.00     0.010 A 
ATOM     33  C   UNL A   1      40.282  26.927  28.365  1.00  0.00    -0.014 A 
BRANCH  33  34
ATOM     34  C   UNL A   1      40.663  28.177  29.064  1.00  0.00     0.031 A 
ATOM     35  C   UNL A   1      42.053  28.318  29.613  1.00  0.00     0.074 A 
ATOM     36  C   UNL A   1      39.772  29.176  29.196  1.00  0.00     0.049 A 
ATOM     37  N   UNL A   1      42.543  29.236  30.405  1.00  0.00    -0.248 NA
ATOM     38  C   UNL A   1      43.023  27.285  29.216  1.00  0.00     0.031 C 
ATOM     39  C   UNL A   1      38.421  29.184  28.636  1.00  0.00     0.029 A 
ATOM     40  N   UNL A   1      39.867  30.374  29.859  1.00  0.00    -0.354 N 
ATOM     41  C   UNL A   1      43.865  28.876  30.627  1.00  0.00     0.074 A 
ATOM     42  C   UNL A   1      44.102  27.651  29.893  1.00  0.00     0.031 C 
ATOM     43  C   UNL A   1      37.807  30.324  28.991  1.00  0.00     0.029 A 
ATOM     44  C   UNL A   1      38.698  31.093  29.855  1.00  0.00     0.049 A 
ATOM     45  H   UNL A   1      40.693  30.687  30.293  1.00  0.00     0.167 HD
ATOM     46  C   UNL A   1      44.793  29.514  31.378  1.00  0.00     0.037 A 
ATOM     47  C   UNL A   1      38.368  32.219  30.517  1.00  0.00     0.037 A 
ATOM     48  C   UNL A   1      44.546  30.741  32.090  1.00  0.00     0.049 A 
ATOM     49  C   UNL A   1      39.393  32.863  31.412  1.00  0.00     0.074 A 
ATOM     50  C   UNL A   1      45.411  31.462  32.895  1.00  0.00     0.029 A 
ATOM     51  N   UNL A   1      43.344  31.433  32.074  1.00  0.00    -0.354 N 
ATOM     52  N   UNL A   1      40.631  32.500  31.651  1.00  0.00    -0.248 NA
ATOM     53  C   UNL A   1      38.974  34.070  32.139  1.00  0.00     0.031 C 
ATOM     54  C   UNL A   1      44.719  32.568  33.400  1.00  0.00     0.029 A 
ATOM     55  C   UNL A   1      43.441  32.566  32.864  1.00  0.00     0.049 A 
ATOM     56  H   UNL A   1      42.541  31.158  31.576  1.00  0.00     0.167 HD
ATOM     57  C   UNL A   1      41.148  33.453  32.518  1.00  0.00     0.074 A 
ATOM     58  C   UNL A   1      40.092  34.412  32.763  1.00  0.00     0.031 C 
ATOM     59  C   UNL A   1      42.387  33.527  33.063  1.00  0.00     0.037 A 
BRANCH  46  60
ATOM     60  C   UNL A   1      46.151  28.889  31.497  1.00  0.00     0.064 A 
ATOM     61  C   UNL A   1      46.446  27.949  32.496  1.00  0.00     0.173 A 
ATOM     62  C   UNL A   1      47.155  29.193  30.565  1.00  0.00     0.173 A 
ATOM     63  F   UNL A   1      45.528  27.634  33.420  1.00  0.00    -0.203 F 
ATOM     64  C   UNL A   1      47.702  27.350  32.566  1.00  0.00     0.198 A 
ATOM     65  C   UNL A   1      48.400  28.572  30.621  1.00  0.00     0.198 A 
ATOM     66  F   UNL A   1      46.923  30.083  29.588  1.00  0.00    -0.203 F 
ATOM     67  F   UNL A   1      47.976  26.482  33.550  1.00  0.00    -0.200 F 
ATOM     68  C   UNL A   1      48.674  27.654  31.623  1.00  0.00     0.200 A 
ATOM     69  F   UNL A   1      49.333  28.859  29.702  1.00  0.00    -0.200 F 
ATOM     70  F   UNL A   1      49.878  27.067  31.685  1.00  0.00    -0.200 F 
ENDBRANCH  46  60
BRANCH  47  71
ATOM     71  C   UNL A   1      37.000  32.787  30.396  1.00  0.00     0.064 A 
ATOM     72  C   UNL A   1      36.645  33.591  29.303  1.00  0.00     0.173 A 
ATOM     73  C   UNL A   1      36.028  32.567  31.384  1.00  0.00     0.173 A 
ATOM     74  F   UNL A   1      37.544  33.852  28.344  1.00  0.00    -0.203 F 
ATOM     75  C   UNL A   1      35.381  34.174  29.218  1.00  0.00     0.198 A 
ATOM     76  C   UNL A   1      34.755  33.123  31.282  1.00  0.00     0.198 A 
ATOM     77  F   UNL A   1      36.315  31.808  32.452  1.00  0.00    -0.203 F 
ATOM     78  F   UNL A   1      35.089  34.985  28.193  1.00  0.00    -0.200 F 
ATOM     79  C   UNL A   1      34.436  33.935  30.205  1.00  0.00     0.200 A 
ATOM     80  F   UNL A   1      33.840  32.878  32.231  1.00  0.00    -0.200 F 
ATOM     81  F   UNL A   1      33.222  34.498  30.123  1.00  0.00    -0.200 F 
ENDBRANCH  47  71
BRANCH  59  82
ATOM     82  C   UNL A   1      42.696  34.723  33.915  1.00  0.00     0.064 A 
ATOM     83  C   UNL A   1      43.078  35.951  33.358  1.00  0.00     0.173 A 
ATOM     84  C   UNL A   1      42.551  34.647  35.309  1.00  0.00     0.173 A 
ATOM     85  F   UNL A   1      43.244  36.069  32.032  1.00  0.00    -0.203 F 
ATOM     86  C   UNL A   1      43.324  37.056  34.169  1.00  0.00     0.198 A 
ATOM     87  C   UNL A   1      42.769  35.761  36.113  1.00  0.00     0.198 A 
ATOM     88  F   UNL A   1      42.182  33.495  35.890  1.00  0.00    -0.203 F 
ATOM     89  F   UNL A   1      43.728  38.210  33.620  1.00  0.00    -0.200 F 
ATOM     90  C   UNL A   1      43.160  36.963  35.544  1.00  0.00     0.200 A 
ATOM     91  F   UNL A   1      42.595  35.673  37.440  1.00  0.00    -0.200 F 
ATOM     92  F   UNL A   1      43.385  38.032  36.320  1.00  0.00    -0.200 F 
ENDBRANCH  59  82
ENDBRANCH  33  34
ENDBRANCH  26  28
ENDBRANCH  25  26
ENDBRANCH  24  25
ENDBRANCH  23  24
ENDBRANCH  22  23
ENDBRANCH   1  22
TORSDOF 17
ENDMDL
MODEL 3
REMARK VINA RESULT:      -9.9      5.123     10.993
REMARK SMILES CCCCOC(=O)c1ccc(N2C[C@H](C(=O)OCCOC(=O)c3ccc(-c4c5nc(c(-c6c(F)c(F)c(F)c(F)c6F)c6ccc([nH]6)c(-c6c(F)c(F)c(F)c(F)c6F)c6nc(c(-c7c(F)c(F)c(F)c(F)c7F)c7ccc4[nH]7)C=C6)C=C5)cc3)CC2=O)cc1
REMARK SMILES IDX 15 1 16 2 14 3 12 4 13 5 87 6 86 7 88 8 11 9 8 10 9 11 90 12
REMARK SMILES IDX 10 13 89 14 6 15 7 16 5 17 4 18 3 19 2 20 1 21 17 22 18 23
REMARK SMILES IDX 19 24 20 25 21 26 22 27 23 28 24 29 85 30 25 31 84 32 26 33
REMARK SMILES IDX 27 34 28 35 78 36 29 37 83 38 77 39 79 40 30 41 82 42 76 43
REMARK SMILES IDX 75 44 31 46 63 47 43 48 62 49 44 50 47 51 61 52 80 53 45 54
REMARK SMILES IDX 46 55 60 57 81 58 48 59 32 60 33 61 41 62 34 63 35 64 39 65
REMARK SMILES IDX 42 66 36 67 37 68 40 69 38 70 64 71 65 72 73 73 66 74 67 75
REMARK SMILES IDX 71 76 74 77 68 78 69 79 72 80 70 81 49 82 50 83 58 84 51 85
REMARK SMILES IDX 52 86 56 87 59 88 53 89 54 90 57 91 55 92
REMARK H PARENT 79 45 47 56
REMARK Flexibility Score: inf
ROOT
ATOM      1  C   UNL A   1      34.562  21.695  25.417  1.00  0.00     0.311 C 
ATOM      2  O   UNL A   1      33.827  21.412  24.478  1.00  0.00    -0.252 OA
ENDROOT
BRANCH   1   3
ATOM      3  C   UNL A   1      34.371  22.960  26.221  1.00  0.00     0.128 C 
ATOM      4  N   UNL A   1      32.696  24.500  25.648  1.00  0.00    -0.312 N 
ATOM      5  C   UNL A   1      34.079  24.200  25.397  1.00  0.00     0.141 C 
ATOM      6  C   UNL A   1      32.160  23.733  26.682  1.00  0.00     0.227 C 
ATOM      7  C   UNL A   1      33.233  22.828  27.214  1.00  0.00     0.117 C 
ATOM      8  O   UNL A   1      31.024  23.749  27.132  1.00  0.00    -0.274 OA
BRANCH   4   9
ATOM      9  C   UNL A   1      32.005  25.527  24.970  1.00  0.00     0.044 A 
ATOM     10  C   UNL A   1      30.806  27.574  23.502  1.00  0.00     0.060 A 
ATOM     11  C   UNL A   1      31.357  27.860  24.752  1.00  0.00     0.018 A 
ATOM     12  C   UNL A   1      30.801  26.276  22.999  1.00  0.00     0.018 A 
ATOM     13  C   UNL A   1      31.930  26.826  25.499  1.00  0.00     0.027 A 
ATOM     14  C   UNL A   1      31.411  25.262  23.730  1.00  0.00     0.027 A 
BRANCH  10  15
ATOM     15  C   UNL A   1      30.385  28.650  22.608  1.00  0.00     0.338 C 
ATOM     16  O   UNL A   1      31.139  29.550  22.273  1.00  0.00    -0.246 OA
BRANCH  15  17
ATOM     17  O   UNL A   1      29.117  28.426  22.201  1.00  0.00    -0.462 OA
BRANCH  17  18
ATOM     18  C   UNL A   1      28.096  29.043  23.002  1.00  0.00     0.233 C 
BRANCH  18  19
ATOM     19  C   UNL A   1      27.587  30.331  22.358  1.00  0.00     0.041 C 
BRANCH  19  20
ATOM     20  C   UNL A   1      27.718  31.587  23.224  1.00  0.00     0.000 C 
ATOM     21  C   UNL A   1      29.041  31.677  23.972  1.00  0.00     0.004 C 
ENDBRANCH  19  20
ENDBRANCH  18  19
ENDBRANCH  17  18
ENDBRANCH  15  17
ENDBRANCH  10  15
ENDBRANCH   4   9
ENDBRANCH   1   3
BRANCH   1  22
ATOM     22  O   UNL A   1      35.600  20.938  25.848  1.00  0.00    -0.462 OA
BRANCH  22  23
ATOM     23  C   UNL A   1      36.201  20.061  24.876  1.00  0.00     0.274 C 
BRANCH  23  24
ATOM     24  C   UNL A   1      37.731  20.104  24.953  1.00  0.00     0.275 C 
BRANCH  24  25
ATOM     25  O   UNL A   1      38.201  21.273  25.653  1.00  0.00    -0.458 OA
BRANCH  25  26
ATOM     26  C   UNL A   1      39.421  21.150  26.223  1.00  0.00     0.338 C 
ATOM     27  O   UNL A   1      40.130  20.160  26.259  1.00  0.00    -0.246 OA
BRANCH  26  28
ATOM     28  C   UNL A   1      39.887  22.459  26.703  1.00  0.00     0.060 A 
ATOM     29  C   UNL A   1      39.305  23.601  26.151  1.00  0.00     0.016 A 
ATOM     30  C   UNL A   1      40.963  22.566  27.581  1.00  0.00     0.016 A 
ATOM     31  C   UNL A   1      39.798  24.863  26.460  1.00  0.00     0.010 A 
ATOM     32  C   UNL A   1      41.454  23.837  27.901  1.00  0.00     0.010 A 
ATOM     33  C   UNL A   1      40.883  24.992  27.332  1.00  0.00    -0.014 A 
BRANCH  33  34
ATOM     34  C   UNL A   1      41.468  26.327  27.596  1.00  0.00     0.031 A 
ATOM     35  C   UNL A   1      42.881  26.609  27.177  1.00  0.00     0.074 A 
ATOM     36  C   UNL A   1      40.732  27.279  28.199  1.00  0.00     0.049 A 
ATOM     37  N   UNL A   1      43.644  27.631  27.465  1.00  0.00    -0.248 NA
ATOM     38  C   UNL A   1      43.523  25.600  26.318  1.00  0.00     0.031 C 
ATOM     39  C   UNL A   1      39.326  27.148  28.579  1.00  0.00     0.029 A 
ATOM     40  N   UNL A   1      41.074  28.543  28.612  1.00  0.00    -0.354 N 
ATOM     41  C   UNL A   1      44.863  27.376  26.851  1.00  0.00     0.074 A 
ATOM     42  C   UNL A   1      44.743  26.099  26.180  1.00  0.00     0.031 C 
ATOM     43  C   UNL A   1      38.928  28.280  29.183  1.00  0.00     0.029 A 
ATOM     44  C   UNL A   1      40.068  29.186  29.289  1.00  0.00     0.049 A 
ATOM     45  H   UNL A   1      41.954  28.949  28.438  1.00  0.00     0.167 HD
ATOM     46  C   UNL A   1      45.978  28.144  26.850  1.00  0.00     0.037 A 
ATOM     47  C   UNL A   1      40.082  30.353  29.963  1.00  0.00     0.037 A 
ATOM     48  C   UNL A   1      46.076  29.420  27.509  1.00  0.00     0.049 A 
ATOM     49  C   UNL A   1      41.360  31.146  30.018  1.00  0.00     0.074 A 
ATOM     50  C   UNL A   1      47.165  30.271  27.587  1.00  0.00     0.029 A 
ATOM     51  N   UNL A   1      45.040  30.032  28.198  1.00  0.00    -0.354 N 
ATOM     52  N   UNL A   1      42.523  30.885  29.469  1.00  0.00    -0.248 NA
ATOM     53  C   UNL A   1      41.333  32.394  30.795  1.00  0.00     0.031 C 
ATOM     54  C   UNL A   1      46.800  31.379  28.358  1.00  0.00     0.029 A 
ATOM     55  C   UNL A   1      45.467  31.245  28.713  1.00  0.00     0.049 A 
ATOM     56  H   UNL A   1      44.135  29.660  28.306  1.00  0.00     0.167 HD
ATOM     57  C   UNL A   1      43.348  31.951  29.797  1.00  0.00     0.074 A 
ATOM     58  C   UNL A   1      42.555  32.865  30.591  1.00  0.00     0.031 C 
ATOM     59  C   UNL A   1      44.647  32.156  29.470  1.00  0.00     0.037 A 
BRANCH  46  60
ATOM     60  C   UNL A   1      47.192  27.616  26.145  1.00  0.00     0.064 A 
ATOM     61  C   UNL A   1      47.392  27.814  24.771  1.00  0.00     0.173 A 
ATOM     62  C   UNL A   1      48.196  26.950  26.865  1.00  0.00     0.173 A 
ATOM     63  F   UNL A   1      46.458  28.431  24.034  1.00  0.00    -0.203 F 
ATOM     64  C   UNL A   1      48.546  27.350  24.142  1.00  0.00     0.198 A 
ATOM     65  C   UNL A   1      49.360  26.513  26.239  1.00  0.00     0.198 A 
ATOM     66  F   UNL A   1      48.055  26.737  28.182  1.00  0.00    -0.203 F 
ATOM     67  F   UNL A   1      48.700  27.518  22.820  1.00  0.00    -0.200 F 
ATOM     68  C   UNL A   1      49.532  26.709  24.877  1.00  0.00     0.200 A 
ATOM     69  F   UNL A   1      50.317  25.904  26.954  1.00  0.00    -0.200 F 
ATOM     70  F   UNL A   1      50.647  26.275  24.272  1.00  0.00    -0.200 F 
ENDBRANCH  46  60
BRANCH  47  71
ATOM     71  C   UNL A   1      38.864  30.821  30.676  1.00  0.00     0.064 A 
ATOM     72  C   UNL A   1      37.894  31.592  30.020  1.00  0.00     0.173 A 
ATOM     73  C   UNL A   1      38.660  30.539  32.035  1.00  0.00     0.173 A 
ATOM     74  F   UNL A   1      38.054  31.911  28.727  1.00  0.00    -0.203 F 
ATOM     75  C   UNL A   1      36.782  32.084  30.702  1.00  0.00     0.198 A 
ATOM     76  C   UNL A   1      37.531  31.001  32.708  1.00  0.00     0.198 A 
ATOM     77  F   UNL A   1      39.557  29.807  32.712  1.00  0.00    -0.203 F 
ATOM     78  F   UNL A   1      35.901  32.866  30.064  1.00  0.00    -0.200 F 
ATOM     79  C   UNL A   1      36.599  31.783  32.043  1.00  0.00     0.200 A 
ATOM     80  F   UNL A   1      37.352  30.698  34.001  1.00  0.00    -0.200 F 
ATOM     81  F   UNL A   1      35.531  32.258  32.699  1.00  0.00    -0.200 F 
ENDBRANCH  47  71
BRANCH  59  82
ATOM     82  C   UNL A   1      45.273  33.450  29.902  1.00  0.00     0.064 A 
ATOM     83  C   UNL A   1      45.966  33.570  31.114  1.00  0.00     0.173 A 
ATOM     84  C   UNL A   1      45.223  34.569  29.057  1.00  0.00     0.173 A 
ATOM     85  F   UNL A   1      46.029  32.532  31.962  1.00  0.00    -0.203 F 
ATOM     86  C   UNL A   1      46.571  34.772  31.474  1.00  0.00     0.198 A 
ATOM     87  C   UNL A   1      45.853  35.759  29.406  1.00  0.00     0.198 A 
ATOM     88  F   UNL A   1      44.577  34.502  27.882  1.00  0.00    -0.203 F 
ATOM     89  F   UNL A   1      47.193  34.878  32.656  1.00  0.00    -0.200 F 
ATOM     90  C   UNL A   1      46.522  35.862  30.616  1.00  0.00     0.200 A 
ATOM     91  F   UNL A   1      45.818  36.806  28.570  1.00  0.00    -0.200 F 
ATOM     92  F   UNL A   1      47.114  37.013  30.960  1.00  0.00    -0.200 F 
ENDBRANCH  59  82
ENDBRANCH  33  34
ENDBRANCH  26  28
ENDBRANCH  25  26
ENDBRANCH  24  25
ENDBRANCH  23  24
ENDBRANCH  22  23
ENDBRANCH   1  22
TORSDOF 17
ENDMDL
