MODEL 1
REMARK VINA RESULT:     -13.1      0.000      0.000
REMARK SMILES CCc1cc(S(F)(F)(F)(F)F)cc2c1O[C@@H](C(F)(F)F)C(C(=O)OCCOC(=O)c1ccc(-c3c4nc(c(-c5c(F)c(F)c(F)c(F)c5F)c5ccc([nH]5)c(-c5c(F)c(F)c(F)c(F)c5F)c5nc(c(-c6c(F)c(F)c(F)c(F)c6F)c6ccc3[nH]6)C=C5)C=C4)cc1)=C2
REMARK SMILES IDX 26 1 25 2 24 3 22 4 23 5 21 6 3 7 4 8 14 9 5 10 13 11 15 12
REMARK SMILES IDX 12 13 93 14 16 15 2 16 1 17 6 18 7 19 8 20 9 21 10 22 11 23
REMARK SMILES IDX 17 24 18 25 19 26 20 27 27 28 28 29 29 30 30 31 31 32 92 33
REMARK SMILES IDX 32 34 91 35 33 36 34 37 35 38 85 39 36 40 90 41 84 42 86 43
REMARK SMILES IDX 37 44 89 45 83 46 82 47 38 49 70 50 50 51 69 52 51 53 54 54
REMARK SMILES IDX 68 55 87 56 52 57 53 58 67 60 88 61 55 62 39 63 40 64 48 65
REMARK SMILES IDX 41 66 42 67 46 68 49 69 43 70 44 71 47 72 45 73 71 74 72 75
REMARK SMILES IDX 80 76 73 77 74 78 78 79 81 80 75 81 76 82 79 83 77 84 56 85
REMARK SMILES IDX 57 86 65 87 58 88 59 89 63 90 66 91 60 92 61 93 64 94 62 95
REMARK H PARENT 86 48 54 59
REMARK Flexibility Score: inf
ROOT
ATOM      1  C   UNL A   1      34.389  33.485  31.747  1.00  0.00     0.275 C 
ENDROOT
BRANCH   1   2
ATOM      2  C   UNL A   1      34.443  33.586  30.232  1.00  0.00     0.275 C 
BRANCH   2   3
ATOM      3  O   UNL A   1      34.405  32.283  29.669  1.00  0.00    -0.459 OA
BRANCH   3   4
ATOM      4  C   UNL A   1      34.652  32.101  28.283  1.00  0.00     0.338 C 
ATOM      5  O   UNL A   1      35.292  32.983  27.630  1.00  0.00    -0.246 OA
BRANCH   4   6
ATOM      6  C   UNL A   1      34.151  30.849  27.580  1.00  0.00     0.087 C 
ATOM      7  C   UNL A   1      33.193  27.444  25.358  1.00  0.00    -0.004 A 
ATOM      8  C   UNL A   1      32.096  27.455  24.516  1.00  0.00     0.032 A 
ATOM      9  C   UNL A   1      33.516  28.595  26.036  1.00  0.00     0.131 A 
ATOM     10  C   UNL A   1      31.344  28.589  24.354  1.00  0.00     0.108 A 
ATOM     11  C   UNL A   1      32.770  29.752  25.911  1.00  0.00     0.019 A 
ATOM     12  O   UNL A   1      34.672  28.601  26.780  1.00  0.00    -0.475 OA
ATOM     13  C   UNL A   1      31.676  29.730  25.053  1.00  0.00     0.036 A 
ATOM     14  C   UNL A   1      33.217  30.928  26.640  1.00  0.00     0.027 C 
ATOM     15  C   UNL A   1      34.709  29.479  27.940  1.00  0.00     0.316 C 
BRANCH   7  16
ATOM     16  C   UNL A   1      34.065  26.199  25.342  1.00  0.00     0.036 C 
ATOM     17  C   UNL A   1      33.331  25.057  26.025  1.00  0.00     0.009 C 
ENDBRANCH   7  16
BRANCH  10  18
ATOM     18  S   UNL A   1      29.927  28.590  23.229  1.00  0.00     0.310 S 
ATOM     19  F   UNL A   1      30.444  27.414  22.298  1.00  0.00    -0.094 F 
ATOM     20  F   UNL A   1      30.769  29.576  22.333  1.00  0.00    -0.094 F 
ATOM     21  F   UNL A   1      28.706  28.724  22.275  1.00  0.00    -0.094 F 
ATOM     22  F   UNL A   1      29.149  27.494  24.058  1.00  0.00    -0.094 F 
ATOM     23  F   UNL A   1      31.196  28.358  24.140  1.00  0.00    -0.094 F 
ENDBRANCH  10  18
BRANCH  15  24
ATOM     24  C   UNL A   1      36.150  29.635  28.398  1.00  0.00     0.430 C 
ATOM     25  F   UNL A   1      36.676  30.723  27.842  1.00  0.00    -0.167 F 
ATOM     26  F   UNL A   1      36.184  29.752  29.722  1.00  0.00    -0.167 F 
ATOM     27  F   UNL A   1      36.851  28.566  28.029  1.00  0.00    -0.167 F 
ENDBRANCH  15  24
ENDBRANCH   4   6
ENDBRANCH   3   4
ENDBRANCH   2   3
ENDBRANCH   1   2
BRANCH   1  28
ATOM     28  O   UNL A   1      34.903  32.225  32.155  1.00  0.00    -0.458 OA
BRANCH  28  29
ATOM     29  C   UNL A   1      36.166  32.148  32.799  1.00  0.00     0.338 C 
ATOM     30  O   UNL A   1      36.278  32.481  34.020  1.00  0.00    -0.246 OA
BRANCH  29  31
ATOM     31  C   UNL A   1      37.384  31.667  32.027  1.00  0.00     0.060 A 
ATOM     32  C   UNL A   1      37.748  32.243  30.822  1.00  0.00     0.016 A 
ATOM     33  C   UNL A   1      38.099  30.686  32.565  1.00  0.00     0.016 A 
ATOM     34  C   UNL A   1      38.730  31.514  30.110  1.00  0.00     0.010 A 
ATOM     35  C   UNL A   1      39.133  30.109  31.866  1.00  0.00     0.010 A 
ATOM     36  C   UNL A   1      39.508  30.590  30.643  1.00  0.00    -0.014 A 
BRANCH  36  37
ATOM     37  C   UNL A   1      40.756  30.088  29.934  1.00  0.00     0.031 A 
ATOM     38  C   UNL A   1      41.770  31.018  29.701  1.00  0.00     0.074 A 
ATOM     39  C   UNL A   1      40.788  28.778  29.487  1.00  0.00     0.049 A 
ATOM     40  N   UNL A   1      42.924  30.819  29.062  1.00  0.00    -0.248 NA
ATOM     41  C   UNL A   1      41.723  32.419  30.145  1.00  0.00     0.031 C 
ATOM     42  C   UNL A   1      39.772  27.832  29.726  1.00  0.00     0.029 A 
ATOM     43  N   UNL A   1      41.775  28.160  28.750  1.00  0.00    -0.354 N 
ATOM     44  C   UNL A   1      43.647  31.941  29.056  1.00  0.00     0.074 A 
ATOM     45  C   UNL A   1      42.882  32.987  29.747  1.00  0.00     0.031 C 
ATOM     46  C   UNL A   1      40.135  26.664  29.132  1.00  0.00     0.029 A 
ATOM     47  C   UNL A   1      41.384  26.861  28.513  1.00  0.00     0.049 A 
ATOM     48  H   UNL A   1      42.613  28.576  28.446  1.00  0.00     0.167 HD
ATOM     49  C   UNL A   1      44.914  32.132  28.503  1.00  0.00     0.037 A 
ATOM     50  C   UNL A   1      42.064  25.888  27.797  1.00  0.00     0.037 A 
ATOM     51  C   UNL A   1      45.613  31.146  27.825  1.00  0.00     0.049 A 
ATOM     52  C   UNL A   1      43.306  26.096  27.193  1.00  0.00     0.074 A 
ATOM     53  C   UNL A   1      46.895  31.320  27.268  1.00  0.00     0.029 A 
ATOM     54  N   UNL A   1      45.213  29.854  27.567  1.00  0.00    -0.354 N 
ATOM     55  N   UNL A   1      44.046  27.206  27.221  1.00  0.00    -0.248 NA
ATOM     56  C   UNL A   1      44.021  25.083  26.406  1.00  0.00     0.031 C 
ATOM     57  C   UNL A   1      47.258  30.152  26.673  1.00  0.00     0.029 A 
ATOM     58  C   UNL A   1      46.208  29.229  26.849  1.00  0.00     0.049 A 
ATOM     59  H   UNL A   1      44.361  29.447  27.845  1.00  0.00     0.167 HD
ATOM     60  C   UNL A   1      45.182  27.019  26.547  1.00  0.00     0.074 A 
ATOM     61  C   UNL A   1      45.179  25.653  26.007  1.00  0.00     0.031 C 
ATOM     62  C   UNL A   1      46.222  27.932  26.363  1.00  0.00     0.037 A 
BRANCH  49  63
ATOM     63  C   UNL A   1      45.564  33.498  28.653  1.00  0.00     0.064 A 
ATOM     64  C   UNL A   1      45.298  34.450  27.684  1.00  0.00     0.173 A 
ATOM     65  C   UNL A   1      46.322  33.780  29.707  1.00  0.00     0.173 A 
ATOM     66  F   UNL A   1      44.354  34.300  26.759  1.00  0.00    -0.203 F 
ATOM     67  C   UNL A   1      46.121  35.598  27.767  1.00  0.00     0.198 A 
ATOM     68  C   UNL A   1      46.991  34.977  29.786  1.00  0.00     0.198 A 
ATOM     69  F   UNL A   1      46.436  32.895  30.693  1.00  0.00    -0.203 F 
ATOM     70  F   UNL A   1      46.195  36.385  26.697  1.00  0.00    -0.200 F 
ATOM     71  C   UNL A   1      46.821  35.942  28.832  1.00  0.00     0.200 A 
ATOM     72  F   UNL A   1      47.816  35.201  30.806  1.00  0.00    -0.200 F 
ATOM     73  F   UNL A   1      47.334  37.162  28.970  1.00  0.00    -0.200 F 
ENDBRANCH  49  63
BRANCH  50  74
ATOM     74  C   UNL A   1      41.422  24.517  27.662  1.00  0.00     0.064 A 
ATOM     75  C   UNL A   1      41.959  23.467  28.388  1.00  0.00     0.173 A 
ATOM     76  C   UNL A   1      40.404  24.330  26.829  1.00  0.00     0.173 A 
ATOM     77  F   UNL A   1      42.795  23.642  29.407  1.00  0.00    -0.203 F 
ATOM     78  C   UNL A   1      41.537  22.190  27.947  1.00  0.00     0.198 A 
ATOM     79  C   UNL A   1      39.955  23.063  26.548  1.00  0.00     0.198 A 
ATOM     80  F   UNL A   1      39.815  25.379  26.263  1.00  0.00    -0.203 F 
ATOM     81  F   UNL A   1      42.255  21.136  28.326  1.00  0.00    -0.200 F 
ATOM     82  C   UNL A   1      40.482  21.973  27.183  1.00  0.00     0.200 A 
ATOM     83  F   UNL A   1      38.995  22.893  25.642  1.00  0.00    -0.200 F 
ATOM     84  F   UNL A   1      39.957  20.758  27.043  1.00  0.00    -0.200 F 
ENDBRANCH  50  74
BRANCH  62  85
ATOM     85  C   UNL A   1      47.444  27.473  25.584  1.00  0.00     0.064 A 
ATOM     86  C   UNL A   1      48.525  26.843  26.180  1.00  0.00     0.173 A 
ATOM     87  C   UNL A   1      47.387  27.647  24.269  1.00  0.00     0.173 A 
ATOM     88  F   UNL A   1      48.514  26.423  27.442  1.00  0.00    -0.203 F 
ATOM     89  C   UNL A   1      49.640  26.686  25.324  1.00  0.00     0.198 A 
ATOM     90  C   UNL A   1      48.468  27.343  23.476  1.00  0.00     0.198 A 
ATOM     91  F   UNL A   1      46.274  28.117  23.714  1.00  0.00    -0.203 F 
ATOM     92  F   UNL A   1      50.819  26.432  25.884  1.00  0.00    -0.200 F 
ATOM     93  C   UNL A   1      49.592  26.774  24.007  1.00  0.00     0.200 A 
ATOM     94  F   UNL A   1      48.420  27.610  22.174  1.00  0.00    -0.200 F 
ATOM     95  F   UNL A   1      50.582  26.331  23.238  1.00  0.00    -0.200 F 
ENDBRANCH  62  85
ENDBRANCH  36  37
ENDBRANCH  29  31
ENDBRANCH  28  29
ENDBRANCH   1  28
TORSDOF 14
ENDMDL
MODEL 2
REMARK VINA RESULT:     -13.1      5.233     10.758
REMARK SMILES CCc1cc(S(F)(F)(F)(F)F)cc2c1O[C@@H](C(F)(F)F)C(C(=O)OCCOC(=O)c1ccc(-c3c4nc(c(-c5c(F)c(F)c(F)c(F)c5F)c5ccc([nH]5)c(-c5c(F)c(F)c(F)c(F)c5F)c5nc(c(-c6c(F)c(F)c(F)c(F)c6F)c6ccc3[nH]6)C=C5)C=C4)cc1)=C2
REMARK SMILES IDX 26 1 25 2 24 3 22 4 23 5 21 6 3 7 4 8 14 9 5 10 13 11 15 12
REMARK SMILES IDX 12 13 93 14 16 15 2 16 1 17 6 18 7 19 8 20 9 21 10 22 11 23
REMARK SMILES IDX 17 24 18 25 19 26 20 27 27 28 28 29 29 30 30 31 31 32 92 33
REMARK SMILES IDX 32 34 91 35 33 36 34 37 35 38 85 39 36 40 90 41 84 42 86 43
REMARK SMILES IDX 37 44 89 45 83 46 82 47 38 49 70 50 50 51 69 52 51 53 54 54
REMARK SMILES IDX 68 55 87 56 52 57 53 58 67 60 88 61 55 62 39 63 40 64 48 65
REMARK SMILES IDX 41 66 42 67 46 68 49 69 43 70 44 71 47 72 45 73 71 74 72 75
REMARK SMILES IDX 80 76 73 77 74 78 78 79 81 80 75 81 76 82 79 83 77 84 56 85
REMARK SMILES IDX 57 86 65 87 58 88 59 89 63 90 66 91 60 92 61 93 64 94 62 95
REMARK H PARENT 86 48 54 59
REMARK Flexibility Score: inf
ROOT
ATOM      1  C   UNL A   1      43.654  22.105  24.973  1.00  0.00     0.275 C 
ENDROOT
BRANCH   1   2
ATOM      2  C   UNL A   1      42.617  21.482  25.894  1.00  0.00     0.275 C 
BRANCH   2   3
ATOM      3  O   UNL A   1      41.341  22.038  25.614  1.00  0.00    -0.459 OA
BRANCH   3   4
ATOM      4  C   UNL A   1      40.228  21.709  26.432  1.00  0.00     0.338 C 
ATOM      5  O   UNL A   1      40.407  21.102  27.534  1.00  0.00    -0.246 OA
BRANCH   4   6
ATOM      6  C   UNL A   1      38.823  22.082  25.990  1.00  0.00     0.087 C 
ATOM      7  C   UNL A   1      34.866  23.210  25.265  1.00  0.00    -0.004 A 
ATOM      8  C   UNL A   1      33.946  22.268  24.845  1.00  0.00     0.032 A 
ATOM      9  C   UNL A   1      36.148  22.801  25.548  1.00  0.00     0.131 A 
ATOM     10  C   UNL A   1      34.297  20.950  24.715  1.00  0.00     0.108 A 
ATOM     11  C   UNL A   1      36.542  21.484  25.410  1.00  0.00     0.019 A 
ATOM     12  O   UNL A   1      37.018  23.727  26.071  1.00  0.00    -0.475 OA
ATOM     13  C   UNL A   1      35.591  20.561  24.990  1.00  0.00     0.036 A 
ATOM     14  C   UNL A   1      37.909  21.145  25.771  1.00  0.00     0.027 C 
ATOM     15  C   UNL A   1      38.434  23.541  25.787  1.00  0.00     0.316 C 
BRANCH   7  16
ATOM     16  C   UNL A   1      34.345  24.610  25.547  1.00  0.00     0.036 C 
ATOM     17  C   UNL A   1      32.936  24.522  26.109  1.00  0.00     0.009 C 
ENDBRANCH   7  16
BRANCH  10  18
ATOM     18  S   UNL A   1      33.071  19.728  24.186  1.00  0.00     0.310 S 
ATOM     19  F   UNL A   1      31.927  20.188  25.184  1.00  0.00    -0.094 F 
ATOM     20  F   UNL A   1      33.625  18.821  25.350  1.00  0.00    -0.094 F 
ATOM     21  F   UNL A   1      32.119  18.592  23.717  1.00  0.00    -0.094 F 
ATOM     22  F   UNL A   1      32.428  20.697  23.117  1.00  0.00    -0.094 F 
ATOM     23  F   UNL A   1      33.950  20.926  24.723  1.00  0.00    -0.094 F 
ENDBRANCH  10  18
BRANCH  15  24
ATOM     24  C   UNL A   1      39.248  24.407  26.734  1.00  0.00     0.430 C 
ATOM     25  F   UNL A   1      40.317  24.876  26.097  1.00  0.00    -0.167 F 
ATOM     26  F   UNL A   1      38.501  25.425  27.156  1.00  0.00    -0.167 F 
ATOM     27  F   UNL A   1      39.636  23.680  27.777  1.00  0.00    -0.167 F 
ENDBRANCH  15  24
ENDBRANCH   4   6
ENDBRANCH   3   4
ENDBRANCH   2   3
ENDBRANCH   1   2
BRANCH   1  28
ATOM     28  O   UNL A   1      43.267  23.435  24.658  1.00  0.00    -0.458 OA
BRANCH  28  29
ATOM     29  C   UNL A   1      44.014  24.531  25.166  1.00  0.00     0.338 C 
ATOM     30  O   UNL A   1      45.124  24.844  24.633  1.00  0.00    -0.246 OA
BRANCH  29  31
ATOM     31  C   UNL A   1      43.485  25.329  26.347  1.00  0.00     0.060 A 
ATOM     32  C   UNL A   1      42.962  24.701  27.465  1.00  0.00     0.016 A 
ATOM     33  C   UNL A   1      43.564  26.652  26.273  1.00  0.00     0.016 A 
ATOM     34  C   UNL A   1      42.276  25.572  28.344  1.00  0.00     0.010 A 
ATOM     35  C   UNL A   1      42.987  27.442  27.239  1.00  0.00     0.010 A 
ATOM     36  C   UNL A   1      42.401  26.887  28.343  1.00  0.00    -0.014 A 
BRANCH  36  37
ATOM     37  C   UNL A   1      41.918  27.739  29.506  1.00  0.00     0.031 A 
ATOM     38  C   UNL A   1      42.580  27.583  30.724  1.00  0.00     0.074 A 
ATOM     39  C   UNL A   1      40.809  28.549  29.325  1.00  0.00     0.049 A 
ATOM     40  N   UNL A   1      42.305  28.184  31.882  1.00  0.00    -0.248 NA
ATOM     41  C   UNL A   1      43.737  26.697  30.926  1.00  0.00     0.031 C 
ATOM     42  C   UNL A   1      40.141  28.717  28.097  1.00  0.00     0.029 A 
ATOM     43  N   UNL A   1      40.163  29.319  30.266  1.00  0.00    -0.354 N 
ATOM     44  C   UNL A   1      43.172  27.796  32.820  1.00  0.00     0.074 A 
ATOM     45  C   UNL A   1      44.101  26.830  32.220  1.00  0.00     0.031 C 
ATOM     46  C   UNL A   1      39.099  29.568  28.297  1.00  0.00     0.029 A 
ATOM     47  C   UNL A   1      39.101  29.946  29.654  1.00  0.00     0.049 A 
ATOM     48  H   UNL A   1      40.417  29.407  31.213  1.00  0.00     0.167 HD
ATOM     49  C   UNL A   1      43.225  28.213  34.151  1.00  0.00     0.037 A 
ATOM     50  C   UNL A   1      38.172  30.800  30.228  1.00  0.00     0.037 A 
ATOM     51  C   UNL A   1      42.323  29.101  34.716  1.00  0.00     0.049 A 
ATOM     52  C   UNL A   1      38.190  31.171  31.575  1.00  0.00     0.074 A 
ATOM     53  C   UNL A   1      42.366  29.537  36.054  1.00  0.00     0.029 A 
ATOM     54  N   UNL A   1      41.246  29.709  34.109  1.00  0.00    -0.354 N 
ATOM     55  N   UNL A   1      39.081  30.814  32.502  1.00  0.00    -0.248 NA
ATOM     56  C   UNL A   1      37.195  32.049  32.202  1.00  0.00     0.031 C 
ATOM     57  C   UNL A   1      41.325  30.387  36.254  1.00  0.00     0.029 A 
ATOM     58  C   UNL A   1      40.613  30.496  35.044  1.00  0.00     0.049 A 
ATOM     59  H   UNL A   1      40.974  29.598  33.169  1.00  0.00     0.167 HD
ATOM     60  C   UNL A   1      38.780  31.384  33.671  1.00  0.00     0.074 A 
ATOM     61  C   UNL A   1      37.558  32.181  33.497  1.00  0.00     0.031 C 
ATOM     62  C   UNL A   1      39.478  31.273  34.875  1.00  0.00     0.037 A 
BRANCH  49  63
ATOM     63  C   UNL A   1      44.334  27.661  35.031  1.00  0.00     0.064 A 
ATOM     64  C   UNL A   1      45.516  28.380  35.111  1.00  0.00     0.173 A 
ATOM     65  C   UNL A   1      44.156  26.550  35.738  1.00  0.00     0.173 A 
ATOM     66  F   UNL A   1      45.647  29.613  34.631  1.00  0.00    -0.203 F 
ATOM     67  C   UNL A   1      46.569  27.684  35.750  1.00  0.00     0.198 A 
ATOM     68  C   UNL A   1      45.194  25.998  36.448  1.00  0.00     0.198 A 
ATOM     69  F   UNL A   1      42.961  25.966  35.756  1.00  0.00    -0.203 F 
ATOM     70  F   UNL A   1      47.808  28.126  35.558  1.00  0.00    -0.200 F 
ATOM     71  C   UNL A   1      46.407  26.625  36.521  1.00  0.00     0.200 A 
ATOM     72  F   UNL A   1      45.016  24.837  37.073  1.00  0.00    -0.200 F 
ATOM     73  F   UNL A   1      47.372  26.191  37.328  1.00  0.00    -0.200 F 
ENDBRANCH  49  63
BRANCH  50  74
ATOM     74  C   UNL A   1      37.074  31.365  29.344  1.00  0.00     0.064 A 
ATOM     75  C   UNL A   1      37.168  32.687  28.945  1.00  0.00     0.173 A 
ATOM     76  C   UNL A   1      36.028  30.617  29.008  1.00  0.00     0.173 A 
ATOM     77  F   UNL A   1      38.291  33.395  29.036  1.00  0.00    -0.203 F 
ATOM     78  C   UNL A   1      35.961  33.220  28.433  1.00  0.00     0.198 A 
ATOM     79  C   UNL A   1      34.939  31.177  28.387  1.00  0.00     0.198 A 
ATOM     80  F   UNL A   1      36.038  29.314  29.275  1.00  0.00    -0.203 F 
ATOM     81  F   UNL A   1      35.847  34.543  28.365  1.00  0.00    -0.200 F 
ATOM     82  C   UNL A   1      34.939  32.493  28.018  1.00  0.00     0.200 A 
ATOM     83  F   UNL A   1      33.867  30.427  28.142  1.00  0.00    -0.200 F 
ATOM     84  F   UNL A   1      33.964  33.014  27.279  1.00  0.00    -0.200 F 
ENDBRANCH  50  74
BRANCH  62  85
ATOM     85  C   UNL A   1      38.961  32.053  36.073  1.00  0.00     0.064 A 
ATOM     86  C   UNL A   1      39.238  33.395  36.275  1.00  0.00     0.173 A 
ATOM     87  C   UNL A   1      38.156  31.385  36.891  1.00  0.00     0.173 A 
ATOM     88  F   UNL A   1      39.822  34.161  35.358  1.00  0.00    -0.203 F 
ATOM     89  C   UNL A   1      38.842  33.878  37.545  1.00  0.00     0.198 A 
ATOM     90  C   UNL A   1      37.696  31.967  38.049  1.00  0.00     0.198 A 
ATOM     91  F   UNL A   1      37.790  30.143  36.588  1.00  0.00    -0.203 F 
ATOM     92  F   UNL A   1      39.374  35.021  37.965  1.00  0.00    -0.200 F 
ATOM     93  C   UNL A   1      37.980  33.271  38.341  1.00  0.00     0.200 A 
ATOM     94  F   UNL A   1      36.965  31.249  38.897  1.00  0.00    -0.200 F 
ATOM     95  F   UNL A   1      37.419  33.896  39.372  1.00  0.00    -0.200 F 
ENDBRANCH  62  85
ENDBRANCH  36  37
ENDBRANCH  29  31
ENDBRANCH  28  29
ENDBRANCH   1  28
TORSDOF 14
ENDMDL
MODEL 3
REMARK VINA RESULT:     -12.9      5.180     10.762
REMARK SMILES CCc1cc(S(F)(F)(F)(F)F)cc2c1O[C@@H](C(F)(F)F)C(C(=O)OCCOC(=O)c1ccc(-c3c4nc(c(-c5c(F)c(F)c(F)c(F)c5F)c5ccc([nH]5)c(-c5c(F)c(F)c(F)c(F)c5F)c5nc(c(-c6c(F)c(F)c(F)c(F)c6F)c6ccc3[nH]6)C=C5)C=C4)cc1)=C2
REMARK SMILES IDX 26 1 25 2 24 3 22 4 23 5 21 6 3 7 4 8 14 9 5 10 13 11 15 12
REMARK SMILES IDX 12 13 93 14 16 15 2 16 1 17 6 18 7 19 8 20 9 21 10 22 11 23
REMARK SMILES IDX 17 24 18 25 19 26 20 27 27 28 28 29 29 30 30 31 31 32 92 33
REMARK SMILES IDX 32 34 91 35 33 36 34 37 35 38 85 39 36 40 90 41 84 42 86 43
REMARK SMILES IDX 37 44 89 45 83 46 82 47 38 49 70 50 50 51 69 52 51 53 54 54
REMARK SMILES IDX 68 55 87 56 52 57 53 58 67 60 88 61 55 62 39 63 40 64 48 65
REMARK SMILES IDX 41 66 42 67 46 68 49 69 43 70 44 71 47 72 45 73 71 74 72 75
REMARK SMILES IDX 80 76 73 77 74 78 78 79 81 80 75 81 76 82 79 83 77 84 56 85
REMARK SMILES IDX 57 86 65 87 58 88 59 89 63 90 66 91 60 92 61 93 64 94 62 95
REMARK H PARENT 86 48 54 59
REMARK Flexibility Score: inf
ROOT
ATOM      1  C   UNL A   1      43.645  21.989  24.958  1.00  0.00     0.275 C 
ENDROOT
BRANCH   1   2
ATOM      2  C   UNL A   1      42.612  21.482  25.951  1.00  0.00     0.275 C 
BRANCH   2   3
ATOM      3  O   UNL A   1      41.350  22.063  25.659  1.00  0.00    -0.459 OA
BRANCH   3   4
ATOM      4  C   UNL A   1      40.237  21.802  26.500  1.00  0.00     0.338 C 
ATOM      5  O   UNL A   1      40.409  21.236  27.624  1.00  0.00    -0.246 OA
BRANCH   4   6
ATOM      6  C   UNL A   1      38.839  22.200  26.055  1.00  0.00     0.087 C 
ATOM      7  C   UNL A   1      34.905  23.401  25.324  1.00  0.00    -0.004 A 
ATOM      8  C   UNL A   1      33.966  22.473  24.912  1.00  0.00     0.032 A 
ATOM      9  C   UNL A   1      36.178  22.969  25.609  1.00  0.00     0.131 A 
ATOM     10  C   UNL A   1      34.290  21.148  24.793  1.00  0.00     0.108 A 
ATOM     11  C   UNL A   1      36.546  21.642  25.482  1.00  0.00     0.019 A 
ATOM     12  O   UNL A   1      37.068  23.881  26.123  1.00  0.00    -0.475 OA
ATOM     13  C   UNL A   1      35.576  20.735  25.070  1.00  0.00     0.036 A 
ATOM     14  C   UNL A   1      37.906  21.279  25.845  1.00  0.00     0.027 C 
ATOM     15  C   UNL A   1      38.479  23.664  25.840  1.00  0.00     0.316 C 
BRANCH   7  16
ATOM     16  C   UNL A   1      34.412  24.812  25.594  1.00  0.00     0.036 C 
ATOM     17  C   UNL A   1      32.919  24.783  25.876  1.00  0.00     0.009 C 
ENDBRANCH   7  16
BRANCH  10  18
ATOM     18  S   UNL A   1      33.039  19.946  24.276  1.00  0.00     0.310 S 
ATOM     19  F   UNL A   1      31.801  20.697  24.921  1.00  0.00    -0.094 F 
ATOM     20  F   UNL A   1      33.266  19.262  25.677  1.00  0.00    -0.094 F 
ATOM     21  F   UNL A   1      32.056  18.818  23.854  1.00  0.00    -0.094 F 
ATOM     22  F   UNL A   1      32.717  20.718  22.936  1.00  0.00    -0.094 F 
ATOM     23  F   UNL A   1      33.946  21.154  24.737  1.00  0.00    -0.094 F 
ENDBRANCH  10  18
BRANCH  15  24
ATOM     24  C   UNL A   1      39.311  24.522  26.779  1.00  0.00     0.430 C 
ATOM     25  F   UNL A   1      38.566  25.522  27.242  1.00  0.00    -0.167 F 
ATOM     26  F   UNL A   1      39.739  23.780  27.796  1.00  0.00    -0.167 F 
ATOM     27  F   UNL A   1      40.355  25.016  26.120  1.00  0.00    -0.167 F 
ENDBRANCH  15  24
ENDBRANCH   4   6
ENDBRANCH   3   4
ENDBRANCH   2   3
ENDBRANCH   1   2
BRANCH   1  28
ATOM     28  O   UNL A   1      43.355  23.338  24.623  1.00  0.00    -0.458 OA
BRANCH  28  29
ATOM     29  C   UNL A   1      44.113  24.392  25.199  1.00  0.00     0.338 C 
ATOM     30  O   UNL A   1      45.249  24.695  24.717  1.00  0.00    -0.246 OA
BRANCH  29  31
ATOM     31  C   UNL A   1      43.565  25.157  26.393  1.00  0.00     0.060 A 
ATOM     32  C   UNL A   1      43.159  24.502  27.543  1.00  0.00     0.016 A 
ATOM     33  C   UNL A   1      43.513  26.480  26.298  1.00  0.00     0.016 A 
ATOM     34  C   UNL A   1      42.434  25.320  28.443  1.00  0.00     0.010 A 
ATOM     35  C   UNL A   1      42.908  27.228  27.280  1.00  0.00     0.010 A 
ATOM     36  C   UNL A   1      42.431  26.640  28.418  1.00  0.00    -0.014 A 
BRANCH  36  37
ATOM     37  C   UNL A   1      41.923  27.463  29.591  1.00  0.00     0.031 A 
ATOM     38  C   UNL A   1      40.783  28.238  29.375  1.00  0.00     0.074 A 
ATOM     39  C   UNL A   1      42.652  27.469  30.768  1.00  0.00     0.049 A 
ATOM     40  N   UNL A   1      40.188  29.066  30.235  1.00  0.00    -0.248 NA
ATOM     41  C   UNL A   1      40.026  28.259  28.114  1.00  0.00     0.031 C 
ATOM     42  C   UNL A   1      43.798  26.682  30.996  1.00  0.00     0.029 A 
ATOM     43  N   UNL A   1      42.417  28.210  31.904  1.00  0.00    -0.354 N 
ATOM     44  C   UNL A   1      39.110  29.617  29.673  1.00  0.00     0.074 A 
ATOM     45  C   UNL A   1      38.994  29.110  28.300  1.00  0.00     0.031 C 
ATOM     46  C   UNL A   1      44.255  26.955  32.247  1.00  0.00     0.029 A 
ATOM     47  C   UNL A   1      43.401  27.916  32.822  1.00  0.00     0.049 A 
ATOM     48  H   UNL A   1      41.674  28.843  32.037  1.00  0.00     0.167 HD
ATOM     49  C   UNL A   1      38.217  30.520  30.254  1.00  0.00     0.037 A 
ATOM     50  C   UNL A   1      43.563  28.445  34.092  1.00  0.00     0.037 A 
ATOM     51  C   UNL A   1      38.355  31.017  31.541  1.00  0.00     0.049 A 
ATOM     52  C   UNL A   1      42.703  29.393  34.652  1.00  0.00     0.074 A 
ATOM     53  C   UNL A   1      37.461  31.922  32.144  1.00  0.00     0.029 A 
ATOM     54  N   UNL A   1      39.352  30.740  32.450  1.00  0.00    -0.354 N 
ATOM     55  N   UNL A   1      41.603  29.913  34.106  1.00  0.00    -0.248 NA
ATOM     56  C   UNL A   1      42.882  29.985  35.984  1.00  0.00     0.031 C 
ATOM     57  C   UNL A   1      37.917  32.195  33.395  1.00  0.00     0.029 A 
ATOM     58  C   UNL A   1      39.105  31.465  33.594  1.00  0.00     0.049 A 
ATOM     59  H   UNL A   1      40.112  30.131  32.306  1.00  0.00     0.167 HD
ATOM     60  C   UNL A   1      41.032  30.773  34.951  1.00  0.00     0.074 A 
ATOM     61  C   UNL A   1      41.851  30.838  36.169  1.00  0.00     0.031 C 
ATOM     62  C   UNL A   1      39.859  31.505  34.756  1.00  0.00     0.037 A 
BRANCH  49  63
ATOM     63  C   UNL A   1      37.029  30.985  29.429  1.00  0.00     0.064 A 
ATOM     64  C   UNL A   1      35.953  30.122  29.301  1.00  0.00     0.173 A 
ATOM     65  C   UNL A   1      37.006  32.198  28.888  1.00  0.00     0.173 A 
ATOM     66  F   UNL A   1      35.823  29.014  30.026  1.00  0.00    -0.203 F 
ATOM     67  C   UNL A   1      35.005  30.527  28.333  1.00  0.00     0.198 A 
ATOM     68  C   UNL A   1      35.979  32.575  28.058  1.00  0.00     0.198 A 
ATOM     69  F   UNL A   1      37.988  33.056  29.154  1.00  0.00    -0.203 F 
ATOM     70  F   UNL A   1      34.148  29.613  27.885  1.00  0.00    -0.200 F 
ATOM     71  C   UNL A   1      34.912  31.749  27.840  1.00  0.00     0.200 A 
ATOM     72  F   UNL A   1      36.024  33.761  27.457  1.00  0.00    -0.200 F 
ATOM     73  F   UNL A   1      33.838  32.154  27.168  1.00  0.00    -0.200 F 
ENDBRANCH  49  63
BRANCH  50  74
ATOM     74  C   UNL A   1      44.742  27.968  34.923  1.00  0.00     0.064 A 
ATOM     75  C   UNL A   1      45.947  28.637  34.797  1.00  0.00     0.173 A 
ATOM     76  C   UNL A   1      44.624  26.904  35.711  1.00  0.00     0.173 A 
ATOM     77  F   UNL A   1      46.056  29.836  34.232  1.00  0.00    -0.203 F 
ATOM     78  C   UNL A   1      47.055  27.930  35.323  1.00  0.00     0.198 A 
ATOM     79  C   UNL A   1      45.731  26.346  36.302  1.00  0.00     0.198 A 
ATOM     80  F   UNL A   1      43.423  26.376  35.928  1.00  0.00    -0.203 F 
ATOM     81  F   UNL A   1      48.270  28.307  34.937  1.00  0.00    -0.200 F 
ATOM     82  C   UNL A   1      46.964  26.921  36.170  1.00  0.00     0.200 A 
ATOM     83  F   UNL A   1      45.601  25.228  37.013  1.00  0.00    -0.200 F 
ATOM     84  F   UNL A   1      48.017  26.488  36.859  1.00  0.00    -0.200 F 
ENDBRANCH  50  74
BRANCH  62  85
ATOM     85  C   UNL A   1      39.380  32.399  35.889  1.00  0.00     0.064 A 
ATOM     86  C   UNL A   1      38.447  31.990  36.827  1.00  0.00     0.173 A 
ATOM     87  C   UNL A   1      39.968  33.586  35.973  1.00  0.00     0.173 A 
ATOM     88  F   UNL A   1      38.024  30.734  36.931  1.00  0.00    -0.203 F 
ATOM     89  C   UNL A   1      37.984  33.032  37.666  1.00  0.00     0.198 A 
ATOM     90  C   UNL A   1      39.556  34.506  36.908  1.00  0.00     0.198 A 
ATOM     91  F   UNL A   1      40.966  33.888  35.148  1.00  0.00    -0.203 F 
ATOM     92  F   UNL A   1      36.854  32.829  38.337  1.00  0.00    -0.200 F 
ATOM     93  C   UNL A   1      38.596  34.190  37.828  1.00  0.00     0.200 A 
ATOM     94  F   UNL A   1      40.098  35.720  36.915  1.00  0.00    -0.200 F 
ATOM     95  F   UNL A   1      38.295  35.007  38.834  1.00  0.00    -0.200 F 
ENDBRANCH  62  85
ENDBRANCH  36  37
ENDBRANCH  29  31
ENDBRANCH  28  29
ENDBRANCH   1  28
TORSDOF 14
ENDMDL
