MODEL 1
REMARK VINA RESULT:     -12.2      0.000      0.000
REMARK SMILES C[C@H]1CC[C@@]2(CO)C(C(=O)OCCOC(=O)c3ccc(-c4c5nc(c(-c6c(F)c(F)c(F)c(F)c6F)c6ccc([nH]6)c(-c6c(F)c(F)c(F)c(F)c6F)c6nc(c(-c7c(F)c(F)c(F)c(F)c7F)c7ccc4[nH]7)C=C6)C=C5)cc3)=C[C@@H](O)C[C@@H]2[C@@]1(C)CCc1ccoc1
REMARK SMILES IDX 12 1 11 2 9 3 10 4 8 5 1 6 2 7 3 8 85 9 4 10 84 11 86 12
REMARK SMILES IDX 5 13 83 14 81 15 80 16 87 17 88 18 89 19 90 20 93 21 91 22
REMARK SMILES IDX 92 23 6 24 7 25 82 27 13 29 14 30 15 31 16 32 17 33 18 34
REMARK SMILES IDX 79 35 19 36 78 37 20 38 21 39 22 40 72 41 23 42 77 43 71 44
REMARK SMILES IDX 73 45 24 46 76 47 70 48 69 49 25 51 57 52 37 53 56 54 38 55
REMARK SMILES IDX 41 56 55 57 74 58 39 59 40 60 54 62 75 63 42 64 26 65 27 66
REMARK SMILES IDX 35 67 28 68 29 69 33 70 36 71 30 72 31 73 34 74 32 75 58 76
REMARK SMILES IDX 59 77 67 78 60 79 61 80 65 81 68 82 62 83 63 84 66 85 64 86
REMARK SMILES IDX 43 87 44 88 52 89 45 90 46 91 50 92 53 93 47 94 48 95 51 96
REMARK SMILES IDX 49 97
REMARK H PARENT 7 26 82 28 73 50 41 61
REMARK Flexibility Score: inf
ROOT
ATOM      1  C   UNL A   1      31.373  29.663  24.941  1.00  0.00     0.275 C 
ENDROOT
BRANCH   1   2
ATOM      2  O   UNL A   1      31.803  28.319  25.262  1.00  0.00    -0.459 OA
BRANCH   2   3
ATOM      3  C   UNL A   1      32.426  27.689  24.230  1.00  0.00     0.334 C 
ATOM      4  O   UNL A   1      33.553  27.988  23.872  1.00  0.00    -0.247 OA
BRANCH   3   5
ATOM      5  C   UNL A   1      31.596  26.611  23.573  1.00  0.00     0.044 C 
ATOM      6  C   UNL A   1      34.579  25.184  26.062  1.00  0.00     0.008 C 
ATOM      7  C   UNL A   1      33.918  23.832  25.703  1.00  0.00    -0.008 C 
ATOM      8  C   UNL A   1      32.499  23.873  26.279  1.00  0.00     0.005 C 
ATOM      9  C   UNL A   1      33.868  23.463  24.174  1.00  0.00    -0.026 C 
ATOM     10  C   UNL A   1      31.692  25.020  25.684  1.00  0.00     0.015 C 
ATOM     11  C   UNL A   1      33.120  24.651  23.444  1.00  0.00     0.011 C 
ATOM     12  C   UNL A   1      33.066  22.146  23.949  1.00  0.00     0.012 C 
ATOM     13  C   UNL A   1      31.741  25.153  24.127  1.00  0.00     0.029 C 
ATOM     14  C   UNL A   1      32.920  24.570  21.908  1.00  0.00     0.041 C 
ATOM     15  C   UNL A   1      32.421  25.926  21.334  1.00  0.00     0.138 C 
ATOM     16  C   UNL A   1      31.503  26.748  22.228  1.00  0.00     0.016 C 
BRANCH   9  17
ATOM     17  C   UNL A   1      35.287  23.039  23.592  1.00  0.00     0.012 C 
BRANCH  17  18
ATOM     18  C   UNL A   1      36.223  21.962  24.157  1.00  0.00     0.039 C 
BRANCH  18  19
ATOM     19  C   UNL A   1      37.367  22.391  25.024  1.00  0.00    -0.010 A 
ATOM     20  C   UNL A   1      37.572  23.720  25.518  1.00  0.00     0.045 A 
ATOM     21  C   UNL A   1      38.394  21.648  25.578  1.00  0.00     0.198 A 
ATOM     22  C   UNL A   1      38.585  23.644  26.444  1.00  0.00     0.195 A 
ATOM     23  O   UNL A   1      39.106  22.391  26.468  1.00  0.00    -0.472 OA
ENDBRANCH  18  19
ENDBRANCH  17  18
ENDBRANCH   9  17
BRANCH  13  24
ATOM     24  C   UNL A   1      30.417  24.415  23.638  1.00  0.00     0.168 C 
BRANCH  24  25
ATOM     25  O   UNL A   1      29.232  25.193  23.753  1.00  0.00    -0.395 OA
ATOM     26  H   UNL A   1      28.866  25.094  24.645  1.00  0.00     0.210 HD
ENDBRANCH  24  25
ENDBRANCH  13  24
BRANCH  15  27
ATOM     27  O   UNL A   1      33.566  26.737  21.072  1.00  0.00    -0.389 OA
ATOM     28  H   UNL A   1      33.326  27.673  21.159  1.00  0.00     0.211 HD
ENDBRANCH  15  27
ENDBRANCH   3   5
ENDBRANCH   2   3
ENDBRANCH   1   2
BRANCH   1  29
ATOM     29  C   UNL A   1      31.707  30.690  26.034  1.00  0.00     0.275 C 
BRANCH  29  30
ATOM     30  O   UNL A   1      33.076  30.610  26.483  1.00  0.00    -0.458 OA
BRANCH  30  31
ATOM     31  C   UNL A   1      33.503  31.656  27.232  1.00  0.00     0.338 C 
ATOM     32  O   UNL A   1      32.868  32.667  27.495  1.00  0.00    -0.246 OA
BRANCH  31  33
ATOM     33  C   UNL A   1      34.804  31.350  27.874  1.00  0.00     0.060 A 
ATOM     34  C   UNL A   1      34.972  30.056  28.382  1.00  0.00     0.016 A 
ATOM     35  C   UNL A   1      35.839  32.280  27.995  1.00  0.00     0.016 A 
ATOM     36  C   UNL A   1      36.176  29.676  28.975  1.00  0.00     0.010 A 
ATOM     37  C   UNL A   1      37.033  31.912  28.637  1.00  0.00     0.010 A 
ATOM     38  C   UNL A   1      37.206  30.608  29.132  1.00  0.00    -0.014 A 
BRANCH  38  39
ATOM     39  C   UNL A   1      38.378  30.249  29.970  1.00  0.00     0.031 A 
ATOM     40  C   UNL A   1      39.388  29.289  29.407  1.00  0.00     0.074 A 
ATOM     41  C   UNL A   1      38.573  30.788  31.186  1.00  0.00     0.049 A 
ATOM     42  N   UNL A   1      40.470  28.798  29.956  1.00  0.00    -0.248 NA
ATOM     43  C   UNL A   1      39.152  28.831  28.028  1.00  0.00     0.031 C 
ATOM     44  C   UNL A   1      37.724  31.798  31.813  1.00  0.00     0.029 A 
ATOM     45  N   UNL A   1      39.561  30.554  32.114  1.00  0.00    -0.354 N 
ATOM     46  C   UNL A   1      41.045  27.985  28.990  1.00  0.00     0.074 A 
ATOM     47  C   UNL A   1      40.193  28.041  27.821  1.00  0.00     0.031 C 
ATOM     48  C   UNL A   1      38.211  32.076  33.038  1.00  0.00     0.029 A 
ATOM     49  C   UNL A   1      39.386  31.242  33.290  1.00  0.00     0.049 A 
ATOM     50  H   UNL A   1      40.321  29.951  31.951  1.00  0.00     0.167 HD
ATOM     51  C   UNL A   1      42.176  27.247  29.070  1.00  0.00     0.037 A 
ATOM     52  C   UNL A   1      40.078  31.174  34.446  1.00  0.00     0.037 A 
ATOM     53  C   UNL A   1      43.004  27.149  30.240  1.00  0.00     0.049 A 
ATOM     54  C   UNL A   1      41.265  30.246  34.551  1.00  0.00     0.074 A 
ATOM     55  C   UNL A   1      44.153  26.401  30.425  1.00  0.00     0.029 A 
ATOM     56  N   UNL A   1      42.757  27.808  31.435  1.00  0.00    -0.354 N 
ATOM     57  N   UNL A   1      41.805  29.481  33.635  1.00  0.00    -0.248 NA
ATOM     58  C   UNL A   1      41.932  30.166  35.861  1.00  0.00     0.031 C 
ATOM     59  C   UNL A   1      44.573  26.567  31.749  1.00  0.00     0.029 A 
ATOM     60  C   UNL A   1      43.716  27.459  32.372  1.00  0.00     0.049 A 
ATOM     61  H   UNL A   1      42.012  28.433  31.593  1.00  0.00     0.167 HD
ATOM     62  C   UNL A   1      42.885  28.852  34.245  1.00  0.00     0.074 A 
ATOM     63  C   UNL A   1      42.934  29.335  35.609  1.00  0.00     0.031 C 
ATOM     64  C   UNL A   1      43.756  27.954  33.724  1.00  0.00     0.037 A 
BRANCH  51  65
ATOM     65  C   UNL A   1      42.545  26.436  27.866  1.00  0.00     0.064 A 
ATOM     66  C   UNL A   1      42.043  25.141  27.669  1.00  0.00     0.173 A 
ATOM     67  C   UNL A   1      43.412  26.963  26.898  1.00  0.00     0.173 A 
ATOM     68  F   UNL A   1      41.229  24.586  28.579  1.00  0.00    -0.203 F 
ATOM     69  C   UNL A   1      42.414  24.395  26.553  1.00  0.00     0.198 A 
ATOM     70  C   UNL A   1      43.762  26.224  25.773  1.00  0.00     0.198 A 
ATOM     71  F   UNL A   1      43.922  28.195  27.046  1.00  0.00    -0.203 F 
ATOM     72  F   UNL A   1      41.959  23.143  26.405  1.00  0.00    -0.200 F 
ATOM     73  C   UNL A   1      43.268  24.938  25.605  1.00  0.00     0.200 A 
ATOM     74  F   UNL A   1      44.584  26.751  24.855  1.00  0.00    -0.200 F 
ATOM     75  F   UNL A   1      43.624  24.219  24.532  1.00  0.00    -0.200 F 
ENDBRANCH  51  65
BRANCH  52  76
ATOM     76  C   UNL A   1      39.645  31.967  35.629  1.00  0.00     0.064 A 
ATOM     77  C   UNL A   1      38.644  31.499  36.492  1.00  0.00     0.173 A 
ATOM     78  C   UNL A   1      40.175  33.241  35.879  1.00  0.00     0.173 A 
ATOM     79  F   UNL A   1      38.075  30.305  36.273  1.00  0.00    -0.203 F 
ATOM     80  C   UNL A   1      38.175  32.285  37.546  1.00  0.00     0.198 A 
ATOM     81  C   UNL A   1      39.727  34.013  36.949  1.00  0.00     0.198 A 
ATOM     82  F   UNL A   1      41.121  33.744  35.072  1.00  0.00    -0.203 F 
ATOM     83  F   UNL A   1      37.174  31.840  38.317  1.00  0.00    -0.200 F 
ATOM     84  C   UNL A   1      38.720  33.539  37.775  1.00  0.00     0.200 A 
ATOM     85  F   UNL A   1      40.255  35.225  37.164  1.00  0.00    -0.200 F 
ATOM     86  F   UNL A   1      38.261  34.298  38.779  1.00  0.00    -0.200 F 
ENDBRANCH  52  76
BRANCH  64  87
ATOM     87  C   UNL A   1      44.858  27.454  34.615  1.00  0.00     0.064 A 
ATOM     88  C   UNL A   1      44.709  26.298  35.392  1.00  0.00     0.173 A 
ATOM     89  C   UNL A   1      46.098  28.113  34.648  1.00  0.00     0.173 A 
ATOM     90  F   UNL A   1      43.540  25.639  35.406  1.00  0.00    -0.203 F 
ATOM     91  C   UNL A   1      45.754  25.829  36.186  1.00  0.00     0.198 A 
ATOM     92  C   UNL A   1      47.149  27.626  35.419  1.00  0.00     0.198 A 
ATOM     93  F   UNL A   1      46.296  29.219  33.915  1.00  0.00    -0.203 F 
ATOM     94  F   UNL A   1      45.575  24.744  36.953  1.00  0.00    -0.200 F 
ATOM     95  C   UNL A   1      46.974  26.489  36.192  1.00  0.00     0.200 A 
ATOM     96  F   UNL A   1      48.332  28.256  35.413  1.00  0.00    -0.200 F 
ATOM     97  F   UNL A   1      47.981  26.030  36.949  1.00  0.00    -0.200 F 
ENDBRANCH  64  87
ENDBRANCH  38  39
ENDBRANCH  31  33
ENDBRANCH  30  31
ENDBRANCH  29  30
ENDBRANCH   1  29
TORSDOF 17
ENDMDL
MODEL 2
REMARK VINA RESULT:     -12.2      4.068      9.552
REMARK SMILES C[C@H]1CC[C@@]2(CO)C(C(=O)OCCOC(=O)c3ccc(-c4c5nc(c(-c6c(F)c(F)c(F)c(F)c6F)c6ccc([nH]6)c(-c6c(F)c(F)c(F)c(F)c6F)c6nc(c(-c7c(F)c(F)c(F)c(F)c7F)c7ccc4[nH]7)C=C6)C=C5)cc3)=C[C@@H](O)C[C@@H]2[C@@]1(C)CCc1ccoc1
REMARK SMILES IDX 12 1 11 2 9 3 10 4 8 5 1 6 2 7 3 8 85 9 4 10 84 11 86 12
REMARK SMILES IDX 5 13 83 14 81 15 80 16 87 17 88 18 89 19 90 20 93 21 91 22
REMARK SMILES IDX 92 23 6 24 7 25 82 27 13 29 14 30 15 31 16 32 17 33 18 34
REMARK SMILES IDX 79 35 19 36 78 37 20 38 21 39 22 40 72 41 23 42 77 43 71 44
REMARK SMILES IDX 73 45 24 46 76 47 70 48 69 49 25 51 57 52 37 53 56 54 38 55
REMARK SMILES IDX 41 56 55 57 74 58 39 59 40 60 54 62 75 63 42 64 26 65 27 66
REMARK SMILES IDX 35 67 28 68 29 69 33 70 36 71 30 72 31 73 34 74 32 75 58 76
REMARK SMILES IDX 59 77 67 78 60 79 61 80 65 81 68 82 62 83 63 84 66 85 64 86
REMARK SMILES IDX 43 87 44 88 52 89 45 90 46 91 50 92 53 93 47 94 48 95 51 96
REMARK SMILES IDX 49 97
REMARK H PARENT 7 26 82 28 73 50 41 61
REMARK Flexibility Score: inf
ROOT
ATOM      1  C   UNL A   1      35.482  20.720  25.079  1.00  0.00     0.275 C 
ENDROOT
BRANCH   1   2
ATOM      2  O   UNL A   1      34.786  21.895  24.598  1.00  0.00    -0.459 OA
BRANCH   2   3
ATOM      3  C   UNL A   1      33.844  22.358  25.463  1.00  0.00     0.334 C 
ATOM      4  O   UNL A   1      34.076  22.518  26.650  1.00  0.00    -0.247 OA
BRANCH   3   5
ATOM      5  C   UNL A   1      32.504  22.637  24.824  1.00  0.00     0.044 C 
ATOM      6  C   UNL A   1      34.725  26.024  25.675  1.00  0.00     0.008 C 
ATOM      7  C   UNL A   1      33.537  26.708  24.956  1.00  0.00    -0.008 C 
ATOM      8  C   UNL A   1      33.561  26.212  23.506  1.00  0.00     0.005 C 
ATOM      9  C   UNL A   1      32.113  26.472  25.583  1.00  0.00    -0.026 C 
ATOM     10  C   UNL A   1      33.409  24.698  23.436  1.00  0.00     0.015 C 
ATOM     11  C   UNL A   1      31.894  24.906  25.638  1.00  0.00     0.011 C 
ATOM     12  C   UNL A   1      31.005  27.107  24.690  1.00  0.00     0.012 C 
ATOM     13  C   UNL A   1      32.250  24.088  24.289  1.00  0.00     0.029 C 
ATOM     14  C   UNL A   1      30.563  24.363  26.220  1.00  0.00     0.041 C 
ATOM     15  C   UNL A   1      30.635  22.827  26.447  1.00  0.00     0.138 C 
ATOM     16  C   UNL A   1      31.470  22.029  25.456  1.00  0.00     0.016 C 
BRANCH   9  17
ATOM     17  C   UNL A   1      31.890  27.280  26.935  1.00  0.00     0.012 C 
BRANCH  17  18
ATOM     18  C   UNL A   1      31.766  28.802  27.083  1.00  0.00     0.039 C 
BRANCH  18  19
ATOM     19  C   UNL A   1      33.010  29.603  27.320  1.00  0.00    -0.010 A 
ATOM     20  C   UNL A   1      34.307  29.052  27.575  1.00  0.00     0.045 A 
ATOM     21  C   UNL A   1      33.210  30.971  27.286  1.00  0.00     0.198 A 
ATOM     22  C   UNL A   1      35.198  30.096  27.509  1.00  0.00     0.195 A 
ATOM     23  O   UNL A   1      34.535  31.270  27.358  1.00  0.00    -0.472 OA
ENDBRANCH  18  19
ENDBRANCH  17  18
ENDBRANCH   9  17
BRANCH  13  24
ATOM     24  C   UNL A   1      31.058  23.916  23.247  1.00  0.00     0.168 C 
BRANCH  24  25
ATOM     25  O   UNL A   1      31.185  24.704  22.070  1.00  0.00    -0.395 OA
ATOM     26  H   UNL A   1      31.352  24.126  21.310  1.00  0.00     0.210 HD
ENDBRANCH  24  25
ENDBRANCH  13  24
BRANCH  15  27
ATOM     27  O   UNL A   1      31.207  22.602  27.735  1.00  0.00    -0.389 OA
ATOM     28  H   UNL A   1      32.102  22.975  27.761  1.00  0.00     0.211 HD
ENDBRANCH  15  27
ENDBRANCH   3   5
ENDBRANCH   2   3
ENDBRANCH   1   2
BRANCH   1  29
ATOM     29  C   UNL A   1      37.006  20.794  24.898  1.00  0.00     0.275 C 
BRANCH  29  30
ATOM     30  O   UNL A   1      37.628  21.770  25.760  1.00  0.00    -0.458 OA
BRANCH  30  31
ATOM     31  C   UNL A   1      38.886  21.468  26.165  1.00  0.00     0.338 C 
ATOM     32  O   UNL A   1      39.460  20.400  26.013  1.00  0.00    -0.246 OA
BRANCH  31  33
ATOM     33  C   UNL A   1      39.584  22.676  26.667  1.00  0.00     0.060 A 
ATOM     34  C   UNL A   1      39.197  23.905  26.120  1.00  0.00     0.016 A 
ATOM     35  C   UNL A   1      40.591  22.635  27.635  1.00  0.00     0.016 A 
ATOM     36  C   UNL A   1      39.783  25.094  26.557  1.00  0.00     0.010 A 
ATOM     37  C   UNL A   1      41.214  23.827  28.039  1.00  0.00     0.010 A 
ATOM     38  C   UNL A   1      40.814  25.062  27.500  1.00  0.00    -0.014 A 
BRANCH  38  39
ATOM     39  C   UNL A   1      41.575  26.308  27.773  1.00  0.00     0.031 A 
ATOM     40  C   UNL A   1      40.893  27.406  28.538  1.00  0.00     0.074 A 
ATOM     41  C   UNL A   1      42.857  26.454  27.393  1.00  0.00     0.049 A 
ATOM     42  N   UNL A   1      41.334  28.593  28.868  1.00  0.00    -0.248 NA
ATOM     43  C   UNL A   1      39.527  27.119  29.009  1.00  0.00     0.031 C 
ATOM     44  C   UNL A   1      43.667  25.436  26.727  1.00  0.00     0.029 A 
ATOM     45  N   UNL A   1      43.703  27.530  27.517  1.00  0.00    -0.354 N 
ATOM     46  C   UNL A   1      40.308  29.188  29.588  1.00  0.00     0.074 A 
ATOM     47  C   UNL A   1      39.219  28.237  29.647  1.00  0.00     0.031 C 
ATOM     48  C   UNL A   1      44.886  25.948  26.474  1.00  0.00     0.029 A 
ATOM     49  C   UNL A   1      44.931  27.337  26.933  1.00  0.00     0.049 A 
ATOM     50  H   UNL A   1      43.454  28.362  27.982  1.00  0.00     0.167 HD
ATOM     51  C   UNL A   1      40.270  30.421  30.146  1.00  0.00     0.037 A 
ATOM     52  C   UNL A   1      45.955  28.197  26.759  1.00  0.00     0.037 A 
ATOM     53  C   UNL A   1      41.328  31.388  30.056  1.00  0.00     0.049 A 
ATOM     54  C   UNL A   1      45.838  29.610  27.280  1.00  0.00     0.074 A 
ATOM     55  C   UNL A   1      41.367  32.675  30.561  1.00  0.00     0.029 A 
ATOM     56  N   UNL A   1      42.530  31.179  29.397  1.00  0.00    -0.354 N 
ATOM     57  N   UNL A   1      44.867  30.167  27.963  1.00  0.00    -0.248 NA
ATOM     58  C   UNL A   1      46.961  30.520  26.995  1.00  0.00     0.031 C 
ATOM     59  C   UNL A   1      42.572  33.264  30.164  1.00  0.00     0.029 A 
ATOM     60  C   UNL A   1      43.305  32.326  29.456  1.00  0.00     0.049 A 
ATOM     61  H   UNL A   1      42.794  30.340  28.953  1.00  0.00     0.167 HD
ATOM     62  C   UNL A   1      45.270  31.474  28.209  1.00  0.00     0.074 A 
ATOM     63  C   UNL A   1      46.582  31.627  27.616  1.00  0.00     0.031 C 
ATOM     64  C   UNL A   1      44.613  32.461  28.867  1.00  0.00     0.037 A 
BRANCH  51  65
ATOM     65  C   UNL A   1      39.007  30.809  30.851  1.00  0.00     0.064 A 
ATOM     66  C   UNL A   1      38.858  30.648  32.236  1.00  0.00     0.173 A 
ATOM     67  C   UNL A   1      37.932  31.348  30.129  1.00  0.00     0.173 A 
ATOM     68  F   UNL A   1      39.850  30.115  32.965  1.00  0.00    -0.203 F 
ATOM     69  C   UNL A   1      37.668  30.995  32.871  1.00  0.00     0.198 A 
ATOM     70  C   UNL A   1      36.754  31.715  30.769  1.00  0.00     0.198 A 
ATOM     71  F   UNL A   1      38.026  31.515  28.801  1.00  0.00    -0.203 F 
ATOM     72  F   UNL A   1      37.529  30.793  34.189  1.00  0.00    -0.200 F 
ATOM     73  C   UNL A   1      36.620  31.533  32.138  1.00  0.00     0.200 A 
ATOM     74  F   UNL A   1      35.743  32.238  30.061  1.00  0.00    -0.200 F 
ATOM     75  F   UNL A   1      35.476  31.866  32.750  1.00  0.00    -0.200 F 
ENDBRANCH  51  65
BRANCH  52  76
ATOM     76  C   UNL A   1      47.172  27.777  26.011  1.00  0.00     0.064 A 
ATOM     77  C   UNL A   1      47.197  27.765  24.609  1.00  0.00     0.173 A 
ATOM     78  C   UNL A   1      48.310  27.313  26.687  1.00  0.00     0.173 A 
ATOM     79  F   UNL A   1      46.119  28.159  23.917  1.00  0.00    -0.203 F 
ATOM     80  C   UNL A   1      48.305  27.283  23.913  1.00  0.00     0.198 A 
ATOM     81  C   UNL A   1      49.428  26.859  25.990  1.00  0.00     0.198 A 
ATOM     82  F   UNL A   1      48.331  27.286  28.027  1.00  0.00    -0.203 F 
ATOM     83  F   UNL A   1      48.279  27.222  22.575  1.00  0.00    -0.200 F 
ATOM     84  C   UNL A   1      49.421  26.834  24.604  1.00  0.00     0.200 A 
ATOM     85  F   UNL A   1      50.503  26.425  26.662  1.00  0.00    -0.200 F 
ATOM     86  F   UNL A   1      50.480  26.360  23.934  1.00  0.00    -0.200 F 
ENDBRANCH  52  76
BRANCH  64  87
ATOM     87  C   UNL A   1      45.307  33.785  29.012  1.00  0.00     0.064 A 
ATOM     88  C   UNL A   1      46.096  34.085  30.131  1.00  0.00     0.173 A 
ATOM     89  C   UNL A   1      45.224  34.745  27.990  1.00  0.00     0.173 A 
ATOM     90  F   UNL A   1      46.198  33.207  31.140  1.00  0.00    -0.203 F 
ATOM     91  C   UNL A   1      46.760  35.305  30.232  1.00  0.00     0.198 A 
ATOM     92  C   UNL A   1      45.912  35.951  28.081  1.00  0.00     0.198 A 
ATOM     93  F   UNL A   1      44.489  34.505  26.894  1.00  0.00    -0.203 F 
ATOM     94  F   UNL A   1      47.477  35.587  31.330  1.00  0.00    -0.200 F 
ATOM     95  C   UNL A   1      46.675  36.233  29.204  1.00  0.00     0.200 A 
ATOM     96  F   UNL A   1      45.840  36.840  27.081  1.00  0.00    -0.200 F 
ATOM     97  F   UNL A   1      47.323  37.402  29.300  1.00  0.00    -0.200 F 
ENDBRANCH  64  87
ENDBRANCH  38  39
ENDBRANCH  31  33
ENDBRANCH  30  31
ENDBRANCH  29  30
ENDBRANCH   1  29
TORSDOF 17
ENDMDL
MODEL 3
REMARK VINA RESULT:     -12.0      0.443      1.619
REMARK SMILES C[C@H]1CC[C@@]2(CO)C(C(=O)OCCOC(=O)c3ccc(-c4c5nc(c(-c6c(F)c(F)c(F)c(F)c6F)c6ccc([nH]6)c(-c6c(F)c(F)c(F)c(F)c6F)c6nc(c(-c7c(F)c(F)c(F)c(F)c7F)c7ccc4[nH]7)C=C6)C=C5)cc3)=C[C@@H](O)C[C@@H]2[C@@]1(C)CCc1ccoc1
REMARK SMILES IDX 12 1 11 2 9 3 10 4 8 5 1 6 2 7 3 8 85 9 4 10 84 11 86 12
REMARK SMILES IDX 5 13 83 14 81 15 80 16 87 17 88 18 89 19 90 20 93 21 91 22
REMARK SMILES IDX 92 23 6 24 7 25 82 27 13 29 14 30 15 31 16 32 17 33 18 34
REMARK SMILES IDX 79 35 19 36 78 37 20 38 21 39 22 40 72 41 23 42 77 43 71 44
REMARK SMILES IDX 73 45 24 46 76 47 70 48 69 49 25 51 57 52 37 53 56 54 38 55
REMARK SMILES IDX 41 56 55 57 74 58 39 59 40 60 54 62 75 63 42 64 26 65 27 66
REMARK SMILES IDX 35 67 28 68 29 69 33 70 36 71 30 72 31 73 34 74 32 75 58 76
REMARK SMILES IDX 59 77 67 78 60 79 61 80 65 81 68 82 62 83 63 84 66 85 64 86
REMARK SMILES IDX 43 87 44 88 52 89 45 90 46 91 50 92 53 93 47 94 48 95 51 96
REMARK SMILES IDX 49 97
REMARK H PARENT 7 26 82 28 73 50 41 61
REMARK Flexibility Score: inf
ROOT
ATOM      1  C   UNL A   1      31.368  29.674  25.180  1.00  0.00     0.275 C 
ENDROOT
BRANCH   1   2
ATOM      2  O   UNL A   1      32.030  28.411  25.430  1.00  0.00    -0.459 OA
BRANCH   2   3
ATOM      3  C   UNL A   1      32.523  27.827  24.305  1.00  0.00     0.334 C 
ATOM      4  O   UNL A   1      33.665  28.018  23.922  1.00  0.00    -0.247 OA
BRANCH   3   5
ATOM      5  C   UNL A   1      31.532  26.944  23.584  1.00  0.00     0.044 C 
ATOM      6  C   UNL A   1      33.960  24.938  26.268  1.00  0.00     0.008 C 
ATOM      7  C   UNL A   1      33.055  23.753  25.854  1.00  0.00    -0.008 C 
ATOM      8  C   UNL A   1      31.639  24.099  26.327  1.00  0.00     0.005 C 
ATOM      9  C   UNL A   1      33.037  23.391  24.322  1.00  0.00    -0.026 C 
ATOM     10  C   UNL A   1      31.139  25.385  25.684  1.00  0.00     0.015 C 
ATOM     11  C   UNL A   1      32.611  24.704  23.549  1.00  0.00     0.011 C 
ATOM     12  C   UNL A   1      31.993  22.272  24.031  1.00  0.00     0.012 C 
ATOM     13  C   UNL A   1      31.325  25.492  24.136  1.00  0.00     0.029 C 
ATOM     14  C   UNL A   1      32.509  24.655  22.003  1.00  0.00     0.041 C 
ATOM     15  C   UNL A   1      32.351  26.082  21.404  1.00  0.00     0.138 C 
ATOM     16  C   UNL A   1      31.566  27.087  22.236  1.00  0.00     0.016 C 
BRANCH   9  17
ATOM     17  C   UNL A   1      34.372  22.672  23.840  1.00  0.00     0.012 C 
BRANCH  17  18
ATOM     18  C   UNL A   1      35.181  21.627  24.620  1.00  0.00     0.039 C 
BRANCH  18  19
ATOM     19  C   UNL A   1      36.573  21.977  25.053  1.00  0.00    -0.010 A 
ATOM     20  C   UNL A   1      36.964  23.226  25.634  1.00  0.00     0.045 A 
ATOM     21  C   UNL A   1      37.723  21.209  25.062  1.00  0.00     0.198 A 
ATOM     22  C   UNL A   1      38.250  23.062  26.092  1.00  0.00     0.195 A 
ATOM     23  O   UNL A   1      38.726  21.845  25.726  1.00  0.00    -0.472 OA
ENDBRANCH  18  19
ENDBRANCH  17  18
ENDBRANCH   9  17
BRANCH  13  24
ATOM     24  C   UNL A   1      29.914  25.048  23.548  1.00  0.00     0.168 C 
BRANCH  24  25
ATOM     25  O   UNL A   1      28.802  25.753  24.086  1.00  0.00    -0.395 OA
ATOM     26  H   UNL A   1      28.066  25.726  23.456  1.00  0.00     0.210 HD
ENDBRANCH  24  25
ENDBRANCH  13  24
BRANCH  15  27
ATOM     27  O   UNL A   1      33.657  26.630  21.230  1.00  0.00    -0.389 OA
ATOM     28  H   UNL A   1      33.877  27.190  21.991  1.00  0.00     0.211 HD
ENDBRANCH  15  27
ENDBRANCH   3   5
ENDBRANCH   2   3
ENDBRANCH   1   2
BRANCH   1  29
ATOM     29  C   UNL A   1      31.779  30.785  26.159  1.00  0.00     0.275 C 
BRANCH  29  30
ATOM     30  O   UNL A   1      33.189  30.774  26.463  1.00  0.00    -0.458 OA
BRANCH  30  31
ATOM     31  C   UNL A   1      33.621  31.789  27.252  1.00  0.00     0.338 C 
ATOM     32  O   UNL A   1      32.999  32.803  27.533  1.00  0.00    -0.246 OA
BRANCH  31  33
ATOM     33  C   UNL A   1      34.902  31.438  27.910  1.00  0.00     0.060 A 
ATOM     34  C   UNL A   1      35.034  30.128  28.386  1.00  0.00     0.016 A 
ATOM     35  C   UNL A   1      35.953  32.343  28.076  1.00  0.00     0.016 A 
ATOM     36  C   UNL A   1      36.217  29.707  28.991  1.00  0.00     0.010 A 
ATOM     37  C   UNL A   1      37.126  31.933  28.730  1.00  0.00     0.010 A 
ATOM     38  C   UNL A   1      37.263  30.613  29.194  1.00  0.00    -0.014 A 
BRANCH  38  39
ATOM     39  C   UNL A   1      38.410  30.206  30.043  1.00  0.00     0.031 A 
ATOM     40  C   UNL A   1      39.394  29.217  29.486  1.00  0.00     0.074 A 
ATOM     41  C   UNL A   1      38.609  30.730  31.266  1.00  0.00     0.049 A 
ATOM     42  N   UNL A   1      40.451  28.684  30.045  1.00  0.00    -0.248 NA
ATOM     43  C   UNL A   1      39.160  28.777  28.100  1.00  0.00     0.031 C 
ATOM     44  C   UNL A   1      37.786  31.764  31.890  1.00  0.00     0.029 A 
ATOM     45  N   UNL A   1      39.575  30.455  32.205  1.00  0.00    -0.354 N 
ATOM     46  C   UNL A   1      41.009  27.858  29.081  1.00  0.00     0.074 A 
ATOM     47  C   UNL A   1      40.176  27.952  27.901  1.00  0.00     0.031 C 
ATOM     48  C   UNL A   1      38.266  32.016  33.123  1.00  0.00     0.029 A 
ATOM     49  C   UNL A   1      39.409  31.139  33.384  1.00  0.00     0.049 A 
ATOM     50  H   UNL A   1      40.316  29.827  32.047  1.00  0.00     0.167 HD
ATOM     51  C   UNL A   1      42.114  27.081  29.169  1.00  0.00     0.037 A 
ATOM     52  C   UNL A   1      40.082  31.039  34.548  1.00  0.00     0.037 A 
ATOM     53  C   UNL A   1      42.922  26.946  30.349  1.00  0.00     0.049 A 
ATOM     54  C   UNL A   1      41.235  30.069  34.662  1.00  0.00     0.074 A 
ATOM     55  C   UNL A   1      44.042  26.156  30.543  1.00  0.00     0.029 A 
ATOM     56  N   UNL A   1      42.682  27.604  31.545  1.00  0.00    -0.354 N 
ATOM     57  N   UNL A   1      41.761  29.292  33.746  1.00  0.00    -0.248 NA
ATOM     58  C   UNL A   1      41.882  29.956  35.979  1.00  0.00     0.031 C 
ATOM     59  C   UNL A   1      44.450  26.298  31.873  1.00  0.00     0.029 A 
ATOM     60  C   UNL A   1      43.616  27.215  32.492  1.00  0.00     0.049 A 
ATOM     61  H   UNL A   1      41.957  28.253  31.699  1.00  0.00     0.167 HD
ATOM     62  C   UNL A   1      42.809  28.622  34.366  1.00  0.00     0.074 A 
ATOM     63  C   UNL A   1      42.857  29.093  35.733  1.00  0.00     0.031 C 
ATOM     64  C   UNL A   1      43.656  27.698  33.849  1.00  0.00     0.037 A 
BRANCH  51  65
ATOM     65  C   UNL A   1      42.470  26.266  27.964  1.00  0.00     0.064 A 
ATOM     66  C   UNL A   1      43.408  26.715  27.023  1.00  0.00     0.173 A 
ATOM     67  C   UNL A   1      41.863  25.020  27.749  1.00  0.00     0.173 A 
ATOM     68  F   UNL A   1      43.997  27.911  27.174  1.00  0.00    -0.203 F 
ATOM     69  C   UNL A   1      43.710  25.953  25.897  1.00  0.00     0.198 A 
ATOM     70  C   UNL A   1      42.184  24.251  26.636  1.00  0.00     0.198 A 
ATOM     71  F   UNL A   1      40.955  24.552  28.619  1.00  0.00    -0.203 F 
ATOM     72  F   UNL A   1      44.576  26.419  24.986  1.00  0.00    -0.200 F 
ATOM     73  C   UNL A   1      43.102  24.720  25.708  1.00  0.00     0.200 A 
ATOM     74  F   UNL A   1      41.600  23.058  26.456  1.00  0.00    -0.200 F 
ATOM     75  F   UNL A   1      43.393  23.988  24.624  1.00  0.00    -0.200 F 
ENDBRANCH  51  65
BRANCH  52  76
ATOM     76  C   UNL A   1      39.661  31.838  35.732  1.00  0.00     0.064 A 
ATOM     77  C   UNL A   1      38.597  31.426  36.546  1.00  0.00     0.173 A 
ATOM     78  C   UNL A   1      40.272  33.065  36.029  1.00  0.00     0.173 A 
ATOM     79  F   UNL A   1      37.953  30.281  36.280  1.00  0.00    -0.203 F 
ATOM     80  C   UNL A   1      38.146  32.223  37.599  1.00  0.00     0.198 A 
ATOM     81  C   UNL A   1      39.839  33.847  37.099  1.00  0.00     0.198 A 
ATOM     82  F   UNL A   1      41.281  33.515  35.270  1.00  0.00    -0.203 F 
ATOM     83  F   UNL A   1      37.086  31.836  38.322  1.00  0.00    -0.200 F 
ATOM     84  C   UNL A   1      38.769  33.430  37.876  1.00  0.00     0.200 A 
ATOM     85  F   UNL A   1      40.443  35.013  37.361  1.00  0.00    -0.200 F 
ATOM     86  F   UNL A   1      38.327  34.200  38.879  1.00  0.00    -0.200 F 
ENDBRANCH  52  76
BRANCH  64  87
ATOM     87  C   UNL A   1      44.728  27.154  34.750  1.00  0.00     0.064 A 
ATOM     88  C   UNL A   1      45.971  27.788  34.882  1.00  0.00     0.173 A 
ATOM     89  C   UNL A   1      44.487  26.012  35.530  1.00  0.00     0.173 A 
ATOM     90  F   UNL A   1      46.256  28.875  34.148  1.00  0.00    -0.203 F 
ATOM     91  C   UNL A   1      46.941  27.289  35.748  1.00  0.00     0.198 A 
ATOM     92  C   UNL A   1      45.447  25.532  36.416  1.00  0.00     0.198 A 
ATOM     93  F   UNL A   1      43.311  25.372  35.448  1.00  0.00    -0.203 F 
ATOM     94  F   UNL A   1      48.137  27.888  35.828  1.00  0.00    -0.200 F 
ATOM     95  C   UNL A   1      46.675  26.167  36.520  1.00  0.00     0.200 A 
ATOM     96  F   UNL A   1      45.183  24.457  37.171  1.00  0.00    -0.200 F 
ATOM     97  F   UNL A   1      47.607  25.695  37.360  1.00  0.00    -0.200 F 
ENDBRANCH  64  87
ENDBRANCH  38  39
ENDBRANCH  31  33
ENDBRANCH  30  31
ENDBRANCH  29  30
ENDBRANCH   1  29
TORSDOF 17
ENDMDL
