MODEL 1
REMARK VINA RESULT:     -12.7      0.000      0.000
REMARK SMILES COc1ccc([C@H]2[C@H](C(=O)OCCOC(=O)c3ccc(-c4c5nc(c(-c6c(F)c(F)c(F)c(F)c6F)c6ccc([nH]6)c(-c6c(F)c(F)c(F)c(F)c6F)c6nc(c(-c7c(F)c(F)c(F)c(F)c7F)c7ccc4[nH]7)C=C6)C=C5)cc3)CCN2c2ccc(F)cc2)cc1
REMARK SMILES IDX 12 1 11 2 9 3 10 4 8 5 7 6 82 7 80 8 81 9 6 10 3 11 4 12
REMARK SMILES IDX 91 13 5 14 90 15 2 16 1 17 83 18 84 19 89 20 85 21 88 22
REMARK SMILES IDX 86 23 87 24 13 25 14 26 15 27 16 28 17 29 18 30 79 31 19 32
REMARK SMILES IDX 78 33 20 34 21 35 22 36 72 37 23 38 77 39 71 40 73 41 24 42
REMARK SMILES IDX 76 43 70 44 69 45 25 47 57 48 37 49 56 50 38 51 41 52 55 53
REMARK SMILES IDX 74 54 39 55 40 56 54 58 75 59 42 60 26 61 27 62 35 63 28 64
REMARK SMILES IDX 29 65 33 66 36 67 30 68 31 69 34 70 32 71 58 72 59 73 67 74
REMARK SMILES IDX 60 75 61 76 65 77 68 78 62 79 63 80 66 81 64 82 43 83 44 84
REMARK SMILES IDX 52 85 45 86 46 87 50 88 53 89 47 90 48 91 51 92 49 93
REMARK H PARENT 73 46 41 57
REMARK Flexibility Score: inf
ROOT
ATOM      1  C   UNL A   1      32.826  31.679  27.347  1.00  0.00     0.274 C 
ENDROOT
BRANCH   1   2
ATOM      2  O   UNL A   1      33.828  30.700  27.690  1.00  0.00    -0.462 OA
BRANCH   2   3
ATOM      3  C   UNL A   1      33.709  29.472  27.132  1.00  0.00     0.311 C 
ATOM      4  O   UNL A   1      34.621  28.653  27.064  1.00  0.00    -0.252 OA
BRANCH   3   5
ATOM      5  C   UNL A   1      32.341  29.175  26.552  1.00  0.00     0.128 C 
ATOM      6  C   UNL A   1      32.347  28.469  25.184  1.00  0.00     0.127 C 
ATOM      7  N   UNL A   1      32.332  27.044  25.553  1.00  0.00    -0.364 N 
ATOM      8  C   UNL A   1      31.562  28.226  27.455  1.00  0.00     0.039 C 
ATOM      9  C   UNL A   1      31.946  26.840  26.951  1.00  0.00     0.118 C 
BRANCH   6  10
ATOM     10  C   UNL A   1      31.095  28.853  24.381  1.00  0.00    -0.024 A 
ATOM     11  C   UNL A   1      28.928  29.543  22.695  1.00  0.00     0.118 A 
ATOM     12  C   UNL A   1      29.384  28.228  22.753  1.00  0.00     0.047 A 
ATOM     13  C   UNL A   1      29.499  30.498  23.530  1.00  0.00     0.047 A 
ATOM     14  C   UNL A   1      30.451  27.885  23.591  1.00  0.00     0.010 A 
ATOM     15  C   UNL A   1      30.572  30.155  24.362  1.00  0.00     0.010 A 
BRANCH  11  16
ATOM     16  O   UNL A   1      27.908  29.776  21.814  1.00  0.00    -0.497 OA
ATOM     17  C   UNL A   1      28.037  30.964  21.038  1.00  0.00     0.278 C 
ENDBRANCH  11  16
ENDBRANCH   6  10
BRANCH   7  18
ATOM     18  C   UNL A   1      33.045  26.051  24.912  1.00  0.00     0.037 A 
ATOM     19  C   UNL A   1      34.198  25.521  25.513  1.00  0.00     0.029 A 
ATOM     20  C   UNL A   1      32.691  25.556  23.649  1.00  0.00     0.029 A 
ATOM     21  C   UNL A   1      34.971  24.543  24.881  1.00  0.00     0.041 A 
ATOM     22  C   UNL A   1      33.471  24.595  22.999  1.00  0.00     0.041 A 
ATOM     23  C   UNL A   1      34.604  24.096  23.622  1.00  0.00     0.123 A 
ATOM     24  F   UNL A   1      35.354  23.178  23.001  1.00  0.00    -0.207 F 
ENDBRANCH   7  18
ENDBRANCH   3   5
ENDBRANCH   2   3
ENDBRANCH   1   2
BRANCH   1  25
ATOM     25  C   UNL A   1      33.381  33.103  27.434  1.00  0.00     0.275 C 
BRANCH  25  26
ATOM     26  O   UNL A   1      32.426  34.007  28.020  1.00  0.00    -0.458 OA
BRANCH  26  27
ATOM     27  C   UNL A   1      32.966  35.011  28.744  1.00  0.00     0.338 C 
ATOM     28  O   UNL A   1      32.553  36.153  28.860  1.00  0.00    -0.246 OA
BRANCH  27  29
ATOM     29  C   UNL A   1      34.085  34.500  29.544  1.00  0.00     0.060 A 
ATOM     30  C   UNL A   1      35.376  34.718  29.061  1.00  0.00     0.016 A 
ATOM     31  C   UNL A   1      33.874  33.732  30.688  1.00  0.00     0.016 A 
ATOM     32  C   UNL A   1      36.468  34.139  29.693  1.00  0.00     0.010 A 
ATOM     33  C   UNL A   1      34.975  33.171  31.343  1.00  0.00     0.010 A 
ATOM     34  C   UNL A   1      36.275  33.356  30.838  1.00  0.00    -0.014 A 
BRANCH  34  35
ATOM     35  C   UNL A   1      37.440  32.708  31.482  1.00  0.00     0.031 A 
ATOM     36  C   UNL A   1      38.158  31.592  30.783  1.00  0.00     0.074 A 
ATOM     37  C   UNL A   1      37.866  33.146  32.681  1.00  0.00     0.049 A 
ATOM     38  N   UNL A   1      39.135  30.837  31.216  1.00  0.00    -0.248 NA
ATOM     39  C   UNL A   1      37.717  31.283  29.414  1.00  0.00     0.031 C 
ATOM     40  C   UNL A   1      37.280  34.258  33.429  1.00  0.00     0.029 A 
ATOM     41  N   UNL A   1      38.890  32.706  33.480  1.00  0.00    -0.354 N 
ATOM     42  C   UNL A   1      39.409  29.948  30.186  1.00  0.00     0.074 A 
ATOM     43  C   UNL A   1      38.491  30.251  29.108  1.00  0.00     0.031 C 
ATOM     44  C   UNL A   1      37.955  34.415  34.579  1.00  0.00     0.029 A 
ATOM     45  C   UNL A   1      38.985  33.384  34.669  1.00  0.00     0.049 A 
ATOM     46  H   UNL A   1      39.498  31.974  33.225  1.00  0.00     0.167 HD
ATOM     47  C   UNL A   1      40.344  28.969  30.149  1.00  0.00     0.037 A 
ATOM     48  C   UNL A   1      39.793  33.175  35.726  1.00  0.00     0.037 A 
ATOM     49  C   UNL A   1      41.268  28.688  31.215  1.00  0.00     0.049 A 
ATOM     50  C   UNL A   1      40.787  32.050  35.677  1.00  0.00     0.074 A 
ATOM     51  C   UNL A   1      42.261  27.725  31.268  1.00  0.00     0.029 A 
ATOM     52  N   UNL A   1      41.315  29.377  32.418  1.00  0.00    -0.354 N 
ATOM     53  N   UNL A   1      41.026  31.199  34.709  1.00  0.00    -0.248 NA
ATOM     54  C   UNL A   1      41.617  31.847  36.873  1.00  0.00     0.031 C 
ATOM     55  C   UNL A   1      42.885  27.809  32.518  1.00  0.00     0.029 A 
ATOM     56  C   UNL A   1      42.308  28.848  33.228  1.00  0.00     0.049 A 
ATOM     57  H   UNL A   1      40.730  30.131  32.661  1.00  0.00     0.167 HD
ATOM     58  C   UNL A   1      42.040  30.371  35.170  1.00  0.00     0.074 A 
ATOM     59  C   UNL A   1      42.382  30.831  36.500  1.00  0.00     0.031 C 
ATOM     60  C   UNL A   1      42.632  29.323  34.549  1.00  0.00     0.037 A 
BRANCH  47  61
ATOM     61  C   UNL A   1      40.391  28.106  28.924  1.00  0.00     0.064 A 
ATOM     62  C   UNL A   1      41.155  28.456  27.802  1.00  0.00     0.173 A 
ATOM     63  C   UNL A   1      39.685  26.894  28.887  1.00  0.00     0.173 A 
ATOM     64  F   UNL A   1      41.836  29.612  27.784  1.00  0.00    -0.203 F 
ATOM     65  C   UNL A   1      41.196  27.634  26.679  1.00  0.00     0.198 A 
ATOM     66  C   UNL A   1      39.746  26.063  27.772  1.00  0.00     0.198 A 
ATOM     67  F   UNL A   1      38.941  26.513  29.936  1.00  0.00    -0.203 F 
ATOM     68  F   UNL A   1      41.904  28.004  25.604  1.00  0.00    -0.200 F 
ATOM     69  C   UNL A   1      40.498  26.436  26.667  1.00  0.00     0.200 A 
ATOM     70  F   UNL A   1      39.077  24.902  27.766  1.00  0.00    -0.200 F 
ATOM     71  F   UNL A   1      40.542  25.642  25.588  1.00  0.00    -0.200 F 
ENDBRANCH  47  61
BRANCH  48  72
ATOM     72  C   UNL A   1      39.669  34.037  36.928  1.00  0.00     0.064 A 
ATOM     73  C   UNL A   1      38.871  33.653  38.012  1.00  0.00     0.173 A 
ATOM     74  C   UNL A   1      40.353  35.259  37.018  1.00  0.00     0.173 A 
ATOM     75  F   UNL A   1      38.179  32.505  37.961  1.00  0.00    -0.203 F 
ATOM     76  C   UNL A   1      38.753  34.462  39.140  1.00  0.00     0.198 A 
ATOM     77  C   UNL A   1      40.255  36.056  38.156  1.00  0.00     0.198 A 
ATOM     78  F   UNL A   1      41.128  35.671  36.004  1.00  0.00    -0.203 F 
ATOM     79  F   UNL A   1      37.956  34.089  40.150  1.00  0.00    -0.200 F 
ATOM     80  C   UNL A   1      39.451  35.660  39.213  1.00  0.00     0.200 A 
ATOM     81  F   UNL A   1      40.938  37.206  38.226  1.00  0.00    -0.200 F 
ATOM     82  F   UNL A   1      39.343  36.435  40.302  1.00  0.00    -0.200 F 
ENDBRANCH  48  72
BRANCH  60  83
ATOM     83  C   UNL A   1      43.723  28.615  35.294  1.00  0.00     0.064 A 
ATOM     84  C   UNL A   1      45.066  28.987  35.150  1.00  0.00     0.173 A 
ATOM     85  C   UNL A   1      43.415  27.579  36.189  1.00  0.00     0.173 A 
ATOM     86  F   UNL A   1      45.409  29.960  34.293  1.00  0.00    -0.203 F 
ATOM     87  C   UNL A   1      46.067  28.335  35.864  1.00  0.00     0.198 A 
ATOM     88  C   UNL A   1      44.417  26.945  36.918  1.00  0.00     0.198 A 
ATOM     89  F   UNL A   1      42.143  27.191  36.363  1.00  0.00    -0.203 F 
ATOM     90  F   UNL A   1      47.350  28.680  35.683  1.00  0.00    -0.200 F 
ATOM     91  C   UNL A   1      45.742  27.319  36.751  1.00  0.00     0.200 A 
ATOM     92  F   UNL A   1      44.100  25.968  37.780  1.00  0.00    -0.200 F 
ATOM     93  F   UNL A   1      46.708  26.695  37.439  1.00  0.00    -0.200 F 
ENDBRANCH  60  83
ENDBRANCH  34  35
ENDBRANCH  27  29
ENDBRANCH  26  27
ENDBRANCH  25  26
ENDBRANCH   1  25
TORSDOF 14
ENDMDL
MODEL 2
REMARK VINA RESULT:     -12.6      2.098      3.629
REMARK SMILES COc1ccc([C@H]2[C@H](C(=O)OCCOC(=O)c3ccc(-c4c5nc(c(-c6c(F)c(F)c(F)c(F)c6F)c6ccc([nH]6)c(-c6c(F)c(F)c(F)c(F)c6F)c6nc(c(-c7c(F)c(F)c(F)c(F)c7F)c7ccc4[nH]7)C=C6)C=C5)cc3)CCN2c2ccc(F)cc2)cc1
REMARK SMILES IDX 12 1 11 2 9 3 10 4 8 5 7 6 82 7 80 8 81 9 6 10 3 11 4 12
REMARK SMILES IDX 91 13 5 14 90 15 2 16 1 17 83 18 84 19 89 20 85 21 88 22
REMARK SMILES IDX 86 23 87 24 13 25 14 26 15 27 16 28 17 29 18 30 79 31 19 32
REMARK SMILES IDX 78 33 20 34 21 35 22 36 72 37 23 38 77 39 71 40 73 41 24 42
REMARK SMILES IDX 76 43 70 44 69 45 25 47 57 48 37 49 56 50 38 51 41 52 55 53
REMARK SMILES IDX 74 54 39 55 40 56 54 58 75 59 42 60 26 61 27 62 35 63 28 64
REMARK SMILES IDX 29 65 33 66 36 67 30 68 31 69 34 70 32 71 58 72 59 73 67 74
REMARK SMILES IDX 60 75 61 76 65 77 68 78 62 79 63 80 66 81 64 82 43 83 44 84
REMARK SMILES IDX 52 85 45 86 46 87 50 88 53 89 47 90 48 91 51 92 49 93
REMARK H PARENT 73 46 41 57
REMARK Flexibility Score: inf
ROOT
ATOM      1  C   UNL A   1      31.805  30.574  25.994  1.00  0.00     0.274 C 
ENDROOT
BRANCH   1   2
ATOM      2  O   UNL A   1      32.017  29.334  26.699  1.00  0.00    -0.462 OA
BRANCH   2   3
ATOM      3  C   UNL A   1      33.186  28.688  26.478  1.00  0.00     0.311 C 
ATOM      4  O   UNL A   1      34.290  29.139  26.769  1.00  0.00    -0.252 OA
BRANCH   3   5
ATOM      5  C   UNL A   1      33.040  27.342  25.797  1.00  0.00     0.128 C 
ATOM      6  C   UNL A   1      31.622  27.008  25.300  1.00  0.00     0.127 C 
ATOM      7  N   UNL A   1      31.626  27.533  23.925  1.00  0.00    -0.364 N 
ATOM      8  C   UNL A   1      33.899  27.275  24.538  1.00  0.00     0.039 C 
ATOM      9  C   UNL A   1      32.982  27.798  23.439  1.00  0.00     0.118 C 
BRANCH   6  10
ATOM     10  C   UNL A   1      31.396  25.488  25.318  1.00  0.00    -0.024 A 
ATOM     11  C   UNL A   1      31.228  22.663  25.376  1.00  0.00     0.118 A 
ATOM     12  C   UNL A   1      31.492  23.376  26.543  1.00  0.00     0.047 A 
ATOM     13  C   UNL A   1      30.972  23.357  24.198  1.00  0.00     0.047 A 
ATOM     14  C   UNL A   1      31.569  24.773  26.516  1.00  0.00     0.010 A 
ATOM     15  C   UNL A   1      31.058  24.754  24.171  1.00  0.00     0.010 A 
BRANCH  11  16
ATOM     16  O   UNL A   1      31.214  21.302  25.507  1.00  0.00    -0.497 OA
ATOM     17  C   UNL A   1      32.312  20.624  24.902  1.00  0.00     0.278 C 
ENDBRANCH  11  16
ENDBRANCH   6  10
BRANCH   7  18
ATOM     18  C   UNL A   1      30.569  28.182  23.321  1.00  0.00     0.037 A 
ATOM     19  C   UNL A   1      30.812  29.283  22.483  1.00  0.00     0.029 A 
ATOM     20  C   UNL A   1      29.232  27.816  23.532  1.00  0.00     0.029 A 
ATOM     21  C   UNL A   1      29.768  29.994  21.884  1.00  0.00     0.041 A 
ATOM     22  C   UNL A   1      28.180  28.534  22.955  1.00  0.00     0.041 A 
ATOM     23  C   UNL A   1      28.459  29.617  22.135  1.00  0.00     0.123 A 
ATOM     24  F   UNL A   1      27.454  30.308  21.583  1.00  0.00    -0.207 F 
ENDBRANCH   7  18
ENDBRANCH   3   5
ENDBRANCH   2   3
ENDBRANCH   1   2
BRANCH   1  25
ATOM     25  C   UNL A   1      31.793  31.769  26.952  1.00  0.00     0.275 C 
BRANCH  25  26
ATOM     26  O   UNL A   1      32.890  32.664  26.692  1.00  0.00    -0.458 OA
BRANCH  26  27
ATOM     27  C   UNL A   1      33.281  33.405  27.752  1.00  0.00     0.338 C 
ATOM     28  O   UNL A   1      32.674  34.313  28.292  1.00  0.00    -0.246 OA
BRANCH  27  29
ATOM     29  C   UNL A   1      34.525  32.858  28.305  1.00  0.00     0.060 A 
ATOM     30  C   UNL A   1      34.460  31.615  28.937  1.00  0.00     0.016 A 
ATOM     31  C   UNL A   1      35.712  33.591  28.299  1.00  0.00     0.016 A 
ATOM     32  C   UNL A   1      35.567  31.108  29.603  1.00  0.00     0.010 A 
ATOM     33  C   UNL A   1      36.836  33.069  28.946  1.00  0.00     0.010 A 
ATOM     34  C   UNL A   1      36.764  31.834  29.617  1.00  0.00    -0.014 A 
BRANCH  34  35
ATOM     35  C   UNL A   1      37.928  31.307  30.366  1.00  0.00     0.031 A 
ATOM     36  C   UNL A   1      38.859  30.330  29.711  1.00  0.00     0.074 A 
ATOM     37  C   UNL A   1      38.158  31.731  31.621  1.00  0.00     0.049 A 
ATOM     38  N   UNL A   1      39.875  29.684  30.224  1.00  0.00    -0.248 NA
ATOM     39  C   UNL A   1      38.615  30.041  28.290  1.00  0.00     0.031 C 
ATOM     40  C   UNL A   1      37.352  32.717  32.339  1.00  0.00     0.029 A 
ATOM     41  N   UNL A   1      39.138  31.383  32.516  1.00  0.00    -0.354 N 
ATOM     42  C   UNL A   1      40.376  28.894  29.200  1.00  0.00     0.074 A 
ATOM     43  C   UNL A   1      39.549  29.135  28.036  1.00  0.00     0.031 C 
ATOM     44  C   UNL A   1      37.870  32.898  33.565  1.00  0.00     0.029 A 
ATOM     45  C   UNL A   1      39.012  32.004  33.732  1.00  0.00     0.049 A 
ATOM     46  H   UNL A   1      39.862  30.750  32.304  1.00  0.00     0.167 HD
ATOM     47  C   UNL A   1      41.431  28.046  29.232  1.00  0.00     0.037 A 
ATOM     48  C   UNL A   1      39.720  31.844  34.867  1.00  0.00     0.037 A 
ATOM     49  C   UNL A   1      42.263  27.830  30.387  1.00  0.00     0.049 A 
ATOM     50  C   UNL A   1      40.855  30.859  34.890  1.00  0.00     0.074 A 
ATOM     51  C   UNL A   1      43.363  27.000  30.516  1.00  0.00     0.029 A 
ATOM     52  N   UNL A   1      42.086  28.454  31.612  1.00  0.00    -0.354 N 
ATOM     53  N   UNL A   1      41.309  30.099  33.923  1.00  0.00    -0.248 NA
ATOM     54  C   UNL A   1      41.569  30.701  36.164  1.00  0.00     0.031 C 
ATOM     55  C   UNL A   1      43.831  27.096  31.832  1.00  0.00     0.029 A 
ATOM     56  C   UNL A   1      43.046  28.014  32.510  1.00  0.00     0.049 A 
ATOM     57  H   UNL A   1      41.383  29.112  31.815  1.00  0.00     0.167 HD
ATOM     58  C   UNL A   1      42.368  29.385  34.466  1.00  0.00     0.074 A 
ATOM     59  C   UNL A   1      42.499  29.813  35.843  1.00  0.00     0.031 C 
ATOM     60  C   UNL A   1      43.158  28.455  33.877  1.00  0.00     0.037 A 
BRANCH  47  61
ATOM     61  C   UNL A   1      41.726  27.263  27.989  1.00  0.00     0.064 A 
ATOM     62  C   UNL A   1      42.591  27.748  26.997  1.00  0.00     0.173 A 
ATOM     63  C   UNL A   1      41.159  25.993  27.804  1.00  0.00     0.173 A 
ATOM     64  F   UNL A   1      43.145  28.963  27.122  1.00  0.00    -0.203 F 
ATOM     65  C   UNL A   1      42.862  26.998  25.856  1.00  0.00     0.198 A 
ATOM     66  C   UNL A   1      41.450  25.236  26.672  1.00  0.00     0.198 A 
ATOM     67  F   UNL A   1      40.327  25.483  28.724  1.00  0.00    -0.203 F 
ATOM     68  F   UNL A   1      43.662  27.496  24.903  1.00  0.00    -0.200 F 
ATOM     69  C   UNL A   1      42.297  25.742  25.697  1.00  0.00     0.200 A 
ATOM     70  F   UNL A   1      40.910  24.019  26.524  1.00  0.00    -0.200 F 
ATOM     71  F   UNL A   1      42.563  25.018  24.600  1.00  0.00    -0.200 F 
ENDBRANCH  47  61
BRANCH  48  72
ATOM     72  C   UNL A   1      39.352  32.618  36.079  1.00  0.00     0.064 A 
ATOM     73  C   UNL A   1      39.921  33.871  36.335  1.00  0.00     0.173 A 
ATOM     74  C   UNL A   1      38.418  32.121  37.001  1.00  0.00     0.173 A 
ATOM     75  F   UNL A   1      40.838  34.375  35.495  1.00  0.00    -0.203 F 
ATOM     76  C   UNL A   1      39.578  34.597  37.474  1.00  0.00     0.198 A 
ATOM     77  C   UNL A   1      38.056  32.858  38.125  1.00  0.00     0.198 A 
ATOM     78  F   UNL A   1      37.847  30.924  36.800  1.00  0.00    -0.203 F 
ATOM     79  F   UNL A   1      40.162  35.778  37.715  1.00  0.00    -0.200 F 
ATOM     80  C   UNL A   1      38.640  34.093  38.364  1.00  0.00     0.200 A 
ATOM     81  F   UNL A   1      37.143  32.372  38.976  1.00  0.00    -0.200 F 
ATOM     82  F   UNL A   1      38.304  34.794  39.455  1.00  0.00    -0.200 F 
ENDBRANCH  48  72
BRANCH  60  83
ATOM     83  C   UNL A   1      44.246  27.854  34.715  1.00  0.00     0.064 A 
ATOM     84  C   UNL A   1      45.479  28.498  34.882  1.00  0.00     0.173 A 
ATOM     85  C   UNL A   1      44.036  26.640  35.386  1.00  0.00     0.173 A 
ATOM     86  F   UNL A   1      45.730  29.652  34.247  1.00  0.00    -0.203 F 
ATOM     87  C   UNL A   1      46.473  27.938  35.680  1.00  0.00     0.198 A 
ATOM     88  C   UNL A   1      45.024  26.095  36.201  1.00  0.00     0.198 A 
ATOM     89  F   UNL A   1      42.871  25.989  35.259  1.00  0.00    -0.203 F 
ATOM     90  F   UNL A   1      47.660  28.551  35.797  1.00  0.00    -0.200 F 
ATOM     91  C   UNL A   1      46.244  26.742  36.343  1.00  0.00     0.200 A 
ATOM     92  F   UNL A   1      44.798  24.942  36.846  1.00  0.00    -0.200 F 
ATOM     93  F   UNL A   1      47.201  26.207  37.113  1.00  0.00    -0.200 F 
ENDBRANCH  60  83
ENDBRANCH  34  35
ENDBRANCH  27  29
ENDBRANCH  26  27
ENDBRANCH  25  26
ENDBRANCH   1  25
TORSDOF 14
ENDMDL
MODEL 3
REMARK VINA RESULT:     -12.6      0.497      7.261
REMARK SMILES COc1ccc([C@H]2[C@H](C(=O)OCCOC(=O)c3ccc(-c4c5nc(c(-c6c(F)c(F)c(F)c(F)c6F)c6ccc([nH]6)c(-c6c(F)c(F)c(F)c(F)c6F)c6nc(c(-c7c(F)c(F)c(F)c(F)c7F)c7ccc4[nH]7)C=C6)C=C5)cc3)CCN2c2ccc(F)cc2)cc1
REMARK SMILES IDX 12 1 11 2 9 3 10 4 8 5 7 6 82 7 80 8 81 9 6 10 3 11 4 12
REMARK SMILES IDX 91 13 5 14 90 15 2 16 1 17 83 18 84 19 89 20 85 21 88 22
REMARK SMILES IDX 86 23 87 24 13 25 14 26 15 27 16 28 17 29 18 30 79 31 19 32
REMARK SMILES IDX 78 33 20 34 21 35 22 36 72 37 23 38 77 39 71 40 73 41 24 42
REMARK SMILES IDX 76 43 70 44 69 45 25 47 57 48 37 49 56 50 38 51 41 52 55 53
REMARK SMILES IDX 74 54 39 55 40 56 54 58 75 59 42 60 26 61 27 62 35 63 28 64
REMARK SMILES IDX 29 65 33 66 36 67 30 68 31 69 34 70 32 71 58 72 59 73 67 74
REMARK SMILES IDX 60 75 61 76 65 77 68 78 62 79 63 80 66 81 64 82 43 83 44 84
REMARK SMILES IDX 52 85 45 86 46 87 50 88 53 89 47 90 48 91 51 92 49 93
REMARK H PARENT 73 46 41 57
REMARK Flexibility Score: inf
ROOT
ATOM      1  C   UNL A   1      32.637  31.858  27.455  1.00  0.00     0.274 C 
ENDROOT
BRANCH   1   2
ATOM      2  O   UNL A   1      33.741  30.962  27.694  1.00  0.00    -0.462 OA
BRANCH   2   3
ATOM      3  C   UNL A   1      33.750  29.794  27.010  1.00  0.00     0.311 C 
ATOM      4  O   UNL A   1      34.743  29.089  26.860  1.00  0.00    -0.252 OA
BRANCH   3   5
ATOM      5  C   UNL A   1      32.416  29.416  26.397  1.00  0.00     0.128 C 
ATOM      6  C   UNL A   1      32.500  28.652  25.063  1.00  0.00     0.127 C 
ATOM      7  N   UNL A   1      32.528  27.245  25.495  1.00  0.00    -0.364 N 
ATOM      8  C   UNL A   1      31.643  28.475  27.314  1.00  0.00     0.039 C 
ATOM      9  C   UNL A   1      32.100  27.086  26.886  1.00  0.00     0.118 C 
BRANCH   6  10
ATOM     10  C   UNL A   1      31.264  28.948  24.200  1.00  0.00    -0.024 A 
ATOM     11  C   UNL A   1      29.140  29.516  22.417  1.00  0.00     0.118 A 
ATOM     12  C   UNL A   1      29.766  28.272  22.393  1.00  0.00     0.047 A 
ATOM     13  C   UNL A   1      29.518  30.449  23.377  1.00  0.00     0.047 A 
ATOM     14  C   UNL A   1      30.811  27.989  23.278  1.00  0.00     0.010 A 
ATOM     15  C   UNL A   1      30.570  30.167  24.257  1.00  0.00     0.010 A 
BRANCH  11  16
ATOM     16  O   UNL A   1      28.159  29.701  21.483  1.00  0.00    -0.497 OA
ATOM     17  C   UNL A   1      28.037  31.032  20.987  1.00  0.00     0.278 C 
ENDBRANCH  11  16
ENDBRANCH   6  10
BRANCH   7  18
ATOM     18  C   UNL A   1      33.303  26.256  24.924  1.00  0.00     0.037 A 
ATOM     19  C   UNL A   1      33.178  25.974  23.553  1.00  0.00     0.029 A 
ATOM     20  C   UNL A   1      34.204  25.474  25.663  1.00  0.00     0.029 A 
ATOM     21  C   UNL A   1      33.914  24.954  22.944  1.00  0.00     0.041 A 
ATOM     22  C   UNL A   1      34.928  24.437  25.066  1.00  0.00     0.041 A 
ATOM     23  C   UNL A   1      34.776  24.188  23.711  1.00  0.00     0.123 A 
ATOM     24  F   UNL A   1      35.466  23.194  23.138  1.00  0.00    -0.207 F 
ENDBRANCH   7  18
ENDBRANCH   3   5
ENDBRANCH   2   3
ENDBRANCH   1   2
BRANCH   1  25
ATOM     25  C   UNL A   1      33.112  33.306  27.300  1.00  0.00     0.275 C 
BRANCH  25  26
ATOM     26  O   UNL A   1      32.294  34.213  28.060  1.00  0.00    -0.458 OA
BRANCH  26  27
ATOM     27  C   UNL A   1      32.979  35.159  28.741  1.00  0.00     0.338 C 
ATOM     28  O   UNL A   1      32.713  36.344  28.844  1.00  0.00    -0.246 OA
BRANCH  27  29
ATOM     29  C   UNL A   1      34.057  34.530  29.513  1.00  0.00     0.060 A 
ATOM     30  C   UNL A   1      35.358  34.647  29.020  1.00  0.00     0.016 A 
ATOM     31  C   UNL A   1      33.791  33.754  30.640  1.00  0.00     0.016 A 
ATOM     32  C   UNL A   1      36.401  33.958  29.624  1.00  0.00     0.010 A 
ATOM     33  C   UNL A   1      34.845  33.081  31.266  1.00  0.00     0.010 A 
ATOM     34  C   UNL A   1      36.152  33.165  30.750  1.00  0.00    -0.014 A 
BRANCH  34  35
ATOM     35  C   UNL A   1      37.262  32.401  31.363  1.00  0.00     0.031 A 
ATOM     36  C   UNL A   1      37.749  32.757  32.735  1.00  0.00     0.074 A 
ATOM     37  C   UNL A   1      37.808  31.370  30.693  1.00  0.00     0.049 A 
ATOM     38  N   UNL A   1      38.764  32.274  33.405  1.00  0.00    -0.248 NA
ATOM     39  C   UNL A   1      36.995  33.798  33.450  1.00  0.00     0.031 C 
ATOM     40  C   UNL A   1      37.379  30.898  29.376  1.00  0.00     0.029 A 
ATOM     41  N   UNL A   1      38.842  30.534  31.029  1.00  0.00    -0.354 N 
ATOM     42  C   UNL A   1      38.787  32.966  34.607  1.00  0.00     0.074 A 
ATOM     43  C   UNL A   1      37.690  33.909  34.574  1.00  0.00     0.031 C 
ATOM     44  C   UNL A   1      38.144  29.855  29.015  1.00  0.00     0.029 A 
ATOM     45  C   UNL A   1      39.145  29.620  30.052  1.00  0.00     0.049 A 
ATOM     46  H   UNL A   1      39.320  30.584  31.888  1.00  0.00     0.167 HD
ATOM     47  C   UNL A   1      39.649  32.824  35.642  1.00  0.00     0.037 A 
ATOM     48  C   UNL A   1      40.140  28.714  29.987  1.00  0.00     0.037 A 
ATOM     49  C   UNL A   1      40.724  31.867  35.676  1.00  0.00     0.049 A 
ATOM     50  C   UNL A   1      41.112  28.612  31.128  1.00  0.00     0.074 A 
ATOM     51  C   UNL A   1      41.644  31.638  36.685  1.00  0.00     0.029 A 
ATOM     52  N   UNL A   1      41.019  30.978  34.654  1.00  0.00    -0.354 N 
ATOM     53  N   UNL A   1      41.141  29.285  32.252  1.00  0.00    -0.248 NA
ATOM     54  C   UNL A   1      42.198  27.631  30.987  1.00  0.00     0.031 C 
ATOM     55  C   UNL A   1      42.519  30.631  36.257  1.00  0.00     0.029 A 
ATOM     56  C   UNL A   1      42.120  30.209  35.000  1.00  0.00     0.049 A 
ATOM     57  H   UNL A   1      40.522  30.902  33.809  1.00  0.00     0.167 HD
ATOM     58  C   UNL A   1      42.234  28.802  32.957  1.00  0.00     0.074 A 
ATOM     59  C   UNL A   1      42.835  27.768  32.141  1.00  0.00     0.031 C 
ATOM     60  C   UNL A   1      42.701  29.184  34.171  1.00  0.00     0.037 A 
BRANCH  47  61
ATOM     61  C   UNL A   1      39.484  33.747  36.810  1.00  0.00     0.064 A 
ATOM     62  C   UNL A   1      40.047  35.031  36.823  1.00  0.00     0.173 A 
ATOM     63  C   UNL A   1      38.722  33.351  37.920  1.00  0.00     0.173 A 
ATOM     64  F   UNL A   1      40.796  35.449  35.792  1.00  0.00    -0.203 F 
ATOM     65  C   UNL A   1      39.870  35.879  37.914  1.00  0.00     0.198 A 
ATOM     66  C   UNL A   1      38.528  34.209  38.999  1.00  0.00     0.198 A 
ATOM     67  F   UNL A   1      38.161  32.134  37.955  1.00  0.00    -0.203 F 
ATOM     68  F   UNL A   1      40.447  37.088  37.922  1.00  0.00    -0.200 F 
ATOM     69  C   UNL A   1      39.106  35.471  38.997  1.00  0.00     0.200 A 
ATOM     70  F   UNL A   1      37.784  33.816  40.041  1.00  0.00    -0.200 F 
ATOM     71  F   UNL A   1      38.932  36.289  40.044  1.00  0.00    -0.200 F 
ENDBRANCH  47  61
BRANCH  48  72
ATOM     72  C   UNL A   1      40.277  27.856  28.783  1.00  0.00     0.064 A 
ATOM     73  C   UNL A   1      39.639  26.613  28.707  1.00  0.00     0.173 A 
ATOM     74  C   UNL A   1      41.043  28.269  27.683  1.00  0.00     0.173 A 
ATOM     75  F   UNL A   1      38.916  26.166  29.745  1.00  0.00    -0.203 F 
ATOM     76  C   UNL A   1      39.769  25.806  27.578  1.00  0.00     0.198 A 
ATOM     77  C   UNL A   1      41.152  27.474  26.545  1.00  0.00     0.198 A 
ATOM     78  F   UNL A   1      41.675  29.451  27.709  1.00  0.00    -0.203 F 
ATOM     79  F   UNL A   1      39.178  24.605  27.543  1.00  0.00    -0.200 F 
ATOM     80  C   UNL A   1      40.520  26.242  26.495  1.00  0.00     0.200 A 
ATOM     81  F   UNL A   1      41.870  27.903  25.498  1.00  0.00    -0.200 F 
ATOM     82  F   UNL A   1      40.639  25.469  25.406  1.00  0.00    -0.200 F 
ENDBRANCH  48  72
BRANCH  60  83
ATOM     83  C   UNL A   1      43.907  28.465  34.695  1.00  0.00     0.064 A 
ATOM     84  C   UNL A   1      43.789  27.271  35.420  1.00  0.00     0.173 A 
ATOM     85  C   UNL A   1      45.195  28.959  34.438  1.00  0.00     0.173 A 
ATOM     86  F   UNL A   1      42.577  26.771  35.704  1.00  0.00    -0.203 F 
ATOM     87  C   UNL A   1      44.919  26.603  35.883  1.00  0.00     0.198 A 
ATOM     88  C   UNL A   1      46.323  28.276  34.884  1.00  0.00     0.198 A 
ATOM     89  F   UNL A   1      45.358  30.096  33.746  1.00  0.00    -0.203 F 
ATOM     90  F   UNL A   1      44.783  25.483  36.606  1.00  0.00    -0.200 F 
ATOM     91  C   UNL A   1      46.184  27.102  35.610  1.00  0.00     0.200 A 
ATOM     92  F   UNL A   1      47.545  28.756  34.613  1.00  0.00    -0.200 F 
ATOM     93  F   UNL A   1      47.271  26.456  36.055  1.00  0.00    -0.200 F 
ENDBRANCH  60  83
ENDBRANCH  34  35
ENDBRANCH  27  29
ENDBRANCH  26  27
ENDBRANCH  25  26
ENDBRANCH   1  25
TORSDOF 14
ENDMDL
