MODEL 1
REMARK VINA RESULT:     -14.3      0.000      0.000
REMARK SMILES O=C(OCCOC(=O)[C@@H]1[C@@H](C(=O)N2CCN(c3cccc(Cl)c3)CC2)[C@H]2CC[C@@H]1O2)c1ccc(-c2c3nc(c(-c4c(F)c(F)c(F)c(F)c4F)c4ccc([nH]4)c(-c4c(F)c(F)c(F)c(F)c4F)c4nc(c(-c5c(F)c(F)c(F)c(F)c5F)c5ccc2[nH]5)C=C4)C=C3)cc1
REMARK SMILES IDX 4 1 3 2 2 3 1 4 31 5 32 6 93 7 33 8 92 9 34 10 35 11 36 12
REMARK SMILES IDX 86 13 37 14 91 15 85 16 87 17 38 18 90 19 84 20 83 21 39 23
REMARK SMILES IDX 71 24 51 25 70 26 52 27 55 28 69 29 88 30 53 31 54 32 68 34
REMARK SMILES IDX 89 35 56 36 40 37 41 38 49 39 42 40 43 41 47 42 50 43 44 44
REMARK SMILES IDX 45 45 48 46 46 47 72 48 73 49 81 50 74 51 75 52 79 53 82 54
REMARK SMILES IDX 76 55 77 56 80 57 78 58 57 59 58 60 66 61 59 62 60 63 64 64
REMARK SMILES IDX 67 65 61 66 62 67 65 68 63 69 5 70 6 71 7 72 8 73 9 74 10 75
REMARK SMILES IDX 29 76 26 77 28 78 30 79 27 80 11 81 12 82 13 83 14 84 25 85
REMARK SMILES IDX 15 86 24 87 16 88 17 89 18 90 23 91 19 92 21 93 20 94 22 95
REMARK H PARENT 87 22 55 33
REMARK Flexibility Score: inf
ROOT
ATOM      1  C   UNL A   1      38.106  21.444  25.266  1.00  0.00     0.275 C 
ENDROOT
BRANCH   1   2
ATOM      2  O   UNL A   1      38.505  22.474  26.217  1.00  0.00    -0.458 OA
BRANCH   2   3
ATOM      3  C   UNL A   1      39.782  22.994  26.230  1.00  0.00     0.338 C 
ATOM      4  O   UNL A   1      40.782  22.302  26.124  1.00  0.00    -0.246 OA
BRANCH   3   5
ATOM      5  C   UNL A   1      39.838  24.409  26.773  1.00  0.00     0.060 A 
ATOM      6  C   UNL A   1      39.278  24.705  27.991  1.00  0.00     0.016 A 
ATOM      7  C   UNL A   1      40.547  25.467  26.163  1.00  0.00     0.016 A 
ATOM      8  C   UNL A   1      39.657  25.889  28.669  1.00  0.00     0.010 A 
ATOM      9  C   UNL A   1      40.997  26.630  26.926  1.00  0.00     0.010 A 
ATOM     10  C   UNL A   1      40.666  26.804  28.279  1.00  0.00    -0.014 A 
BRANCH  10  11
ATOM     11  C   UNL A   1      40.977  28.010  29.257  1.00  0.00     0.031 A 
ATOM     12  C   UNL A   1      39.922  29.065  29.214  1.00  0.00     0.074 A 
ATOM     13  C   UNL A   1      41.853  28.173  30.311  1.00  0.00     0.049 A 
ATOM     14  N   UNL A   1      39.477  29.840  30.164  1.00  0.00    -0.248 NA
ATOM     15  C   UNL A   1      39.249  29.202  27.921  1.00  0.00     0.031 C 
ATOM     16  C   UNL A   1      43.042  27.407  30.589  1.00  0.00     0.029 A 
ATOM     17  N   UNL A   1      41.755  28.930  31.510  1.00  0.00    -0.354 N 
ATOM     18  C   UNL A   1      38.408  30.505  29.601  1.00  0.00     0.074 A 
ATOM     19  C   UNL A   1      38.275  30.036  28.235  1.00  0.00     0.031 C 
ATOM     20  C   UNL A   1      43.364  27.450  31.894  1.00  0.00     0.029 A 
ATOM     21  C   UNL A   1      42.548  28.439  32.569  1.00  0.00     0.049 A 
ATOM     22  H   UNL A   1      41.186  29.728  31.593  1.00  0.00     0.167 HD
ATOM     23  C   UNL A   1      37.618  31.452  30.145  1.00  0.00     0.037 A 
ATOM     24  C   UNL A   1      42.645  28.711  33.905  1.00  0.00     0.037 A 
ATOM     25  C   UNL A   1      37.854  32.120  31.389  1.00  0.00     0.049 A 
ATOM     26  C   UNL A   1      41.876  29.903  34.421  1.00  0.00     0.074 A 
ATOM     27  C   UNL A   1      37.246  33.266  31.866  1.00  0.00     0.029 A 
ATOM     28  N   UNL A   1      38.804  31.750  32.326  1.00  0.00    -0.354 N 
ATOM     29  N   UNL A   1      40.855  30.514  33.878  1.00  0.00    -0.248 NA
ATOM     30  C   UNL A   1      42.326  30.504  35.694  1.00  0.00     0.031 C 
ATOM     31  C   UNL A   1      37.875  33.632  33.060  1.00  0.00     0.029 A 
ATOM     32  C   UNL A   1      38.825  32.674  33.361  1.00  0.00     0.049 A 
ATOM     33  H   UNL A   1      39.378  30.953  32.266  1.00  0.00     0.167 HD
ATOM     34  C   UNL A   1      40.574  31.587  34.711  1.00  0.00     0.074 A 
ATOM     35  C   UNL A   1      41.454  31.490  35.852  1.00  0.00     0.031 C 
ATOM     36  C   UNL A   1      39.699  32.597  34.501  1.00  0.00     0.037 A 
BRANCH  23  37
ATOM     37  C   UNL A   1      36.485  31.885  29.283  1.00  0.00     0.064 A 
ATOM     38  C   UNL A   1      36.385  33.215  28.856  1.00  0.00     0.173 A 
ATOM     39  C   UNL A   1      35.442  30.999  28.987  1.00  0.00     0.173 A 
ATOM     40  F   UNL A   1      37.335  34.100  29.189  1.00  0.00    -0.203 F 
ATOM     41  C   UNL A   1      35.265  33.649  28.159  1.00  0.00     0.198 A 
ATOM     42  C   UNL A   1      34.331  31.433  28.279  1.00  0.00     0.198 A 
ATOM     43  F   UNL A   1      35.485  29.734  29.430  1.00  0.00    -0.203 F 
ATOM     44  F   UNL A   1      35.153  34.936  27.804  1.00  0.00    -0.200 F 
ATOM     45  C   UNL A   1      34.242  32.757  27.869  1.00  0.00     0.200 A 
ATOM     46  F   UNL A   1      33.331  30.581  28.023  1.00  0.00    -0.200 F 
ATOM     47  F   UNL A   1      33.150  33.181  27.216  1.00  0.00    -0.200 F 
ENDBRANCH  23  37
BRANCH  24  48
ATOM     48  C   UNL A   1      43.549  27.977  34.899  1.00  0.00     0.064 A 
ATOM     49  C   UNL A   1      44.926  28.284  35.028  1.00  0.00     0.173 A 
ATOM     50  C   UNL A   1      43.116  26.859  35.635  1.00  0.00     0.173 A 
ATOM     51  F   UNL A   1      45.460  29.292  34.321  1.00  0.00    -0.203 F 
ATOM     52  C   UNL A   1      45.800  27.511  35.811  1.00  0.00     0.198 A 
ATOM     53  C   UNL A   1      43.973  26.133  36.474  1.00  0.00     0.198 A 
ATOM     54  F   UNL A   1      41.856  26.420  35.517  1.00  0.00    -0.203 F 
ATOM     55  F   UNL A   1      47.117  27.776  35.814  1.00  0.00    -0.200 F 
ATOM     56  C   UNL A   1      45.319  26.445  36.547  1.00  0.00     0.200 A 
ATOM     57  F   UNL A   1      43.493  25.103  37.184  1.00  0.00    -0.200 F 
ATOM     58  F   UNL A   1      46.148  25.702  37.295  1.00  0.00    -0.200 F 
ENDBRANCH  24  48
BRANCH  36  59
ATOM     59  C   UNL A   1      39.656  33.697  35.519  1.00  0.00     0.064 A 
ATOM     60  C   UNL A   1      40.303  34.924  35.300  1.00  0.00     0.173 A 
ATOM     61  C   UNL A   1      38.938  33.536  36.712  1.00  0.00     0.173 A 
ATOM     62  F   UNL A   1      41.016  35.124  34.181  1.00  0.00    -0.203 F 
ATOM     63  C   UNL A   1      40.257  35.938  36.253  1.00  0.00     0.198 A 
ATOM     64  C   UNL A   1      38.865  34.565  37.646  1.00  0.00     0.198 A 
ATOM     65  F   UNL A   1      38.301  32.384  36.967  1.00  0.00    -0.203 F 
ATOM     66  F   UNL A   1      40.929  37.079  36.049  1.00  0.00    -0.200 F 
ATOM     67  C   UNL A   1      39.532  35.760  37.422  1.00  0.00     0.200 A 
ATOM     68  F   UNL A   1      38.153  34.396  38.770  1.00  0.00    -0.200 F 
ATOM     69  F   UNL A   1      39.484  36.738  38.337  1.00  0.00    -0.200 F 
ENDBRANCH  36  59
ENDBRANCH  10  11
ENDBRANCH   3   5
ENDBRANCH   2   3
ENDBRANCH   1   2
BRANCH   1  70
ATOM     70  C   UNL A   1      37.026  21.936  24.252  1.00  0.00     0.274 C 
BRANCH  70  71
ATOM     71  O   UNL A   1      35.823  22.330  24.926  1.00  0.00    -0.462 OA
BRANCH  71  72
ATOM     72  C   UNL A   1      34.758  21.483  24.808  1.00  0.00     0.312 C 
ATOM     73  O   UNL A   1      34.829  20.280  24.815  1.00  0.00    -0.252 OA
BRANCH  72  74
ATOM     74  C   UNL A   1      33.482  22.300  24.668  1.00  0.00     0.143 C 
ATOM     75  C   UNL A   1      33.787  23.775  25.042  1.00  0.00     0.124 C 
ATOM     76  C   UNL A   1      32.511  21.830  25.770  1.00  0.00     0.133 C 
ATOM     77  C   UNL A   1      32.915  23.859  26.331  1.00  0.00     0.132 C 
ATOM     78  C   UNL A   1      31.126  22.482  25.705  1.00  0.00     0.036 C 
ATOM     79  O   UNL A   1      33.079  22.526  26.895  1.00  0.00    -0.373 OA
ATOM     80  C   UNL A   1      31.410  23.857  26.262  1.00  0.00     0.035 C 
BRANCH  75  81
ATOM     81  C   UNL A   1      33.589  24.705  23.824  1.00  0.00     0.229 C 
ATOM     82  O   UNL A   1      34.282  24.444  22.840  1.00  0.00    -0.274 OA
ATOM     83  N   UNL A   1      32.718  25.831  23.791  1.00  0.00    -0.339 N 
ATOM     84  C   UNL A   1      32.312  26.351  22.474  1.00  0.00     0.141 C 
ATOM     85  C   UNL A   1      32.662  26.929  24.764  1.00  0.00     0.141 C 
ATOM     86  C   UNL A   1      30.913  26.996  22.381  1.00  0.00     0.138 C 
ATOM     87  C   UNL A   1      31.343  27.778  24.794  1.00  0.00     0.138 C 
ATOM     88  N   UNL A   1      30.554  27.790  23.556  1.00  0.00    -0.368 N 
BRANCH  88  89
ATOM     89  C   UNL A   1      29.589  28.764  23.312  1.00  0.00     0.038 A 
ATOM     90  C   UNL A   1      28.254  28.372  23.126  1.00  0.00     0.026 A 
ATOM     91  C   UNL A   1      29.862  30.136  23.413  1.00  0.00     0.046 A 
ATOM     92  C   UNL A   1      27.214  29.305  23.083  1.00  0.00     0.004 A 
ATOM     93  C   UNL A   1      28.818  31.074  23.354  1.00  0.00     0.043 A 
ATOM     94  C   UNL A   1      27.495  30.660  23.204  1.00  0.00     0.020 A 
ATOM     95  Cl  UNL A   1      29.153  32.758  23.500  1.00  0.00    -0.084 Cl
ENDBRANCH  88  89
ENDBRANCH  75  81
ENDBRANCH  72  74
ENDBRANCH  71  72
ENDBRANCH  70  71
ENDBRANCH   1  70
TORSDOF 13
ENDMDL
MODEL 2
REMARK VINA RESULT:     -14.2      5.709     10.566
REMARK SMILES O=C(OCCOC(=O)[C@@H]1[C@@H](C(=O)N2CCN(c3cccc(Cl)c3)CC2)[C@H]2CC[C@@H]1O2)c1ccc(-c2c3nc(c(-c4c(F)c(F)c(F)c(F)c4F)c4ccc([nH]4)c(-c4c(F)c(F)c(F)c(F)c4F)c4nc(c(-c5c(F)c(F)c(F)c(F)c5F)c5ccc2[nH]5)C=C4)C=C3)cc1
REMARK SMILES IDX 4 1 3 2 2 3 1 4 31 5 32 6 93 7 33 8 92 9 34 10 35 11 36 12
REMARK SMILES IDX 86 13 37 14 91 15 85 16 87 17 38 18 90 19 84 20 83 21 39 23
REMARK SMILES IDX 71 24 51 25 70 26 52 27 55 28 69 29 88 30 53 31 54 32 68 34
REMARK SMILES IDX 89 35 56 36 40 37 41 38 49 39 42 40 43 41 47 42 50 43 44 44
REMARK SMILES IDX 45 45 48 46 46 47 72 48 73 49 81 50 74 51 75 52 79 53 82 54
REMARK SMILES IDX 76 55 77 56 80 57 78 58 57 59 58 60 66 61 59 62 60 63 64 64
REMARK SMILES IDX 67 65 61 66 62 67 65 68 63 69 5 70 6 71 7 72 8 73 9 74 10 75
REMARK SMILES IDX 29 76 26 77 28 78 30 79 27 80 11 81 12 82 13 83 14 84 25 85
REMARK SMILES IDX 15 86 24 87 16 88 17 89 18 90 23 91 19 92 21 93 20 94 22 95
REMARK H PARENT 87 22 55 33
REMARK Flexibility Score: inf
ROOT
ATOM      1  C   UNL A   1      32.787  31.102  26.800  1.00  0.00     0.275 C 
ENDROOT
BRANCH   1   2
ATOM      2  O   UNL A   1      33.792  30.346  27.538  1.00  0.00    -0.458 OA
BRANCH   2   3
ATOM      3  C   UNL A   1      34.658  30.958  28.418  1.00  0.00     0.338 C 
ATOM      4  O   UNL A   1      34.580  32.140  28.714  1.00  0.00    -0.246 OA
BRANCH   3   5
ATOM      5  C   UNL A   1      35.917  30.150  28.667  1.00  0.00     0.060 A 
ATOM      6  C   UNL A   1      36.834  29.973  27.660  1.00  0.00     0.016 A 
ATOM      7  C   UNL A   1      36.300  29.642  29.927  1.00  0.00     0.016 A 
ATOM      8  C   UNL A   1      38.156  29.574  27.977  1.00  0.00     0.010 A 
ATOM      9  C   UNL A   1      37.694  29.328  30.238  1.00  0.00     0.010 A 
ATOM     10  C   UNL A   1      38.709  29.424  29.273  1.00  0.00    -0.014 A 
BRANCH  10  11
ATOM     11  C   UNL A   1      40.247  29.061  29.373  1.00  0.00     0.031 A 
ATOM     12  C   UNL A   1      40.528  27.652  28.966  1.00  0.00     0.074 A 
ATOM     13  C   UNL A   1      41.393  29.820  29.496  1.00  0.00     0.049 A 
ATOM     14  N   UNL A   1      41.570  27.148  28.365  1.00  0.00    -0.248 NA
ATOM     15  C   UNL A   1      39.438  26.711  29.233  1.00  0.00     0.031 C 
ATOM     16  C   UNL A   1      41.499  31.177  29.970  1.00  0.00     0.029 A 
ATOM     17  N   UNL A   1      42.713  29.620  29.010  1.00  0.00    -0.354 N 
ATOM     18  C   UNL A   1      41.226  25.839  28.106  1.00  0.00     0.074 A 
ATOM     19  C   UNL A   1      39.882  25.635  28.612  1.00  0.00     0.031 C 
ATOM     20  C   UNL A   1      42.602  31.783  29.494  1.00  0.00     0.029 A 
ATOM     21  C   UNL A   1      43.454  30.809  28.842  1.00  0.00     0.049 A 
ATOM     22  H   UNL A   1      43.080  28.729  28.810  1.00  0.00     0.167 HD
ATOM     23  C   UNL A   1      41.962  24.867  27.532  1.00  0.00     0.037 A 
ATOM     24  C   UNL A   1      44.649  31.126  28.258  1.00  0.00     0.037 A 
ATOM     25  C   UNL A   1      43.362  24.944  27.242  1.00  0.00     0.049 A 
ATOM     26  C   UNL A   1      45.516  29.977  27.801  1.00  0.00     0.074 A 
ATOM     27  C   UNL A   1      44.219  23.911  26.911  1.00  0.00     0.029 A 
ATOM     28  N   UNL A   1      44.127  26.096  27.303  1.00  0.00    -0.354 N 
ATOM     29  N   UNL A   1      45.167  28.742  27.548  1.00  0.00    -0.248 NA
ATOM     30  C   UNL A   1      46.959  30.240  27.632  1.00  0.00     0.031 C 
ATOM     31  C   UNL A   1      45.517  24.424  26.840  1.00  0.00     0.029 A 
ATOM     32  C   UNL A   1      45.457  25.788  27.055  1.00  0.00     0.049 A 
ATOM     33  H   UNL A   1      43.780  26.997  27.494  1.00  0.00     0.167 HD
ATOM     34  C   UNL A   1      46.345  28.077  27.239  1.00  0.00     0.074 A 
ATOM     35  C   UNL A   1      47.405  29.059  27.227  1.00  0.00     0.031 C 
ATOM     36  C   UNL A   1      46.526  26.751  27.047  1.00  0.00     0.037 A 
BRANCH  23  37
ATOM     37  C   UNL A   1      41.237  23.586  27.314  1.00  0.00     0.064 A 
ATOM     38  C   UNL A   1      41.676  22.406  27.928  1.00  0.00     0.173 A 
ATOM     39  C   UNL A   1      40.181  23.519  26.397  1.00  0.00     0.173 A 
ATOM     40  F   UNL A   1      42.732  22.433  28.754  1.00  0.00    -0.203 F 
ATOM     41  C   UNL A   1      41.078  21.190  27.626  1.00  0.00     0.198 A 
ATOM     42  C   UNL A   1      39.578  22.303  26.107  1.00  0.00     0.198 A 
ATOM     43  F   UNL A   1      39.776  24.622  25.752  1.00  0.00    -0.203 F 
ATOM     44  F   UNL A   1      41.542  20.060  28.177  1.00  0.00    -0.200 F 
ATOM     45  C   UNL A   1      40.028  21.140  26.719  1.00  0.00     0.200 A 
ATOM     46  F   UNL A   1      38.584  22.250  25.212  1.00  0.00    -0.200 F 
ATOM     47  F   UNL A   1      39.467  19.964  26.410  1.00  0.00    -0.200 F 
ENDBRANCH  23  37
BRANCH  24  48
ATOM     48  C   UNL A   1      45.229  32.537  28.127  1.00  0.00     0.064 A 
ATOM     49  C   UNL A   1      45.913  33.168  29.196  1.00  0.00     0.173 A 
ATOM     50  C   UNL A   1      44.995  33.351  27.006  1.00  0.00     0.173 A 
ATOM     51  F   UNL A   1      46.135  32.502  30.340  1.00  0.00    -0.203 F 
ATOM     52  C   UNL A   1      46.304  34.517  29.148  1.00  0.00     0.198 A 
ATOM     53  C   UNL A   1      45.449  34.676  26.930  1.00  0.00     0.198 A 
ATOM     54  F   UNL A   1      44.276  32.890  25.974  1.00  0.00    -0.203 F 
ATOM     55  F   UNL A   1      46.851  35.100  30.227  1.00  0.00    -0.200 F 
ATOM     56  C   UNL A   1      46.086  35.265  28.007  1.00  0.00     0.200 A 
ATOM     57  F   UNL A   1      45.234  35.389  25.817  1.00  0.00    -0.200 F 
ATOM     58  F   UNL A   1      46.454  36.554  27.955  1.00  0.00    -0.200 F 
ENDBRANCH  24  48
BRANCH  36  59
ATOM     59  C   UNL A   1      47.929  26.270  26.822  1.00  0.00     0.064 A 
ATOM     60  C   UNL A   1      48.559  26.405  25.574  1.00  0.00     0.173 A 
ATOM     61  C   UNL A   1      48.661  25.694  27.869  1.00  0.00     0.173 A 
ATOM     62  F   UNL A   1      47.896  26.935  24.534  1.00  0.00    -0.203 F 
ATOM     63  C   UNL A   1      49.861  25.953  25.376  1.00  0.00     0.198 A 
ATOM     64  C   UNL A   1      49.975  25.277  27.676  1.00  0.00     0.198 A 
ATOM     65  F   UNL A   1      48.106  25.545  29.080  1.00  0.00    -0.203 F 
ATOM     66  F   UNL A   1      50.422  26.041  24.163  1.00  0.00    -0.200 F 
ATOM     67  C   UNL A   1      50.570  25.397  26.430  1.00  0.00     0.200 A 
ATOM     68  F   UNL A   1      50.663  24.751  28.700  1.00  0.00    -0.200 F 
ATOM     69  F   UNL A   1      51.825  24.967  26.241  1.00  0.00    -0.200 F 
ENDBRANCH  36  59
ENDBRANCH  10  11
ENDBRANCH   3   5
ENDBRANCH   2   3
ENDBRANCH   1   2
BRANCH   1  70
ATOM     70  C   UNL A   1      31.403  30.383  26.743  1.00  0.00     0.274 C 
BRANCH  70  71
ATOM     71  O   UNL A   1      31.465  29.204  25.928  1.00  0.00    -0.462 OA
BRANCH  71  72
ATOM     72  C   UNL A   1      31.418  28.008  26.589  1.00  0.00     0.312 C 
ATOM     73  O   UNL A   1      31.149  27.875  27.757  1.00  0.00    -0.252 OA
BRANCH  72  74
ATOM     74  C   UNL A   1      31.756  26.887  25.619  1.00  0.00     0.143 C 
ATOM     75  C   UNL A   1      32.436  25.733  26.402  1.00  0.00     0.124 C 
ATOM     76  C   UNL A   1      32.865  27.406  24.682  1.00  0.00     0.133 C 
ATOM     77  C   UNL A   1      33.849  25.830  25.751  1.00  0.00     0.132 C 
ATOM     78  C   UNL A   1      33.252  26.430  23.566  1.00  0.00     0.036 C 
ATOM     79  O   UNL A   1      33.997  27.266  25.561  1.00  0.00    -0.373 OA
ATOM     80  C   UNL A   1      34.083  25.418  24.320  1.00  0.00     0.035 C 
BRANCH  75  81
ATOM     81  C   UNL A   1      31.571  24.453  26.361  1.00  0.00     0.229 C 
ATOM     82  O   UNL A   1      30.358  24.630  26.474  1.00  0.00    -0.274 OA
ATOM     83  N   UNL A   1      32.081  23.128  26.252  1.00  0.00    -0.339 N 
ATOM     84  C   UNL A   1      31.160  22.070  25.800  1.00  0.00     0.141 C 
ATOM     85  C   UNL A   1      33.125  22.515  27.082  1.00  0.00     0.141 C 
ATOM     86  C   UNL A   1      31.778  20.904  25.001  1.00  0.00     0.138 C 
ATOM     87  C   UNL A   1      33.846  21.254  26.490  1.00  0.00     0.138 C 
ATOM     88  N   UNL A   1      33.091  20.486  25.492  1.00  0.00    -0.368 N 
BRANCH  88  89
ATOM     89  C   UNL A   1      33.432  19.177  25.164  1.00  0.00     0.038 A 
ATOM     90  C   UNL A   1      34.700  18.917  24.619  1.00  0.00     0.026 A 
ATOM     91  C   UNL A   1      32.631  18.080  25.511  1.00  0.00     0.046 A 
ATOM     92  C   UNL A   1      35.178  17.614  24.460  1.00  0.00     0.004 A 
ATOM     93  C   UNL A   1      33.106  16.770  25.338  1.00  0.00     0.043 A 
ATOM     94  C   UNL A   1      34.382  16.535  24.827  1.00  0.00     0.020 A 
ATOM     95  Cl  UNL A   1      32.127  15.423  25.784  1.00  0.00    -0.084 Cl
ENDBRANCH  88  89
ENDBRANCH  75  81
ENDBRANCH  72  74
ENDBRANCH  71  72
ENDBRANCH  70  71
ENDBRANCH   1  70
TORSDOF 13
ENDMDL
MODEL 3
REMARK VINA RESULT:     -13.9      5.392      7.424
REMARK SMILES O=C(OCCOC(=O)[C@@H]1[C@@H](C(=O)N2CCN(c3cccc(Cl)c3)CC2)[C@H]2CC[C@@H]1O2)c1ccc(-c2c3nc(c(-c4c(F)c(F)c(F)c(F)c4F)c4ccc([nH]4)c(-c4c(F)c(F)c(F)c(F)c4F)c4nc(c(-c5c(F)c(F)c(F)c(F)c5F)c5ccc2[nH]5)C=C4)C=C3)cc1
REMARK SMILES IDX 4 1 3 2 2 3 1 4 31 5 32 6 93 7 33 8 92 9 34 10 35 11 36 12
REMARK SMILES IDX 86 13 37 14 91 15 85 16 87 17 38 18 90 19 84 20 83 21 39 23
REMARK SMILES IDX 71 24 51 25 70 26 52 27 55 28 69 29 88 30 53 31 54 32 68 34
REMARK SMILES IDX 89 35 56 36 40 37 41 38 49 39 42 40 43 41 47 42 50 43 44 44
REMARK SMILES IDX 45 45 48 46 46 47 72 48 73 49 81 50 74 51 75 52 79 53 82 54
REMARK SMILES IDX 76 55 77 56 80 57 78 58 57 59 58 60 66 61 59 62 60 63 64 64
REMARK SMILES IDX 67 65 61 66 62 67 65 68 63 69 5 70 6 71 7 72 8 73 9 74 10 75
REMARK SMILES IDX 29 76 26 77 28 78 30 79 27 80 11 81 12 82 13 83 14 84 25 85
REMARK SMILES IDX 15 86 24 87 16 88 17 89 18 90 23 91 19 92 21 93 20 94 22 95
REMARK H PARENT 87 22 55 33
REMARK Flexibility Score: inf
ROOT
ATOM      1  C   UNL A   1      39.549  19.432  25.657  1.00  0.00     0.275 C 
ENDROOT
BRANCH   1   2
ATOM      2  O   UNL A   1      40.681  19.139  26.529  1.00  0.00    -0.458 OA
BRANCH   2   3
ATOM      3  C   UNL A   1      41.973  19.099  26.052  1.00  0.00     0.338 C 
ATOM      4  O   UNL A   1      42.542  18.059  25.761  1.00  0.00    -0.246 OA
BRANCH   3   5
ATOM      5  C   UNL A   1      42.733  20.389  26.295  1.00  0.00     0.060 A 
ATOM      6  C   UNL A   1      43.544  20.907  25.315  1.00  0.00     0.016 A 
ATOM      7  C   UNL A   1      42.581  21.198  27.442  1.00  0.00     0.016 A 
ATOM      8  C   UNL A   1      43.933  22.268  25.374  1.00  0.00     0.010 A 
ATOM      9  C   UNL A   1      42.913  22.622  27.428  1.00  0.00     0.010 A 
ATOM     10  C   UNL A   1      43.489  23.238  26.306  1.00  0.00    -0.014 A 
BRANCH  10  11
ATOM     11  C   UNL A   1      43.993  24.726  26.108  1.00  0.00     0.031 A 
ATOM     12  C   UNL A   1      43.051  25.729  26.688  1.00  0.00     0.074 A 
ATOM     13  C   UNL A   1      45.210  25.276  25.761  1.00  0.00     0.049 A 
ATOM     14  N   UNL A   1      43.298  26.879  27.251  1.00  0.00    -0.248 NA
ATOM     15  C   UNL A   1      41.643  25.324  26.673  1.00  0.00     0.031 C 
ATOM     16  C   UNL A   1      46.304  24.626  25.084  1.00  0.00     0.029 A 
ATOM     17  N   UNL A   1      45.836  26.495  26.138  1.00  0.00    -0.354 N 
ATOM     18  C   UNL A   1      42.077  27.302  27.733  1.00  0.00     0.074 A 
ATOM     19  C   UNL A   1      41.101  26.283  27.399  1.00  0.00     0.031 C 
ATOM     20  C   UNL A   1      47.478  25.224  25.353  1.00  0.00     0.029 A 
ATOM     21  C   UNL A   1      47.244  26.470  26.054  1.00  0.00     0.049 A 
ATOM     22  H   UNL A   1      45.331  27.287  26.430  1.00  0.00     0.167 HD
ATOM     23  C   UNL A   1      41.769  28.451  28.368  1.00  0.00     0.037 A 
ATOM     24  C   UNL A   1      48.248  27.304  26.463  1.00  0.00     0.037 A 
ATOM     25  C   UNL A   1      42.632  29.585  28.504  1.00  0.00     0.049 A 
ATOM     26  C   UNL A   1      47.843  28.657  26.996  1.00  0.00     0.074 A 
ATOM     27  C   UNL A   1      42.295  30.866  28.896  1.00  0.00     0.029 A 
ATOM     28  N   UNL A   1      43.982  29.602  28.197  1.00  0.00    -0.354 N 
ATOM     29  N   UNL A   1      46.681  29.037  27.462  1.00  0.00    -0.248 NA
ATOM     30  C   UNL A   1      48.861  29.727  26.981  1.00  0.00     0.031 C 
ATOM     31  C   UNL A   1      43.425  31.679  28.761  1.00  0.00     0.029 A 
ATOM     32  C   UNL A   1      44.482  30.886  28.354  1.00  0.00     0.049 A 
ATOM     33  H   UNL A   1      44.508  28.820  27.911  1.00  0.00     0.167 HD
ATOM     34  C   UNL A   1      46.815  30.388  27.747  1.00  0.00     0.074 A 
ATOM     35  C   UNL A   1      48.195  30.744  27.509  1.00  0.00     0.031 C 
ATOM     36  C   UNL A   1      45.850  31.261  28.114  1.00  0.00     0.037 A 
BRANCH  23  37
ATOM     37  C   UNL A   1      40.362  28.538  28.844  1.00  0.00     0.064 A 
ATOM     38  C   UNL A   1      39.351  29.002  27.993  1.00  0.00     0.173 A 
ATOM     39  C   UNL A   1      40.051  28.274  30.183  1.00  0.00     0.173 A 
ATOM     40  F   UNL A   1      39.639  29.330  26.726  1.00  0.00    -0.203 F 
ATOM     41  C   UNL A   1      38.063  29.203  28.473  1.00  0.00     0.198 A 
ATOM     42  C   UNL A   1      38.760  28.465  30.656  1.00  0.00     0.198 A 
ATOM     43  F   UNL A   1      41.010  27.883  31.035  1.00  0.00    -0.203 F 
ATOM     44  F   UNL A   1      37.117  29.699  27.665  1.00  0.00    -0.200 F 
ATOM     45  C   UNL A   1      37.769  28.931  29.802  1.00  0.00     0.200 A 
ATOM     46  F   UNL A   1      38.482  28.230  31.944  1.00  0.00    -0.200 F 
ATOM     47  F   UNL A   1      36.533  29.148  30.271  1.00  0.00    -0.200 F 
ENDBRANCH  23  37
BRANCH  24  48
ATOM     48  C   UNL A   1      49.747  27.025  26.326  1.00  0.00     0.064 A 
ATOM     49  C   UNL A   1      50.398  27.026  25.067  1.00  0.00     0.173 A 
ATOM     50  C   UNL A   1      50.542  26.606  27.407  1.00  0.00     0.173 A 
ATOM     51  F   UNL A   1      49.716  27.348  23.957  1.00  0.00    -0.203 F 
ATOM     52  C   UNL A   1      51.731  26.610  24.908  1.00  0.00     0.198 A 
ATOM     53  C   UNL A   1      51.893  26.262  27.259  1.00  0.00     0.198 A 
ATOM     54  F   UNL A   1      50.007  26.477  28.629  1.00  0.00    -0.203 F 
ATOM     55  F   UNL A   1      52.268  26.524  23.680  1.00  0.00    -0.200 F 
ATOM     56  C   UNL A   1      52.483  26.245  26.008  1.00  0.00     0.200 A 
ATOM     57  F   UNL A   1      52.612  25.911  28.334  1.00  0.00    -0.200 F 
ATOM     58  F   UNL A   1      53.755  25.846  25.862  1.00  0.00    -0.200 F 
ENDBRANCH  24  48
BRANCH  36  59
ATOM     59  C   UNL A   1      46.242  32.700  28.268  1.00  0.00     0.064 A 
ATOM     60  C   UNL A   1      46.762  33.194  29.475  1.00  0.00     0.173 A 
ATOM     61  C   UNL A   1      46.123  33.589  27.191  1.00  0.00     0.173 A 
ATOM     62  F   UNL A   1      46.881  32.388  30.541  1.00  0.00    -0.203 F 
ATOM     63  C   UNL A   1      47.121  34.533  29.606  1.00  0.00     0.198 A 
ATOM     64  C   UNL A   1      46.516  34.919  27.315  1.00  0.00     0.198 A 
ATOM     65  F   UNL A   1      45.634  33.167  26.016  1.00  0.00    -0.203 F 
ATOM     66  F   UNL A   1      47.561  34.995  30.784  1.00  0.00    -0.200 F 
ATOM     67  C   UNL A   1      47.005  35.392  28.523  1.00  0.00     0.200 A 
ATOM     68  F   UNL A   1      46.416  35.744  26.263  1.00  0.00    -0.200 F 
ATOM     69  F   UNL A   1      47.355  36.679  28.648  1.00  0.00    -0.200 F 
ENDBRANCH  36  59
ENDBRANCH  10  11
ENDBRANCH   3   5
ENDBRANCH   2   3
ENDBRANCH   1   2
BRANCH   1  70
ATOM     70  C   UNL A   1      39.083  20.919  25.742  1.00  0.00     0.274 C 
BRANCH  70  71
ATOM     71  O   UNL A   1      38.048  21.193  24.786  1.00  0.00    -0.462 OA
BRANCH  71  72
ATOM     72  C   UNL A   1      37.194  22.214  25.095  1.00  0.00     0.312 C 
ATOM     73  O   UNL A   1      37.488  23.187  25.742  1.00  0.00    -0.252 OA
BRANCH  72  74
ATOM     74  C   UNL A   1      35.828  21.923  24.493  1.00  0.00     0.143 C 
ATOM     75  C   UNL A   1      34.881  23.114  24.797  1.00  0.00     0.124 C 
ATOM     76  C   UNL A   1      35.217  20.749  25.284  1.00  0.00     0.133 C 
ATOM     77  C   UNL A   1      33.890  22.370  25.743  1.00  0.00     0.132 C 
ATOM     78  C   UNL A   1      33.874  20.254  24.735  1.00  0.00     0.036 C 
ATOM     79  O   UNL A   1      34.778  21.461  26.456  1.00  0.00    -0.373 OA
ATOM     80  C   UNL A   1      32.932  21.333  25.216  1.00  0.00     0.035 C 
BRANCH  75  81
ATOM     81  C   UNL A   1      34.441  23.816  23.493  1.00  0.00     0.229 C 
ATOM     82  O   UNL A   1      34.898  23.338  22.454  1.00  0.00    -0.274 OA
ATOM     83  N   UNL A   1      33.606  24.967  23.429  1.00  0.00    -0.339 N 
ATOM     84  C   UNL A   1      32.933  25.261  22.151  1.00  0.00     0.141 C 
ATOM     85  C   UNL A   1      33.785  26.226  24.163  1.00  0.00     0.141 C 
ATOM     86  C   UNL A   1      31.561  25.962  22.233  1.00  0.00     0.138 C 
ATOM     87  C   UNL A   1      32.521  27.145  24.305  1.00  0.00     0.138 C 
ATOM     88  N   UNL A   1      31.482  26.979  23.282  1.00  0.00    -0.368 N 
BRANCH  88  89
ATOM     89  C   UNL A   1      30.507  27.948  23.064  1.00  0.00     0.038 A 
ATOM     90  C   UNL A   1      30.835  29.092  22.319  1.00  0.00     0.026 A 
ATOM     91  C   UNL A   1      29.163  27.756  23.412  1.00  0.00     0.046 A 
ATOM     92  C   UNL A   1      29.859  29.996  21.893  1.00  0.00     0.004 A 
ATOM     93  C   UNL A   1      28.183  28.673  22.997  1.00  0.00     0.043 A 
ATOM     94  C   UNL A   1      28.526  29.784  22.227  1.00  0.00     0.020 A 
ATOM     95  Cl  UNL A   1      26.528  28.424  23.407  1.00  0.00    -0.084 Cl
ENDBRANCH  88  89
ENDBRANCH  75  81
ENDBRANCH  72  74
ENDBRANCH  71  72
ENDBRANCH  70  71
ENDBRANCH   1  70
TORSDOF 13
ENDMDL
