MODEL 1
REMARK VINA RESULT:     -11.9      0.000      0.000
REMARK SMILES CC(C)(Nc1cccc(F)c1C#N)C(C)(C)C(=O)OCCOC(=O)c1ccc(-c2c3nc(c(-c4c(F)c(F)c(F)c(F)c4F)c4ccc([nH]4)c(-c4c(F)c(F)c(F)c(F)c4F)c4nc(c(-c5c(F)c(F)c(F)c(F)c5F)c5ccc2[nH]5)C=C4)C=C3)cc1
REMARK SMILES IDX 20 1 19 2 17 3 18 4 14 5 15 6 16 7 2 8 1 9 3 10 4 11 5 13
REMARK SMILES IDX 6 14 11 15 7 16 9 17 8 18 10 19 12 20 13 21 21 22 22 23
REMARK SMILES IDX 23 24 24 25 25 26 26 27 87 28 27 29 86 30 28 31 29 32 30 33
REMARK SMILES IDX 80 34 31 35 85 36 79 37 81 38 32 39 84 40 78 41 77 42 33 44
REMARK SMILES IDX 65 45 45 46 64 47 46 48 49 49 63 50 82 51 47 52 48 53 62 55
REMARK SMILES IDX 83 56 50 57 34 58 35 59 43 60 36 61 37 62 41 63 44 64 38 65
REMARK SMILES IDX 39 66 42 67 40 68 66 69 67 70 75 71 68 72 69 73 73 74 76 75
REMARK SMILES IDX 70 76 71 77 74 78 72 79 51 80 52 81 60 82 53 83 54 84 58 85
REMARK SMILES IDX 61 86 55 87 56 88 59 89 57 90
REMARK H PARENT 4 12 81 43 49 54
REMARK Flexibility Score: inf
ROOT
ATOM      1  C   UNL A   1      32.606  29.307  24.796  1.00  0.00     0.274 C 
ENDROOT
BRANCH   1   2
ATOM      2  O   UNL A   1      32.784  27.878  25.071  1.00  0.00    -0.462 OA
BRANCH   2   3
ATOM      3  C   UNL A   1      31.609  27.231  25.194  1.00  0.00     0.313 C 
ATOM      4  O   UNL A   1      31.083  27.159  26.282  1.00  0.00    -0.252 OA
BRANCH   3   5
ATOM      5  C   UNL A   1      30.934  26.624  23.985  1.00  0.00     0.085 C 
ATOM      6  C   UNL A   1      30.620  27.675  22.916  1.00  0.00     0.026 C 
ATOM      7  C   UNL A   1      29.585  26.078  24.515  1.00  0.00     0.026 C 
BRANCH   5   8
ATOM      8  C   UNL A   1      31.894  25.452  23.412  1.00  0.00     0.047 C 
ATOM      9  C   UNL A   1      32.266  25.672  21.923  1.00  0.00     0.035 C 
ATOM     10  C   UNL A   1      31.106  24.099  23.374  1.00  0.00     0.035 C 
BRANCH   8  11
ATOM     11  N   UNL A   1      33.212  25.199  24.155  1.00  0.00    -0.378 N 
ATOM     12  H   UNL A   1      33.804  25.979  24.257  1.00  0.00     0.161 HD
BRANCH  11  13
ATOM     13  C   UNL A   1      33.682  24.002  24.705  1.00  0.00     0.056 A 
ATOM     14  C   UNL A   1      34.397  23.118  23.883  1.00  0.00     0.027 A 
ATOM     15  C   UNL A   1      33.463  23.549  26.030  1.00  0.00     0.111 A 
ATOM     16  C   UNL A   1      35.030  21.975  24.400  1.00  0.00     0.005 A 
ATOM     17  C   UNL A   1      34.254  22.533  26.576  1.00  0.00     0.143 A 
ATOM     18  C   UNL A   1      35.039  21.738  25.768  1.00  0.00     0.041 A 
ATOM     19  F   UNL A   1      34.191  22.256  27.889  1.00  0.00    -0.205 F 
BRANCH  15  20
ATOM     20  C   UNL A   1      32.269  23.778  26.788  1.00  0.00     0.104 C 
ATOM     21  N   UNL A   1      31.204  23.935  27.239  1.00  0.00    -0.192 NA
ENDBRANCH  15  20
ENDBRANCH  11  13
ENDBRANCH   8  11
ENDBRANCH   5   8
ENDBRANCH   3   5
ENDBRANCH   2   3
ENDBRANCH   1   2
BRANCH   1  22
ATOM     22  C   UNL A   1      31.803  30.159  25.838  1.00  0.00     0.275 C 
BRANCH  22  23
ATOM     23  O   UNL A   1      32.445  30.312  27.143  1.00  0.00    -0.458 OA
BRANCH  23  24
ATOM     24  C   UNL A   1      33.220  31.417  27.339  1.00  0.00     0.338 C 
ATOM     25  O   UNL A   1      32.806  32.570  27.367  1.00  0.00    -0.246 OA
BRANCH  24  26
ATOM     26  C   UNL A   1      34.670  31.141  27.619  1.00  0.00     0.060 A 
ATOM     27  C   UNL A   1      35.088  29.862  27.958  1.00  0.00     0.016 A 
ATOM     28  C   UNL A   1      35.565  32.176  27.880  1.00  0.00     0.016 A 
ATOM     29  C   UNL A   1      36.250  29.611  28.680  1.00  0.00     0.010 A 
ATOM     30  C   UNL A   1      36.822  31.908  28.476  1.00  0.00     0.010 A 
ATOM     31  C   UNL A   1      37.162  30.620  28.937  1.00  0.00    -0.014 A 
BRANCH  31  32
ATOM     32  C   UNL A   1      38.386  30.316  29.744  1.00  0.00     0.031 A 
ATOM     33  C   UNL A   1      39.462  29.432  29.165  1.00  0.00     0.074 A 
ATOM     34  C   UNL A   1      38.593  30.867  30.963  1.00  0.00     0.049 A 
ATOM     35  N   UNL A   1      40.450  28.819  29.768  1.00  0.00    -0.248 NA
ATOM     36  C   UNL A   1      39.413  29.200  27.714  1.00  0.00     0.031 C 
ATOM     37  C   UNL A   1      37.726  31.849  31.622  1.00  0.00     0.029 A 
ATOM     38  N   UNL A   1      39.607  30.675  31.876  1.00  0.00    -0.354 N 
ATOM     39  C   UNL A   1      41.079  28.059  28.788  1.00  0.00     0.074 A 
ATOM     40  C   UNL A   1      40.370  28.299  27.549  1.00  0.00     0.031 C 
ATOM     41  C   UNL A   1      38.255  32.193  32.804  1.00  0.00     0.029 A 
ATOM     42  C   UNL A   1      39.410  31.346  33.061  1.00  0.00     0.049 A 
ATOM     43  H   UNL A   1      40.395  30.112  31.699  1.00  0.00     0.167 HD
ATOM     44  C   UNL A   1      42.139  27.225  28.922  1.00  0.00     0.037 A 
ATOM     45  C   UNL A   1      40.019  31.235  34.257  1.00  0.00     0.037 A 
ATOM     46  C   UNL A   1      42.868  27.042  30.153  1.00  0.00     0.049 A 
ATOM     47  C   UNL A   1      41.124  30.229  34.416  1.00  0.00     0.074 A 
ATOM     48  C   UNL A   1      43.958  26.224  30.399  1.00  0.00     0.029 A 
ATOM     49  N   UNL A   1      42.587  27.697  31.344  1.00  0.00    -0.354 N 
ATOM     50  N   UNL A   1      41.654  29.435  33.519  1.00  0.00    -0.248 NA
ATOM     51  C   UNL A   1      41.703  30.090  35.758  1.00  0.00     0.031 C 
ATOM     52  C   UNL A   1      44.288  26.330  31.753  1.00  0.00     0.029 A 
ATOM     53  C   UNL A   1      43.462  27.278  32.334  1.00  0.00     0.049 A 
ATOM     54  H   UNL A   1      41.870  28.362  31.468  1.00  0.00     0.167 HD
ATOM     55  C   UNL A   1      42.645  28.721  34.178  1.00  0.00     0.074 A 
ATOM     56  C   UNL A   1      42.654  29.192  35.548  1.00  0.00     0.031 C 
ATOM     57  C   UNL A   1      43.470  27.762  33.692  1.00  0.00     0.037 A 
BRANCH  44  58
ATOM     58  C   UNL A   1      42.531  26.389  27.734  1.00  0.00     0.064 A 
ATOM     59  C   UNL A   1      41.933  25.154  27.445  1.00  0.00     0.173 A 
ATOM     60  C   UNL A   1      43.514  26.859  26.846  1.00  0.00     0.173 A 
ATOM     61  F   UNL A   1      40.995  24.651  28.261  1.00  0.00    -0.203 F 
ATOM     62  C   UNL A   1      42.329  24.405  26.338  1.00  0.00     0.198 A 
ATOM     63  C   UNL A   1      43.879  26.128  25.719  1.00  0.00     0.198 A 
ATOM     64  F   UNL A   1      44.115  28.039  27.064  1.00  0.00    -0.203 F 
ATOM     65  F   UNL A   1      41.786  23.201  26.117  1.00  0.00    -0.200 F 
ATOM     66  C   UNL A   1      43.295  24.897  25.472  1.00  0.00     0.200 A 
ATOM     67  F   UNL A   1      44.798  26.616  24.873  1.00  0.00    -0.200 F 
ATOM     68  F   UNL A   1      43.668  24.179  24.402  1.00  0.00    -0.200 F 
ENDBRANCH  44  58
BRANCH  45  69
ATOM     69  C   UNL A   1      39.535  32.030  35.421  1.00  0.00     0.064 A 
ATOM     70  C   UNL A   1      38.601  31.504  36.323  1.00  0.00     0.173 A 
ATOM     71  C   UNL A   1      39.994  33.338  35.654  1.00  0.00     0.173 A 
ATOM     72  F   UNL A   1      38.108  30.271  36.131  1.00  0.00    -0.203 F 
ATOM     73  C   UNL A   1      38.134  32.255  37.400  1.00  0.00     0.198 A 
ATOM     74  C   UNL A   1      39.560  34.073  36.757  1.00  0.00     0.198 A 
ATOM     75  F   UNL A   1      40.884  33.898  34.822  1.00  0.00    -0.203 F 
ATOM     76  F   UNL A   1      37.202  31.745  38.216  1.00  0.00    -0.200 F 
ATOM     77  C   UNL A   1      38.623  33.534  37.623  1.00  0.00     0.200 A 
ATOM     78  F   UNL A   1      40.052  35.299  36.978  1.00  0.00    -0.200 F 
ATOM     79  F   UNL A   1      38.185  34.250  38.668  1.00  0.00    -0.200 F 
ENDBRANCH  45  69
BRANCH  57  80
ATOM     80  C   UNL A   1      44.500  27.202  34.631  1.00  0.00     0.064 A 
ATOM     81  C   UNL A   1      45.753  27.806  34.809  1.00  0.00     0.173 A 
ATOM     82  C   UNL A   1      44.213  26.052  35.385  1.00  0.00     0.173 A 
ATOM     83  F   UNL A   1      46.084  28.896  34.100  1.00  0.00    -0.203 F 
ATOM     84  C   UNL A   1      46.692  27.261  35.680  1.00  0.00     0.198 A 
ATOM     85  C   UNL A   1      45.140  25.535  36.284  1.00  0.00     0.198 A 
ATOM     86  F   UNL A   1      43.028  25.437  35.257  1.00  0.00    -0.203 F 
ATOM     87  F   UNL A   1      47.907  27.819  35.787  1.00  0.00    -0.200 F 
ATOM     88  C   UNL A   1      46.382  26.132  36.424  1.00  0.00     0.200 A 
ATOM     89  F   UNL A   1      44.830  24.454  37.014  1.00  0.00    -0.200 F 
ATOM     90  F   UNL A   1      47.285  25.615  37.267  1.00  0.00    -0.200 F 
ENDBRANCH  57  80
ENDBRANCH  31  32
ENDBRANCH  24  26
ENDBRANCH  23  24
ENDBRANCH  22  23
ENDBRANCH   1  22
TORSDOF 15
ENDMDL
MODEL 2
REMARK VINA RESULT:     -11.9      0.750      1.682
REMARK SMILES CC(C)(Nc1cccc(F)c1C#N)C(C)(C)C(=O)OCCOC(=O)c1ccc(-c2c3nc(c(-c4c(F)c(F)c(F)c(F)c4F)c4ccc([nH]4)c(-c4c(F)c(F)c(F)c(F)c4F)c4nc(c(-c5c(F)c(F)c(F)c(F)c5F)c5ccc2[nH]5)C=C4)C=C3)cc1
REMARK SMILES IDX 20 1 19 2 17 3 18 4 14 5 15 6 16 7 2 8 1 9 3 10 4 11 5 13
REMARK SMILES IDX 6 14 11 15 7 16 9 17 8 18 10 19 12 20 13 21 21 22 22 23
REMARK SMILES IDX 23 24 24 25 25 26 26 27 87 28 27 29 86 30 28 31 29 32 30 33
REMARK SMILES IDX 80 34 31 35 85 36 79 37 81 38 32 39 84 40 78 41 77 42 33 44
REMARK SMILES IDX 65 45 45 46 64 47 46 48 49 49 63 50 82 51 47 52 48 53 62 55
REMARK SMILES IDX 83 56 50 57 34 58 35 59 43 60 36 61 37 62 41 63 44 64 38 65
REMARK SMILES IDX 39 66 42 67 40 68 66 69 67 70 75 71 68 72 69 73 73 74 76 75
REMARK SMILES IDX 70 76 71 77 74 78 72 79 51 80 52 81 60 82 53 83 54 84 58 85
REMARK SMILES IDX 61 86 55 87 56 88 59 89 57 90
REMARK H PARENT 4 12 81 43 49 54
REMARK Flexibility Score: inf
ROOT
ATOM      1  C   UNL A   1      32.878  29.381  24.890  1.00  0.00     0.274 C 
ENDROOT
BRANCH   1   2
ATOM      2  O   UNL A   1      32.763  27.937  24.662  1.00  0.00    -0.462 OA
BRANCH   2   3
ATOM      3  C   UNL A   1      31.587  27.600  24.100  1.00  0.00     0.313 C 
ATOM      4  O   UNL A   1      31.074  28.350  23.300  1.00  0.00    -0.252 OA
BRANCH   3   5
ATOM      5  C   UNL A   1      30.923  26.284  24.437  1.00  0.00     0.085 C 
ATOM      6  C   UNL A   1      29.493  26.207  23.892  1.00  0.00     0.026 C 
ATOM      7  C   UNL A   1      30.834  26.268  25.983  1.00  0.00     0.026 C 
BRANCH   5   8
ATOM      8  C   UNL A   1      31.852  25.091  23.858  1.00  0.00     0.047 C 
ATOM      9  C   UNL A   1      32.032  25.178  22.321  1.00  0.00     0.035 C 
ATOM     10  C   UNL A   1      31.121  23.718  24.043  1.00  0.00     0.035 C 
BRANCH   8  11
ATOM     11  N   UNL A   1      33.260  24.948  24.451  1.00  0.00    -0.378 N 
ATOM     12  H   UNL A   1      33.853  25.727  24.340  1.00  0.00     0.161 HD
BRANCH  11  13
ATOM     13  C   UNL A   1      33.810  23.855  25.128  1.00  0.00     0.056 A 
ATOM     14  C   UNL A   1      33.575  23.729  26.506  1.00  0.00     0.027 A 
ATOM     15  C   UNL A   1      34.645  22.858  24.566  1.00  0.00     0.111 A 
ATOM     16  C   UNL A   1      33.963  22.583  27.220  1.00  0.00     0.005 A 
ATOM     17  C   UNL A   1      34.848  21.642  25.225  1.00  0.00     0.143 A 
ATOM     18  C   UNL A   1      34.513  21.495  26.555  1.00  0.00     0.041 A 
ATOM     19  F   UNL A   1      35.459  20.624  24.598  1.00  0.00    -0.205 F 
BRANCH  15  20
ATOM     20  C   UNL A   1      35.611  23.086  23.532  1.00  0.00     0.104 C 
ATOM     21  N   UNL A   1      36.417  23.081  22.687  1.00  0.00    -0.192 NA
ENDBRANCH  15  20
ENDBRANCH  11  13
ENDBRANCH   8  11
ENDBRANCH   5   8
ENDBRANCH   3   5
ENDBRANCH   2   3
ENDBRANCH   1   2
BRANCH   1  22
ATOM     22  C   UNL A   1      31.884  30.044  25.903  1.00  0.00     0.275 C 
BRANCH  22  23
ATOM     23  O   UNL A   1      32.438  30.315  27.230  1.00  0.00    -0.458 OA
BRANCH  23  24
ATOM     24  C   UNL A   1      33.208  31.431  27.376  1.00  0.00     0.338 C 
ATOM     25  O   UNL A   1      32.788  32.581  27.363  1.00  0.00    -0.246 OA
BRANCH  24  26
ATOM     26  C   UNL A   1      34.662  31.173  27.654  1.00  0.00     0.060 A 
ATOM     27  C   UNL A   1      35.104  29.892  27.950  1.00  0.00     0.016 A 
ATOM     28  C   UNL A   1      35.535  32.215  27.957  1.00  0.00     0.016 A 
ATOM     29  C   UNL A   1      36.266  29.638  28.670  1.00  0.00     0.010 A 
ATOM     30  C   UNL A   1      36.794  31.951  28.550  1.00  0.00     0.010 A 
ATOM     31  C   UNL A   1      37.157  30.655  28.967  1.00  0.00    -0.014 A 
BRANCH  31  32
ATOM     32  C   UNL A   1      38.383  30.347  29.769  1.00  0.00     0.031 A 
ATOM     33  C   UNL A   1      39.455  29.461  29.186  1.00  0.00     0.074 A 
ATOM     34  C   UNL A   1      38.595  30.895  30.989  1.00  0.00     0.049 A 
ATOM     35  N   UNL A   1      40.444  28.845  29.784  1.00  0.00    -0.248 NA
ATOM     36  C   UNL A   1      39.401  29.232  27.734  1.00  0.00     0.031 C 
ATOM     37  C   UNL A   1      37.733  31.878  31.652  1.00  0.00     0.029 A 
ATOM     38  N   UNL A   1      39.612  30.699  31.898  1.00  0.00    -0.354 N 
ATOM     39  C   UNL A   1      41.068  28.085  28.801  1.00  0.00     0.074 A 
ATOM     40  C   UNL A   1      40.356  28.329  27.565  1.00  0.00     0.031 C 
ATOM     41  C   UNL A   1      38.266  32.218  32.833  1.00  0.00     0.029 A 
ATOM     42  C   UNL A   1      39.420  31.369  33.085  1.00  0.00     0.049 A 
ATOM     43  H   UNL A   1      40.398  30.135  31.718  1.00  0.00     0.167 HD
ATOM     44  C   UNL A   1      42.127  27.249  28.930  1.00  0.00     0.037 A 
ATOM     45  C   UNL A   1      40.032  31.254  34.279  1.00  0.00     0.037 A 
ATOM     46  C   UNL A   1      42.859  27.062  30.158  1.00  0.00     0.049 A 
ATOM     47  C   UNL A   1      41.136  30.246  34.433  1.00  0.00     0.074 A 
ATOM     48  C   UNL A   1      43.947  26.241  30.399  1.00  0.00     0.029 A 
ATOM     49  N   UNL A   1      42.583  27.716  31.352  1.00  0.00    -0.354 N 
ATOM     50  N   UNL A   1      41.661  29.452  33.532  1.00  0.00    -0.248 NA
ATOM     51  C   UNL A   1      41.719  30.102  35.773  1.00  0.00     0.031 C 
ATOM     52  C   UNL A   1      44.283  26.344  31.753  1.00  0.00     0.029 A 
ATOM     53  C   UNL A   1      43.460  27.292  32.339  1.00  0.00     0.049 A 
ATOM     54  H   UNL A   1      41.868  28.381  31.479  1.00  0.00     0.167 HD
ATOM     55  C   UNL A   1      42.652  28.734  34.187  1.00  0.00     0.074 A 
ATOM     56  C   UNL A   1      42.667  29.202  35.558  1.00  0.00     0.031 C 
ATOM     57  C   UNL A   1      43.473  27.774  33.697  1.00  0.00     0.037 A 
BRANCH  44  58
ATOM     58  C   UNL A   1      42.513  26.414  27.739  1.00  0.00     0.064 A 
ATOM     59  C   UNL A   1      41.906  25.184  27.446  1.00  0.00     0.173 A 
ATOM     60  C   UNL A   1      43.500  26.879  26.854  1.00  0.00     0.173 A 
ATOM     61  F   UNL A   1      40.963  24.685  28.260  1.00  0.00    -0.203 F 
ATOM     62  C   UNL A   1      42.297  24.436  26.337  1.00  0.00     0.198 A 
ATOM     63  C   UNL A   1      43.860  26.150  25.724  1.00  0.00     0.198 A 
ATOM     64  F   UNL A   1      44.109  28.054  27.076  1.00  0.00    -0.203 F 
ATOM     65  F   UNL A   1      41.745  23.237  26.112  1.00  0.00    -0.200 F 
ATOM     66  C   UNL A   1      43.267  24.924  25.472  1.00  0.00     0.200 A 
ATOM     67  F   UNL A   1      44.782  26.634  24.880  1.00  0.00    -0.200 F 
ATOM     68  F   UNL A   1      43.635  24.207  24.401  1.00  0.00    -0.200 F 
ENDBRANCH  44  58
BRANCH  45  69
ATOM     69  C   UNL A   1      39.554  32.048  35.446  1.00  0.00     0.064 A 
ATOM     70  C   UNL A   1      40.037  33.341  35.691  1.00  0.00     0.173 A 
ATOM     71  C   UNL A   1      38.608  31.529  36.347  1.00  0.00     0.173 A 
ATOM     72  F   UNL A   1      40.963  33.874  34.880  1.00  0.00    -0.203 F 
ATOM     73  C   UNL A   1      39.604  34.076  36.794  1.00  0.00     0.198 A 
ATOM     74  C   UNL A   1      38.143  32.281  37.424  1.00  0.00     0.198 A 
ATOM     75  F   UNL A   1      38.115  30.295  36.168  1.00  0.00    -0.203 F 
ATOM     76  F   UNL A   1      40.121  35.289  37.031  1.00  0.00    -0.200 F 
ATOM     77  C   UNL A   1      38.649  33.550  37.652  1.00  0.00     0.200 A 
ATOM     78  F   UNL A   1      37.206  31.777  38.237  1.00  0.00    -0.200 F 
ATOM     79  F   UNL A   1      38.223  34.264  38.703  1.00  0.00    -0.200 F 
ENDBRANCH  45  69
BRANCH  57  80
ATOM     80  C   UNL A   1      44.505  27.210  34.632  1.00  0.00     0.064 A 
ATOM     81  C   UNL A   1      45.759  27.814  34.810  1.00  0.00     0.173 A 
ATOM     82  C   UNL A   1      44.220  26.057  35.381  1.00  0.00     0.173 A 
ATOM     83  F   UNL A   1      46.088  28.907  34.106  1.00  0.00    -0.203 F 
ATOM     84  C   UNL A   1      46.700  27.265  35.677  1.00  0.00     0.198 A 
ATOM     85  C   UNL A   1      45.148  25.536  36.276  1.00  0.00     0.198 A 
ATOM     86  F   UNL A   1      43.035  25.442  35.253  1.00  0.00    -0.203 F 
ATOM     87  F   UNL A   1      47.915  27.823  35.784  1.00  0.00    -0.200 F 
ATOM     88  C   UNL A   1      46.391  26.133  36.417  1.00  0.00     0.200 A 
ATOM     89  F   UNL A   1      44.840  24.452  37.002  1.00  0.00    -0.200 F 
ATOM     90  F   UNL A   1      47.295  25.612  37.256  1.00  0.00    -0.200 F 
ENDBRANCH  57  80
ENDBRANCH  31  32
ENDBRANCH  24  26
ENDBRANCH  23  24
ENDBRANCH  22  23
ENDBRANCH   1  22
TORSDOF 15
ENDMDL
MODEL 3
REMARK VINA RESULT:     -11.8      1.074      2.404
REMARK SMILES CC(C)(Nc1cccc(F)c1C#N)C(C)(C)C(=O)OCCOC(=O)c1ccc(-c2c3nc(c(-c4c(F)c(F)c(F)c(F)c4F)c4ccc([nH]4)c(-c4c(F)c(F)c(F)c(F)c4F)c4nc(c(-c5c(F)c(F)c(F)c(F)c5F)c5ccc2[nH]5)C=C4)C=C3)cc1
REMARK SMILES IDX 20 1 19 2 17 3 18 4 14 5 15 6 16 7 2 8 1 9 3 10 4 11 5 13
REMARK SMILES IDX 6 14 11 15 7 16 9 17 8 18 10 19 12 20 13 21 21 22 22 23
REMARK SMILES IDX 23 24 24 25 25 26 26 27 87 28 27 29 86 30 28 31 29 32 30 33
REMARK SMILES IDX 80 34 31 35 85 36 79 37 81 38 32 39 84 40 78 41 77 42 33 44
REMARK SMILES IDX 65 45 45 46 64 47 46 48 49 49 63 50 82 51 47 52 48 53 62 55
REMARK SMILES IDX 83 56 50 57 34 58 35 59 43 60 36 61 37 62 41 63 44 64 38 65
REMARK SMILES IDX 39 66 42 67 40 68 66 69 67 70 75 71 68 72 69 73 73 74 76 75
REMARK SMILES IDX 70 76 71 77 74 78 72 79 51 80 52 81 60 82 53 83 54 84 58 85
REMARK SMILES IDX 61 86 55 87 56 88 59 89 57 90
REMARK H PARENT 4 12 81 43 49 54
REMARK Flexibility Score: inf
ROOT
ATOM      1  C   UNL A   1      30.880  29.694  24.587  1.00  0.00     0.274 C 
ENDROOT
BRANCH   1   2
ATOM      2  O   UNL A   1      31.874  29.332  23.572  1.00  0.00    -0.462 OA
BRANCH   2   3
ATOM      3  C   UNL A   1      31.952  28.001  23.383  1.00  0.00     0.313 C 
ATOM      4  O   UNL A   1      31.001  27.409  22.924  1.00  0.00    -0.252 OA
BRANCH   3   5
ATOM      5  C   UNL A   1      33.223  27.251  23.711  1.00  0.00     0.085 C 
ATOM      6  C   UNL A   1      34.343  28.192  24.168  1.00  0.00     0.026 C 
ATOM      7  C   UNL A   1      33.666  26.614  22.371  1.00  0.00     0.026 C 
BRANCH   5   8
ATOM      8  C   UNL A   1      32.874  26.141  24.838  1.00  0.00     0.047 C 
ATOM      9  C   UNL A   1      32.488  26.782  26.195  1.00  0.00     0.035 C 
ATOM     10  C   UNL A   1      34.165  25.328  25.194  1.00  0.00     0.035 C 
BRANCH   8  11
ATOM     11  N   UNL A   1      31.768  25.130  24.506  1.00  0.00    -0.378 N 
ATOM     12  H   UNL A   1      30.861  25.502  24.410  1.00  0.00     0.161 HD
BRANCH  11  13
ATOM     13  C   UNL A   1      31.882  23.748  24.324  1.00  0.00     0.056 A 
ATOM     14  C   UNL A   1      32.057  23.253  23.023  1.00  0.00     0.027 A 
ATOM     15  C   UNL A   1      31.786  22.761  25.337  1.00  0.00     0.111 A 
ATOM     16  C   UNL A   1      32.332  21.897  22.778  1.00  0.00     0.005 A 
ATOM     17  C   UNL A   1      32.257  21.463  25.114  1.00  0.00     0.143 A 
ATOM     18  C   UNL A   1      32.530  21.020  23.837  1.00  0.00     0.041 A 
ATOM     19  F   UNL A   1      32.363  20.596  26.134  1.00  0.00    -0.205 F 
BRANCH  15  20
ATOM     20  C   UNL A   1      30.928  22.843  26.481  1.00  0.00     0.104 C 
ATOM     21  N   UNL A   1      30.137  23.045  27.316  1.00  0.00    -0.192 NA
ENDBRANCH  15  20
ENDBRANCH  11  13
ENDBRANCH   8  11
ENDBRANCH   5   8
ENDBRANCH   3   5
ENDBRANCH   2   3
ENDBRANCH   1   2
BRANCH   1  22
ATOM     22  C   UNL A   1      31.336  30.629  25.757  1.00  0.00     0.275 C 
BRANCH  22  23
ATOM     23  O   UNL A   1      32.632  30.299  26.350  1.00  0.00    -0.458 OA
BRANCH  23  24
ATOM     24  C   UNL A   1      33.231  31.247  27.125  1.00  0.00     0.338 C 
ATOM     25  O   UNL A   1      32.661  32.207  27.628  1.00  0.00    -0.246 OA
BRANCH  24  26
ATOM     26  C   UNL A   1      34.684  31.005  27.424  1.00  0.00     0.060 A 
ATOM     27  C   UNL A   1      35.131  29.733  27.753  1.00  0.00     0.016 A 
ATOM     28  C   UNL A   1      35.547  32.059  27.712  1.00  0.00     0.016 A 
ATOM     29  C   UNL A   1      36.287  29.503  28.489  1.00  0.00     0.010 A 
ATOM     30  C   UNL A   1      36.802  31.816  28.324  1.00  0.00     0.010 A 
ATOM     31  C   UNL A   1      37.168  30.532  28.773  1.00  0.00    -0.014 A 
BRANCH  31  32
ATOM     32  C   UNL A   1      38.388  30.250  29.595  1.00  0.00     0.031 A 
ATOM     33  C   UNL A   1      39.480  29.373  29.035  1.00  0.00     0.074 A 
ATOM     34  C   UNL A   1      38.576  30.814  30.811  1.00  0.00     0.049 A 
ATOM     35  N   UNL A   1      40.469  28.777  29.653  1.00  0.00    -0.248 NA
ATOM     36  C   UNL A   1      39.447  29.128  27.586  1.00  0.00     0.031 C 
ATOM     37  C   UNL A   1      37.692  31.792  31.453  1.00  0.00     0.029 A 
ATOM     38  N   UNL A   1      39.583  30.641  31.736  1.00  0.00    -0.354 N 
ATOM     39  C   UNL A   1      41.116  28.015  28.687  1.00  0.00     0.074 A 
ATOM     40  C   UNL A   1      40.417  28.236  27.439  1.00  0.00     0.031 C 
ATOM     41  C   UNL A   1      38.204  32.152  32.637  1.00  0.00     0.029 A 
ATOM     42  C   UNL A   1      39.367  31.322  32.913  1.00  0.00     0.049 A 
ATOM     43  H   UNL A   1      40.380  30.087  31.572  1.00  0.00     0.167 HD
ATOM     44  C   UNL A   1      42.185  27.195  28.839  1.00  0.00     0.037 A 
ATOM     45  C   UNL A   1      39.965  31.228  34.116  1.00  0.00     0.037 A 
ATOM     46  C   UNL A   1      42.903  27.032  30.078  1.00  0.00     0.049 A 
ATOM     47  C   UNL A   1      41.080  30.237  34.295  1.00  0.00     0.074 A 
ATOM     48  C   UNL A   1      43.999  26.229  30.343  1.00  0.00     0.029 A 
ATOM     49  N   UNL A   1      42.602  27.694  31.261  1.00  0.00    -0.354 N 
ATOM     50  N   UNL A   1      41.628  29.440  33.410  1.00  0.00    -0.248 NA
ATOM     51  C   UNL A   1      41.647  30.116  35.644  1.00  0.00     0.031 C 
ATOM     52  C   UNL A   1      44.315  26.351  31.699  1.00  0.00     0.029 A 
ATOM     53  C   UNL A   1      43.472  27.294  32.264  1.00  0.00     0.049 A 
ATOM     54  H   UNL A   1      41.877  28.351  31.372  1.00  0.00     0.167 HD
ATOM     55  C   UNL A   1      42.620  28.744  34.086  1.00  0.00     0.074 A 
ATOM     56  C   UNL A   1      42.610  29.227  35.451  1.00  0.00     0.031 C 
ATOM     57  C   UNL A   1      43.461  27.791  33.616  1.00  0.00     0.037 A 
BRANCH  44  58
ATOM     58  C   UNL A   1      42.598  26.353  27.662  1.00  0.00     0.064 A 
ATOM     59  C   UNL A   1      43.603  26.744  26.766  1.00  0.00     0.173 A 
ATOM     60  C   UNL A   1      41.985  25.107  27.449  1.00  0.00     0.173 A 
ATOM     61  F   UNL A   1      44.217  27.927  26.914  1.00  0.00    -0.203 F 
ATOM     62  C   UNL A   1      43.952  25.939  25.683  1.00  0.00     0.198 A 
ATOM     63  C   UNL A   1      42.364  24.287  26.389  1.00  0.00     0.198 A 
ATOM     64  F   UNL A   1      41.024  24.674  28.279  1.00  0.00    -0.203 F 
ATOM     65  F   UNL A   1      44.874  26.362  24.806  1.00  0.00    -0.200 F 
ATOM     66  C   UNL A   1      43.339  24.708  25.501  1.00  0.00     0.200 A 
ATOM     67  F   UNL A   1      41.784  23.089  26.229  1.00  0.00    -0.200 F 
ATOM     68  F   UNL A   1      43.683  23.931  24.464  1.00  0.00    -0.200 F 
ENDBRANCH  44  58
BRANCH  45  69
ATOM     69  C   UNL A   1      39.460  32.028  35.268  1.00  0.00     0.064 A 
ATOM     70  C   UNL A   1      39.866  33.354  35.464  1.00  0.00     0.173 A 
ATOM     71  C   UNL A   1      38.565  31.480  36.203  1.00  0.00     0.173 A 
ATOM     72  F   UNL A   1      40.743  33.917  34.619  1.00  0.00    -0.203 F 
ATOM     73  C   UNL A   1      39.410  34.096  36.552  1.00  0.00     0.198 A 
ATOM     74  C   UNL A   1      38.074  32.237  37.266  1.00  0.00     0.198 A 
ATOM     75  F   UNL A   1      38.145  30.213  36.071  1.00  0.00    -0.203 F 
ATOM     76  F   UNL A   1      39.855  35.345  36.742  1.00  0.00    -0.200 F 
ATOM     77  C   UNL A   1      38.505  33.541  37.445  1.00  0.00     0.200 A 
ATOM     78  F   UNL A   1      37.185  31.701  38.113  1.00  0.00    -0.200 F 
ATOM     79  F   UNL A   1      38.056  34.260  38.482  1.00  0.00    -0.200 F 
ENDBRANCH  45  69
BRANCH  57  80
ATOM     80  C   UNL A   1      44.488  27.251  34.571  1.00  0.00     0.064 A 
ATOM     81  C   UNL A   1      44.263  26.096  35.334  1.00  0.00     0.173 A 
ATOM     82  C   UNL A   1      45.731  27.891  34.702  1.00  0.00     0.173 A 
ATOM     83  F   UNL A   1      43.085  25.457  35.260  1.00  0.00    -0.203 F 
ATOM     84  C   UNL A   1      45.229  25.622  36.217  1.00  0.00     0.198 A 
ATOM     85  C   UNL A   1      46.709  27.391  35.556  1.00  0.00     0.198 A 
ATOM     86  F   UNL A   1      46.002  28.997  33.992  1.00  0.00    -0.203 F 
ATOM     87  F   UNL A   1      44.967  24.554  36.984  1.00  0.00    -0.200 F 
ATOM     88  C   UNL A   1      46.454  26.264  36.321  1.00  0.00     0.200 A 
ATOM     89  F   UNL A   1      47.899  28.003  35.639  1.00  0.00    -0.200 F 
ATOM     90  F   UNL A   1      47.386  25.801  37.165  1.00  0.00    -0.200 F 
ENDBRANCH  57  80
ENDBRANCH  31  32
ENDBRANCH  24  26
ENDBRANCH  23  24
ENDBRANCH  22  23
ENDBRANCH   1  22
TORSDOF 15
ENDMDL
