MODEL 1
REMARK VINA RESULT:     -11.4      0.000      0.000
REMARK SMILES CCCCCCNC(=O)Oc1cccc(-c2ccc([C@@H](C)C(=O)OCCOC(=O)c3ccc(-c4c5nc(c(-c6c(F)c(F)c(F)c(F)c6F)c6ccc([nH]6)c(-c6c(F)c(F)c(F)c(F)c6F)c6nc(c(-c7c(F)c(F)c(F)c(F)c7F)c7ccc4[nH]7)C=C6)C=C5)cc3)cc2C(F)(F)F)c1
REMARK SMILES IDX 20 1 21 2 19 3 16 4 17 5 94 6 18 7 93 8 15 9 11 10 12 11
REMARK SMILES IDX 99 12 13 13 14 14 10 15 8 16 7 17 9 19 6 20 5 21 4 22 3 23
REMARK SMILES IDX 2 24 1 25 95 26 96 27 97 28 98 29 22 30 23 31 24 32 25 33
REMARK SMILES IDX 26 34 27 35 28 36 29 37 30 38 31 39 92 40 32 41 91 42 33 43
REMARK SMILES IDX 34 44 35 45 85 46 36 47 90 48 84 49 86 50 37 51 89 52 83 53
REMARK SMILES IDX 82 54 38 56 70 57 50 58 69 59 51 60 54 61 68 62 87 63 52 64
REMARK SMILES IDX 53 65 67 67 88 68 55 69 39 70 40 71 48 72 41 73 42 74 46 75
REMARK SMILES IDX 49 76 43 77 44 78 47 79 45 80 71 81 72 82 80 83 73 84 74 85
REMARK SMILES IDX 78 86 81 87 75 88 76 89 79 90 77 91 56 92 57 93 65 94 58 95
REMARK SMILES IDX 59 96 63 97 66 98 60 99 61 100 64 101 62 102
REMARK H PARENT 7 18 86 55 54 66
REMARK Flexibility Score: inf
ROOT
ATOM      1  C   UNL A   1      35.643  32.829  28.718  1.00  0.00     0.126 C 
ATOM      2  C   UNL A   1      37.157  33.008  28.647  1.00  0.00     0.025 C 
ENDROOT
BRANCH   1   3
ATOM      3  C   UNL A   1      35.162  31.618  27.933  1.00  0.00    -0.033 A 
ATOM      4  C   UNL A   1      34.165  29.334  26.539  1.00  0.00    -0.006 A 
ATOM      5  C   UNL A   1      35.520  29.446  26.917  1.00  0.00     0.009 A 
ATOM      6  C   UNL A   1      33.301  30.403  26.852  1.00  0.00     0.064 A 
ATOM      7  C   UNL A   1      36.008  30.558  27.607  1.00  0.00     0.005 A 
ATOM      8  C   UNL A   1      33.818  31.528  27.536  1.00  0.00     0.018 A 
BRANCH   4   9
ATOM      9  C   UNL A   1      33.717  28.074  25.916  1.00  0.00    -0.014 A 
ATOM     10  C   UNL A   1      32.790  25.839  26.021  1.00  0.00     0.133 A 
ATOM     11  C   UNL A   1      33.006  25.652  24.656  1.00  0.00     0.047 A 
ATOM     12  C   UNL A   1      33.126  27.038  26.656  1.00  0.00     0.056 A 
ATOM     13  C   UNL A   1      33.557  26.684  23.907  1.00  0.00     0.004 A 
ATOM     14  C   UNL A   1      33.916  27.878  24.534  1.00  0.00     0.009 A 
BRANCH  10  15
ATOM     15  O   UNL A   1      32.382  24.701  26.740  1.00  0.00    -0.410 OA
BRANCH  15  16
ATOM     16  C   UNL A   1      31.137  24.137  26.511  1.00  0.00     0.412 C 
ATOM     17  N   UNL A   1      31.216  22.855  26.036  1.00  0.00    -0.321 N 
ATOM     18  H   UNL A   1      30.363  22.406  25.838  1.00  0.00     0.167 HD
ATOM     19  O   UNL A   1      30.056  24.685  26.683  1.00  0.00    -0.224 OA
BRANCH  17  20
ATOM     20  C   UNL A   1      32.425  22.092  25.793  1.00  0.00     0.119 C 
BRANCH  20  21
ATOM     21  C   UNL A   1      32.170  20.879  24.897  1.00  0.00     0.021 C 
BRANCH  21  22
ATOM     22  C   UNL A   1      32.856  19.585  25.352  1.00  0.00     0.002 C 
BRANCH  22  23
ATOM     23  C   UNL A   1      33.702  18.877  24.288  1.00  0.00    -0.000 C 
BRANCH  23  24
ATOM     24  C   UNL A   1      34.027  17.410  24.574  1.00  0.00    -0.003 C 
ATOM     25  C   UNL A   1      34.121  16.558  23.319  1.00  0.00     0.004 C 
ENDBRANCH  23  24
ENDBRANCH  22  23
ENDBRANCH  21  22
ENDBRANCH  20  21
ENDBRANCH  17  20
ENDBRANCH  15  16
ENDBRANCH  10  15
ENDBRANCH   4   9
BRANCH   6  26
ATOM     26  C   UNL A   1      31.833  30.431  26.483  1.00  0.00     0.417 C 
ATOM     27  F   UNL A   1      31.251  31.637  26.769  1.00  0.00    -0.166 F 
ATOM     28  F   UNL A   1      31.628  30.246  25.148  1.00  0.00    -0.166 F 
ATOM     29  F   UNL A   1      31.053  29.516  27.118  1.00  0.00    -0.166 F 
ENDBRANCH   6  26
ENDBRANCH   1   3
BRANCH   1  30
ATOM     30  C   UNL A   1      34.944  34.149  28.418  1.00  0.00     0.313 C 
ATOM     31  O   UNL A   1      34.859  34.592  27.276  1.00  0.00    -0.252 OA
BRANCH  30  32
ATOM     32  O   UNL A   1      34.404  34.746  29.511  1.00  0.00    -0.462 OA
BRANCH  32  33
ATOM     33  C   UNL A   1      32.985  34.995  29.481  1.00  0.00     0.274 C 
BRANCH  33  34
ATOM     34  C   UNL A   1      32.644  36.371  30.059  1.00  0.00     0.275 C 
BRANCH  34  35
ATOM     35  O   UNL A   1      33.213  36.545  31.372  1.00  0.00    -0.458 OA
BRANCH  35  36
ATOM     36  C   UNL A   1      32.806  35.640  32.290  1.00  0.00     0.338 C 
ATOM     37  O   UNL A   1      31.661  35.333  32.575  1.00  0.00    -0.246 OA
BRANCH  36  38
ATOM     38  C   UNL A   1      33.965  34.928  32.846  1.00  0.00     0.060 A 
ATOM     39  C   UNL A   1      35.201  35.573  32.791  1.00  0.00     0.016 A 
ATOM     40  C   UNL A   1      33.874  33.610  33.292  1.00  0.00     0.016 A 
ATOM     41  C   UNL A   1      36.363  34.897  33.142  1.00  0.00     0.010 A 
ATOM     42  C   UNL A   1      35.042  32.932  33.663  1.00  0.00     0.010 A 
ATOM     43  C   UNL A   1      36.297  33.564  33.564  1.00  0.00    -0.014 A 
BRANCH  43  44
ATOM     44  C   UNL A   1      37.560  32.830  33.820  1.00  0.00     0.031 A 
ATOM     45  C   UNL A   1      38.331  33.090  35.084  1.00  0.00     0.074 A 
ATOM     46  C   UNL A   1      37.981  31.893  32.952  1.00  0.00     0.049 A 
ATOM     47  N   UNL A   1      39.463  32.568  35.486  1.00  0.00    -0.248 NA
ATOM     48  C   UNL A   1      37.756  34.068  36.022  1.00  0.00     0.031 C 
ATOM     49  C   UNL A   1      37.299  31.528  31.710  1.00  0.00     0.029 A 
ATOM     50  N   UNL A   1      39.078  31.071  32.985  1.00  0.00    -0.354 N 
ATOM     51  C   UNL A   1      39.749  33.172  36.702  1.00  0.00     0.074 A 
ATOM     52  C   UNL A   1      38.679  34.108  36.974  1.00  0.00     0.031 C 
ATOM     53  C   UNL A   1      37.993  30.554  31.099  1.00  0.00     0.029 A 
ATOM     54  C   UNL A   1      39.185  30.251  31.887  1.00  0.00     0.049 A 
ATOM     55  H   UNL A   1      39.729  31.068  33.725  1.00  0.00     0.167 HD
ATOM     56  C   UNL A   1      40.807  32.960  37.520  1.00  0.00     0.037 A 
ATOM     57  C   UNL A   1      40.148  29.373  31.548  1.00  0.00     0.037 A 
ATOM     58  C   UNL A   1      41.845  31.994  37.273  1.00  0.00     0.049 A 
ATOM     59  C   UNL A   1      41.318  29.169  32.471  1.00  0.00     0.074 A 
ATOM     60  C   UNL A   1      42.930  31.672  38.071  1.00  0.00     0.029 A 
ATOM     61  N   UNL A   1      41.926  31.193  36.144  1.00  0.00    -0.354 N 
ATOM     62  N   UNL A   1      41.565  29.728  33.631  1.00  0.00    -0.248 NA
ATOM     63  C   UNL A   1      42.345  28.210  32.039  1.00  0.00     0.031 C 
ATOM     64  C   UNL A   1      43.690  30.704  37.406  1.00  0.00     0.029 A 
ATOM     65  C   UNL A   1      43.056  30.395  36.213  1.00  0.00     0.049 A 
ATOM     66  H   UNL A   1      41.277  31.192  35.404  1.00  0.00     0.167 HD
ATOM     67  C   UNL A   1      42.761  29.180  34.073  1.00  0.00     0.074 A 
ATOM     68  C   UNL A   1      43.181  28.225  33.068  1.00  0.00     0.031 C 
ATOM     69  C   UNL A   1      43.455  29.446  35.207  1.00  0.00     0.037 A 
BRANCH  56  70
ATOM     70  C   UNL A   1      40.916  33.799  38.756  1.00  0.00     0.064 A 
ATOM     71  C   UNL A   1      40.317  33.420  39.965  1.00  0.00     0.173 A 
ATOM     72  C   UNL A   1      41.695  34.968  38.744  1.00  0.00     0.173 A 
ATOM     73  F   UNL A   1      39.556  32.317  40.024  1.00  0.00    -0.203 F 
ATOM     74  C   UNL A   1      40.485  34.185  41.116  1.00  0.00     0.198 A 
ATOM     75  C   UNL A   1      41.879  35.717  39.902  1.00  0.00     0.198 A 
ATOM     76  F   UNL A   1      42.293  35.370  37.614  1.00  0.00    -0.203 F 
ATOM     77  F   UNL A   1      39.884  33.819  42.257  1.00  0.00    -0.200 F 
ATOM     78  C   UNL A   1      41.273  35.327  41.087  1.00  0.00     0.200 A 
ATOM     79  F   UNL A   1      42.649  36.814  39.874  1.00  0.00    -0.200 F 
ATOM     80  F   UNL A   1      41.445  36.053  42.200  1.00  0.00    -0.200 F 
ENDBRANCH  56  70
BRANCH  57  81
ATOM     81  C   UNL A   1      40.065  28.639  30.258  1.00  0.00     0.064 A 
ATOM     82  C   UNL A   1      39.450  27.384  30.175  1.00  0.00     0.173 A 
ATOM     83  C   UNL A   1      40.633  29.167  29.089  1.00  0.00     0.173 A 
ATOM     84  F   UNL A   1      38.917  26.824  31.272  1.00  0.00    -0.203 F 
ATOM     85  C   UNL A   1      39.428  26.671  28.977  1.00  0.00     0.198 A 
ATOM     86  C   UNL A   1      40.584  28.468  27.886  1.00  0.00     0.198 A 
ATOM     87  F   UNL A   1      41.236  30.365  29.116  1.00  0.00    -0.203 F 
ATOM     88  F   UNL A   1      38.883  25.447  28.938  1.00  0.00    -0.200 F 
ATOM     89  C   UNL A   1      39.990  27.216  27.833  1.00  0.00     0.200 A 
ATOM     90  F   UNL A   1      41.120  29.002  26.780  1.00  0.00    -0.200 F 
ATOM     91  F   UNL A   1      39.973  26.529  26.682  1.00  0.00    -0.200 F 
ENDBRANCH  57  81
BRANCH  69  92
ATOM     92  C   UNL A   1      44.725  28.682  35.430  1.00  0.00     0.064 A 
ATOM     93  C   UNL A   1      44.727  27.443  36.086  1.00  0.00     0.173 A 
ATOM     94  C   UNL A   1      45.948  29.177  34.952  1.00  0.00     0.173 A 
ATOM     95  F   UNL A   1      43.584  26.936  36.575  1.00  0.00    -0.203 F 
ATOM     96  C   UNL A   1      45.911  26.736  36.275  1.00  0.00     0.198 A 
ATOM     97  C   UNL A   1      47.125  28.455  35.120  1.00  0.00     0.198 A 
ATOM     98  F   UNL A   1      45.997  30.354  34.312  1.00  0.00    -0.203 F 
ATOM     99  F   UNL A   1      45.897  25.574  36.944  1.00  0.00    -0.200 F 
ATOM    100  C   UNL A   1      47.108  27.239  35.787  1.00  0.00     0.200 A 
ATOM    101  F   UNL A   1      48.279  28.937  34.637  1.00  0.00    -0.200 F 
ATOM    102  F   UNL A   1      48.246  26.556  35.966  1.00  0.00    -0.200 F 
ENDBRANCH  69  92
ENDBRANCH  43  44
ENDBRANCH  36  38
ENDBRANCH  35  36
ENDBRANCH  34  35
ENDBRANCH  33  34
ENDBRANCH  32  33
ENDBRANCH  30  32
ENDBRANCH   1  30
TORSDOF 21
ENDMDL
MODEL 2
REMARK VINA RESULT:     -11.3      6.889     12.440
REMARK SMILES CCCCCCNC(=O)Oc1cccc(-c2ccc([C@@H](C)C(=O)OCCOC(=O)c3ccc(-c4c5nc(c(-c6c(F)c(F)c(F)c(F)c6F)c6ccc([nH]6)c(-c6c(F)c(F)c(F)c(F)c6F)c6nc(c(-c7c(F)c(F)c(F)c(F)c7F)c7ccc4[nH]7)C=C6)C=C5)cc3)cc2C(F)(F)F)c1
REMARK SMILES IDX 20 1 21 2 19 3 16 4 17 5 94 6 18 7 93 8 15 9 11 10 12 11
REMARK SMILES IDX 99 12 13 13 14 14 10 15 8 16 7 17 9 19 6 20 5 21 4 22 3 23
REMARK SMILES IDX 2 24 1 25 95 26 96 27 97 28 98 29 22 30 23 31 24 32 25 33
REMARK SMILES IDX 26 34 27 35 28 36 29 37 30 38 31 39 92 40 32 41 91 42 33 43
REMARK SMILES IDX 34 44 35 45 85 46 36 47 90 48 84 49 86 50 37 51 89 52 83 53
REMARK SMILES IDX 82 54 38 56 70 57 50 58 69 59 51 60 54 61 68 62 87 63 52 64
REMARK SMILES IDX 53 65 67 67 88 68 55 69 39 70 40 71 48 72 41 73 42 74 46 75
REMARK SMILES IDX 49 76 43 77 44 78 47 79 45 80 71 81 72 82 80 83 73 84 74 85
REMARK SMILES IDX 78 86 81 87 75 88 76 89 79 90 77 91 56 92 57 93 65 94 58 95
REMARK SMILES IDX 59 96 63 97 66 98 60 99 61 100 64 101 62 102
REMARK H PARENT 7 18 86 55 54 66
REMARK Flexibility Score: inf
ROOT
ATOM      1  C   UNL A   1      41.108  21.941  26.804  1.00  0.00     0.126 C 
ATOM      2  C   UNL A   1      41.749  22.712  27.955  1.00  0.00     0.025 C 
ENDROOT
BRANCH   1   3
ATOM      3  C   UNL A   1      39.685  22.398  26.518  1.00  0.00    -0.033 A 
ATOM      4  C   UNL A   1      37.026  23.208  25.867  1.00  0.00    -0.006 A 
ATOM      5  C   UNL A   1      37.959  24.098  26.439  1.00  0.00     0.009 A 
ATOM      6  C   UNL A   1      37.435  21.878  25.638  1.00  0.00     0.064 A 
ATOM      7  C   UNL A   1      39.263  23.707  26.750  1.00  0.00     0.005 A 
ATOM      8  C   UNL A   1      38.755  21.497  25.975  1.00  0.00     0.018 A 
BRANCH   4   9
ATOM      9  C   UNL A   1      35.709  23.739  25.467  1.00  0.00    -0.014 A 
ATOM     10  C   UNL A   1      34.200  24.755  23.867  1.00  0.00     0.133 A 
ATOM     11  C   UNL A   1      33.197  24.854  24.830  1.00  0.00     0.047 A 
ATOM     12  C   UNL A   1      35.444  24.193  24.165  1.00  0.00     0.056 A 
ATOM     13  C   UNL A   1      33.435  24.376  26.112  1.00  0.00     0.004 A 
ATOM     14  C   UNL A   1      34.680  23.833  26.428  1.00  0.00     0.009 A 
BRANCH  10  15
ATOM     15  O   UNL A   1      33.945  25.402  22.645  1.00  0.00    -0.410 OA
BRANCH  15  16
ATOM     16  C   UNL A   1      33.107  24.823  21.706  1.00  0.00     0.412 C 
ATOM     17  N   UNL A   1      31.977  25.561  21.477  1.00  0.00    -0.321 N 
ATOM     18  H   UNL A   1      31.333  25.192  20.831  1.00  0.00     0.167 HD
ATOM     19  O   UNL A   1      33.299  23.761  21.127  1.00  0.00    -0.224 OA
BRANCH  17  20
ATOM     20  C   UNL A   1      31.631  26.830  22.089  1.00  0.00     0.119 C 
BRANCH  20  21
ATOM     21  C   UNL A   1      30.361  26.733  22.935  1.00  0.00     0.021 C 
BRANCH  21  22
ATOM     22  C   UNL A   1      29.860  28.066  23.505  1.00  0.00     0.002 C 
BRANCH  22  23
ATOM     23  C   UNL A   1      28.493  28.532  22.991  1.00  0.00    -0.000 C 
BRANCH  23  24
ATOM     24  C   UNL A   1      28.338  30.044  22.813  1.00  0.00    -0.003 C 
ATOM     25  C   UNL A   1      28.053  30.454  21.377  1.00  0.00     0.004 C 
ENDBRANCH  23  24
ENDBRANCH  22  23
ENDBRANCH  21  22
ENDBRANCH  20  21
ENDBRANCH  17  20
ENDBRANCH  15  16
ENDBRANCH  10  15
ENDBRANCH   4   9
BRANCH   6  26
ATOM     26  C   UNL A   1      36.533  20.810  25.058  1.00  0.00     0.417 C 
ATOM     27  F   UNL A   1      37.178  19.612  24.911  1.00  0.00    -0.166 F 
ATOM     28  F   UNL A   1      35.463  20.541  25.860  1.00  0.00    -0.166 F 
ATOM     29  F   UNL A   1      36.026  21.079  23.825  1.00  0.00    -0.166 F 
ENDBRANCH   6  26
ENDBRANCH   1   3
BRANCH   1  30
ATOM     30  C   UNL A   1      41.309  20.443  26.999  1.00  0.00     0.313 C 
ATOM     31  O   UNL A   1      40.831  19.845  27.958  1.00  0.00    -0.252 OA
BRANCH  30  32
ATOM     32  O   UNL A   1      42.019  19.851  26.005  1.00  0.00    -0.462 OA
BRANCH  32  33
ATOM     33  C   UNL A   1      42.715  18.634  26.340  1.00  0.00     0.274 C 
BRANCH  33  34
ATOM     34  C   UNL A   1      43.740  18.259  25.266  1.00  0.00     0.275 C 
BRANCH  34  35
ATOM     35  O   UNL A   1      43.858  19.292  24.268  1.00  0.00    -0.458 OA
BRANCH  35  36
ATOM     36  C   UNL A   1      45.064  19.901  24.222  1.00  0.00     0.338 C 
ATOM     37  O   UNL A   1      46.076  19.504  23.668  1.00  0.00    -0.246 OA
BRANCH  36  38
ATOM     38  C   UNL A   1      44.983  21.233  24.836  1.00  0.00     0.060 A 
ATOM     39  C   UNL A   1      44.740  22.316  23.991  1.00  0.00     0.016 A 
ATOM     40  C   UNL A   1      45.265  21.439  26.186  1.00  0.00     0.016 A 
ATOM     41  C   UNL A   1      44.817  23.616  24.474  1.00  0.00     0.010 A 
ATOM     42  C   UNL A   1      45.327  22.749  26.679  1.00  0.00     0.010 A 
ATOM     43  C   UNL A   1      45.129  23.845  25.819  1.00  0.00    -0.014 A 
BRANCH  43  44
ATOM     44  C   UNL A   1      45.319  25.242  26.282  1.00  0.00     0.031 A 
ATOM     45  C   UNL A   1      46.677  25.880  26.189  1.00  0.00     0.074 A 
ATOM     46  C   UNL A   1      44.267  25.952  26.727  1.00  0.00     0.049 A 
ATOM     47  N   UNL A   1      47.055  27.079  26.556  1.00  0.00    -0.248 NA
ATOM     48  C   UNL A   1      47.755  25.063  25.610  1.00  0.00     0.031 C 
ATOM     49  C   UNL A   1      42.896  25.452  26.831  1.00  0.00     0.029 A 
ATOM     50  N   UNL A   1      44.185  27.248  27.170  1.00  0.00    -0.354 N 
ATOM     51  C   UNL A   1      48.413  27.150  26.279  1.00  0.00     0.074 A 
ATOM     52  C   UNL A   1      48.800  25.871  25.722  1.00  0.00     0.031 C 
ATOM     53  C   UNL A   1      42.108  26.430  27.305  1.00  0.00     0.029 A 
ATOM     54  C   UNL A   1      42.923  27.612  27.573  1.00  0.00     0.049 A 
ATOM     55  H   UNL A   1      44.957  27.859  27.197  1.00  0.00     0.167 HD
ATOM     56  C   UNL A   1      49.259  28.190  26.468  1.00  0.00     0.037 A 
ATOM     57  C   UNL A   1      42.482  28.763  28.116  1.00  0.00     0.037 A 
ATOM     58  C   UNL A   1      48.863  29.477  26.978  1.00  0.00     0.049 A 
ATOM     59  C   UNL A   1      43.448  29.897  28.326  1.00  0.00     0.074 A 
ATOM     60  C   UNL A   1      49.640  30.609  27.155  1.00  0.00     0.029 A 
ATOM     61  N   UNL A   1      47.579  29.803  27.387  1.00  0.00    -0.354 N 
ATOM     62  N   UNL A   1      44.725  29.960  28.038  1.00  0.00    -0.248 NA
ATOM     63  C   UNL A   1      42.912  31.121  28.938  1.00  0.00     0.031 C 
ATOM     64  C   UNL A   1      48.836  31.609  27.711  1.00  0.00     0.029 A 
ATOM     65  C   UNL A   1      47.549  31.113  27.841  1.00  0.00     0.049 A 
ATOM     66  H   UNL A   1      46.806  29.196  27.360  1.00  0.00     0.167 HD
ATOM     67  C   UNL A   1      45.140  31.230  28.416  1.00  0.00     0.074 A 
ATOM     68  C   UNL A   1      43.974  31.914  28.934  1.00  0.00     0.031 C 
ATOM     69  C   UNL A   1      46.377  31.779  28.347  1.00  0.00     0.037 A 
BRANCH  56  70
ATOM     70  C   UNL A   1      50.707  27.984  26.146  1.00  0.00     0.064 A 
ATOM     71  C   UNL A   1      51.214  28.176  24.854  1.00  0.00     0.173 A 
ATOM     72  C   UNL A   1      51.613  27.656  27.167  1.00  0.00     0.173 A 
ATOM     73  F   UNL A   1      50.385  28.480  23.843  1.00  0.00    -0.203 F 
ATOM     74  C   UNL A   1      52.574  28.039  24.592  1.00  0.00     0.198 A 
ATOM     75  C   UNL A   1      52.975  27.542  26.906  1.00  0.00     0.198 A 
ATOM     76  F   UNL A   1      51.179  27.467  28.422  1.00  0.00    -0.203 F 
ATOM     77  F   UNL A   1      53.036  28.203  23.344  1.00  0.00    -0.200 F 
ATOM     78  C   UNL A   1      53.455  27.731  25.619  1.00  0.00     0.200 A 
ATOM     79  F   UNL A   1      53.827  27.257  27.902  1.00  0.00    -0.200 F 
ATOM     80  F   UNL A   1      54.767  27.615  25.367  1.00  0.00    -0.200 F 
ENDBRANCH  56  70
BRANCH  57  81
ATOM     81  C   UNL A   1      41.060  28.894  28.529  1.00  0.00     0.064 A 
ATOM     82  C   UNL A   1      40.669  28.698  29.859  1.00  0.00     0.173 A 
ATOM     83  C   UNL A   1      40.058  29.183  27.590  1.00  0.00     0.173 A 
ATOM     84  F   UNL A   1      41.586  28.391  30.789  1.00  0.00    -0.203 F 
ATOM     85  C   UNL A   1      39.327  28.761  30.232  1.00  0.00     0.198 A 
ATOM     86  C   UNL A   1      38.722  29.277  27.968  1.00  0.00     0.198 A 
ATOM     87  F   UNL A   1      40.381  29.377  26.302  1.00  0.00    -0.203 F 
ATOM     88  F   UNL A   1      38.974  28.515  31.501  1.00  0.00    -0.200 F 
ATOM     89  C   UNL A   1      38.356  29.056  29.287  1.00  0.00     0.200 A 
ATOM     90  F   UNL A   1      37.788  29.571  27.053  1.00  0.00    -0.200 F 
ATOM     91  F   UNL A   1      37.066  29.112  29.644  1.00  0.00    -0.200 F 
ENDBRANCH  57  81
BRANCH  69  92
ATOM     92  C   UNL A   1      46.528  33.193  28.822  1.00  0.00     0.064 A 
ATOM     93  C   UNL A   1      46.874  33.485  30.149  1.00  0.00     0.173 A 
ATOM     94  C   UNL A   1      46.357  34.266  27.933  1.00  0.00     0.173 A 
ATOM     95  F   UNL A   1      47.032  32.494  31.039  1.00  0.00    -0.203 F 
ATOM     96  C   UNL A   1      47.024  34.802  30.575  1.00  0.00     0.198 A 
ATOM     97  C   UNL A   1      46.534  35.579  28.357  1.00  0.00     0.198 A 
ATOM     98  F   UNL A   1      46.032  34.038  26.652  1.00  0.00    -0.203 F 
ATOM     99  F   UNL A   1      47.312  35.061  31.858  1.00  0.00    -0.200 F 
ATOM    100  C   UNL A   1      46.860  35.847  29.678  1.00  0.00     0.200 A 
ATOM    101  F   UNL A   1      46.386  36.587  27.486  1.00  0.00    -0.200 F 
ATOM    102  F   UNL A   1      47.008  37.114  30.089  1.00  0.00    -0.200 F 
ENDBRANCH  69  92
ENDBRANCH  43  44
ENDBRANCH  36  38
ENDBRANCH  35  36
ENDBRANCH  34  35
ENDBRANCH  33  34
ENDBRANCH  32  33
ENDBRANCH  30  32
ENDBRANCH   1  30
TORSDOF 21
ENDMDL
MODEL 3
REMARK VINA RESULT:     -11.3      1.927      7.572
REMARK SMILES CCCCCCNC(=O)Oc1cccc(-c2ccc([C@@H](C)C(=O)OCCOC(=O)c3ccc(-c4c5nc(c(-c6c(F)c(F)c(F)c(F)c6F)c6ccc([nH]6)c(-c6c(F)c(F)c(F)c(F)c6F)c6nc(c(-c7c(F)c(F)c(F)c(F)c7F)c7ccc4[nH]7)C=C6)C=C5)cc3)cc2C(F)(F)F)c1
REMARK SMILES IDX 20 1 21 2 19 3 16 4 17 5 94 6 18 7 93 8 15 9 11 10 12 11
REMARK SMILES IDX 99 12 13 13 14 14 10 15 8 16 7 17 9 19 6 20 5 21 4 22 3 23
REMARK SMILES IDX 2 24 1 25 95 26 96 27 97 28 98 29 22 30 23 31 24 32 25 33
REMARK SMILES IDX 26 34 27 35 28 36 29 37 30 38 31 39 92 40 32 41 91 42 33 43
REMARK SMILES IDX 34 44 35 45 85 46 36 47 90 48 84 49 86 50 37 51 89 52 83 53
REMARK SMILES IDX 82 54 38 56 70 57 50 58 69 59 51 60 54 61 68 62 87 63 52 64
REMARK SMILES IDX 53 65 67 67 88 68 55 69 39 70 40 71 48 72 41 73 42 74 46 75
REMARK SMILES IDX 49 76 43 77 44 78 47 79 45 80 71 81 72 82 80 83 73 84 74 85
REMARK SMILES IDX 78 86 81 87 75 88 76 89 79 90 77 91 56 92 57 93 65 94 58 95
REMARK SMILES IDX 59 96 63 97 66 98 60 99 61 100 64 101 62 102
REMARK H PARENT 7 18 86 55 54 66
REMARK Flexibility Score: inf
ROOT
ATOM      1  C   UNL A   1      35.210  32.976  28.761  1.00  0.00     0.126 C 
ATOM      2  C   UNL A   1      36.711  33.240  28.850  1.00  0.00     0.025 C 
ENDROOT
BRANCH   1   3
ATOM      3  C   UNL A   1      34.887  31.717  27.969  1.00  0.00    -0.033 A 
ATOM      4  C   UNL A   1      34.175  29.345  26.548  1.00  0.00    -0.006 A 
ATOM      5  C   UNL A   1      35.450  29.515  27.127  1.00  0.00     0.009 A 
ATOM      6  C   UNL A   1      33.247  30.400  26.672  1.00  0.00     0.064 A 
ATOM      7  C   UNL A   1      35.799  30.671  27.830  1.00  0.00     0.005 A 
ATOM      8  C   UNL A   1      33.624  31.569  27.374  1.00  0.00     0.018 A 
BRANCH   4   9
ATOM      9  C   UNL A   1      33.859  28.046  25.924  1.00  0.00    -0.014 A 
ATOM     10  C   UNL A   1      33.699  26.564  24.015  1.00  0.00     0.133 A 
ATOM     11  C   UNL A   1      33.106  25.573  24.795  1.00  0.00     0.047 A 
ATOM     12  C   UNL A   1      34.089  27.790  24.563  1.00  0.00     0.056 A 
ATOM     13  C   UNL A   1      32.906  25.803  26.150  1.00  0.00     0.004 A 
ATOM     14  C   UNL A   1      33.271  27.030  26.705  1.00  0.00     0.009 A 
BRANCH  10  15
ATOM     15  O   UNL A   1      33.721  26.325  22.629  1.00  0.00    -0.410 OA
BRANCH  15  16
ATOM     16  C   UNL A   1      33.068  25.226  22.097  1.00  0.00     0.412 C 
ATOM     17  N   UNL A   1      31.760  25.484  21.789  1.00  0.00    -0.321 N 
ATOM     18  H   UNL A   1      31.237  24.736  21.422  1.00  0.00     0.167 HD
ATOM     19  O   UNL A   1      33.555  24.117  21.916  1.00  0.00    -0.224 OA
BRANCH  17  20
ATOM     20  C   UNL A   1      31.064  26.746  21.949  1.00  0.00     0.119 C 
BRANCH  20  21
ATOM     21  C   UNL A   1      30.097  26.724  23.134  1.00  0.00     0.021 C 
BRANCH  21  22
ATOM     22  C   UNL A   1      29.705  28.106  23.674  1.00  0.00     0.002 C 
BRANCH  22  23
ATOM     23  C   UNL A   1      29.120  29.077  22.643  1.00  0.00    -0.000 C 
BRANCH  23  24
ATOM     24  C   UNL A   1      29.114  30.550  23.057  1.00  0.00    -0.003 C 
ATOM     25  C   UNL A   1      27.759  31.030  23.554  1.00  0.00     0.004 C 
ENDBRANCH  23  24
ENDBRANCH  22  23
ENDBRANCH  21  22
ENDBRANCH  20  21
ENDBRANCH  17  20
ENDBRANCH  15  16
ENDBRANCH  10  15
ENDBRANCH   4   9
BRANCH   6  26
ATOM     26  C   UNL A   1      31.855  30.367  26.078  1.00  0.00     0.417 C 
ATOM     27  F   UNL A   1      31.873  30.131  24.730  1.00  0.00    -0.166 F 
ATOM     28  F   UNL A   1      31.089  29.368  26.603  1.00  0.00    -0.166 F 
ATOM     29  F   UNL A   1      31.134  31.511  26.216  1.00  0.00    -0.166 F 
ENDBRANCH   6  26
ENDBRANCH   1   3
BRANCH   1  30
ATOM     30  C   UNL A   1      34.477  34.244  28.341  1.00  0.00     0.313 C 
ATOM     31  O   UNL A   1      34.735  34.823  27.290  1.00  0.00    -0.252 OA
BRANCH  30  32
ATOM     32  O   UNL A   1      33.508  34.631  29.210  1.00  0.00    -0.462 OA
BRANCH  32  33
ATOM     33  C   UNL A   1      32.977  35.960  29.040  1.00  0.00     0.274 C 
BRANCH  33  34
ATOM     34  C   UNL A   1      32.547  36.568  30.378  1.00  0.00     0.275 C 
BRANCH  34  35
ATOM     35  O   UNL A   1      32.315  35.547  31.369  1.00  0.00    -0.458 OA
BRANCH  35  36
ATOM     36  C   UNL A   1      32.914  35.769  32.561  1.00  0.00     0.338 C 
ATOM     37  O   UNL A   1      32.481  36.411  33.503  1.00  0.00    -0.246 OA
BRANCH  36  38
ATOM     38  C   UNL A   1      34.160  34.995  32.652  1.00  0.00     0.060 A 
ATOM     39  C   UNL A   1      34.100  33.755  33.288  1.00  0.00     0.016 A 
ATOM     40  C   UNL A   1      35.384  35.522  32.243  1.00  0.00     0.016 A 
ATOM     41  C   UNL A   1      35.265  33.047  33.559  1.00  0.00     0.010 A 
ATOM     42  C   UNL A   1      36.558  34.802  32.500  1.00  0.00     0.010 A 
ATOM     43  C   UNL A   1      36.506  33.572  33.183  1.00  0.00    -0.014 A 
BRANCH  43  44
ATOM     44  C   UNL A   1      37.740  32.854  33.587  1.00  0.00     0.031 A 
ATOM     45  C   UNL A   1      38.338  31.824  32.670  1.00  0.00     0.074 A 
ATOM     46  C   UNL A   1      38.352  33.168  34.743  1.00  0.00     0.049 A 
ATOM     47  N   UNL A   1      39.398  31.075  32.846  1.00  0.00    -0.248 NA
ATOM     48  C   UNL A   1      37.654  31.603  31.386  1.00  0.00     0.031 C 
ATOM     49  C   UNL A   1      37.886  34.173  35.697  1.00  0.00     0.029 A 
ATOM     50  N   UNL A   1      39.502  32.678  35.308  1.00  0.00    -0.354 N 
ATOM     51  C   UNL A   1      39.491  30.278  31.713  1.00  0.00     0.074 A 
ATOM     52  C   UNL A   1      38.376  30.625  30.857  1.00  0.00     0.031 C 
ATOM     53  C   UNL A   1      38.743  34.227  36.730  1.00  0.00     0.029 A 
ATOM     54  C   UNL A   1      39.797  33.237  36.528  1.00  0.00     0.049 A 
ATOM     55  H   UNL A   1      40.063  31.990  34.881  1.00  0.00     0.167 HD
ATOM     56  C   UNL A   1      40.426  29.346  31.413  1.00  0.00     0.037 A 
ATOM     57  C   UNL A   1      40.793  32.963  37.392  1.00  0.00     0.037 A 
ATOM     58  C   UNL A   1      41.561  29.036  32.243  1.00  0.00     0.049 A 
ATOM     59  C   UNL A   1      41.809  31.912  37.037  1.00  0.00     0.074 A 
ATOM     60  C   UNL A   1      42.590  28.143  31.997  1.00  0.00     0.029 A 
ATOM     61  N   UNL A   1      41.817  29.614  33.477  1.00  0.00    -0.354 N 
ATOM     62  N   UNL A   1      41.900  31.183  35.952  1.00  0.00    -0.248 NA
ATOM     63  C   UNL A   1      42.862  31.646  38.027  1.00  0.00     0.031 C 
ATOM     64  C   UNL A   1      43.448  28.149  33.101  1.00  0.00     0.029 A 
ATOM     65  C   UNL A   1      42.976  29.077  34.016  1.00  0.00     0.049 A 
ATOM     66  H   UNL A   1      41.260  30.302  33.906  1.00  0.00     0.167 HD
ATOM     67  C   UNL A   1      43.025  30.386  36.121  1.00  0.00     0.074 A 
ATOM     68  C   UNL A   1      43.598  30.737  37.403  1.00  0.00     0.031 C 
ATOM     69  C   UNL A   1      43.535  29.443  35.291  1.00  0.00     0.037 A 
BRANCH  56  70
ATOM     70  C   UNL A   1      40.258  28.569  30.144  1.00  0.00     0.064 A 
ATOM     71  C   UNL A   1      40.865  28.968  28.945  1.00  0.00     0.173 A 
ATOM     72  C   UNL A   1      39.535  27.365  30.147  1.00  0.00     0.173 A 
ATOM     73  F   UNL A   1      41.559  30.115  28.890  1.00  0.00    -0.203 F 
ATOM     74  C   UNL A   1      40.747  28.196  27.793  1.00  0.00     0.198 A 
ATOM     75  C   UNL A   1      39.438  26.585  28.999  1.00  0.00     0.198 A 
ATOM     76  F   UNL A   1      38.940  26.937  31.270  1.00  0.00    -0.203 F 
ATOM     77  F   UNL A   1      41.314  28.607  26.650  1.00  0.00    -0.200 F 
ATOM     78  C   UNL A   1      40.041  27.001  27.822  1.00  0.00     0.200 A 
ATOM     79  F   UNL A   1      38.766  25.425  29.033  1.00  0.00    -0.200 F 
ATOM     80  F   UNL A   1      39.942  26.252  26.715  1.00  0.00    -0.200 F 
ENDBRANCH  56  70
BRANCH  57  81
ATOM     81  C   UNL A   1      40.864  33.674  38.695  1.00  0.00     0.064 A 
ATOM     82  C   UNL A   1      40.040  33.311  39.768  1.00  0.00     0.173 A 
ATOM     83  C   UNL A   1      41.736  34.759  38.880  1.00  0.00     0.173 A 
ATOM     84  F   UNL A   1      39.169  32.299  39.631  1.00  0.00    -0.203 F 
ATOM     85  C   UNL A   1      40.066  34.019  40.968  1.00  0.00     0.198 A 
ATOM     86  C   UNL A   1      41.783  35.446  40.089  1.00  0.00     0.198 A 
ATOM     87  F   UNL A   1      42.544  35.148  37.883  1.00  0.00    -0.203 F 
ATOM     88  F   UNL A   1      39.228  33.686  41.959  1.00  0.00    -0.200 F 
ATOM     89  C   UNL A   1      40.941  35.083  41.129  1.00  0.00     0.200 A 
ATOM     90  F   UNL A   1      42.637  36.468  40.244  1.00  0.00    -0.200 F 
ATOM     91  F   UNL A   1      40.963  35.767  42.281  1.00  0.00    -0.200 F 
ENDBRANCH  57  81
BRANCH  69  92
ATOM     92  C   UNL A   1      44.783  28.742  35.734  1.00  0.00     0.064 A 
ATOM     93  C   UNL A   1      44.731  27.553  36.475  1.00  0.00     0.173 A 
ATOM     94  C   UNL A   1      46.046  29.246  35.385  1.00  0.00     0.173 A 
ATOM     95  F   UNL A   1      43.547  27.041  36.846  1.00  0.00    -0.203 F 
ATOM     96  C   UNL A   1      45.897  26.904  36.870  1.00  0.00     0.198 A 
ATOM     97  C   UNL A   1      47.209  28.580  35.759  1.00  0.00     0.198 A 
ATOM     98  F   UNL A   1      46.149  30.377  34.672  1.00  0.00    -0.203 F 
ATOM     99  F   UNL A   1      45.825  25.792  37.615  1.00  0.00    -0.200 F 
ATOM    100  C   UNL A   1      47.135  27.414  36.506  1.00  0.00     0.200 A 
ATOM    101  F   UNL A   1      48.404  29.069  35.397  1.00  0.00    -0.200 F 
ATOM    102  F   UNL A   1      48.257  26.787  36.883  1.00  0.00    -0.200 F 
ENDBRANCH  69  92
ENDBRANCH  43  44
ENDBRANCH  36  38
ENDBRANCH  35  36
ENDBRANCH  34  35
ENDBRANCH  33  34
ENDBRANCH  32  33
ENDBRANCH  30  32
ENDBRANCH   1  30
TORSDOF 21
ENDMDL
