MODEL 1
REMARK VINA RESULT:     -12.4      0.000      0.000
REMARK SMILES COc1ccc(F)cc1[C@H](C)NC(=O)[C@H]1CC=CC[C@@H]1C(=O)OCCOC(=O)c1ccc(-c2c3nc(c(-c4c(F)c(F)c(F)c(F)c4F)c4ccc([nH]4)c(-c4c(F)c(F)c(F)c(F)c4F)c4nc(c(-c5c(F)c(F)c(F)c(F)c5F)c5ccc2[nH]5)C=C4)C=C3)cc1
REMARK SMILES IDX 24 1 23 2 21 3 22 4 20 5 15 6 16 7 17 8 19 9 18 10 13 11
REMARK SMILES IDX 12 12 14 14 10 15 11 16 9 17 3 18 4 19 5 20 8 21 6 22 7 23
REMARK SMILES IDX 2 24 1 25 25 26 26 27 27 28 28 29 29 30 30 31 91 32 31 33
REMARK SMILES IDX 90 34 32 35 33 36 34 37 84 38 35 39 89 40 83 41 85 42 36 43
REMARK SMILES IDX 88 44 82 45 81 46 37 48 69 49 49 50 68 51 50 52 53 53 67 54
REMARK SMILES IDX 86 55 51 56 52 57 66 59 87 60 54 61 38 62 39 63 47 64 40 65
REMARK SMILES IDX 41 66 45 67 48 68 42 69 43 70 46 71 44 72 70 73 71 74 79 75
REMARK SMILES IDX 72 76 73 77 77 78 80 79 74 80 75 81 78 82 76 83 55 84 56 85
REMARK SMILES IDX 64 86 57 87 58 88 62 89 65 90 59 91 60 92 63 93 61 94
REMARK H PARENT 12 13 85 47 53 58
REMARK Flexibility Score: inf
ROOT
ATOM      1  C   UNL A   1      36.800  22.292  23.698  1.00  0.00     0.274 C 
ENDROOT
BRANCH   1   2
ATOM      2  O   UNL A   1      35.390  22.591  23.612  1.00  0.00    -0.462 OA
BRANCH   2   3
ATOM      3  C   UNL A   1      34.919  23.481  24.531  1.00  0.00     0.310 C 
ATOM      4  O   UNL A   1      35.575  24.409  24.990  1.00  0.00    -0.252 OA
BRANCH   3   5
ATOM      5  C   UNL A   1      33.462  23.194  24.886  1.00  0.00     0.115 C 
ATOM      6  C   UNL A   1      33.132  23.801  26.272  1.00  0.00     0.097 C 
ATOM      7  C   UNL A   1      33.777  23.025  27.435  1.00  0.00     0.041 C 
ATOM      8  C   UNL A   1      33.910  21.549  27.208  1.00  0.00    -0.030 C 
ATOM      9  C   UNL A   1      33.208  21.684  24.812  1.00  0.00     0.043 C 
ATOM     10  C   UNL A   1      33.641  20.946  26.043  1.00  0.00    -0.030 C 
BRANCH   6  11
ATOM     11  C   UNL A   1      31.632  23.943  26.528  1.00  0.00     0.224 C 
ATOM     12  N   UNL A   1      30.879  24.763  25.730  1.00  0.00    -0.349 N 
ATOM     13  H   UNL A   1      30.029  25.069  26.121  1.00  0.00     0.164 HD
ATOM     14  O   UNL A   1      31.070  23.382  27.470  1.00  0.00    -0.275 OA
BRANCH  12  15
ATOM     15  C   UNL A   1      31.158  25.248  24.380  1.00  0.00     0.113 C 
ATOM     16  C   UNL A   1      30.436  24.357  23.360  1.00  0.00     0.036 C 
BRANCH  15  17
ATOM     17  C   UNL A   1      30.817  26.715  24.198  1.00  0.00     0.019 A 
ATOM     18  C   UNL A   1      31.647  27.729  24.731  1.00  0.00     0.124 A 
ATOM     19  C   UNL A   1      31.367  29.080  24.478  1.00  0.00     0.050 A 
ATOM     20  C   UNL A   1      30.254  29.436  23.718  1.00  0.00     0.043 A 
ATOM     21  C   UNL A   1      29.686  27.099  23.454  1.00  0.00     0.049 A 
ATOM     22  C   UNL A   1      29.422  28.445  23.220  1.00  0.00     0.123 A 
ATOM     23  F   UNL A   1      28.356  28.788  22.485  1.00  0.00    -0.207 F 
BRANCH  18  24
ATOM     24  O   UNL A   1      32.753  27.320  25.434  1.00  0.00    -0.496 OA
ATOM     25  C   UNL A   1      32.830  27.758  26.788  1.00  0.00     0.278 C 
ENDBRANCH  18  24
ENDBRANCH  15  17
ENDBRANCH  12  15
ENDBRANCH   6  11
ENDBRANCH   3   5
ENDBRANCH   2   3
ENDBRANCH   1   2
BRANCH   1  26
ATOM     26  C   UNL A   1      37.059  21.117  24.638  1.00  0.00     0.275 C 
BRANCH  26  27
ATOM     27  O   UNL A   1      37.570  21.601  25.893  1.00  0.00    -0.458 OA
BRANCH  27  28
ATOM     28  C   UNL A   1      38.897  21.453  26.091  1.00  0.00     0.338 C 
ATOM     29  O   UNL A   1      39.588  20.477  25.840  1.00  0.00    -0.246 OA
BRANCH  28  30
ATOM     30  C   UNL A   1      39.449  22.691  26.662  1.00  0.00     0.060 A 
ATOM     31  C   UNL A   1      38.981  23.920  26.209  1.00  0.00     0.016 A 
ATOM     32  C   UNL A   1      40.517  22.638  27.558  1.00  0.00     0.016 A 
ATOM     33  C   UNL A   1      39.626  25.093  26.590  1.00  0.00     0.010 A 
ATOM     34  C   UNL A   1      41.119  23.826  27.993  1.00  0.00     0.010 A 
ATOM     35  C   UNL A   1      40.708  25.069  27.479  1.00  0.00    -0.014 A 
BRANCH  35  36
ATOM     36  C   UNL A   1      41.454  26.326  27.784  1.00  0.00     0.031 A 
ATOM     37  C   UNL A   1      40.836  27.367  28.683  1.00  0.00     0.074 A 
ATOM     38  C   UNL A   1      42.711  26.523  27.337  1.00  0.00     0.049 A 
ATOM     39  N   UNL A   1      41.227  28.594  28.924  1.00  0.00    -0.248 NA
ATOM     40  C   UNL A   1      39.616  26.978  29.407  1.00  0.00     0.031 C 
ATOM     41  C   UNL A   1      43.490  25.573  26.545  1.00  0.00     0.029 A 
ATOM     42  N   UNL A   1      43.568  27.583  27.515  1.00  0.00    -0.354 N 
ATOM     43  C   UNL A   1      40.268  29.141  29.768  1.00  0.00     0.074 A 
ATOM     44  C   UNL A   1      39.283  28.110  30.012  1.00  0.00     0.031 C 
ATOM     45  C   UNL A   1      44.726  26.061  26.361  1.00  0.00     0.029 A 
ATOM     46  C   UNL A   1      44.798  27.403  26.930  1.00  0.00     0.049 A 
ATOM     47  H   UNL A   1      43.324  28.396  28.014  1.00  0.00     0.167 HD
ATOM     48  C   UNL A   1      40.211  30.392  30.283  1.00  0.00     0.037 A 
ATOM     49  C   UNL A   1      45.852  28.234  26.822  1.00  0.00     0.037 A 
ATOM     50  C   UNL A   1      41.225  31.397  30.100  1.00  0.00     0.049 A 
ATOM     51  C   UNL A   1      45.753  29.633  27.362  1.00  0.00     0.074 A 
ATOM     52  C   UNL A   1      41.239  32.704  30.560  1.00  0.00     0.029 A 
ATOM     53  N   UNL A   1      42.422  31.196  29.431  1.00  0.00    -0.354 N 
ATOM     54  N   UNL A   1      44.775  30.191  28.031  1.00  0.00    -0.248 NA
ATOM     55  C   UNL A   1      46.886  30.531  27.093  1.00  0.00     0.031 C 
ATOM     56  C   UNL A   1      42.435  33.300  30.150  1.00  0.00     0.029 A 
ATOM     57  C   UNL A   1      43.181  32.354  29.464  1.00  0.00     0.049 A 
ATOM     58  H   UNL A   1      42.692  30.355  28.998  1.00  0.00     0.167 HD
ATOM     59  C   UNL A   1      45.169  31.503  28.258  1.00  0.00     0.074 A 
ATOM     60  C   UNL A   1      46.486  31.653  27.677  1.00  0.00     0.031 C 
ATOM     61  C   UNL A   1      44.488  32.495  28.879  1.00  0.00     0.037 A 
BRANCH  48  62
ATOM     62  C   UNL A   1      38.990  30.768  31.067  1.00  0.00     0.064 A 
ATOM     63  C   UNL A   1      37.887  31.340  30.413  1.00  0.00     0.173 A 
ATOM     64  C   UNL A   1      38.928  30.622  32.458  1.00  0.00     0.173 A 
ATOM     65  F   UNL A   1      37.903  31.505  29.082  1.00  0.00    -0.203 F 
ATOM     66  C   UNL A   1      36.770  31.762  31.127  1.00  0.00     0.198 A 
ATOM     67  C   UNL A   1      37.797  31.025  33.168  1.00  0.00     0.198 A 
ATOM     68  F   UNL A   1      39.950  30.066  33.126  1.00  0.00    -0.203 F 
ATOM     69  F   UNL A   1      35.740  32.330  30.484  1.00  0.00    -0.200 F 
ATOM     70  C   UNL A   1      36.724  31.602  32.503  1.00  0.00     0.200 A 
ATOM     71  F   UNL A   1      37.745  30.850  34.496  1.00  0.00    -0.200 F 
ATOM     72  F   UNL A   1      35.645  32.000  33.190  1.00  0.00    -0.200 F 
ENDBRANCH  48  62
BRANCH  49  73
ATOM     73  C   UNL A   1      47.079  27.774  26.123  1.00  0.00     0.064 A 
ATOM     74  C   UNL A   1      47.160  27.766  24.722  1.00  0.00     0.173 A 
ATOM     75  C   UNL A   1      48.181  27.300  26.845  1.00  0.00     0.173 A 
ATOM     76  F   UNL A   1      46.132  28.213  23.987  1.00  0.00    -0.203 F 
ATOM     77  C   UNL A   1      48.286  27.269  24.071  1.00  0.00     0.198 A 
ATOM     78  C   UNL A   1      49.317  26.828  26.192  1.00  0.00     0.198 A 
ATOM     79  F   UNL A   1      48.160  27.311  28.186  1.00  0.00    -0.203 F 
ATOM     80  F   UNL A   1      48.319  27.230  22.731  1.00  0.00    -0.200 F 
ATOM     81  C   UNL A   1      49.365  26.803  24.806  1.00  0.00     0.200 A 
ATOM     82  F   UNL A   1      50.366  26.393  26.905  1.00  0.00    -0.200 F 
ATOM     83  F   UNL A   1      50.449  26.325  24.178  1.00  0.00    -0.200 F 
ENDBRANCH  49  73
BRANCH  61  84
ATOM     84  C   UNL A   1      45.147  33.837  28.969  1.00  0.00     0.064 A 
ATOM     85  C   UNL A   1      44.951  34.797  27.965  1.00  0.00     0.173 A 
ATOM     86  C   UNL A   1      46.031  34.143  30.012  1.00  0.00     0.173 A 
ATOM     87  F   UNL A   1      44.119  34.547  26.943  1.00  0.00    -0.203 F 
ATOM     88  C   UNL A   1      45.630  36.012  27.998  1.00  0.00     0.198 A 
ATOM     89  C   UNL A   1      46.694  35.366  30.052  1.00  0.00     0.198 A 
ATOM     90  F   UNL A   1      46.239  33.260  31.001  1.00  0.00    -0.203 F 
ATOM     91  F   UNL A   1      45.449  36.906  27.015  1.00  0.00    -0.200 F 
ATOM     92  C   UNL A   1      46.498  36.296  29.041  1.00  0.00     0.200 A 
ATOM     93  F   UNL A   1      47.518  35.648  31.070  1.00  0.00    -0.200 F 
ATOM     94  F   UNL A   1      47.147  37.469  29.075  1.00  0.00    -0.200 F 
ENDBRANCH  61  84
ENDBRANCH  35  36
ENDBRANCH  28  30
ENDBRANCH  27  28
ENDBRANCH  26  27
ENDBRANCH   1  26
TORSDOF 15
ENDMDL
MODEL 2
REMARK VINA RESULT:     -12.4      4.461      9.813
REMARK SMILES COc1ccc(F)cc1[C@H](C)NC(=O)[C@H]1CC=CC[C@@H]1C(=O)OCCOC(=O)c1ccc(-c2c3nc(c(-c4c(F)c(F)c(F)c(F)c4F)c4ccc([nH]4)c(-c4c(F)c(F)c(F)c(F)c4F)c4nc(c(-c5c(F)c(F)c(F)c(F)c5F)c5ccc2[nH]5)C=C4)C=C3)cc1
REMARK SMILES IDX 24 1 23 2 21 3 22 4 20 5 15 6 16 7 17 8 19 9 18 10 13 11
REMARK SMILES IDX 12 12 14 14 10 15 11 16 9 17 3 18 4 19 5 20 8 21 6 22 7 23
REMARK SMILES IDX 2 24 1 25 25 26 26 27 27 28 28 29 29 30 30 31 91 32 31 33
REMARK SMILES IDX 90 34 32 35 33 36 34 37 84 38 35 39 89 40 83 41 85 42 36 43
REMARK SMILES IDX 88 44 82 45 81 46 37 48 69 49 49 50 68 51 50 52 53 53 67 54
REMARK SMILES IDX 86 55 51 56 52 57 66 59 87 60 54 61 38 62 39 63 47 64 40 65
REMARK SMILES IDX 41 66 45 67 48 68 42 69 43 70 46 71 44 72 70 73 71 74 79 75
REMARK SMILES IDX 72 76 73 77 77 78 80 79 74 80 75 81 78 82 76 83 55 84 56 85
REMARK SMILES IDX 64 86 57 87 58 88 62 89 65 90 59 91 60 92 63 93 61 94
REMARK H PARENT 12 13 85 47 53 58
REMARK Flexibility Score: inf
ROOT
ATOM      1  C   UNL A   1      33.304  28.818  24.693  1.00  0.00     0.274 C 
ENDROOT
BRANCH   1   2
ATOM      2  O   UNL A   1      33.471  27.791  25.694  1.00  0.00    -0.462 OA
BRANCH   2   3
ATOM      3  C   UNL A   1      33.307  26.510  25.258  1.00  0.00     0.310 C 
ATOM      4  O   UNL A   1      33.925  26.016  24.322  1.00  0.00    -0.252 OA
BRANCH   3   5
ATOM      5  C   UNL A   1      32.281  25.761  26.106  1.00  0.00     0.115 C 
ATOM      6  C   UNL A   1      32.008  24.368  25.488  1.00  0.00     0.097 C 
ATOM      7  C   UNL A   1      31.180  24.440  24.192  1.00  0.00     0.041 C 
ATOM      8  C   UNL A   1      30.181  25.557  24.145  1.00  0.00    -0.030 C 
ATOM      9  C   UNL A   1      31.017  26.617  26.249  1.00  0.00     0.043 C 
ATOM     10  C   UNL A   1      30.096  26.521  25.070  1.00  0.00    -0.030 C 
BRANCH   6  11
ATOM     11  C   UNL A   1      31.342  23.395  26.460  1.00  0.00     0.224 C 
ATOM     12  N   UNL A   1      31.747  22.087  26.499  1.00  0.00    -0.349 N 
ATOM     13  H   UNL A   1      31.095  21.454  26.878  1.00  0.00     0.164 HD
ATOM     14  O   UNL A   1      30.405  23.730  27.187  1.00  0.00    -0.275 OA
BRANCH  12  15
ATOM     15  C   UNL A   1      33.009  21.497  26.058  1.00  0.00     0.113 C 
ATOM     16  C   UNL A   1      33.965  21.386  27.254  1.00  0.00     0.036 C 
BRANCH  15  17
ATOM     17  C   UNL A   1      32.824  20.168  25.351  1.00  0.00     0.019 A 
ATOM     18  C   UNL A   1      32.528  20.111  23.969  1.00  0.00     0.124 A 
ATOM     19  C   UNL A   1      32.449  18.874  23.312  1.00  0.00     0.050 A 
ATOM     20  C   UNL A   1      32.638  17.689  24.020  1.00  0.00     0.043 A 
ATOM     21  C   UNL A   1      32.988  18.957  26.050  1.00  0.00     0.049 A 
ATOM     22  C   UNL A   1      32.899  17.741  25.381  1.00  0.00     0.123 A 
ATOM     23  F   UNL A   1      33.086  16.601  26.060  1.00  0.00    -0.207 F 
BRANCH  18  24
ATOM     24  O   UNL A   1      32.396  21.309  23.313  1.00  0.00    -0.496 OA
ATOM     25  C   UNL A   1      31.932  21.237  21.967  1.00  0.00     0.278 C 
ENDBRANCH  18  24
ENDBRANCH  15  17
ENDBRANCH  12  15
ENDBRANCH   6  11
ENDBRANCH   3   5
ENDBRANCH   2   3
ENDBRANCH   1   2
BRANCH   1  26
ATOM     26  C   UNL A   1      32.375  29.924  25.186  1.00  0.00     0.275 C 
BRANCH  26  27
ATOM     27  O   UNL A   1      32.466  30.037  26.617  1.00  0.00    -0.458 OA
BRANCH  27  28
ATOM     28  C   UNL A   1      33.012  31.179  27.088  1.00  0.00     0.338 C 
ATOM     29  O   UNL A   1      32.519  32.296  27.099  1.00  0.00    -0.246 OA
BRANCH  28  30
ATOM     30  C   UNL A   1      34.346  30.895  27.638  1.00  0.00     0.060 A 
ATOM     31  C   UNL A   1      34.702  29.580  27.921  1.00  0.00     0.016 A 
ATOM     32  C   UNL A   1      35.200  31.940  27.990  1.00  0.00     0.016 A 
ATOM     33  C   UNL A   1      35.875  29.312  28.620  1.00  0.00     0.010 A 
ATOM     34  C   UNL A   1      36.413  31.659  28.633  1.00  0.00     0.010 A 
ATOM     35  C   UNL A   1      36.746  30.343  28.996  1.00  0.00    -0.014 A 
BRANCH  35  36
ATOM     36  C   UNL A   1      37.939  30.042  29.843  1.00  0.00     0.031 A 
ATOM     37  C   UNL A   1      39.092  29.261  29.268  1.00  0.00     0.074 A 
ATOM     38  C   UNL A   1      38.048  30.525  31.098  1.00  0.00     0.049 A 
ATOM     39  N   UNL A   1      40.128  28.738  29.877  1.00  0.00    -0.248 NA
ATOM     40  C   UNL A   1      39.080  29.035  27.814  1.00  0.00     0.031 C 
ATOM     41  C   UNL A   1      37.071  31.382  31.768  1.00  0.00     0.029 A 
ATOM     42  N   UNL A   1      39.053  30.385  32.026  1.00  0.00    -0.354 N 
ATOM     43  C   UNL A   1      40.848  28.068  28.896  1.00  0.00     0.074 A 
ATOM     44  C   UNL A   1      40.143  28.261  27.648  1.00  0.00     0.031 C 
ATOM     45  C   UNL A   1      37.551  31.745  32.967  1.00  0.00     0.029 A 
ATOM     46  C   UNL A   1      38.820  31.063  33.198  1.00  0.00     0.049 A 
ATOM     47  H   UNL A   1      39.863  29.849  31.867  1.00  0.00     0.167 HD
ATOM     48  C   UNL A   1      41.989  27.350  29.029  1.00  0.00     0.037 A 
ATOM     49  C   UNL A   1      39.521  31.100  34.348  1.00  0.00     0.037 A 
ATOM     50  C   UNL A   1      42.731  27.215  30.254  1.00  0.00     0.049 A 
ATOM     51  C   UNL A   1      40.760  30.263  34.490  1.00  0.00     0.074 A 
ATOM     52  C   UNL A   1      43.882  26.482  30.491  1.00  0.00     0.029 A 
ATOM     53  N   UNL A   1      42.414  27.856  31.441  1.00  0.00    -0.354 N 
ATOM     54  N   UNL A   1      41.353  29.510  33.597  1.00  0.00    -0.248 NA
ATOM     55  C   UNL A   1      41.402  30.245  35.812  1.00  0.00     0.031 C 
ATOM     56  C   UNL A   1      44.250  26.663  31.828  1.00  0.00     0.029 A 
ATOM     57  C   UNL A   1      43.346  27.534  32.414  1.00  0.00     0.049 A 
ATOM     58  H   UNL A   1      41.642  28.452  31.573  1.00  0.00     0.167 HD
ATOM     59  C   UNL A   1      42.431  28.925  34.248  1.00  0.00     0.074 A 
ATOM     60  C   UNL A   1      42.427  29.428  35.604  1.00  0.00     0.031 C 
ATOM     61  C   UNL A   1      43.331  28.037  33.762  1.00  0.00     0.037 A 
BRANCH  48  62
ATOM     62  C   UNL A   1      42.493  26.614  27.824  1.00  0.00     0.064 A 
ATOM     63  C   UNL A   1      42.090  25.288  27.594  1.00  0.00     0.173 A 
ATOM     64  C   UNL A   1      43.411  27.186  26.935  1.00  0.00     0.173 A 
ATOM     65  F   UNL A   1      41.217  24.695  28.422  1.00  0.00    -0.203 F 
ATOM     66  C   UNL A   1      42.598  24.560  26.523  1.00  0.00     0.198 A 
ATOM     67  C   UNL A   1      43.899  26.461  25.849  1.00  0.00     0.198 A 
ATOM     68  F   UNL A   1      43.812  28.455  27.103  1.00  0.00    -0.203 F 
ATOM     69  F   UNL A   1      42.219  23.287  26.340  1.00  0.00    -0.200 F 
ATOM     70  C   UNL A   1      43.500  25.148  25.649  1.00  0.00     0.200 A 
ATOM     71  F   UNL A   1      44.755  27.037  24.992  1.00  0.00    -0.200 F 
ATOM     72  F   UNL A   1      43.982  24.449  24.612  1.00  0.00    -0.200 F 
ENDBRANCH  48  62
BRANCH  49  73
ATOM     73  C   UNL A   1      39.030  31.930  35.478  1.00  0.00     0.064 A 
ATOM     74  C   UNL A   1      39.378  33.283  35.594  1.00  0.00     0.173 A 
ATOM     75  C   UNL A   1      38.229  31.372  36.482  1.00  0.00     0.173 A 
ATOM     76  F   UNL A   1      40.141  33.863  34.656  1.00  0.00    -0.203 F 
ATOM     77  C   UNL A   1      38.972  34.038  36.692  1.00  0.00     0.198 A 
ATOM     78  C   UNL A   1      37.801  32.135  37.566  1.00  0.00     0.198 A 
ATOM     79  F   UNL A   1      37.849  30.088  36.402  1.00  0.00    -0.203 F 
ATOM     80  F   UNL A   1      39.358  35.318  36.801  1.00  0.00    -0.200 F 
ATOM     81  C   UNL A   1      38.182  33.465  37.675  1.00  0.00     0.200 A 
ATOM     82  F   UNL A   1      37.022  31.583  38.507  1.00  0.00    -0.200 F 
ATOM     83  F   UNL A   1      37.790  34.192  38.730  1.00  0.00    -0.200 F 
ENDBRANCH  49  73
BRANCH  61  84
ATOM     84  C   UNL A   1      44.394  27.546  34.697  1.00  0.00     0.064 A 
ATOM     85  C   UNL A   1      44.176  26.412  35.493  1.00  0.00     0.173 A 
ATOM     86  C   UNL A   1      45.597  28.245  34.858  1.00  0.00     0.173 A 
ATOM     87  F   UNL A   1      43.036  25.714  35.378  1.00  0.00    -0.203 F 
ATOM     88  C   UNL A   1      45.124  26.003  36.426  1.00  0.00     0.198 A 
ATOM     89  C   UNL A   1      46.551  27.823  35.779  1.00  0.00     0.198 A 
ATOM     90  F   UNL A   1      45.854  29.329  34.110  1.00  0.00    -0.203 F 
ATOM     91  F   UNL A   1      44.886  24.931  37.195  1.00  0.00    -0.200 F 
ATOM     92  C   UNL A   1      46.311  26.706  36.568  1.00  0.00     0.200 A 
ATOM     93  F   UNL A   1      47.705  28.492  35.903  1.00  0.00    -0.200 F 
ATOM     94  F   UNL A   1      47.225  26.309  37.463  1.00  0.00    -0.200 F 
ENDBRANCH  61  84
ENDBRANCH  35  36
ENDBRANCH  28  30
ENDBRANCH  27  28
ENDBRANCH  26  27
ENDBRANCH   1  26
TORSDOF 15
ENDMDL
MODEL 3
REMARK VINA RESULT:     -12.3      4.271      9.757
REMARK SMILES COc1ccc(F)cc1[C@H](C)NC(=O)[C@H]1CC=CC[C@@H]1C(=O)OCCOC(=O)c1ccc(-c2c3nc(c(-c4c(F)c(F)c(F)c(F)c4F)c4ccc([nH]4)c(-c4c(F)c(F)c(F)c(F)c4F)c4nc(c(-c5c(F)c(F)c(F)c(F)c5F)c5ccc2[nH]5)C=C4)C=C3)cc1
REMARK SMILES IDX 24 1 23 2 21 3 22 4 20 5 15 6 16 7 17 8 19 9 18 10 13 11
REMARK SMILES IDX 12 12 14 14 10 15 11 16 9 17 3 18 4 19 5 20 8 21 6 22 7 23
REMARK SMILES IDX 2 24 1 25 25 26 26 27 27 28 28 29 29 30 30 31 91 32 31 33
REMARK SMILES IDX 90 34 32 35 33 36 34 37 84 38 35 39 89 40 83 41 85 42 36 43
REMARK SMILES IDX 88 44 82 45 81 46 37 48 69 49 49 50 68 51 50 52 53 53 67 54
REMARK SMILES IDX 86 55 51 56 52 57 66 59 87 60 54 61 38 62 39 63 47 64 40 65
REMARK SMILES IDX 41 66 45 67 48 68 42 69 43 70 46 71 44 72 70 73 71 74 79 75
REMARK SMILES IDX 72 76 73 77 77 78 80 79 74 80 75 81 78 82 76 83 55 84 56 85
REMARK SMILES IDX 64 86 57 87 58 88 62 89 65 90 59 91 60 92 63 93 61 94
REMARK H PARENT 12 13 85 47 53 58
REMARK Flexibility Score: inf
ROOT
ATOM      1  C   UNL A   1      31.729  28.993  27.218  1.00  0.00     0.274 C 
ENDROOT
BRANCH   1   2
ATOM      2  O   UNL A   1      31.383  27.899  26.342  1.00  0.00    -0.462 OA
BRANCH   2   3
ATOM      3  C   UNL A   1      32.435  27.199  25.829  1.00  0.00     0.310 C 
ATOM      4  O   UNL A   1      33.483  26.992  26.429  1.00  0.00    -0.252 OA
BRANCH   3   5
ATOM      5  C   UNL A   1      32.126  26.678  24.427  1.00  0.00     0.115 C 
ATOM      6  C   UNL A   1      33.439  26.538  23.618  1.00  0.00     0.097 C 
ATOM      7  C   UNL A   1      34.032  27.896  23.200  1.00  0.00     0.041 C 
ATOM      8  C   UNL A   1      33.018  28.965  22.920  1.00  0.00    -0.030 C 
ATOM      9  C   UNL A   1      31.099  27.599  23.757  1.00  0.00     0.043 C 
ATOM     10  C   UNL A   1      31.707  28.829  23.153  1.00  0.00    -0.030 C 
BRANCH   6  11
ATOM     11  C   UNL A   1      33.298  25.645  22.386  1.00  0.00     0.224 C 
ATOM     12  N   UNL A   1      32.972  24.323  22.536  1.00  0.00    -0.349 N 
ATOM     13  H   UNL A   1      33.212  23.741  21.780  1.00  0.00     0.164 HD
ATOM     14  O   UNL A   1      33.519  26.058  21.247  1.00  0.00    -0.275 OA
BRANCH  12  15
ATOM     15  C   UNL A   1      32.319  23.654  23.659  1.00  0.00     0.113 C 
ATOM     16  C   UNL A   1      30.816  23.531  23.376  1.00  0.00     0.036 C 
BRANCH  15  17
ATOM     17  C   UNL A   1      32.948  22.315  23.995  1.00  0.00     0.019 A 
ATOM     18  C   UNL A   1      34.173  22.239  24.698  1.00  0.00     0.124 A 
ATOM     19  C   UNL A   1      34.695  20.994  25.079  1.00  0.00     0.050 A 
ATOM     20  C   UNL A   1      34.023  19.819  24.747  1.00  0.00     0.043 A 
ATOM     21  C   UNL A   1      32.299  21.115  23.650  1.00  0.00     0.049 A 
ATOM     22  C   UNL A   1      32.837  19.890  24.032  1.00  0.00     0.123 A 
ATOM     23  F   UNL A   1      32.189  18.760  23.718  1.00  0.00    -0.207 F 
BRANCH  18  24
ATOM     24  O   UNL A   1      34.769  23.428  25.037  1.00  0.00    -0.496 OA
ATOM     25  C   UNL A   1      36.096  23.622  24.554  1.00  0.00     0.278 C 
ENDBRANCH  18  24
ENDBRANCH  15  17
ENDBRANCH  12  15
ENDBRANCH   6  11
ENDBRANCH   3   5
ENDBRANCH   2   3
ENDBRANCH   1   2
BRANCH   1  26
ATOM     26  C   UNL A   1      31.847  30.304  26.444  1.00  0.00     0.275 C 
BRANCH  26  27
ATOM     27  O   UNL A   1      33.230  30.685  26.338  1.00  0.00    -0.458 OA
BRANCH  27  28
ATOM     28  C   UNL A   1      33.652  31.634  27.201  1.00  0.00     0.338 C 
ATOM     29  O   UNL A   1      33.081  32.666  27.518  1.00  0.00    -0.246 OA
BRANCH  28  30
ATOM     30  C   UNL A   1      34.954  31.242  27.764  1.00  0.00     0.060 A 
ATOM     31  C   UNL A   1      35.152  29.928  28.176  1.00  0.00     0.016 A 
ATOM     32  C   UNL A   1      35.937  32.203  27.999  1.00  0.00     0.016 A 
ATOM     33  C   UNL A   1      36.298  29.588  28.887  1.00  0.00     0.010 A 
ATOM     34  C   UNL A   1      37.121  31.839  28.655  1.00  0.00     0.010 A 
ATOM     35  C   UNL A   1      37.297  30.534  29.148  1.00  0.00    -0.014 A 
BRANCH  35  36
ATOM     36  C   UNL A   1      38.462  30.174  30.009  1.00  0.00     0.031 A 
ATOM     37  C   UNL A   1      39.584  29.340  29.446  1.00  0.00     0.074 A 
ATOM     38  C   UNL A   1      38.578  30.647  31.267  1.00  0.00     0.049 A 
ATOM     39  N   UNL A   1      40.585  28.766  30.067  1.00  0.00    -0.248 NA
ATOM     40  C   UNL A   1      39.581  29.120  27.992  1.00  0.00     0.031 C 
ATOM     41  C   UNL A   1      37.635  31.548  31.927  1.00  0.00     0.029 A 
ATOM     42  N   UNL A   1      39.562  30.456  32.208  1.00  0.00    -0.354 N 
ATOM     43  C   UNL A   1      41.286  28.064  29.093  1.00  0.00     0.074 A 
ATOM     44  C   UNL A   1      40.607  28.295  27.836  1.00  0.00     0.031 C 
ATOM     45  C   UNL A   1      38.116  31.884  33.134  1.00  0.00     0.029 A 
ATOM     46  C   UNL A   1      39.347  31.141  33.379  1.00  0.00     0.049 A 
ATOM     47  H   UNL A   1      40.348  29.882  32.057  1.00  0.00     0.167 HD
ATOM     48  C   UNL A   1      42.388  27.291  29.238  1.00  0.00     0.037 A 
ATOM     49  C   UNL A   1      40.034  31.141  34.538  1.00  0.00     0.037 A 
ATOM     50  C   UNL A   1      43.107  27.117  30.472  1.00  0.00     0.049 A 
ATOM     51  C   UNL A   1      41.229  30.244  34.693  1.00  0.00     0.074 A 
ATOM     52  C   UNL A   1      44.218  26.329  30.721  1.00  0.00     0.029 A 
ATOM     53  N   UNL A   1      42.805  27.769  31.657  1.00  0.00    -0.354 N 
ATOM     54  N   UNL A   1      41.797  29.466  33.805  1.00  0.00    -0.248 NA
ATOM     55  C   UNL A   1      41.852  30.191  36.024  1.00  0.00     0.031 C 
ATOM     56  C   UNL A   1      44.576  26.487  32.064  1.00  0.00     0.029 A 
ATOM     57  C   UNL A   1      43.708  27.400  32.642  1.00  0.00     0.049 A 
ATOM     58  H   UNL A   1      42.061  28.401  31.782  1.00  0.00     0.167 HD
ATOM     59  C   UNL A   1      42.836  28.827  34.468  1.00  0.00     0.074 A 
ATOM     60  C   UNL A   1      42.839  29.326  35.827  1.00  0.00     0.031 C 
ATOM     61  C   UNL A   1      43.699  27.899  33.991  1.00  0.00     0.037 A 
BRANCH  48  62
ATOM     62  C   UNL A   1      42.872  26.536  28.037  1.00  0.00     0.064 A 
ATOM     63  C   UNL A   1      43.770  27.141  27.143  1.00  0.00     0.173 A 
ATOM     64  C   UNL A   1      42.410  25.248  27.735  1.00  0.00     0.173 A 
ATOM     65  F   UNL A   1      44.235  28.376  27.387  1.00  0.00    -0.203 F 
ATOM     66  C   UNL A   1      44.178  26.488  25.985  1.00  0.00     0.198 A 
ATOM     67  C   UNL A   1      42.840  24.588  26.586  1.00  0.00     0.198 A 
ATOM     68  F   UNL A   1      41.564  24.622  28.567  1.00  0.00    -0.203 F 
ATOM     69  F   UNL A   1      45.015  27.097  25.133  1.00  0.00    -0.200 F 
ATOM     70  C   UNL A   1      43.716  25.211  25.708  1.00  0.00     0.200 A 
ATOM     71  F   UNL A   1      42.409  23.344  26.329  1.00  0.00    -0.200 F 
ATOM     72  F   UNL A   1      44.117  24.578  24.597  1.00  0.00    -0.200 F 
ENDBRANCH  48  62
BRANCH  49  73
ATOM     73  C   UNL A   1      39.568  31.989  35.665  1.00  0.00     0.064 A 
ATOM     74  C   UNL A   1      40.124  33.255  35.902  1.00  0.00     0.173 A 
ATOM     75  C   UNL A   1      38.580  31.533  36.546  1.00  0.00     0.173 A 
ATOM     76  F   UNL A   1      41.072  33.736  35.085  1.00  0.00    -0.203 F 
ATOM     77  C   UNL A   1      39.733  34.017  37.000  1.00  0.00     0.198 A 
ATOM     78  C   UNL A   1      38.171  32.308  37.628  1.00  0.00     0.198 A 
ATOM     79  F   UNL A   1      38.001  30.340  36.345  1.00  0.00    -0.203 F 
ATOM     80  F   UNL A   1      40.315  35.203  37.230  1.00  0.00    -0.200 F 
ATOM     81  C   UNL A   1      38.755  33.545  37.860  1.00  0.00     0.200 A 
ATOM     82  F   UNL A   1      37.212  31.857  38.449  1.00  0.00    -0.200 F 
ATOM     83  F   UNL A   1      38.378  34.279  38.917  1.00  0.00    -0.200 F 
ENDBRANCH  49  73
BRANCH  61  84
ATOM     84  C   UNL A   1      44.724  27.354  34.938  1.00  0.00     0.064 A 
ATOM     85  C   UNL A   1      45.982  27.964  35.056  1.00  0.00     0.173 A 
ATOM     86  C   UNL A   1      44.486  26.184  35.670  1.00  0.00     0.173 A 
ATOM     87  F   UNL A   1      46.259  29.082  34.370  1.00  0.00    -0.203 F 
ATOM     88  C   UNL A   1      46.969  27.411  35.867  1.00  0.00     0.198 A 
ATOM     89  C   UNL A   1      45.469  25.644  36.494  1.00  0.00     0.198 A 
ATOM     90  F   UNL A   1      43.293  25.573  35.597  1.00  0.00    -0.203 F 
ATOM     91  F   UNL A   1      48.173  27.995  35.947  1.00  0.00    -0.200 F 
ATOM     92  C   UNL A   1      46.712  26.254  36.586  1.00  0.00     0.200 A 
ATOM     93  F   UNL A   1      45.214  24.536  37.204  1.00  0.00    -0.200 F 
ATOM     94  F   UNL A   1      47.661  25.725  37.371  1.00  0.00    -0.200 F 
ENDBRANCH  61  84
ENDBRANCH  35  36
ENDBRANCH  28  30
ENDBRANCH  27  28
ENDBRANCH  26  27
ENDBRANCH   1  26
TORSDOF 15
ENDMDL
