MODEL 1
REMARK VINA RESULT:     -12.1      0.000      0.000
REMARK SMILES [NH3+]C1(C(=O)N2[C@@H](C(=O)OCCOC(=O)c3ccc(-c4c5nc(c(-c6c(F)c(F)c(F)c(F)c6F)c6ccc([nH]6)c(-c6c(F)c(F)c(F)c(F)c6F)c6nc(c(-c7c(F)c(F)c(F)c(F)c7F)c7ccc4[nH]7)C=C6)C=C5)cc3)CC[C@@H]3CCCC[C@@H]32)CC1
REMARK SMILES IDX 10 1 9 2 7 3 8 4 6 5 5 6 85 7 78 8 80 9 84 10 79 11 81 12
REMARK SMILES IDX 83 13 82 14 3 15 4 16 2 17 86 18 87 19 1 20 11 24 12 25
REMARK SMILES IDX 13 26 14 27 15 28 16 29 77 30 17 31 76 32 18 33 19 34 20 35
REMARK SMILES IDX 70 36 21 37 75 38 69 39 71 40 22 41 74 42 68 43 67 44 23 46
REMARK SMILES IDX 55 47 35 48 54 49 36 50 39 51 53 52 72 53 37 54 38 55 52 57
REMARK SMILES IDX 73 58 40 59 24 60 25 61 33 62 26 63 27 64 31 65 34 66 28 67
REMARK SMILES IDX 29 68 32 69 30 70 56 71 57 72 65 73 58 74 59 75 63 76 66 77
REMARK SMILES IDX 60 78 61 79 64 80 62 81 41 82 42 83 50 84 43 85 44 86 48 87
REMARK SMILES IDX 51 88 45 89 46 90 49 91 47 92
REMARK H PARENT 1 21 1 22 1 23 71 45 39 56
REMARK Flexibility Score: inf
ROOT
ATOM      1  C   UNL A   1      31.463  28.556  25.129  1.00  0.00     0.274 C 
ENDROOT
BRANCH   1   2
ATOM      2  O   UNL A   1      32.366  27.537  25.604  1.00  0.00    -0.461 OA
BRANCH   2   3
ATOM      3  C   UNL A   1      31.764  26.457  26.165  1.00  0.00     0.328 C 
ATOM      4  O   UNL A   1      30.782  26.536  26.896  1.00  0.00    -0.250 OA
BRANCH   3   5
ATOM      5  C   UNL A   1      32.383  25.115  25.738  1.00  0.00     0.195 C 
ATOM      6  N   UNL A   1      32.654  24.893  24.303  1.00  0.00    -0.320 N 
ATOM      7  C   UNL A   1      33.480  23.711  23.983  1.00  0.00     0.089 C 
ATOM      8  C   UNL A   1      31.822  23.874  26.432  1.00  0.00     0.037 C 
ATOM      9  C   UNL A   1      33.013  22.443  24.742  1.00  0.00     0.012 C 
ATOM     10  C   UNL A   1      34.974  24.029  24.168  1.00  0.00     0.025 C 
ATOM     11  C   UNL A   1      32.800  22.712  26.240  1.00  0.00     0.008 C 
ATOM     12  C   UNL A   1      33.970  21.265  24.509  1.00  0.00     0.006 C 
ATOM     13  C   UNL A   1      35.876  22.816  23.965  1.00  0.00     0.002 C 
ATOM     14  C   UNL A   1      35.427  21.614  24.787  1.00  0.00     0.000 C 
BRANCH   6  15
ATOM     15  C   UNL A   1      31.653  25.189  23.386  1.00  0.00     0.284 C 
ATOM     16  O   UNL A   1      30.582  24.589  23.349  1.00  0.00    -0.268 OA
BRANCH  15  17
ATOM     17  C   UNL A   1      31.985  26.204  22.295  1.00  0.00     0.174 C 
ATOM     18  C   UNL A   1      32.726  25.689  21.069  1.00  0.00     0.086 C 
ATOM     19  C   UNL A   1      33.381  26.680  21.969  1.00  0.00     0.086 C 
BRANCH  17  20
ATOM     20  N   UNL A   1      30.858  27.136  22.017  1.00  0.00    -0.345 N 
ATOM     21  H   UNL A   1      30.014  26.600  21.815  1.00  0.00     0.345 HD
ATOM     22  H   UNL A   1      31.090  27.719  21.211  1.00  0.00     0.345 HD
ATOM     23  H   UNL A   1      30.699  27.729  22.830  1.00  0.00     0.345 HD
ENDBRANCH  17  20
ENDBRANCH  15  17
ENDBRANCH   6  15
ENDBRANCH   3   5
ENDBRANCH   2   3
ENDBRANCH   1   2
BRANCH   1  24
ATOM     24  C   UNL A   1      31.744  29.937  25.744  1.00  0.00     0.275 C 
BRANCH  24  25
ATOM     25  O   UNL A   1      33.143  30.179  26.009  1.00  0.00    -0.458 OA
BRANCH  25  26
ATOM     26  C   UNL A   1      33.401  31.153  26.915  1.00  0.00     0.338 C 
ATOM     27  O   UNL A   1      32.634  32.023  27.293  1.00  0.00    -0.246 OA
BRANCH  26  28
ATOM     28  C   UNL A   1      34.715  30.946  27.552  1.00  0.00     0.060 A 
ATOM     29  C   UNL A   1      35.032  29.648  27.964  1.00  0.00     0.016 A 
ATOM     30  C   UNL A   1      35.580  31.997  27.846  1.00  0.00     0.016 A 
ATOM     31  C   UNL A   1      36.196  29.381  28.668  1.00  0.00     0.010 A 
ATOM     32  C   UNL A   1      36.760  31.733  28.556  1.00  0.00     0.010 A 
ATOM     33  C   UNL A   1      37.069  30.425  28.974  1.00  0.00    -0.014 A 
BRANCH  33  34
ATOM     34  C   UNL A   1      38.278  30.134  29.775  1.00  0.00     0.031 A 
ATOM     35  C   UNL A   1      39.343  29.241  29.215  1.00  0.00     0.074 A 
ATOM     36  C   UNL A   1      38.440  30.714  30.979  1.00  0.00     0.049 A 
ATOM     37  N   UNL A   1      40.401  28.746  29.802  1.00  0.00    -0.248 NA
ATOM     38  C   UNL A   1      39.200  28.860  27.802  1.00  0.00     0.031 C 
ATOM     39  C   UNL A   1      37.521  31.682  31.578  1.00  0.00     0.029 A 
ATOM     40  N   UNL A   1      39.432  30.568  31.914  1.00  0.00    -0.354 N 
ATOM     41  C   UNL A   1      41.034  27.969  28.842  1.00  0.00     0.074 A 
ATOM     42  C   UNL A   1      40.243  28.060  27.633  1.00  0.00     0.031 C 
ATOM     43  C   UNL A   1      37.985  32.031  32.789  1.00  0.00     0.029 A 
ATOM     44  C   UNL A   1      39.194  31.263  33.073  1.00  0.00     0.049 A 
ATOM     45  H   UNL A   1      40.235  30.018  31.768  1.00  0.00     0.167 HD
ATOM     46  C   UNL A   1      42.170  27.243  28.969  1.00  0.00     0.037 A 
ATOM     47  C   UNL A   1      39.847  31.237  34.250  1.00  0.00     0.037 A 
ATOM     48  C   UNL A   1      42.954  27.178  30.174  1.00  0.00     0.049 A 
ATOM     49  C   UNL A   1      41.043  30.338  34.400  1.00  0.00     0.074 A 
ATOM     50  C   UNL A   1      44.125  26.477  30.406  1.00  0.00     0.029 A 
ATOM     51  N   UNL A   1      42.644  27.841  31.353  1.00  0.00    -0.354 N 
ATOM     52  N   UNL A   1      41.616  29.569  33.506  1.00  0.00    -0.248 NA
ATOM     53  C   UNL A   1      41.669  30.286  35.728  1.00  0.00     0.031 C 
ATOM     54  C   UNL A   1      44.497  26.679  31.740  1.00  0.00     0.029 A 
ATOM     55  C   UNL A   1      43.583  27.540  32.326  1.00  0.00     0.049 A 
ATOM     56  H   UNL A   1      41.870  28.436  31.479  1.00  0.00     0.167 HD
ATOM     57  C   UNL A   1      42.673  28.949  34.157  1.00  0.00     0.074 A 
ATOM     58  C   UNL A   1      42.674  29.447  35.517  1.00  0.00     0.031 C 
ATOM     59  C   UNL A   1      43.559  28.043  33.676  1.00  0.00     0.037 A 
BRANCH  46  60
ATOM     60  C   UNL A   1      42.602  26.422  27.791  1.00  0.00     0.064 A 
ATOM     61  C   UNL A   1      42.102  25.134  27.561  1.00  0.00     0.173 A 
ATOM     62  C   UNL A   1      43.515  26.949  26.865  1.00  0.00     0.173 A 
ATOM     63  F   UNL A   1      41.241  24.578  28.426  1.00  0.00    -0.203 F 
ATOM     64  C   UNL A   1      42.515  24.394  26.455  1.00  0.00     0.198 A 
ATOM     65  C   UNL A   1      43.907  26.218  25.748  1.00  0.00     0.198 A 
ATOM     66  F   UNL A   1      44.023  28.179  27.040  1.00  0.00    -0.203 F 
ATOM     67  F   UNL A   1      42.056  23.147  26.274  1.00  0.00    -0.200 F 
ATOM     68  C   UNL A   1      43.412  24.938  25.547  1.00  0.00     0.200 A 
ATOM     69  F   UNL A   1      44.767  26.749  24.868  1.00  0.00    -0.200 F 
ATOM     70  F   UNL A   1      43.804  24.226  24.482  1.00  0.00    -0.200 F 
ENDBRANCH  46  60
BRANCH  47  71
ATOM     71  C   UNL A   1      39.340  32.037  35.395  1.00  0.00     0.064 A 
ATOM     72  C   UNL A   1      39.692  33.383  35.550  1.00  0.00     0.173 A 
ATOM     73  C   UNL A   1      38.499  31.465  36.363  1.00  0.00     0.173 A 
ATOM     74  F   UNL A   1      40.517  33.965  34.667  1.00  0.00    -0.203 F 
ATOM     75  C   UNL A   1      39.230  34.127  36.635  1.00  0.00     0.198 A 
ATOM     76  C   UNL A   1      38.015  32.216  37.430  1.00  0.00     0.198 A 
ATOM     77  F   UNL A   1      38.139  30.177  36.264  1.00  0.00    -0.203 F 
ATOM     78  F   UNL A   1      39.614  35.401  36.783  1.00  0.00    -0.200 F 
ATOM     79  C   UNL A   1      38.385  33.545  37.569  1.00  0.00     0.200 A 
ATOM     80  F   UNL A   1      37.191  31.653  38.325  1.00  0.00    -0.200 F 
ATOM     81  F   UNL A   1      37.937  34.262  38.609  1.00  0.00    -0.200 F 
ENDBRANCH  47  71
BRANCH  59  82
ATOM     82  C   UNL A   1      44.607  27.543  34.625  1.00  0.00     0.064 A 
ATOM     83  C   UNL A   1      45.812  28.234  34.813  1.00  0.00     0.173 A 
ATOM     84  C   UNL A   1      44.386  26.383  35.383  1.00  0.00     0.173 A 
ATOM     85  F   UNL A   1      46.075  29.337  34.096  1.00  0.00    -0.203 F 
ATOM     86  C   UNL A   1      46.768  27.771  35.713  1.00  0.00     0.198 A 
ATOM     87  C   UNL A   1      45.332  25.939  36.302  1.00  0.00     0.198 A 
ATOM     88  F   UNL A   1      43.247  25.690  35.242  1.00  0.00    -0.203 F 
ATOM     89  F   UNL A   1      47.931  28.425  35.846  1.00  0.00    -0.200 F 
ATOM     90  C   UNL A   1      46.524  26.630  36.462  1.00  0.00     0.200 A 
ATOM     91  F   UNL A   1      45.092  24.842  37.032  1.00  0.00    -0.200 F 
ATOM     92  F   UNL A   1      47.443  26.191  37.333  1.00  0.00    -0.200 F 
ENDBRANCH  59  82
ENDBRANCH  33  34
ENDBRANCH  26  28
ENDBRANCH  25  26
ENDBRANCH  24  25
ENDBRANCH   1  24
TORSDOF 14
ENDMDL
MODEL 2
REMARK VINA RESULT:     -12.1      0.186      1.619
REMARK SMILES [NH3+]C1(C(=O)N2[C@@H](C(=O)OCCOC(=O)c3ccc(-c4c5nc(c(-c6c(F)c(F)c(F)c(F)c6F)c6ccc([nH]6)c(-c6c(F)c(F)c(F)c(F)c6F)c6nc(c(-c7c(F)c(F)c(F)c(F)c7F)c7ccc4[nH]7)C=C6)C=C5)cc3)CC[C@@H]3CCCC[C@@H]32)CC1
REMARK SMILES IDX 10 1 9 2 7 3 8 4 6 5 5 6 85 7 78 8 80 9 84 10 79 11 81 12
REMARK SMILES IDX 83 13 82 14 3 15 4 16 2 17 86 18 87 19 1 20 11 24 12 25
REMARK SMILES IDX 13 26 14 27 15 28 16 29 77 30 17 31 76 32 18 33 19 34 20 35
REMARK SMILES IDX 70 36 21 37 75 38 69 39 71 40 22 41 74 42 68 43 67 44 23 46
REMARK SMILES IDX 55 47 35 48 54 49 36 50 39 51 53 52 72 53 37 54 38 55 52 57
REMARK SMILES IDX 73 58 40 59 24 60 25 61 33 62 26 63 27 64 31 65 34 66 28 67
REMARK SMILES IDX 29 68 32 69 30 70 56 71 57 72 65 73 58 74 59 75 63 76 66 77
REMARK SMILES IDX 60 78 61 79 64 80 62 81 41 82 42 83 50 84 43 85 44 86 48 87
REMARK SMILES IDX 51 88 45 89 46 90 49 91 47 92
REMARK H PARENT 1 21 1 22 1 23 71 45 39 56
REMARK Flexibility Score: inf
ROOT
ATOM      1  C   UNL A   1      31.584  28.541  25.171  1.00  0.00     0.274 C 
ENDROOT
BRANCH   1   2
ATOM      2  O   UNL A   1      32.381  27.471  25.718  1.00  0.00    -0.461 OA
BRANCH   2   3
ATOM      3  C   UNL A   1      31.679  26.373  26.101  1.00  0.00     0.328 C 
ATOM      4  O   UNL A   1      30.580  26.430  26.644  1.00  0.00    -0.250 OA
BRANCH   3   5
ATOM      5  C   UNL A   1      32.356  25.045  25.720  1.00  0.00     0.195 C 
ATOM      6  N   UNL A   1      32.653  24.792  24.295  1.00  0.00    -0.320 N 
ATOM      7  C   UNL A   1      33.528  23.636  24.020  1.00  0.00     0.089 C 
ATOM      8  C   UNL A   1      31.836  23.803  26.445  1.00  0.00     0.037 C 
ATOM      9  C   UNL A   1      33.103  22.372  24.811  1.00  0.00     0.012 C 
ATOM     10  C   UNL A   1      35.006  24.018  24.210  1.00  0.00     0.025 C 
ATOM     11  C   UNL A   1      32.862  22.677  26.298  1.00  0.00     0.008 C 
ATOM     12  C   UNL A   1      34.109  21.228  24.623  1.00  0.00     0.006 C 
ATOM     13  C   UNL A   1      35.959  22.837  24.054  1.00  0.00     0.002 C 
ATOM     14  C   UNL A   1      35.548  21.643  24.906  1.00  0.00     0.000 C 
BRANCH   6  15
ATOM     15  C   UNL A   1      31.651  25.020  23.359  1.00  0.00     0.284 C 
ATOM     16  O   UNL A   1      30.645  24.322  23.273  1.00  0.00    -0.268 OA
BRANCH  15  17
ATOM     17  C   UNL A   1      31.911  26.099  22.310  1.00  0.00     0.174 C 
ATOM     18  C   UNL A   1      32.533  25.652  20.994  1.00  0.00     0.086 C 
ATOM     19  C   UNL A   1      33.284  26.572  21.895  1.00  0.00     0.086 C 
BRANCH  17  20
ATOM     20  N   UNL A   1      30.785  27.065  22.190  1.00  0.00    -0.345 N 
ATOM     21  H   UNL A   1      29.915  26.557  22.036  1.00  0.00     0.345 HD
ATOM     22  H   UNL A   1      30.957  27.691  21.401  1.00  0.00     0.345 HD
ATOM     23  H   UNL A   1      30.714  27.612  23.047  1.00  0.00     0.345 HD
ENDBRANCH  17  20
ENDBRANCH  15  17
ENDBRANCH   6  15
ENDBRANCH   3   5
ENDBRANCH   2   3
ENDBRANCH   1   2
BRANCH   1  24
ATOM     24  C   UNL A   1      31.836  29.889  25.866  1.00  0.00     0.275 C 
BRANCH  24  25
ATOM     25  O   UNL A   1      33.236  30.195  26.045  1.00  0.00    -0.458 OA
BRANCH  25  26
ATOM     26  C   UNL A   1      33.505  31.169  26.949  1.00  0.00     0.338 C 
ATOM     27  O   UNL A   1      32.751  32.055  27.316  1.00  0.00    -0.246 OA
BRANCH  26  28
ATOM     28  C   UNL A   1      34.811  30.941  27.597  1.00  0.00     0.060 A 
ATOM     29  C   UNL A   1      35.114  29.634  27.987  1.00  0.00     0.016 A 
ATOM     30  C   UNL A   1      35.678  31.982  27.921  1.00  0.00     0.016 A 
ATOM     31  C   UNL A   1      36.269  29.346  28.699  1.00  0.00     0.010 A 
ATOM     32  C   UNL A   1      36.848  31.697  28.640  1.00  0.00     0.010 A 
ATOM     33  C   UNL A   1      37.144  30.379  29.036  1.00  0.00    -0.014 A 
BRANCH  33  34
ATOM     34  C   UNL A   1      38.342  30.065  29.844  1.00  0.00     0.031 A 
ATOM     35  C   UNL A   1      39.404  29.171  29.283  1.00  0.00     0.074 A 
ATOM     36  C   UNL A   1      38.496  30.626  31.058  1.00  0.00     0.049 A 
ATOM     37  N   UNL A   1      40.452  28.657  29.873  1.00  0.00    -0.248 NA
ATOM     38  C   UNL A   1      39.273  28.811  27.863  1.00  0.00     0.031 C 
ATOM     39  C   UNL A   1      37.581  31.593  31.662  1.00  0.00     0.029 A 
ATOM     40  N   UNL A   1      39.478  30.457  32.001  1.00  0.00    -0.354 N 
ATOM     41  C   UNL A   1      41.088  27.888  28.908  1.00  0.00     0.074 A 
ATOM     42  C   UNL A   1      40.310  28.004  27.693  1.00  0.00     0.031 C 
ATOM     43  C   UNL A   1      38.035  31.921  32.882  1.00  0.00     0.029 A 
ATOM     44  C   UNL A   1      39.234  31.138  33.167  1.00  0.00     0.049 A 
ATOM     45  H   UNL A   1      40.277  29.902  31.856  1.00  0.00     0.167 HD
ATOM     46  C   UNL A   1      42.215  27.150  29.036  1.00  0.00     0.037 A 
ATOM     47  C   UNL A   1      39.874  31.089  34.351  1.00  0.00     0.037 A 
ATOM     48  C   UNL A   1      42.986  27.060  30.248  1.00  0.00     0.049 A 
ATOM     49  C   UNL A   1      41.060  30.176  34.500  1.00  0.00     0.074 A 
ATOM     50  C   UNL A   1      44.149  26.345  30.482  1.00  0.00     0.029 A 
ATOM     51  N   UNL A   1      42.670  27.708  31.433  1.00  0.00    -0.354 N 
ATOM     52  N   UNL A   1      41.636  29.414  33.601  1.00  0.00    -0.248 NA
ATOM     53  C   UNL A   1      41.672  30.099  35.834  1.00  0.00     0.031 C 
ATOM     54  C   UNL A   1      44.508  26.524  31.823  1.00  0.00     0.029 A 
ATOM     55  C   UNL A   1      43.596  27.385  32.411  1.00  0.00     0.049 A 
ATOM     56  H   UNL A   1      41.900  28.309  31.560  1.00  0.00     0.167 HD
ATOM     57  C   UNL A   1      42.680  28.775  34.254  1.00  0.00     0.074 A 
ATOM     58  C   UNL A   1      42.672  29.254  35.621  1.00  0.00     0.031 C 
ATOM     59  C   UNL A   1      43.563  27.868  33.768  1.00  0.00     0.037 A 
BRANCH  46  60
ATOM     60  C   UNL A   1      42.652  26.342  27.851  1.00  0.00     0.064 A 
ATOM     61  C   UNL A   1      43.603  26.817  26.938  1.00  0.00     0.173 A 
ATOM     62  C   UNL A   1      42.127  25.057  27.645  1.00  0.00     0.173 A 
ATOM     63  F   UNL A   1      44.123  28.046  27.082  1.00  0.00    -0.203 F 
ATOM     64  C   UNL A   1      43.998  26.043  25.850  1.00  0.00     0.198 A 
ATOM     65  C   UNL A   1      42.541  24.277  26.570  1.00  0.00     0.198 A 
ATOM     66  F   UNL A   1      41.213  24.556  28.491  1.00  0.00    -0.203 F 
ATOM     67  F   UNL A   1      44.878  26.533  24.965  1.00  0.00    -0.200 F 
ATOM     68  C   UNL A   1      43.472  24.772  25.669  1.00  0.00     0.200 A 
ATOM     69  F   UNL A   1      42.037  23.046  26.403  1.00  0.00    -0.200 F 
ATOM     70  F   UNL A   1      43.856  24.028  24.623  1.00  0.00    -0.200 F 
ENDBRANCH  46  60
BRANCH  47  71
ATOM     71  C   UNL A   1      39.363  31.876  35.503  1.00  0.00     0.064 A 
ATOM     72  C   UNL A   1      38.435  31.331  36.397  1.00  0.00     0.173 A 
ATOM     73  C   UNL A   1      39.789  33.195  35.725  1.00  0.00     0.173 A 
ATOM     74  F   UNL A   1      37.976  30.084  36.209  1.00  0.00    -0.203 F 
ATOM     75  C   UNL A   1      37.944  32.077  37.468  1.00  0.00     0.198 A 
ATOM     76  C   UNL A   1      39.319  33.930  36.810  1.00  0.00     0.198 A 
ATOM     77  F   UNL A   1      40.671  33.767  34.892  1.00  0.00    -0.203 F 
ATOM     78  F   UNL A   1      37.025  31.547  38.285  1.00  0.00    -0.200 F 
ATOM     79  C   UNL A   1      38.392  33.373  37.677  1.00  0.00     0.200 A 
ATOM     80  F   UNL A   1      39.763  35.178  37.015  1.00  0.00    -0.200 F 
ATOM     81  F   UNL A   1      37.924  34.088  38.709  1.00  0.00    -0.200 F 
ENDBRANCH  47  71
BRANCH  59  82
ATOM     82  C   UNL A   1      44.596  27.344  34.721  1.00  0.00     0.064 A 
ATOM     83  C   UNL A   1      45.797  28.031  34.946  1.00  0.00     0.173 A 
ATOM     84  C   UNL A   1      44.364  26.165  35.445  1.00  0.00     0.173 A 
ATOM     85  F   UNL A   1      46.070  29.153  34.262  1.00  0.00    -0.203 F 
ATOM     86  C   UNL A   1      46.739  27.547  35.849  1.00  0.00     0.198 A 
ATOM     87  C   UNL A   1      45.297  25.699  36.367  1.00  0.00     0.198 A 
ATOM     88  F   UNL A   1      43.228  25.475  35.268  1.00  0.00    -0.203 F 
ATOM     89  F   UNL A   1      47.899  28.197  36.017  1.00  0.00    -0.200 F 
ATOM     90  C   UNL A   1      46.485  26.386  36.564  1.00  0.00     0.200 A 
ATOM     91  F   UNL A   1      45.045  24.583  37.065  1.00  0.00    -0.200 F 
ATOM     92  F   UNL A   1      47.390  25.926  37.438  1.00  0.00    -0.200 F 
ENDBRANCH  59  82
ENDBRANCH  33  34
ENDBRANCH  26  28
ENDBRANCH  25  26
ENDBRANCH  24  25
ENDBRANCH   1  24
TORSDOF 14
ENDMDL
MODEL 3
REMARK VINA RESULT:     -12.1      0.340      1.189
REMARK SMILES [NH3+]C1(C(=O)N2[C@@H](C(=O)OCCOC(=O)c3ccc(-c4c5nc(c(-c6c(F)c(F)c(F)c(F)c6F)c6ccc([nH]6)c(-c6c(F)c(F)c(F)c(F)c6F)c6nc(c(-c7c(F)c(F)c(F)c(F)c7F)c7ccc4[nH]7)C=C6)C=C5)cc3)CC[C@@H]3CCCC[C@@H]32)CC1
REMARK SMILES IDX 10 1 9 2 7 3 8 4 6 5 5 6 85 7 78 8 80 9 84 10 79 11 81 12
REMARK SMILES IDX 83 13 82 14 3 15 4 16 2 17 86 18 87 19 1 20 11 24 12 25
REMARK SMILES IDX 13 26 14 27 15 28 16 29 77 30 17 31 76 32 18 33 19 34 20 35
REMARK SMILES IDX 70 36 21 37 75 38 69 39 71 40 22 41 74 42 68 43 67 44 23 46
REMARK SMILES IDX 55 47 35 48 54 49 36 50 39 51 53 52 72 53 37 54 38 55 52 57
REMARK SMILES IDX 73 58 40 59 24 60 25 61 33 62 26 63 27 64 31 65 34 66 28 67
REMARK SMILES IDX 29 68 32 69 30 70 56 71 57 72 65 73 58 74 59 75 63 76 66 77
REMARK SMILES IDX 60 78 61 79 64 80 62 81 41 82 42 83 50 84 43 85 44 86 48 87
REMARK SMILES IDX 51 88 45 89 46 90 49 91 47 92
REMARK H PARENT 1 21 1 22 1 23 71 45 39 56
REMARK Flexibility Score: inf
ROOT
ATOM      1  C   UNL A   1      31.779  28.195  26.953  1.00  0.00     0.274 C 
ENDROOT
BRANCH   1   2
ATOM      2  O   UNL A   1      32.220  27.095  26.132  1.00  0.00    -0.461 OA
BRANCH   2   3
ATOM      3  C   UNL A   1      31.444  25.982  26.203  1.00  0.00     0.328 C 
ATOM      4  O   UNL A   1      30.255  26.007  26.501  1.00  0.00    -0.250 OA
BRANCH   3   5
ATOM      5  C   UNL A   1      32.179  24.692  25.799  1.00  0.00     0.195 C 
ATOM      6  N   UNL A   1      32.569  24.520  24.385  1.00  0.00    -0.320 N 
ATOM      7  C   UNL A   1      33.491  23.400  24.108  1.00  0.00     0.089 C 
ATOM      8  C   UNL A   1      31.649  23.402  26.427  1.00  0.00     0.037 C 
ATOM      9  C   UNL A   1      33.052  22.088  24.807  1.00  0.00     0.012 C 
ATOM     10  C   UNL A   1      34.944  23.807  24.410  1.00  0.00     0.025 C 
ATOM     11  C   UNL A   1      32.711  22.309  26.289  1.00  0.00     0.008 C 
ATOM     12  C   UNL A   1      34.098  20.979  24.625  1.00  0.00     0.006 C 
ATOM     13  C   UNL A   1      35.935  22.658  24.255  1.00  0.00     0.002 C 
ATOM     14  C   UNL A   1      35.504  21.413  25.019  1.00  0.00     0.000 C 
BRANCH   6  15
ATOM     15  C   UNL A   1      31.622  24.772  23.401  1.00  0.00     0.284 C 
ATOM     16  O   UNL A   1      30.653  24.044  23.203  1.00  0.00    -0.268 OA
BRANCH  15  17
ATOM     17  C   UNL A   1      31.904  25.927  22.443  1.00  0.00     0.174 C 
ATOM     18  C   UNL A   1      32.526  25.578  21.098  1.00  0.00     0.086 C 
ATOM     19  C   UNL A   1      33.286  26.411  22.073  1.00  0.00     0.086 C 
BRANCH  17  20
ATOM     20  N   UNL A   1      30.793  26.918  22.396  1.00  0.00    -0.345 N 
ATOM     21  H   UNL A   1      30.852  27.454  21.530  1.00  0.00     0.345 HD
ATOM     22  H   UNL A   1      30.868  27.550  23.193  1.00  0.00     0.345 HD
ATOM     23  H   UNL A   1      29.900  26.428  22.433  1.00  0.00     0.345 HD
ENDBRANCH  17  20
ENDBRANCH  15  17
ENDBRANCH   6  15
ENDBRANCH   3   5
ENDBRANCH   2   3
ENDBRANCH   1   2
BRANCH   1  24
ATOM     24  C   UNL A   1      31.778  29.537  26.202  1.00  0.00     0.275 C 
BRANCH  24  25
ATOM     25  O   UNL A   1      33.090  30.128  26.071  1.00  0.00    -0.458 OA
BRANCH  25  26
ATOM     26  C   UNL A   1      33.365  31.126  26.945  1.00  0.00     0.338 C 
ATOM     27  O   UNL A   1      32.616  32.027  27.288  1.00  0.00    -0.246 OA
BRANCH  26  28
ATOM     28  C   UNL A   1      34.670  30.911  27.598  1.00  0.00     0.060 A 
ATOM     29  C   UNL A   1      34.984  29.607  27.990  1.00  0.00     0.016 A 
ATOM     30  C   UNL A   1      35.527  31.959  27.924  1.00  0.00     0.016 A 
ATOM     31  C   UNL A   1      36.139  29.330  28.706  1.00  0.00     0.010 A 
ATOM     32  C   UNL A   1      36.697  31.685  28.647  1.00  0.00     0.010 A 
ATOM     33  C   UNL A   1      37.003  30.370  29.045  1.00  0.00    -0.014 A 
BRANCH  33  34
ATOM     34  C   UNL A   1      38.201  30.067  29.858  1.00  0.00     0.031 A 
ATOM     35  C   UNL A   1      39.267  29.170  29.306  1.00  0.00     0.074 A 
ATOM     36  C   UNL A   1      38.353  30.640  31.067  1.00  0.00     0.049 A 
ATOM     37  N   UNL A   1      40.315  28.665  29.902  1.00  0.00    -0.248 NA
ATOM     38  C   UNL A   1      39.138  28.797  27.890  1.00  0.00     0.031 C 
ATOM     39  C   UNL A   1      37.434  31.611  31.660  1.00  0.00     0.029 A 
ATOM     40  N   UNL A   1      39.333  30.483  32.012  1.00  0.00    -0.354 N 
ATOM     41  C   UNL A   1      40.954  27.889  28.946  1.00  0.00     0.074 A 
ATOM     42  C   UNL A   1      40.177  27.991  27.728  1.00  0.00     0.031 C 
ATOM     43  C   UNL A   1      37.886  31.951  32.878  1.00  0.00     0.029 A 
ATOM     44  C   UNL A   1      39.086  31.174  33.172  1.00  0.00     0.049 A 
ATOM     45  H   UNL A   1      40.135  29.929  31.873  1.00  0.00     0.167 HD
ATOM     46  C   UNL A   1      42.083  27.155  29.082  1.00  0.00     0.037 A 
ATOM     47  C   UNL A   1      39.726  31.138  34.356  1.00  0.00     0.037 A 
ATOM     48  C   UNL A   1      42.854  27.079  30.296  1.00  0.00     0.049 A 
ATOM     49  C   UNL A   1      40.914  30.230  34.516  1.00  0.00     0.074 A 
ATOM     50  C   UNL A   1      44.017  26.369  30.538  1.00  0.00     0.029 A 
ATOM     51  N   UNL A   1      42.534  27.738  31.474  1.00  0.00    -0.354 N 
ATOM     52  N   UNL A   1      41.492  29.462  33.625  1.00  0.00    -0.248 NA
ATOM     53  C   UNL A   1      41.524  30.168  35.851  1.00  0.00     0.031 C 
ATOM     54  C   UNL A   1      44.375  26.562  31.877  1.00  0.00     0.029 A 
ATOM     55  C   UNL A   1      43.460  27.426  32.457  1.00  0.00     0.049 A 
ATOM     56  H   UNL A   1      41.763  28.337  31.595  1.00  0.00     0.167 HD
ATOM     57  C   UNL A   1      42.538  28.831  34.285  1.00  0.00     0.074 A 
ATOM     58  C   UNL A   1      42.527  29.324  35.647  1.00  0.00     0.031 C 
ATOM     59  C   UNL A   1      43.424  27.922  33.809  1.00  0.00     0.037 A 
BRANCH  46  60
ATOM     60  C   UNL A   1      42.524  26.337  27.906  1.00  0.00     0.064 A 
ATOM     61  C   UNL A   1      42.024  25.050  27.667  1.00  0.00     0.173 A 
ATOM     62  C   UNL A   1      43.445  26.865  26.988  1.00  0.00     0.173 A 
ATOM     63  F   UNL A   1      41.156  24.493  28.524  1.00  0.00    -0.203 F 
ATOM     64  C   UNL A   1      42.445  24.313  26.563  1.00  0.00     0.198 A 
ATOM     65  C   UNL A   1      43.845  26.137  25.872  1.00  0.00     0.198 A 
ATOM     66  F   UNL A   1      43.953  28.094  27.171  1.00  0.00    -0.203 F 
ATOM     67  F   UNL A   1      41.986  23.067  26.374  1.00  0.00    -0.200 F 
ATOM     68  C   UNL A   1      43.350  24.859  25.663  1.00  0.00     0.200 A 
ATOM     69  F   UNL A   1      44.713  26.669  25.001  1.00  0.00    -0.200 F 
ATOM     70  F   UNL A   1      43.750  24.149  24.599  1.00  0.00    -0.200 F 
ENDBRANCH  46  60
BRANCH  47  71
ATOM     71  C   UNL A   1      39.211  31.935  35.500  1.00  0.00     0.064 A 
ATOM     72  C   UNL A   1      39.569  33.279  35.664  1.00  0.00     0.173 A 
ATOM     73  C   UNL A   1      38.356  31.364  36.455  1.00  0.00     0.173 A 
ATOM     74  F   UNL A   1      40.406  33.860  34.793  1.00  0.00    -0.203 F 
ATOM     75  C   UNL A   1      39.098  34.020  36.747  1.00  0.00     0.198 A 
ATOM     76  C   UNL A   1      37.865  32.113  37.521  1.00  0.00     0.198 A 
ATOM     77  F   UNL A   1      37.990  30.078  36.347  1.00  0.00    -0.203 F 
ATOM     78  F   UNL A   1      39.488  35.291  36.905  1.00  0.00    -0.200 F 
ATOM     79  C   UNL A   1      38.241  33.438  37.670  1.00  0.00     0.200 A 
ATOM     80  F   UNL A   1      37.028  31.550  38.404  1.00  0.00    -0.200 F 
ATOM     81  F   UNL A   1      37.785  34.153  38.708  1.00  0.00    -0.200 F 
ENDBRANCH  47  71
BRANCH  59  82
ATOM     82  C   UNL A   1      44.457  27.411  34.767  1.00  0.00     0.064 A 
ATOM     83  C   UNL A   1      44.253  26.234  35.502  1.00  0.00     0.173 A 
ATOM     84  C   UNL A   1      45.679  28.083  34.923  1.00  0.00     0.173 A 
ATOM     85  F   UNL A   1      43.092  25.568  35.400  1.00  0.00    -0.203 F 
ATOM     86  C   UNL A   1      45.229  25.757  36.373  1.00  0.00     0.198 A 
ATOM     87  C   UNL A   1      46.663  27.588  35.775  1.00  0.00     0.198 A 
ATOM     88  F   UNL A   1      45.923  29.210  34.239  1.00  0.00    -0.203 F 
ATOM     89  F   UNL A   1      44.996  24.653  37.096  1.00  0.00    -0.200 F 
ATOM     90  C   UNL A   1      46.435  26.429  36.502  1.00  0.00     0.200 A 
ATOM     91  F   UNL A   1      47.832  28.232  35.891  1.00  0.00    -0.200 F 
ATOM     92  F   UNL A   1      47.376  25.964  37.336  1.00  0.00    -0.200 F 
ENDBRANCH  59  82
ENDBRANCH  33  34
ENDBRANCH  26  28
ENDBRANCH  25  26
ENDBRANCH  24  25
ENDBRANCH   1  24
TORSDOF 14
ENDMDL
