MODEL 1
REMARK VINA RESULT:     -12.6      0.000      0.000
REMARK SMILES C/C(=N/[NH+]=C1\NC(=O)[C@H](CC(=O)OCCOC(=O)c2ccc(-c3c4nc(c(-c5c(F)c(F)c(F)c(F)c5F)c5ccc([nH]5)c(-c5c(F)c(F)c(F)c(F)c5F)c5nc(c(-c6c(F)c(F)c(F)c(F)c6F)c6ccc3[nH]6)C=C5)C=C4)cc2)S1)c1ccc(OC(C)C)cc1
REMARK SMILES IDX 13 1 11 2 12 3 10 4 9 5 4 6 5 7 6 9 82 10 7 11 8 13 3 14
REMARK SMILES IDX 1 15 2 16 83 17 84 18 92 19 85 20 91 21 86 22 87 23 88 24
REMARK SMILES IDX 89 25 90 26 14 27 15 28 16 29 17 30 18 31 19 32 20 33 81 34
REMARK SMILES IDX 21 35 80 36 22 37 23 38 24 39 74 40 25 41 79 42 73 43 75 44
REMARK SMILES IDX 26 45 78 46 72 47 71 48 27 50 59 51 39 52 58 53 40 54 43 55
REMARK SMILES IDX 57 56 76 57 41 58 42 59 56 61 77 62 44 63 28 64 29 65 37 66
REMARK SMILES IDX 30 67 31 68 35 69 38 70 32 71 33 72 36 73 34 74 60 75 61 76
REMARK SMILES IDX 69 77 62 78 63 79 67 80 70 81 64 82 65 83 68 84 66 85 45 86
REMARK SMILES IDX 46 87 54 88 47 89 48 90 52 91 55 92 49 93 50 94 53 95 51 96
REMARK H PARENT 4 8 6 12 75 49 43 60
REMARK Flexibility Score: inf
ROOT
ATOM      1  O   UNL A   1      34.543  19.876  24.910  1.00  0.00    -0.462 OA
ENDROOT
BRANCH   1   2
ATOM      2  C   UNL A   1      33.261  20.115  25.270  1.00  0.00     0.307 C 
ATOM      3  O   UNL A   1      32.307  19.400  24.993  1.00  0.00    -0.252 OA
BRANCH   2   4
ATOM      4  C   UNL A   1      33.123  21.414  26.017  1.00  0.00     0.150 C 
BRANCH   4   5
ATOM      5  C   UNL A   1      31.978  22.291  25.533  1.00  0.00     0.184 C 
ATOM      6  N   UNL A   1      33.151  25.920  25.398  1.00  0.00    -0.142 N 
ATOM      7  C   UNL A   1      32.486  24.817  25.471  1.00  0.00     0.337 C 
ATOM      8  H   UNL A   1      33.774  26.103  24.658  1.00  0.00     0.343 HD
ATOM      9  N   UNL A   1      31.629  24.477  26.453  1.00  0.00    -0.202 N 
ATOM     10  S   UNL A   1      32.685  23.515  24.349  1.00  0.00    -0.020 SA
ATOM     11  C   UNL A   1      31.362  23.154  26.631  1.00  0.00     0.322 C 
ATOM     12  H   UNL A   1      31.209  25.163  27.024  1.00  0.00     0.316 HD
ATOM     13  O   UNL A   1      30.771  22.751  27.625  1.00  0.00    -0.246 OA
BRANCH   6  14
ATOM     14  N   UNL A   1      32.938  26.845  26.433  1.00  0.00    -0.090 NA
ATOM     15  C   UNL A   1      31.782  28.727  27.390  1.00  0.00     0.071 C 
ATOM     16  C   UNL A   1      32.058  27.788  26.238  1.00  0.00     0.088 C 
BRANCH  16  17
ATOM     17  C   UNL A   1      31.381  28.109  24.952  1.00  0.00    -0.000 A 
ATOM     18  C   UNL A   1      31.796  29.165  24.147  1.00  0.00     0.014 A 
ATOM     19  C   UNL A   1      30.219  27.399  24.625  1.00  0.00     0.014 A 
ATOM     20  C   UNL A   1      31.034  29.515  23.027  1.00  0.00     0.047 A 
ATOM     21  C   UNL A   1      29.460  27.763  23.507  1.00  0.00     0.047 A 
ATOM     22  C   UNL A   1      29.860  28.822  22.700  1.00  0.00     0.119 A 
BRANCH  22  23
ATOM     23  O   UNL A   1      29.194  29.330  21.625  1.00  0.00    -0.491 OA
BRANCH  23  24
ATOM     24  C   UNL A   1      28.036  30.166  21.726  1.00  0.00     0.167 C 
ATOM     25  C   UNL A   1      27.648  30.533  23.154  1.00  0.00     0.052 C 
ATOM     26  C   UNL A   1      28.049  31.344  20.759  1.00  0.00     0.052 C 
ENDBRANCH  23  24
ENDBRANCH  22  23
ENDBRANCH  16  17
ENDBRANCH   6  14
ENDBRANCH   4   5
ENDBRANCH   2   4
ENDBRANCH   1   2
BRANCH   1  27
ATOM     27  C   UNL A   1      35.400  21.017  24.720  1.00  0.00     0.274 C 
BRANCH  27  28
ATOM     28  C   UNL A   1      36.864  20.676  24.990  1.00  0.00     0.275 C 
BRANCH  28  29
ATOM     29  O   UNL A   1      37.493  21.705  25.773  1.00  0.00    -0.458 OA
BRANCH  29  30
ATOM     30  C   UNL A   1      38.802  21.501  26.037  1.00  0.00     0.338 C 
ATOM     31  O   UNL A   1      39.475  20.521  25.774  1.00  0.00    -0.246 OA
BRANCH  30  32
ATOM     32  C   UNL A   1      39.381  22.720  26.611  1.00  0.00     0.060 A 
ATOM     33  C   UNL A   1      38.950  23.960  26.127  1.00  0.00     0.016 A 
ATOM     34  C   UNL A   1      40.403  22.630  27.555  1.00  0.00     0.016 A 
ATOM     35  C   UNL A   1      39.561  25.128  26.567  1.00  0.00     0.010 A 
ATOM     36  C   UNL A   1      41.012  23.801  27.999  1.00  0.00     0.010 A 
ATOM     37  C   UNL A   1      40.608  25.048  27.490  1.00  0.00    -0.014 A 
BRANCH  37  38
ATOM     38  C   UNL A   1      41.364  26.259  27.863  1.00  0.00     0.031 A 
ATOM     39  C   UNL A   1      40.656  27.352  28.604  1.00  0.00     0.074 A 
ATOM     40  C   UNL A   1      42.653  26.382  27.507  1.00  0.00     0.049 A 
ATOM     41  N   UNL A   1      41.057  28.567  28.872  1.00  0.00    -0.248 NA
ATOM     42  C   UNL A   1      39.307  27.036  29.099  1.00  0.00     0.031 C 
ATOM     43  C   UNL A   1      43.443  25.355  26.828  1.00  0.00     0.029 A 
ATOM     44  N   UNL A   1      43.516  27.437  27.646  1.00  0.00    -0.354 N 
ATOM     45  C   UNL A   1      39.999  29.169  29.540  1.00  0.00     0.074 A 
ATOM     46  C   UNL A   1      38.935  28.193  29.625  1.00  0.00     0.031 C 
ATOM     47  C   UNL A   1      44.672  25.840  26.589  1.00  0.00     0.029 A 
ATOM     48  C   UNL A   1      44.734  27.223  27.054  1.00  0.00     0.049 A 
ATOM     49  H   UNL A   1      43.284  28.266  28.124  1.00  0.00     0.167 HD
ATOM     50  C   UNL A   1      39.931  30.428  30.033  1.00  0.00     0.037 A 
ATOM     51  C   UNL A   1      45.766  28.069  26.876  1.00  0.00     0.037 A 
ATOM     52  C   UNL A   1      41.007  31.379  29.947  1.00  0.00     0.049 A 
ATOM     53  C   UNL A   1      45.646  29.480  27.388  1.00  0.00     0.074 A 
ATOM     54  C   UNL A   1      41.053  32.679  30.422  1.00  0.00     0.029 A 
ATOM     55  N   UNL A   1      42.232  31.128  29.345  1.00  0.00    -0.354 N 
ATOM     56  N   UNL A   1      44.644  30.053  28.010  1.00  0.00    -0.248 NA
ATOM     57  C   UNL A   1      46.800  30.362  27.169  1.00  0.00     0.031 C 
ATOM     58  C   UNL A   1      42.292  33.226  30.071  1.00  0.00     0.029 A 
ATOM     59  C   UNL A   1      43.036  32.253  29.422  1.00  0.00     0.049 A 
ATOM     60  H   UNL A   1      42.491  30.276  28.925  1.00  0.00     0.167 HD
ATOM     61  C   UNL A   1      45.054  31.349  28.284  1.00  0.00     0.074 A 
ATOM     62  C   UNL A   1      46.401  31.478  27.765  1.00  0.00     0.031 C 
ATOM     63  C   UNL A   1      44.380  32.346  28.909  1.00  0.00     0.037 A 
BRANCH  50  64
ATOM     64  C   UNL A   1      38.644  30.852  30.674  1.00  0.00     0.064 A 
ATOM     65  C   UNL A   1      38.474  30.846  32.066  1.00  0.00     0.173 A 
ATOM     66  C   UNL A   1      37.572  31.291  29.883  1.00  0.00     0.173 A 
ATOM     67  F   UNL A   1      39.462  30.418  32.866  1.00  0.00    -0.203 F 
ATOM     68  C   UNL A   1      37.268  31.240  32.642  1.00  0.00     0.198 A 
ATOM     69  C   UNL A   1      36.377  31.710  30.464  1.00  0.00     0.198 A 
ATOM     70  F   UNL A   1      37.682  31.317  28.546  1.00  0.00    -0.203 F 
ATOM     71  F   UNL A   1      37.110  31.182  33.971  1.00  0.00    -0.200 F 
ATOM     72  C   UNL A   1      36.224  31.679  31.840  1.00  0.00     0.200 A 
ATOM     73  F   UNL A   1      35.372  32.143  29.688  1.00  0.00    -0.200 F 
ATOM     74  F   UNL A   1      35.065  32.062  32.397  1.00  0.00    -0.200 F 
ENDBRANCH  50  64
BRANCH  51  75
ATOM     75  C   UNL A   1      46.986  27.609  26.165  1.00  0.00     0.064 A 
ATOM     76  C   UNL A   1      47.087  27.711  24.771  1.00  0.00     0.173 A 
ATOM     77  C   UNL A   1      48.073  27.063  26.861  1.00  0.00     0.173 A 
ATOM     78  F   UNL A   1      46.063  28.206  24.060  1.00  0.00    -0.203 F 
ATOM     79  C   UNL A   1      48.224  27.270  24.099  1.00  0.00     0.198 A 
ATOM     80  C   UNL A   1      49.222  26.647  26.190  1.00  0.00     0.198 A 
ATOM     81  F   UNL A   1      48.026  26.943  28.196  1.00  0.00    -0.203 F 
ATOM     82  F   UNL A   1      48.279  27.342  22.762  1.00  0.00    -0.200 F 
ATOM     83  C   UNL A   1      49.294  26.745  24.809  1.00  0.00     0.200 A 
ATOM     84  F   UNL A   1      50.257  26.151  26.882  1.00  0.00    -0.200 F 
ATOM     85  F   UNL A   1      50.389  26.326  24.162  1.00  0.00    -0.200 F 
ENDBRANCH  51  75
BRANCH  63  86
ATOM     86  C   UNL A   1      45.105  33.643  29.108  1.00  0.00     0.064 A 
ATOM     87  C   UNL A   1      45.010  34.690  28.181  1.00  0.00     0.173 A 
ATOM     88  C   UNL A   1      45.868  33.854  30.266  1.00  0.00     0.173 A 
ATOM     89  F   UNL A   1      44.306  34.529  27.051  1.00  0.00    -0.203 F 
ATOM     90  C   UNL A   1      45.672  35.896  28.396  1.00  0.00     0.198 A 
ATOM     91  C   UNL A   1      46.506  35.070  30.492  1.00  0.00     0.198 A 
ATOM     92  F   UNL A   1      45.984  32.884  31.186  1.00  0.00    -0.203 F 
ATOM     93  F   UNL A   1      45.604  36.869  27.477  1.00  0.00    -0.200 F 
ATOM     94  C   UNL A   1      46.412  36.087  29.554  1.00  0.00     0.200 A 
ATOM     95  F   UNL A   1      47.209  35.258  31.617  1.00  0.00    -0.200 F 
ATOM     96  F   UNL A   1      47.042  37.252  29.764  1.00  0.00    -0.200 F 
ENDBRANCH  63  86
ENDBRANCH  37  38
ENDBRANCH  30  32
ENDBRANCH  29  30
ENDBRANCH  28  29
ENDBRANCH  27  28
ENDBRANCH   1  27
TORSDOF 16
ENDMDL
MODEL 2
REMARK VINA RESULT:     -12.3      5.809      9.643
REMARK SMILES C/C(=N/[NH+]=C1\NC(=O)[C@H](CC(=O)OCCOC(=O)c2ccc(-c3c4nc(c(-c5c(F)c(F)c(F)c(F)c5F)c5ccc([nH]5)c(-c5c(F)c(F)c(F)c(F)c5F)c5nc(c(-c6c(F)c(F)c(F)c(F)c6F)c6ccc3[nH]6)C=C5)C=C4)cc2)S1)c1ccc(OC(C)C)cc1
REMARK SMILES IDX 13 1 11 2 12 3 10 4 9 5 4 6 5 7 6 9 82 10 7 11 8 13 3 14
REMARK SMILES IDX 1 15 2 16 83 17 84 18 92 19 85 20 91 21 86 22 87 23 88 24
REMARK SMILES IDX 89 25 90 26 14 27 15 28 16 29 17 30 18 31 19 32 20 33 81 34
REMARK SMILES IDX 21 35 80 36 22 37 23 38 24 39 74 40 25 41 79 42 73 43 75 44
REMARK SMILES IDX 26 45 78 46 72 47 71 48 27 50 59 51 39 52 58 53 40 54 43 55
REMARK SMILES IDX 57 56 76 57 41 58 42 59 56 61 77 62 44 63 28 64 29 65 37 66
REMARK SMILES IDX 30 67 31 68 35 69 38 70 32 71 33 72 36 73 34 74 60 75 61 76
REMARK SMILES IDX 69 77 62 78 63 79 67 80 70 81 64 82 65 83 68 84 66 85 45 86
REMARK SMILES IDX 46 87 54 88 47 89 48 90 52 91 55 92 49 93 50 94 53 95 51 96
REMARK H PARENT 4 8 6 12 75 49 43 60
REMARK Flexibility Score: inf
ROOT
ATOM      1  O   UNL A   1      33.758  34.001  29.422  1.00  0.00    -0.462 OA
ENDROOT
BRANCH   1   2
ATOM      2  C   UNL A   1      34.938  33.359  29.578  1.00  0.00     0.307 C 
ATOM      3  O   UNL A   1      35.983  33.885  29.940  1.00  0.00    -0.252 OA
BRANCH   2   4
ATOM      4  C   UNL A   1      34.840  31.907  29.194  1.00  0.00     0.150 C 
BRANCH   4   5
ATOM      5  C   UNL A   1      34.859  31.659  27.693  1.00  0.00     0.184 C 
ATOM      6  N   UNL A   1      32.478  28.792  26.870  1.00  0.00    -0.142 N 
ATOM      7  C   UNL A   1      33.414  29.678  26.895  1.00  0.00     0.337 C 
ATOM      8  H   UNL A   1      31.528  29.038  26.947  1.00  0.00     0.343 HD
ATOM      9  N   UNL A   1      34.736  29.432  26.813  1.00  0.00    -0.202 N 
ATOM     10  S   UNL A   1      33.118  31.363  27.163  1.00  0.00    -0.020 SA
ATOM     11  C   UNL A   1      35.588  30.379  27.293  1.00  0.00     0.322 C 
ATOM     12  H   UNL A   1      35.075  28.594  26.420  1.00  0.00     0.316 HD
ATOM     13  O   UNL A   1      36.779  30.143  27.453  1.00  0.00    -0.246 OA
BRANCH   6  14
ATOM     14  N   UNL A   1      32.889  27.457  26.727  1.00  0.00    -0.090 NA
ATOM     15  C   UNL A   1      33.131  25.439  25.437  1.00  0.00     0.071 C 
ATOM     16  C   UNL A   1      32.612  26.849  25.606  1.00  0.00     0.088 C 
BRANCH  16  17
ATOM     17  C   UNL A   1      31.733  27.360  24.522  1.00  0.00    -0.000 A 
ATOM     18  C   UNL A   1      32.169  28.320  23.614  1.00  0.00     0.014 A 
ATOM     19  C   UNL A   1      30.394  26.949  24.510  1.00  0.00     0.014 A 
ATOM     20  C   UNL A   1      31.256  28.875  22.710  1.00  0.00     0.047 A 
ATOM     21  C   UNL A   1      29.488  27.517  23.607  1.00  0.00     0.047 A 
ATOM     22  C   UNL A   1      29.910  28.483  22.700  1.00  0.00     0.119 A 
BRANCH  22  23
ATOM     23  O   UNL A   1      29.136  29.167  21.813  1.00  0.00    -0.491 OA
BRANCH  23  24
ATOM     24  C   UNL A   1      28.668  30.503  22.027  1.00  0.00     0.167 C 
ATOM     25  C   UNL A   1      28.062  31.162  20.793  1.00  0.00     0.052 C 
ATOM     26  C   UNL A   1      27.835  30.662  23.294  1.00  0.00     0.052 C 
ENDBRANCH  23  24
ENDBRANCH  22  23
ENDBRANCH  16  17
ENDBRANCH   6  14
ENDBRANCH   4   5
ENDBRANCH   2   4
ENDBRANCH   1   2
BRANCH   1  27
ATOM     27  C   UNL A   1      33.804  35.404  29.102  1.00  0.00     0.274 C 
BRANCH  27  28
ATOM     28  C   UNL A   1      32.768  36.199  29.892  1.00  0.00     0.275 C 
BRANCH  28  29
ATOM     29  O   UNL A   1      33.250  36.499  31.213  1.00  0.00    -0.458 OA
BRANCH  29  30
ATOM     30  C   UNL A   1      32.804  35.673  32.185  1.00  0.00     0.338 C 
ATOM     31  O   UNL A   1      31.650  35.442  32.499  1.00  0.00    -0.246 OA
BRANCH  30  32
ATOM     32  C   UNL A   1      33.938  34.956  32.776  1.00  0.00     0.060 A 
ATOM     33  C   UNL A   1      35.190  35.579  32.793  1.00  0.00     0.016 A 
ATOM     34  C   UNL A   1      33.778  33.646  33.225  1.00  0.00     0.016 A 
ATOM     35  C   UNL A   1      36.306  34.882  33.241  1.00  0.00     0.010 A 
ATOM     36  C   UNL A   1      34.896  32.949  33.676  1.00  0.00     0.010 A 
ATOM     37  C   UNL A   1      36.164  33.558  33.664  1.00  0.00    -0.014 A 
BRANCH  37  38
ATOM     38  C   UNL A   1      37.353  32.754  34.007  1.00  0.00     0.031 A 
ATOM     39  C   UNL A   1      38.064  33.031  35.296  1.00  0.00     0.074 A 
ATOM     40  C   UNL A   1      37.801  31.820  33.153  1.00  0.00     0.049 A 
ATOM     41  N   UNL A   1      39.218  32.588  35.719  1.00  0.00    -0.248 NA
ATOM     42  C   UNL A   1      37.385  33.944  36.231  1.00  0.00     0.031 C 
ATOM     43  C   UNL A   1      37.151  31.442  31.898  1.00  0.00     0.029 A 
ATOM     44  N   UNL A   1      38.923  31.035  33.204  1.00  0.00    -0.354 N 
ATOM     45  C   UNL A   1      39.419  33.190  36.954  1.00  0.00     0.074 A 
ATOM     46  C   UNL A   1      38.275  34.039  37.208  1.00  0.00     0.031 C 
ATOM     47  C   UNL A   1      37.900  30.512  31.284  1.00  0.00     0.029 A 
ATOM     48  C   UNL A   1      39.101  30.269  32.080  1.00  0.00     0.049 A 
ATOM     49  H   UNL A   1      39.540  31.024  33.971  1.00  0.00     0.167 HD
ATOM     50  C   UNL A   1      40.470  33.042  37.794  1.00  0.00     0.037 A 
ATOM     51  C   UNL A   1      40.139  29.491  31.723  1.00  0.00     0.037 A 
ATOM     52  C   UNL A   1      41.592  32.182  37.527  1.00  0.00     0.049 A 
ATOM     53  C   UNL A   1      41.319  29.383  32.652  1.00  0.00     0.074 A 
ATOM     54  C   UNL A   1      42.707  31.947  38.312  1.00  0.00     0.029 A 
ATOM     55  N   UNL A   1      41.738  31.414  36.380  1.00  0.00    -0.354 N 
ATOM     56  N   UNL A   1      41.514  29.958  33.814  1.00  0.00    -0.248 NA
ATOM     57  C   UNL A   1      42.426  28.520  32.216  1.00  0.00     0.031 C 
ATOM     58  C   UNL A   1      43.546  31.066  37.621  1.00  0.00     0.029 A 
ATOM     59  C   UNL A   1      42.932  30.715  36.429  1.00  0.00     0.049 A 
ATOM     60  H   UNL A   1      41.089  31.373  35.642  1.00  0.00     0.167 HD
ATOM     61  C   UNL A   1      42.746  29.507  34.263  1.00  0.00     0.074 A 
ATOM     62  C   UNL A   1      43.252  28.603  33.250  1.00  0.00     0.031 C 
ATOM     63  C   UNL A   1      43.403  29.809  35.411  1.00  0.00     0.037 A 
BRANCH  50  64
ATOM     64  C   UNL A   1      40.466  33.850  39.057  1.00  0.00     0.064 A 
ATOM     65  C   UNL A   1      41.102  35.098  39.137  1.00  0.00     0.173 A 
ATOM     66  C   UNL A   1      39.800  33.378  40.197  1.00  0.00     0.173 A 
ATOM     67  F   UNL A   1      41.768  35.587  38.081  1.00  0.00    -0.203 F 
ATOM     68  C   UNL A   1      41.091  35.832  40.321  1.00  0.00     0.198 A 
ATOM     69  C   UNL A   1      39.768  34.127  41.371  1.00  0.00     0.198 A 
ATOM     70  F   UNL A   1      39.176  32.190  40.174  1.00  0.00    -0.203 F 
ATOM     71  F   UNL A   1      41.744  37.000  40.391  1.00  0.00    -0.200 F 
ATOM     72  C   UNL A   1      40.418  35.349  41.434  1.00  0.00     0.200 A 
ATOM     73  F   UNL A   1      39.110  33.662  42.443  1.00  0.00    -0.200 F 
ATOM     74  F   UNL A   1      40.405  36.059  42.572  1.00  0.00    -0.200 F 
ENDBRANCH  50  64
BRANCH  51  75
ATOM     75  C   UNL A   1      40.114  28.775  30.423  1.00  0.00     0.064 A 
ATOM     76  C   UNL A   1      39.504  27.519  30.305  1.00  0.00     0.173 A 
ATOM     77  C   UNL A   1      40.695  29.329  29.273  1.00  0.00     0.173 A 
ATOM     78  F   UNL A   1      38.955  26.939  31.383  1.00  0.00    -0.203 F 
ATOM     79  C   UNL A   1      39.487  26.838  29.091  1.00  0.00     0.198 A 
ATOM     80  C   UNL A   1      40.654  28.659  28.052  1.00  0.00     0.198 A 
ATOM     81  F   UNL A   1      41.292  30.528  29.332  1.00  0.00    -0.203 F 
ATOM     82  F   UNL A   1      38.932  25.621  29.015  1.00  0.00    -0.200 F 
ATOM     83  C   UNL A   1      40.056  27.412  27.963  1.00  0.00     0.200 A 
ATOM     84  F   UNL A   1      41.195  29.223  26.962  1.00  0.00    -0.200 F 
ATOM     85  F   UNL A   1      40.036  26.758  26.794  1.00  0.00    -0.200 F 
ENDBRANCH  51  75
BRANCH  63  86
ATOM     86  C   UNL A   1      44.713  29.122  35.651  1.00  0.00     0.064 A 
ATOM     87  C   UNL A   1      45.927  29.685  35.235  1.00  0.00     0.173 A 
ATOM     88  C   UNL A   1      44.754  27.906  36.349  1.00  0.00     0.173 A 
ATOM     89  F   UNL A   1      45.937  30.838  34.550  1.00  0.00    -0.203 F 
ATOM     90  C   UNL A   1      47.136  29.043  35.490  1.00  0.00     0.198 A 
ATOM     91  C   UNL A   1      45.966  27.280  36.627  1.00  0.00     0.198 A 
ATOM     92  F   UNL A   1      43.618  27.331  36.774  1.00  0.00    -0.203 F 
ATOM     93  F   UNL A   1      48.283  29.576  35.046  1.00  0.00    -0.200 F 
ATOM     94  C   UNL A   1      47.154  27.846  36.191  1.00  0.00     0.200 A 
ATOM     95  F   UNL A   1      45.983  26.132  37.316  1.00  0.00    -0.200 F 
ATOM     96  F   UNL A   1      48.320  27.233  36.444  1.00  0.00    -0.200 F 
ENDBRANCH  63  86
ENDBRANCH  37  38
ENDBRANCH  30  32
ENDBRANCH  29  30
ENDBRANCH  28  29
ENDBRANCH  27  28
ENDBRANCH   1  27
TORSDOF 16
ENDMDL
MODEL 3
REMARK VINA RESULT:     -12.3      1.046      7.320
REMARK SMILES C/C(=N/[NH+]=C1\NC(=O)[C@H](CC(=O)OCCOC(=O)c2ccc(-c3c4nc(c(-c5c(F)c(F)c(F)c(F)c5F)c5ccc([nH]5)c(-c5c(F)c(F)c(F)c(F)c5F)c5nc(c(-c6c(F)c(F)c(F)c(F)c6F)c6ccc3[nH]6)C=C5)C=C4)cc2)S1)c1ccc(OC(C)C)cc1
REMARK SMILES IDX 13 1 11 2 12 3 10 4 9 5 4 6 5 7 6 9 82 10 7 11 8 13 3 14
REMARK SMILES IDX 1 15 2 16 83 17 84 18 92 19 85 20 91 21 86 22 87 23 88 24
REMARK SMILES IDX 89 25 90 26 14 27 15 28 16 29 17 30 18 31 19 32 20 33 81 34
REMARK SMILES IDX 21 35 80 36 22 37 23 38 24 39 74 40 25 41 79 42 73 43 75 44
REMARK SMILES IDX 26 45 78 46 72 47 71 48 27 50 59 51 39 52 58 53 40 54 43 55
REMARK SMILES IDX 57 56 76 57 41 58 42 59 56 61 77 62 44 63 28 64 29 65 37 66
REMARK SMILES IDX 30 67 31 68 35 69 38 70 32 71 33 72 36 73 34 74 60 75 61 76
REMARK SMILES IDX 69 77 62 78 63 79 67 80 70 81 64 82 65 83 68 84 66 85 45 86
REMARK SMILES IDX 46 87 54 88 47 89 48 90 52 91 55 92 49 93 50 94 53 95 51 96
REMARK H PARENT 4 8 6 12 75 49 43 60
REMARK Flexibility Score: inf
ROOT
ATOM      1  O   UNL A   1      36.886  20.272  25.080  1.00  0.00    -0.462 OA
ENDROOT
BRANCH   1   2
ATOM      2  C   UNL A   1      36.776  21.569  24.716  1.00  0.00     0.307 C 
ATOM      3  O   UNL A   1      37.235  22.054  23.690  1.00  0.00    -0.252 OA
BRANCH   2   4
ATOM      4  C   UNL A   1      36.061  22.384  25.761  1.00  0.00     0.150 C 
BRANCH   4   5
ATOM      5  C   UNL A   1      34.550  22.426  25.590  1.00  0.00     0.184 C 
ATOM      6  N   UNL A   1      33.410  26.063  25.424  1.00  0.00    -0.142 N 
ATOM      7  C   UNL A   1      33.517  24.788  25.572  1.00  0.00     0.337 C 
ATOM      8  H   UNL A   1      33.647  26.510  24.579  1.00  0.00     0.343 HD
ATOM      9  N   UNL A   1      33.233  24.098  26.694  1.00  0.00    -0.202 N 
ATOM     10  S   UNL A   1      34.172  23.744  24.357  1.00  0.00    -0.020 SA
ATOM     11  C   UNL A   1      33.804  22.871  26.845  1.00  0.00     0.322 C 
ATOM     12  H   UNL A   1      32.632  24.468  27.382  1.00  0.00     0.316 HD
ATOM     13  O   UNL A   1      33.771  22.280  27.917  1.00  0.00    -0.246 OA
BRANCH   6  14
ATOM     14  N   UNL A   1      32.937  26.782  26.534  1.00  0.00    -0.090 NA
ATOM     15  C   UNL A   1      31.377  28.288  27.577  1.00  0.00     0.071 C 
ATOM     16  C   UNL A   1      31.923  27.584  26.357  1.00  0.00     0.088 C 
BRANCH  16  17
ATOM     17  C   UNL A   1      31.323  27.968  25.052  1.00  0.00    -0.000 A 
ATOM     18  C   UNL A   1      31.636  29.170  24.425  1.00  0.00     0.014 A 
ATOM     19  C   UNL A   1      30.322  27.146  24.519  1.00  0.00     0.014 A 
ATOM     20  C   UNL A   1      30.932  29.550  23.277  1.00  0.00     0.047 A 
ATOM     21  C   UNL A   1      29.619  27.539  23.375  1.00  0.00     0.047 A 
ATOM     22  C   UNL A   1      29.916  28.742  22.745  1.00  0.00     0.119 A 
BRANCH  22  23
ATOM     23  O   UNL A   1      29.278  29.284  21.671  1.00  0.00    -0.491 OA
BRANCH  23  24
ATOM     24  C   UNL A   1      28.070  30.047  21.762  1.00  0.00     0.167 C 
ATOM     25  C   UNL A   1      27.641  30.377  23.187  1.00  0.00     0.052 C 
ATOM     26  C   UNL A   1      28.025  31.233  20.805  1.00  0.00     0.052 C 
ENDBRANCH  23  24
ENDBRANCH  22  23
ENDBRANCH  16  17
ENDBRANCH   6  14
ENDBRANCH   4   5
ENDBRANCH   2   4
ENDBRANCH   1   2
BRANCH   1  27
ATOM     27  C   UNL A   1      38.048  19.553  24.626  1.00  0.00     0.274 C 
BRANCH  27  28
ATOM     28  C   UNL A   1      39.025  19.276  25.768  1.00  0.00     0.275 C 
BRANCH  28  29
ATOM     29  O   UNL A   1      40.015  20.315  25.858  1.00  0.00    -0.458 OA
BRANCH  29  30
ATOM     30  C   UNL A   1      40.593  20.448  27.072  1.00  0.00     0.338 C 
ATOM     31  O   UNL A   1      40.967  19.566  27.823  1.00  0.00    -0.246 OA
BRANCH  30  32
ATOM     32  C   UNL A   1      40.836  21.868  27.345  1.00  0.00     0.060 A 
ATOM     33  C   UNL A   1      40.178  22.824  26.563  1.00  0.00     0.016 A 
ATOM     34  C   UNL A   1      41.775  22.244  28.304  1.00  0.00     0.016 A 
ATOM     35  C   UNL A   1      40.474  24.172  26.720  1.00  0.00     0.010 A 
ATOM     36  C   UNL A   1      42.069  23.595  28.463  1.00  0.00     0.010 A 
ATOM     37  C   UNL A   1      41.437  24.559  27.656  1.00  0.00    -0.014 A 
BRANCH  37  38
ATOM     38  C   UNL A   1      41.871  25.967  27.741  1.00  0.00     0.031 A 
ATOM     39  C   UNL A   1      43.205  26.346  27.176  1.00  0.00     0.074 A 
ATOM     40  C   UNL A   1      41.089  26.874  28.348  1.00  0.00     0.049 A 
ATOM     41  N   UNL A   1      43.869  27.465  27.296  1.00  0.00    -0.248 NA
ATOM     42  C   UNL A   1      43.891  25.317  26.379  1.00  0.00     0.031 C 
ATOM     43  C   UNL A   1      39.754  26.615  28.884  1.00  0.00     0.029 A 
ATOM     44  N   UNL A   1      41.320  28.194  28.636  1.00  0.00    -0.354 N 
ATOM     45  C   UNL A   1      45.063  27.266  26.615  1.00  0.00     0.074 A 
ATOM     46  C   UNL A   1      45.039  25.915  26.096  1.00  0.00     0.031 C 
ATOM     47  C   UNL A   1      39.290  27.737  29.459  1.00  0.00     0.029 A 
ATOM     48  C   UNL A   1      40.317  28.772  29.371  1.00  0.00     0.049 A 
ATOM     49  H   UNL A   1      42.126  28.678  28.344  1.00  0.00     0.167 HD
ATOM     50  C   UNL A   1      46.083  28.138  26.445  1.00  0.00     0.037 A 
ATOM     51  C   UNL A   1      40.258  29.990  29.940  1.00  0.00     0.037 A 
ATOM     52  C   UNL A   1      46.081  29.482  26.961  1.00  0.00     0.049 A 
ATOM     53  C   UNL A   1      41.428  30.924  29.780  1.00  0.00     0.074 A 
ATOM     54  C   UNL A   1      47.055  30.456  26.840  1.00  0.00     0.029 A 
ATOM     55  N   UNL A   1      45.045  30.039  27.697  1.00  0.00    -0.354 N 
ATOM     56  N   UNL A   1      42.559  30.734  29.146  1.00  0.00    -0.248 NA
ATOM     57  C   UNL A   1      41.314  32.242  30.420  1.00  0.00     0.031 C 
ATOM     58  C   UNL A   1      46.625  31.590  27.538  1.00  0.00     0.029 A 
ATOM     59  C   UNL A   1      45.362  31.339  28.051  1.00  0.00     0.049 A 
ATOM     60  H   UNL A   1      44.208  29.577  27.933  1.00  0.00     0.167 HD
ATOM     61  C   UNL A   1      43.278  31.911  29.282  1.00  0.00     0.074 A 
ATOM     62  C   UNL A   1      42.452  32.816  30.055  1.00  0.00     0.031 C 
ATOM     63  C   UNL A   1      44.512  32.222  28.810  1.00  0.00     0.037 A 
BRANCH  50  64
ATOM     64  C   UNL A   1      47.293  27.654  25.704  1.00  0.00     0.064 A 
ATOM     65  C   UNL A   1      47.381  27.726  24.305  1.00  0.00     0.173 A 
ATOM     66  C   UNL A   1      48.388  27.128  26.405  1.00  0.00     0.173 A 
ATOM     67  F   UNL A   1      46.354  28.204  23.588  1.00  0.00    -0.203 F 
ATOM     68  C   UNL A   1      48.512  27.267  23.635  1.00  0.00     0.198 A 
ATOM     69  C   UNL A   1      49.529  26.695  25.732  1.00  0.00     0.198 A 
ATOM     70  F   UNL A   1      48.355  27.036  27.742  1.00  0.00    -0.203 F 
ATOM     71  F   UNL A   1      48.556  27.302  22.296  1.00  0.00    -0.200 F 
ATOM     72  C   UNL A   1      49.587  26.759  24.349  1.00  0.00     0.200 A 
ATOM     73  F   UNL A   1      50.570  26.212  26.425  1.00  0.00    -0.200 F 
ATOM     74  F   UNL A   1      50.677  26.321  23.702  1.00  0.00    -0.200 F 
ENDBRANCH  50  64
BRANCH  51  75
ATOM     75  C   UNL A   1      39.061  30.382  30.727  1.00  0.00     0.064 A 
ATOM     76  C   UNL A   1      37.966  30.999  30.109  1.00  0.00     0.173 A 
ATOM     77  C   UNL A   1      38.986  30.147  32.107  1.00  0.00     0.173 A 
ATOM     78  F   UNL A   1      38.001  31.266  28.795  1.00  0.00    -0.203 F 
ATOM     79  C   UNL A   1      36.845  31.379  30.844  1.00  0.00     0.198 A 
ATOM     80  C   UNL A   1      37.854  30.502  32.837  1.00  0.00     0.198 A 
ATOM     81  F   UNL A   1      40.008  29.559  32.746  1.00  0.00    -0.203 F 
ATOM     82  F   UNL A   1      35.828  32.004  30.236  1.00  0.00    -0.200 F 
ATOM     83  C   UNL A   1      36.787  31.124  32.207  1.00  0.00     0.200 A 
ATOM     84  F   UNL A   1      37.797  30.243  34.151  1.00  0.00    -0.200 F 
ATOM     85  F   UNL A   1      35.707  31.485  32.913  1.00  0.00    -0.200 F 
ENDBRANCH  51  75
BRANCH  63  86
ATOM     86  C   UNL A   1      45.018  33.607  29.076  1.00  0.00     0.064 A 
ATOM     87  C   UNL A   1      44.728  34.675  28.216  1.00  0.00     0.173 A 
ATOM     88  C   UNL A   1      45.764  33.875  30.234  1.00  0.00     0.173 A 
ATOM     89  F   UNL A   1      44.032  34.465  27.089  1.00  0.00    -0.203 F 
ATOM     90  C   UNL A   1      45.186  35.960  28.495  1.00  0.00     0.198 A 
ATOM     91  C   UNL A   1      46.197  35.166  30.524  1.00  0.00     0.198 A 
ATOM     92  F   UNL A   1      46.061  32.887  31.091  1.00  0.00    -0.203 F 
ATOM     93  F   UNL A   1      44.935  36.960  27.638  1.00  0.00    -0.200 F 
ATOM     94  C   UNL A   1      45.913  36.205  29.651  1.00  0.00     0.200 A 
ATOM     95  F   UNL A   1      46.887  35.403  31.647  1.00  0.00    -0.200 F 
ATOM     96  F   UNL A   1      46.346  37.445  29.922  1.00  0.00    -0.200 F 
ENDBRANCH  63  86
ENDBRANCH  37  38
ENDBRANCH  30  32
ENDBRANCH  29  30
ENDBRANCH  28  29
ENDBRANCH  27  28
ENDBRANCH   1  27
TORSDOF 16
ENDMDL
