MODEL 1
REMARK VINA RESULT:     -12.5      0.000      0.000
REMARK SMILES C[C@H]1CCC[C@H](C)N1C(=O)[C@H]1[C@@H](C(=O)OCCOC(=O)c2ccc(-c3c4nc(c(-c5c(F)c(F)c(F)c(F)c5F)c5ccc([nH]5)c(-c5c(F)c(F)c(F)c(F)c5F)c5nc(c(-c6c(F)c(F)c(F)c(F)c6F)c6ccc3[nH]6)C=C5)C=C4)cc2)[C@H]2CC[C@@H]1O2
REMARK SMILES IDX 17 1 16 2 15 3 13 4 14 5 12 6 11 7 87 8 84 9 86 10 88 11
REMARK SMILES IDX 85 12 9 13 1 14 2 15 3 16 8 17 4 18 6 19 5 20 7 21 10 22
REMARK SMILES IDX 18 23 19 24 20 25 21 26 22 27 83 28 23 29 82 30 24 31 25 32
REMARK SMILES IDX 26 33 76 34 27 35 81 36 75 37 77 38 28 39 80 40 74 41 73 42
REMARK SMILES IDX 29 44 61 45 41 46 60 47 42 48 45 49 59 50 78 51 43 52 44 53
REMARK SMILES IDX 58 55 79 56 46 57 30 58 31 59 39 60 32 61 33 62 37 63 40 64
REMARK SMILES IDX 34 65 35 66 38 67 36 68 62 69 63 70 71 71 64 72 65 73 69 74
REMARK SMILES IDX 72 75 66 76 67 77 70 78 68 79 47 80 48 81 56 82 49 83 50 84
REMARK SMILES IDX 54 85 57 86 51 87 52 88 55 89 53 90
REMARK H PARENT 77 43 45 54
REMARK Flexibility Score: inf
ROOT
ATOM      1  C   UNL A   1      31.788  29.937  26.659  1.00  0.00     0.275 C 
ENDROOT
BRANCH   1   2
ATOM      2  C   UNL A   1      31.751  28.587  27.365  1.00  0.00     0.274 C 
BRANCH   2   3
ATOM      3  O   UNL A   1      32.280  27.526  26.525  1.00  0.00    -0.462 OA
BRANCH   3   4
ATOM      4  C   UNL A   1      31.365  26.728  25.929  1.00  0.00     0.312 C 
ATOM      5  O   UNL A   1      30.477  26.141  26.542  1.00  0.00    -0.252 OA
BRANCH   4   6
ATOM      6  C   UNL A   1      31.449  26.622  24.411  1.00  0.00     0.143 C 
ATOM      7  C   UNL A   1      32.159  25.523  23.620  1.00  0.00     0.124 C 
ATOM      8  C   UNL A   1      32.409  26.280  22.296  1.00  0.00     0.132 C 
ATOM      9  C   UNL A   1      31.907  27.966  23.708  1.00  0.00     0.133 C 
ATOM     10  C   UNL A   1      33.614  27.162  22.087  1.00  0.00     0.035 C 
ATOM     11  O   UNL A   1      31.456  27.367  22.463  1.00  0.00    -0.373 OA
ATOM     12  C   UNL A   1      33.252  28.357  22.950  1.00  0.00     0.036 C 
BRANCH   7  13
ATOM     13  C   UNL A   1      33.358  24.854  24.255  1.00  0.00     0.229 C 
ATOM     14  C   UNL A   1      31.258  22.626  23.242  1.00  0.00     0.031 C 
ATOM     15  C   UNL A   1      32.399  22.408  24.238  1.00  0.00     0.082 C 
ATOM     16  C   UNL A   1      32.969  21.011  23.908  1.00  0.00     0.025 C 
ATOM     17  N   UNL A   1      33.471  23.454  24.355  1.00  0.00    -0.337 N 
ATOM     18  C   UNL A   1      34.107  20.607  24.822  1.00  0.00     0.004 C 
ATOM     19  C   UNL A   1      34.725  23.039  25.053  1.00  0.00     0.082 C 
ATOM     20  C   UNL A   1      35.210  21.634  24.692  1.00  0.00     0.025 C 
ATOM     21  C   UNL A   1      34.604  23.203  26.575  1.00  0.00     0.031 C 
ATOM     22  O   UNL A   1      34.271  25.573  24.670  1.00  0.00    -0.274 OA
ENDBRANCH   7  13
ENDBRANCH   4   6
ENDBRANCH   3   4
ENDBRANCH   2   3
ENDBRANCH   1   2
BRANCH   1  23
ATOM     23  O   UNL A   1      33.160  30.323  26.522  1.00  0.00    -0.458 OA
BRANCH  23  24
ATOM     24  C   UNL A   1      33.508  31.455  27.166  1.00  0.00     0.338 C 
ATOM     25  O   UNL A   1      32.891  32.498  27.262  1.00  0.00    -0.246 OA
BRANCH  24  26
ATOM     26  C   UNL A   1      34.787  31.195  27.831  1.00  0.00     0.060 A 
ATOM     27  C   UNL A   1      35.033  29.915  28.327  1.00  0.00     0.016 A 
ATOM     28  C   UNL A   1      35.706  32.221  28.014  1.00  0.00     0.016 A 
ATOM     29  C   UNL A   1      36.157  29.670  29.098  1.00  0.00     0.010 A 
ATOM     30  C   UNL A   1      36.898  31.940  28.678  1.00  0.00     0.010 A 
ATOM     31  C   UNL A   1      37.125  30.669  29.242  1.00  0.00    -0.014 A 
BRANCH  31  32
ATOM     32  C   UNL A   1      38.389  30.390  29.963  1.00  0.00     0.031 A 
ATOM     33  C   UNL A   1      39.408  29.487  29.339  1.00  0.00     0.074 A 
ATOM     34  C   UNL A   1      38.592  30.915  31.187  1.00  0.00     0.049 A 
ATOM     35  N   UNL A   1      40.418  28.871  29.894  1.00  0.00    -0.248 NA
ATOM     36  C   UNL A   1      39.258  29.223  27.899  1.00  0.00     0.031 C 
ATOM     37  C   UNL A   1      37.697  31.851  31.872  1.00  0.00     0.029 A 
ATOM     38  N   UNL A   1      39.614  30.723  32.082  1.00  0.00    -0.354 N 
ATOM     39  C   UNL A   1      40.981  28.095  28.892  1.00  0.00     0.074 A 
ATOM     40  C   UNL A   1      40.210  28.324  27.689  1.00  0.00     0.031 C 
ATOM     41  C   UNL A   1      38.217  32.168  33.066  1.00  0.00     0.029 A 
ATOM     42  C   UNL A   1      39.425  31.380  33.273  1.00  0.00     0.049 A 
ATOM     43  H   UNL A   1      40.405  30.171  31.888  1.00  0.00     0.167 HD
ATOM     44  C   UNL A   1      42.041  27.257  28.985  1.00  0.00     0.037 A 
ATOM     45  C   UNL A   1      40.110  31.304  34.428  1.00  0.00     0.037 A 
ATOM     46  C   UNL A   1      42.820  27.087  30.183  1.00  0.00     0.049 A 
ATOM     47  C   UNL A   1      41.271  30.357  34.509  1.00  0.00     0.074 A 
ATOM     48  C   UNL A   1      43.911  26.263  30.398  1.00  0.00     0.029 A 
ATOM     49  N   UNL A   1      42.597  27.777  31.367  1.00  0.00    -0.354 N 
ATOM     50  N   UNL A   1      41.748  29.555  33.587  1.00  0.00    -0.248 NA
ATOM     51  C   UNL A   1      41.970  30.279  35.797  1.00  0.00     0.031 C 
ATOM     52  C   UNL A   1      44.335  26.440  31.720  1.00  0.00     0.029 A 
ATOM     53  C   UNL A   1      43.530  27.397  32.317  1.00  0.00     0.049 A 
ATOM     54  H   UNL A   1      41.881  28.437  31.510  1.00  0.00     0.167 HD
ATOM     55  C   UNL A   1      42.806  28.883  34.178  1.00  0.00     0.074 A 
ATOM     56  C   UNL A   1      42.915  29.388  35.532  1.00  0.00     0.031 C 
ATOM     57  C   UNL A   1      43.609  27.926  33.654  1.00  0.00     0.037 A 
BRANCH  44  58
ATOM     58  C   UNL A   1      42.393  26.441  27.778  1.00  0.00     0.064 A 
ATOM     59  C   UNL A   1      43.362  26.859  26.854  1.00  0.00     0.173 A 
ATOM     60  C   UNL A   1      41.770  25.202  27.559  1.00  0.00     0.173 A 
ATOM     61  F   UNL A   1      43.973  28.044  27.008  1.00  0.00    -0.203 F 
ATOM     62  C   UNL A   1      43.683  26.075  25.749  1.00  0.00     0.198 A 
ATOM     63  C   UNL A   1      42.110  24.409  26.466  1.00  0.00     0.198 A 
ATOM     64  F   UNL A   1      40.834  24.756  28.411  1.00  0.00    -0.203 F 
ATOM     65  F   UNL A   1      44.585  26.511  24.859  1.00  0.00    -0.200 F 
ATOM     66  C   UNL A   1      43.063  24.849  25.559  1.00  0.00     0.200 A 
ATOM     67  F   UNL A   1      41.517  23.221  26.289  1.00  0.00    -0.200 F 
ATOM     68  F   UNL A   1      43.380  24.092  24.499  1.00  0.00    -0.200 F 
ENDBRANCH  44  58
BRANCH  45  69
ATOM     69  C   UNL A   1      39.675  32.103  35.603  1.00  0.00     0.064 A 
ATOM     70  C   UNL A   1      40.215  33.372  35.850  1.00  0.00     0.173 A 
ATOM     71  C   UNL A   1      38.701  31.624  36.493  1.00  0.00     0.173 A 
ATOM     72  F   UNL A   1      41.166  33.863  35.042  1.00  0.00    -0.203 F 
ATOM     73  C   UNL A   1      39.802  34.128  36.945  1.00  0.00     0.198 A 
ATOM     74  C   UNL A   1      38.267  32.394  37.570  1.00  0.00     0.198 A 
ATOM     75  F   UNL A   1      38.150  30.416  36.300  1.00  0.00    -0.203 F 
ATOM     76  F   UNL A   1      40.361  35.323  37.179  1.00  0.00    -0.200 F 
ATOM     77  C   UNL A   1      38.823  33.643  37.799  1.00  0.00     0.200 A 
ATOM     78  F   UNL A   1      37.309  31.926  38.382  1.00  0.00    -0.200 F 
ATOM     79  F   UNL A   1      38.420  34.375  38.846  1.00  0.00    -0.200 F 
ENDBRANCH  45  69
BRANCH  57  80
ATOM     80  C   UNL A   1      44.684  27.390  34.548  1.00  0.00     0.064 A 
ATOM     81  C   UNL A   1      44.475  26.252  35.338  1.00  0.00     0.173 A 
ATOM     82  C   UNL A   1      45.941  28.008  34.591  1.00  0.00     0.173 A 
ATOM     83  F   UNL A   1      43.281  25.642  35.341  1.00  0.00    -0.203 F 
ATOM     84  C   UNL A   1      45.485  25.762  36.160  1.00  0.00     0.198 A 
ATOM     85  C   UNL A   1      46.956  27.501  35.397  1.00  0.00     0.198 A 
ATOM     86  F   UNL A   1      46.186  29.099  33.848  1.00  0.00    -0.203 F 
ATOM     87  F   UNL A   1      45.254  24.697  36.941  1.00  0.00    -0.200 F 
ATOM     88  C   UNL A   1      46.725  26.383  36.184  1.00  0.00     0.200 A 
ATOM     89  F   UNL A   1      48.156  28.098  35.414  1.00  0.00    -0.200 F 
ATOM     90  F   UNL A   1      47.697  25.909  36.975  1.00  0.00    -0.200 F 
ENDBRANCH  57  80
ENDBRANCH  31  32
ENDBRANCH  24  26
ENDBRANCH  23  24
ENDBRANCH   1  23
TORSDOF 12
ENDMDL
MODEL 2
REMARK VINA RESULT:     -12.4      0.078      1.136
REMARK SMILES C[C@H]1CCC[C@H](C)N1C(=O)[C@H]1[C@@H](C(=O)OCCOC(=O)c2ccc(-c3c4nc(c(-c5c(F)c(F)c(F)c(F)c5F)c5ccc([nH]5)c(-c5c(F)c(F)c(F)c(F)c5F)c5nc(c(-c6c(F)c(F)c(F)c(F)c6F)c6ccc3[nH]6)C=C5)C=C4)cc2)[C@H]2CC[C@@H]1O2
REMARK SMILES IDX 17 1 16 2 15 3 13 4 14 5 12 6 11 7 87 8 84 9 86 10 88 11
REMARK SMILES IDX 85 12 9 13 1 14 2 15 3 16 8 17 4 18 6 19 5 20 7 21 10 22
REMARK SMILES IDX 18 23 19 24 20 25 21 26 22 27 83 28 23 29 82 30 24 31 25 32
REMARK SMILES IDX 26 33 76 34 27 35 81 36 75 37 77 38 28 39 80 40 74 41 73 42
REMARK SMILES IDX 29 44 61 45 41 46 60 47 42 48 45 49 59 50 78 51 43 52 44 53
REMARK SMILES IDX 58 55 79 56 46 57 30 58 31 59 39 60 32 61 33 62 37 63 40 64
REMARK SMILES IDX 34 65 35 66 38 67 36 68 62 69 63 70 71 71 64 72 65 73 69 74
REMARK SMILES IDX 72 75 66 76 67 77 70 78 68 79 47 80 48 81 56 82 49 83 50 84
REMARK SMILES IDX 54 85 57 86 51 87 52 88 55 89 53 90
REMARK H PARENT 77 43 45 54
REMARK Flexibility Score: inf
ROOT
ATOM      1  C   UNL A   1      31.788  29.939  26.677  1.00  0.00     0.275 C 
ENDROOT
BRANCH   1   2
ATOM      2  C   UNL A   1      31.769  28.578  27.364  1.00  0.00     0.274 C 
BRANCH   2   3
ATOM      3  O   UNL A   1      32.297  27.534  26.503  1.00  0.00    -0.462 OA
BRANCH   3   4
ATOM      4  C   UNL A   1      31.382  26.726  25.921  1.00  0.00     0.312 C 
ATOM      5  O   UNL A   1      30.497  26.144  26.545  1.00  0.00    -0.252 OA
BRANCH   4   6
ATOM      6  C   UNL A   1      31.461  26.600  24.404  1.00  0.00     0.143 C 
ATOM      7  C   UNL A   1      32.191  25.505  23.625  1.00  0.00     0.124 C 
ATOM      8  C   UNL A   1      32.417  26.248  22.289  1.00  0.00     0.132 C 
ATOM      9  C   UNL A   1      31.885  27.943  23.679  1.00  0.00     0.133 C 
ATOM     10  C   UNL A   1      33.601  27.155  22.061  1.00  0.00     0.035 C 
ATOM     11  O   UNL A   1      31.441  27.317  22.445  1.00  0.00    -0.373 OA
ATOM     12  C   UNL A   1      33.217  28.353  22.909  1.00  0.00     0.036 C 
BRANCH   7  13
ATOM     13  C   UNL A   1      33.408  24.872  24.263  1.00  0.00     0.229 C 
ATOM     14  C   UNL A   1      31.374  22.582  23.251  1.00  0.00     0.031 C 
ATOM     15  C   UNL A   1      32.520  22.399  24.249  1.00  0.00     0.082 C 
ATOM     16  C   UNL A   1      33.130  21.019  23.923  1.00  0.00     0.025 C 
ATOM     17  N   UNL A   1      33.561  23.477  24.366  1.00  0.00    -0.337 N 
ATOM     18  C   UNL A   1      34.277  20.650  24.839  1.00  0.00     0.004 C 
ATOM     19  C   UNL A   1      34.825  23.099  25.067  1.00  0.00     0.082 C 
ATOM     20  C   UNL A   1      35.351  21.708  24.710  1.00  0.00     0.025 C 
ATOM     21  C   UNL A   1      34.697  23.263  26.589  1.00  0.00     0.031 C 
ATOM     22  O   UNL A   1      34.299  25.619  24.678  1.00  0.00    -0.274 OA
ENDBRANCH   7  13
ENDBRANCH   4   6
ENDBRANCH   3   4
ENDBRANCH   2   3
ENDBRANCH   1   2
BRANCH   1  23
ATOM     23  O   UNL A   1      33.156  30.335  26.526  1.00  0.00    -0.458 OA
BRANCH  23  24
ATOM     24  C   UNL A   1      33.504  31.466  27.170  1.00  0.00     0.338 C 
ATOM     25  O   UNL A   1      32.889  32.510  27.263  1.00  0.00    -0.246 OA
BRANCH  24  26
ATOM     26  C   UNL A   1      34.779  31.204  27.840  1.00  0.00     0.060 A 
ATOM     27  C   UNL A   1      35.017  29.926  28.345  1.00  0.00     0.016 A 
ATOM     28  C   UNL A   1      35.703  32.226  28.020  1.00  0.00     0.016 A 
ATOM     29  C   UNL A   1      36.138  29.680  29.120  1.00  0.00     0.010 A 
ATOM     30  C   UNL A   1      36.892  31.944  28.689  1.00  0.00     0.010 A 
ATOM     31  C   UNL A   1      37.111  30.675  29.261  1.00  0.00    -0.014 A 
BRANCH  31  32
ATOM     32  C   UNL A   1      38.371  30.394  29.988  1.00  0.00     0.031 A 
ATOM     33  C   UNL A   1      39.396  29.499  29.363  1.00  0.00     0.074 A 
ATOM     34  C   UNL A   1      38.565  30.910  31.217  1.00  0.00     0.049 A 
ATOM     35  N   UNL A   1      40.405  28.882  29.920  1.00  0.00    -0.248 NA
ATOM     36  C   UNL A   1      39.255  29.245  27.920  1.00  0.00     0.031 C 
ATOM     37  C   UNL A   1      37.664  31.839  31.903  1.00  0.00     0.029 A 
ATOM     38  N   UNL A   1      39.582  30.715  32.116  1.00  0.00    -0.354 N 
ATOM     39  C   UNL A   1      40.976  28.114  28.915  1.00  0.00     0.074 A 
ATOM     40  C   UNL A   1      40.211  28.350  27.709  1.00  0.00     0.031 C 
ATOM     41  C   UNL A   1      38.176  32.149  33.102  1.00  0.00     0.029 A 
ATOM     42  C   UNL A   1      39.384  31.363  33.311  1.00  0.00     0.049 A 
ATOM     43  H   UNL A   1      40.376  30.166  31.923  1.00  0.00     0.167 HD
ATOM     44  C   UNL A   1      42.037  27.279  29.008  1.00  0.00     0.037 A 
ATOM     45  C   UNL A   1      40.063  31.280  34.470  1.00  0.00     0.037 A 
ATOM     46  C   UNL A   1      42.810  27.101  30.209  1.00  0.00     0.049 A 
ATOM     47  C   UNL A   1      41.226  30.335  34.551  1.00  0.00     0.074 A 
ATOM     48  C   UNL A   1      43.901  26.279  30.425  1.00  0.00     0.029 A 
ATOM     49  N   UNL A   1      42.578  27.782  31.397  1.00  0.00    -0.354 N 
ATOM     50  N   UNL A   1      41.711  29.542  33.625  1.00  0.00    -0.248 NA
ATOM     51  C   UNL A   1      41.918  30.250  35.842  1.00  0.00     0.031 C 
ATOM     52  C   UNL A   1      44.318  26.447  31.750  1.00  0.00     0.029 A 
ATOM     53  C   UNL A   1      43.506  27.398  32.350  1.00  0.00     0.049 A 
ATOM     54  H   UNL A   1      41.859  28.439  31.541  1.00  0.00     0.167 HD
ATOM     55  C   UNL A   1      42.767  28.868  34.217  1.00  0.00     0.074 A 
ATOM     56  C   UNL A   1      42.867  29.363  35.576  1.00  0.00     0.031 C 
ATOM     57  C   UNL A   1      43.576  27.917  33.691  1.00  0.00     0.037 A 
BRANCH  44  58
ATOM     58  C   UNL A   1      42.398  26.472  27.797  1.00  0.00     0.064 A 
ATOM     59  C   UNL A   1      43.366  26.903  26.878  1.00  0.00     0.173 A 
ATOM     60  C   UNL A   1      41.786  25.229  27.570  1.00  0.00     0.173 A 
ATOM     61  F   UNL A   1      43.967  28.092  27.040  1.00  0.00    -0.203 F 
ATOM     62  C   UNL A   1      43.696  26.128  25.769  1.00  0.00     0.198 A 
ATOM     63  C   UNL A   1      42.136  24.446  26.473  1.00  0.00     0.198 A 
ATOM     64  F   UNL A   1      40.852  24.771  28.417  1.00  0.00    -0.203 F 
ATOM     65  F   UNL A   1      44.597  26.578  24.884  1.00  0.00    -0.200 F 
ATOM     66  C   UNL A   1      43.087  24.898  25.570  1.00  0.00     0.200 A 
ATOM     67  F   UNL A   1      41.552  23.254  26.288  1.00  0.00    -0.200 F 
ATOM     68  F   UNL A   1      43.412  24.151  24.507  1.00  0.00    -0.200 F 
ENDBRANCH  44  58
BRANCH  45  69
ATOM     69  C   UNL A   1      39.619  32.068  35.648  1.00  0.00     0.064 A 
ATOM     70  C   UNL A   1      40.156  33.336  35.909  1.00  0.00     0.173 A 
ATOM     71  C   UNL A   1      38.639  31.582  36.527  1.00  0.00     0.173 A 
ATOM     72  F   UNL A   1      41.113  33.835  35.112  1.00  0.00    -0.203 F 
ATOM     73  C   UNL A   1      39.735  34.083  37.007  1.00  0.00     0.198 A 
ATOM     74  C   UNL A   1      38.197  32.343  37.607  1.00  0.00     0.198 A 
ATOM     75  F   UNL A   1      38.091  30.375  36.320  1.00  0.00    -0.203 F 
ATOM     76  F   UNL A   1      40.292  35.276  37.255  1.00  0.00    -0.200 F 
ATOM     77  C   UNL A   1      38.750  33.590  37.849  1.00  0.00     0.200 A 
ATOM     78  F   UNL A   1      37.233  31.868  38.408  1.00  0.00    -0.200 F 
ATOM     79  F   UNL A   1      38.339  34.313  38.900  1.00  0.00    -0.200 F 
ENDBRANCH  45  69
BRANCH  57  80
ATOM     80  C   UNL A   1      44.647  27.377  34.587  1.00  0.00     0.064 A 
ATOM     81  C   UNL A   1      45.899  28.000  34.684  1.00  0.00     0.173 A 
ATOM     82  C   UNL A   1      44.406  26.243  35.375  1.00  0.00     0.173 A 
ATOM     83  F   UNL A   1      46.178  29.076  33.933  1.00  0.00    -0.203 F 
ATOM     84  C   UNL A   1      46.883  27.491  35.524  1.00  0.00     0.198 A 
ATOM     85  C   UNL A   1      45.385  25.751  36.232  1.00  0.00     0.198 A 
ATOM     86  F   UNL A   1      43.221  25.617  35.316  1.00  0.00    -0.203 F 
ATOM     87  F   UNL A   1      48.089  28.075  35.572  1.00  0.00    -0.200 F 
ATOM     88  C   UNL A   1      46.624  26.371  36.301  1.00  0.00     0.200 A 
ATOM     89  F   UNL A   1      45.132  24.674  36.988  1.00  0.00    -0.200 F 
ATOM     90  F   UNL A   1      47.572  25.883  37.112  1.00  0.00    -0.200 F 
ENDBRANCH  57  80
ENDBRANCH  31  32
ENDBRANCH  24  26
ENDBRANCH  23  24
ENDBRANCH   1  23
TORSDOF 12
ENDMDL
MODEL 3
REMARK VINA RESULT:     -12.3      4.251      9.654
REMARK SMILES C[C@H]1CCC[C@H](C)N1C(=O)[C@H]1[C@@H](C(=O)OCCOC(=O)c2ccc(-c3c4nc(c(-c5c(F)c(F)c(F)c(F)c5F)c5ccc([nH]5)c(-c5c(F)c(F)c(F)c(F)c5F)c5nc(c(-c6c(F)c(F)c(F)c(F)c6F)c6ccc3[nH]6)C=C5)C=C4)cc2)[C@H]2CC[C@@H]1O2
REMARK SMILES IDX 17 1 16 2 15 3 13 4 14 5 12 6 11 7 87 8 84 9 86 10 88 11
REMARK SMILES IDX 85 12 9 13 1 14 2 15 3 16 8 17 4 18 6 19 5 20 7 21 10 22
REMARK SMILES IDX 18 23 19 24 20 25 21 26 22 27 83 28 23 29 82 30 24 31 25 32
REMARK SMILES IDX 26 33 76 34 27 35 81 36 75 37 77 38 28 39 80 40 74 41 73 42
REMARK SMILES IDX 29 44 61 45 41 46 60 47 42 48 45 49 59 50 78 51 43 52 44 53
REMARK SMILES IDX 58 55 79 56 46 57 30 58 31 59 39 60 32 61 33 62 37 63 40 64
REMARK SMILES IDX 34 65 35 66 38 67 36 68 62 69 63 70 71 71 64 72 65 73 69 74
REMARK SMILES IDX 72 75 66 76 67 77 70 78 68 79 47 80 48 81 56 82 49 83 50 84
REMARK SMILES IDX 54 85 57 86 51 87 52 88 55 89 53 90
REMARK H PARENT 77 43 45 54
REMARK Flexibility Score: inf
ROOT
ATOM      1  C   UNL A   1      37.054  21.618  24.308  1.00  0.00     0.275 C 
ENDROOT
BRANCH   1   2
ATOM      2  C   UNL A   1      36.653  22.821  23.463  1.00  0.00     0.274 C 
BRANCH   2   3
ATOM      3  O   UNL A   1      35.507  23.514  24.026  1.00  0.00    -0.462 OA
BRANCH   3   4
ATOM      4  C   UNL A   1      34.316  23.269  23.435  1.00  0.00     0.312 C 
ATOM      5  O   UNL A   1      34.136  23.328  22.221  1.00  0.00    -0.252 OA
BRANCH   4   6
ATOM      6  C   UNL A   1      33.177  22.851  24.360  1.00  0.00     0.143 C 
ATOM      7  C   UNL A   1      32.179  23.786  25.043  1.00  0.00     0.124 C 
ATOM      8  C   UNL A   1      31.757  22.888  26.227  1.00  0.00     0.132 C 
ATOM      9  C   UNL A   1      33.628  21.855  25.507  1.00  0.00     0.133 C 
ATOM     10  C   UNL A   1      32.538  22.833  27.517  1.00  0.00     0.035 C 
ATOM     11  O   UNL A   1      32.213  21.602  25.723  1.00  0.00    -0.373 OA
ATOM     12  C   UNL A   1      33.762  22.049  27.081  1.00  0.00     0.036 C 
BRANCH   7  13
ATOM     13  C   UNL A   1      32.638  25.186  25.384  1.00  0.00     0.229 C 
ATOM     14  C   UNL A   1      30.022  25.309  23.502  1.00  0.00     0.031 C 
ATOM     15  C   UNL A   1      30.999  26.457  23.771  1.00  0.00     0.082 C 
ATOM     16  C   UNL A   1      30.123  27.723  23.876  1.00  0.00     0.025 C 
ATOM     17  N   UNL A   1      31.971  26.332  24.910  1.00  0.00    -0.337 N 
ATOM     18  C   UNL A   1      30.931  28.981  24.118  1.00  0.00     0.004 C 
ATOM     19  C   UNL A   1      32.635  27.594  25.352  1.00  0.00     0.082 C 
ATOM     20  C   UNL A   1      31.707  28.809  25.406  1.00  0.00     0.025 C 
ATOM     21  C   UNL A   1      33.886  27.897  24.513  1.00  0.00     0.031 C 
ATOM     22  O   UNL A   1      33.617  25.311  26.126  1.00  0.00    -0.274 OA
ENDBRANCH   7  13
ENDBRANCH   4   6
ENDBRANCH   3   4
ENDBRANCH   2   3
ENDBRANCH   1   2
BRANCH   1  23
ATOM     23  O   UNL A   1      37.430  22.097  25.604  1.00  0.00    -0.458 OA
BRANCH  23  24
ATOM     24  C   UNL A   1      38.612  21.643  26.067  1.00  0.00     0.338 C 
ATOM     25  O   UNL A   1      39.054  20.511  26.048  1.00  0.00    -0.246 OA
BRANCH  24  26
ATOM     26  C   UNL A   1      39.354  22.805  26.560  1.00  0.00     0.060 A 
ATOM     27  C   UNL A   1      38.970  24.075  26.128  1.00  0.00     0.016 A 
ATOM     28  C   UNL A   1      40.454  22.637  27.392  1.00  0.00     0.016 A 
ATOM     29  C   UNL A   1      39.741  25.181  26.443  1.00  0.00     0.010 A 
ATOM     30  C   UNL A   1      41.152  23.765  27.815  1.00  0.00     0.010 A 
ATOM     31  C   UNL A   1      40.814  25.044  27.329  1.00  0.00    -0.014 A 
BRANCH  31  32
ATOM     32  C   UNL A   1      41.578  26.234  27.771  1.00  0.00     0.031 A 
ATOM     33  C   UNL A   1      40.895  27.282  28.595  1.00  0.00     0.074 A 
ATOM     34  C   UNL A   1      42.863  26.383  27.396  1.00  0.00     0.049 A 
ATOM     35  N   UNL A   1      41.257  28.515  28.830  1.00  0.00    -0.248 NA
ATOM     36  C   UNL A   1      39.618  26.899  29.220  1.00  0.00     0.031 C 
ATOM     37  C   UNL A   1      43.650  25.403  26.643  1.00  0.00     0.029 A 
ATOM     38  N   UNL A   1      43.733  27.426  27.587  1.00  0.00    -0.354 N 
ATOM     39  C   UNL A   1      40.226  29.075  29.570  1.00  0.00     0.074 A 
ATOM     40  C   UNL A   1      39.226  28.046  29.756  1.00  0.00     0.031 C 
ATOM     41  C   UNL A   1      44.888  25.880  26.454  1.00  0.00     0.029 A 
ATOM     42  C   UNL A   1      44.951  27.237  26.980  1.00  0.00     0.049 A 
ATOM     43  H   UNL A   1      43.508  28.230  28.108  1.00  0.00     0.167 HD
ATOM     44  C   UNL A   1      40.128  30.343  30.034  1.00  0.00     0.037 A 
ATOM     45  C   UNL A   1      45.979  28.086  26.807  1.00  0.00     0.037 A 
ATOM     46  C   UNL A   1      41.162  31.332  29.876  1.00  0.00     0.049 A 
ATOM     47  C   UNL A   1      45.839  29.491  27.318  1.00  0.00     0.074 A 
ATOM     48  C   UNL A   1      41.174  32.649  30.298  1.00  0.00     0.029 A 
ATOM     49  N   UNL A   1      42.383  31.097  29.259  1.00  0.00    -0.354 N 
ATOM     50  N   UNL A   1      44.826  30.046  27.939  1.00  0.00    -0.248 NA
ATOM     51  C   UNL A   1      46.970  30.395  27.079  1.00  0.00     0.031 C 
ATOM     52  C   UNL A   1      42.395  33.218  29.918  1.00  0.00     0.029 A 
ATOM     53  C   UNL A   1      43.157  32.245  29.289  1.00  0.00     0.049 A 
ATOM     54  H   UNL A   1      42.658  30.241  28.858  1.00  0.00     0.167 HD
ATOM     55  C   UNL A   1      45.197  31.361  28.172  1.00  0.00     0.074 A 
ATOM     56  C   UNL A   1      46.538  31.514  27.645  1.00  0.00     0.031 C 
ATOM     57  C   UNL A   1      44.490  32.357  28.757  1.00  0.00     0.037 A 
BRANCH  44  58
ATOM     58  C   UNL A   1      38.855  30.739  30.719  1.00  0.00     0.064 A 
ATOM     59  C   UNL A   1      38.716  30.691  32.114  1.00  0.00     0.173 A 
ATOM     60  C   UNL A   1      37.766  31.206  29.967  1.00  0.00     0.173 A 
ATOM     61  F   UNL A   1      39.721  30.236  32.877  1.00  0.00    -0.203 F 
ATOM     62  C   UNL A   1      37.528  31.080  32.728  1.00  0.00     0.198 A 
ATOM     63  C   UNL A   1      36.588  31.616  30.586  1.00  0.00     0.198 A 
ATOM     64  F   UNL A   1      37.846  31.270  28.629  1.00  0.00    -0.203 F 
ATOM     65  F   UNL A   1      37.403  30.990  34.060  1.00  0.00    -0.200 F 
ATOM     66  C   UNL A   1      36.468  31.549  31.966  1.00  0.00     0.200 A 
ATOM     67  F   UNL A   1      35.569  32.077  29.848  1.00  0.00    -0.200 F 
ATOM     68  F   UNL A   1      35.329  31.930  32.560  1.00  0.00    -0.200 F 
ENDBRANCH  44  58
BRANCH  45  69
ATOM     69  C   UNL A   1      47.192  27.644  26.072  1.00  0.00     0.064 A 
ATOM     70  C   UNL A   1      48.298  27.124  26.757  1.00  0.00     0.173 A 
ATOM     71  C   UNL A   1      47.266  27.715  24.672  1.00  0.00     0.173 A 
ATOM     72  F   UNL A   1      48.286  27.059  28.096  1.00  0.00    -0.203 F 
ATOM     73  C   UNL A   1      49.434  26.699  26.070  1.00  0.00     0.198 A 
ATOM     74  C   UNL A   1      48.390  27.261  23.986  1.00  0.00     0.198 A 
ATOM     75  F   UNL A   1      46.233  28.202  23.969  1.00  0.00    -0.203 F 
ATOM     76  F   UNL A   1      50.493  26.240  26.752  1.00  0.00    -0.200 F 
ATOM     77  C   UNL A   1      49.475  26.759  24.686  1.00  0.00     0.200 A 
ATOM     78  F   UNL A   1      48.417  27.306  22.647  1.00  0.00    -0.200 F 
ATOM     79  F   UNL A   1      50.564  26.341  24.026  1.00  0.00    -0.200 F 
ENDBRANCH  45  69
BRANCH  57  80
ATOM     80  C   UNL A   1      45.173  33.684  28.874  1.00  0.00     0.064 A 
ATOM     81  C   UNL A   1      45.035  34.665  27.883  1.00  0.00     0.173 A 
ATOM     82  C   UNL A   1      45.948  33.984  30.003  1.00  0.00     0.173 A 
ATOM     83  F   UNL A   1      44.318  34.412  26.777  1.00  0.00    -0.203 F 
ATOM     84  C   UNL A   1      45.671  35.896  28.007  1.00  0.00     0.198 A 
ATOM     85  C   UNL A   1      46.563  35.225  30.135  1.00  0.00     0.198 A 
ATOM     86  F   UNL A   1      46.104  33.075  30.978  1.00  0.00    -0.203 F 
ATOM     87  F   UNL A   1      45.563  36.806  27.029  1.00  0.00    -0.200 F 
ATOM     88  C   UNL A   1      46.429  36.176  29.134  1.00  0.00     0.200 A 
ATOM     89  F   UNL A   1      47.290  35.498  31.227  1.00  0.00    -0.200 F 
ATOM     90  F   UNL A   1      47.039  37.363  29.254  1.00  0.00    -0.200 F 
ENDBRANCH  57  80
ENDBRANCH  31  32
ENDBRANCH  24  26
ENDBRANCH  23  24
ENDBRANCH   1  23
TORSDOF 12
ENDMDL
