MODEL 1
REMARK VINA RESULT:     -10.5      0.000      0.000
REMARK SMILES O=C(OCCOC(=O)[C@H]1CC[C@@H](CNc2nncs2)CC1)c1ccc(-c2c3nc(c(-c4c(F)c(F)c(F)c(F)c4F)c4ccc([nH]4)c(-c4c(F)c(F)c(F)c(F)c4F)c4nc(c(-c5c(F)c(F)c(F)c(F)c5F)c5ccc2[nH]5)C=C4)C=C3)cc1
REMARK SMILES IDX 5 1 4 2 3 3 2 4 1 5 22 6 23 7 84 8 24 9 83 10 25 11 26 12
REMARK SMILES IDX 27 13 77 14 28 15 82 16 76 17 78 18 29 19 81 20 75 21 74 22
REMARK SMILES IDX 30 24 62 25 42 26 61 27 43 28 46 29 60 30 79 31 44 32 45 33
REMARK SMILES IDX 59 35 80 36 47 37 31 38 32 39 40 40 33 41 34 42 38 43 41 44
REMARK SMILES IDX 35 45 36 46 39 47 37 48 63 49 64 50 72 51 65 52 66 53 70 54
REMARK SMILES IDX 73 55 67 56 68 57 71 58 69 59 48 60 49 61 57 62 50 63 51 64
REMARK SMILES IDX 55 65 58 66 52 67 53 68 56 69 54 70 6 71 7 72 8 73 9 74
REMARK SMILES IDX 21 75 10 76 20 77 11 78 12 79 13 80 14 81 15 83 16 84 19 85
REMARK SMILES IDX 17 86 18 87
REMARK H PARENT 78 23 46 34 14 82
REMARK Flexibility Score: inf
ROOT
ATOM      1  C   UNL A   1      34.784  34.592  28.220  1.00  0.00     0.274 C 
ENDROOT
BRANCH   1   2
ATOM      2  C   UNL A   1      33.885  33.358  28.366  1.00  0.00     0.275 C 
BRANCH   2   3
ATOM      3  O   UNL A   1      34.149  32.318  27.419  1.00  0.00    -0.458 OA
BRANCH   3   4
ATOM      4  C   UNL A   1      34.265  30.989  27.623  1.00  0.00     0.338 C 
ATOM      5  O   UNL A   1      33.235  30.314  27.618  1.00  0.00    -0.246 OA
BRANCH   4   6
ATOM      6  C   UNL A   1      35.548  30.290  27.981  1.00  0.00     0.060 A 
ATOM      7  C   UNL A   1      36.744  30.232  27.251  1.00  0.00     0.016 A 
ATOM      8  C   UNL A   1      35.547  29.689  29.245  1.00  0.00     0.016 A 
ATOM      9  C   UNL A   1      37.932  29.718  27.806  1.00  0.00     0.010 A 
ATOM     10  C   UNL A   1      36.728  29.205  29.806  1.00  0.00     0.010 A 
ATOM     11  C   UNL A   1      37.947  29.237  29.111  1.00  0.00    -0.014 A 
BRANCH  11  12
ATOM     12  C   UNL A   1      39.160  28.680  29.769  1.00  0.00     0.031 A 
ATOM     13  C   UNL A   1      39.675  29.400  30.984  1.00  0.00     0.074 A 
ATOM     14  C   UNL A   1      39.879  27.666  29.237  1.00  0.00     0.049 A 
ATOM     15  N   UNL A   1      40.802  29.254  31.627  1.00  0.00    -0.248 NA
ATOM     16  C   UNL A   1      38.817  30.479  31.508  1.00  0.00     0.031 C 
ATOM     17  C   UNL A   1      39.530  26.893  28.046  1.00  0.00     0.029 A 
ATOM     18  N   UNL A   1      41.097  27.146  29.609  1.00  0.00    -0.354 N 
ATOM     19  C   UNL A   1      40.789  30.248  32.595  1.00  0.00     0.074 A 
ATOM     20  C   UNL A   1      39.642  31.085  32.342  1.00  0.00     0.031 C 
ATOM     21  C   UNL A   1      40.536  26.052  27.743  1.00  0.00     0.029 A 
ATOM     22  C   UNL A   1      41.587  26.193  28.744  1.00  0.00     0.049 A 
ATOM     23  H   UNL A   1      41.576  27.429  30.421  1.00  0.00     0.167 HD
ATOM     24  C   UNL A   1      41.583  30.382  33.680  1.00  0.00     0.037 A 
ATOM     25  C   UNL A   1      42.743  25.499  28.774  1.00  0.00     0.037 A 
ATOM     26  C   UNL A   1      42.671  29.498  33.970  1.00  0.00     0.049 A 
ATOM     27  C   UNL A   1      43.651  25.670  29.968  1.00  0.00     0.074 A 
ATOM     28  C   UNL A   1      43.475  29.448  35.092  1.00  0.00     0.029 A 
ATOM     29  N   UNL A   1      43.104  28.499  33.111  1.00  0.00    -0.354 N 
ATOM     30  N   UNL A   1      43.538  26.497  30.979  1.00  0.00    -0.248 NA
ATOM     31  C   UNL A   1      44.808  24.768  30.061  1.00  0.00     0.031 C 
ATOM     32  C   UNL A   1      44.415  28.432  34.898  1.00  0.00     0.029 A 
ATOM     33  C   UNL A   1      44.167  27.821  33.677  1.00  0.00     0.049 A 
ATOM     34  H   UNL A   1      42.713  28.303  32.230  1.00  0.00     0.167 HD
ATOM     35  C   UNL A   1      44.560  26.169  31.859  1.00  0.00     0.074 A 
ATOM     36  C   UNL A   1      45.292  25.074  31.256  1.00  0.00     0.031 C 
ATOM     37  C   UNL A   1      44.853  26.710  33.069  1.00  0.00     0.037 A 
BRANCH  24  38
ATOM     38  C   UNL A   1      41.216  31.470  34.647  1.00  0.00     0.064 A 
ATOM     39  C   UNL A   1      40.229  31.264  35.629  1.00  0.00     0.173 A 
ATOM     40  C   UNL A   1      41.790  32.743  34.555  1.00  0.00     0.173 A 
ATOM     41  F   UNL A   1      39.637  30.065  35.754  1.00  0.00    -0.203 F 
ATOM     42  C   UNL A   1      39.776  32.311  36.424  1.00  0.00     0.198 A 
ATOM     43  C   UNL A   1      41.363  33.779  35.383  1.00  0.00     0.198 A 
ATOM     44  F   UNL A   1      42.749  32.993  33.651  1.00  0.00    -0.203 F 
ATOM     45  F   UNL A   1      38.758  32.111  37.274  1.00  0.00    -0.200 F 
ATOM     46  C   UNL A   1      40.343  33.567  36.301  1.00  0.00     0.200 A 
ATOM     47  F   UNL A   1      41.921  34.993  35.276  1.00  0.00    -0.200 F 
ATOM     48  F   UNL A   1      39.895  34.581  37.054  1.00  0.00    -0.200 F 
ENDBRANCH  24  38
BRANCH  25  49
ATOM     49  C   UNL A   1      43.070  24.502  27.715  1.00  0.00     0.064 A 
ATOM     50  C   UNL A   1      43.795  24.878  26.575  1.00  0.00     0.173 A 
ATOM     51  C   UNL A   1      42.632  23.172  27.795  1.00  0.00     0.173 A 
ATOM     52  F   UNL A   1      44.221  26.143  26.442  1.00  0.00    -0.203 F 
ATOM     53  C   UNL A   1      44.039  23.976  25.540  1.00  0.00     0.198 A 
ATOM     54  C   UNL A   1      42.895  22.264  26.766  1.00  0.00     0.198 A 
ATOM     55  F   UNL A   1      41.941  22.754  28.864  1.00  0.00    -0.203 F 
ATOM     56  F   UNL A   1      44.689  24.382  24.440  1.00  0.00    -0.200 F 
ATOM     57  C   UNL A   1      43.589  22.669  25.635  1.00  0.00     0.200 A 
ATOM     58  F   UNL A   1      42.466  20.998  26.864  1.00  0.00    -0.200 F 
ATOM     59  F   UNL A   1      43.815  21.806  24.636  1.00  0.00    -0.200 F 
ENDBRANCH  25  49
BRANCH  37  60
ATOM     60  C   UNL A   1      45.962  26.084  33.858  1.00  0.00     0.064 A 
ATOM     61  C   UNL A   1      45.741  24.995  34.711  1.00  0.00     0.173 A 
ATOM     62  C   UNL A   1      47.282  26.534  33.689  1.00  0.00     0.173 A 
ATOM     63  F   UNL A   1      44.495  24.541  34.919  1.00  0.00    -0.203 F 
ATOM     64  C   UNL A   1      46.800  24.387  35.379  1.00  0.00     0.198 A 
ATOM     65  C   UNL A   1      48.341  25.900  34.330  1.00  0.00     0.198 A 
ATOM     66  F   UNL A   1      47.546  27.569  32.878  1.00  0.00    -0.203 F 
ATOM     67  F   UNL A   1      46.562  23.372  36.222  1.00  0.00    -0.200 F 
ATOM     68  C   UNL A   1      48.098  24.831  35.177  1.00  0.00     0.200 A 
ATOM     69  F   UNL A   1      49.597  26.318  34.118  1.00  0.00    -0.200 F 
ATOM     70  F   UNL A   1      49.118  24.228  35.804  1.00  0.00    -0.200 F 
ENDBRANCH  37  60
ENDBRANCH  11  12
ENDBRANCH   4   6
ENDBRANCH   3   4
ENDBRANCH   2   3
ENDBRANCH   1   2
BRANCH   1  71
ATOM     71  O   UNL A   1      35.726  34.784  29.299  1.00  0.00    -0.462 OA
BRANCH  71  72
ATOM     72  C   UNL A   1      36.694  33.834  29.433  1.00  0.00     0.309 C 
ATOM     73  O   UNL A   1      37.363  33.405  28.494  1.00  0.00    -0.252 OA
BRANCH  72  74
ATOM     74  C   UNL A   1      36.860  33.299  30.863  1.00  0.00     0.099 C 
ATOM     75  C   UNL A   1      37.137  34.456  31.825  1.00  0.00     0.015 C 
ATOM     76  C   UNL A   1      35.692  32.476  31.388  1.00  0.00     0.015 C 
ATOM     77  C   UNL A   1      37.410  33.957  33.244  1.00  0.00     0.006 C 
ATOM     78  C   UNL A   1      35.788  32.058  32.858  1.00  0.00     0.006 C 
ATOM     79  C   UNL A   1      36.264  33.132  33.854  1.00  0.00     0.008 C 
BRANCH  79  80
ATOM     80  C   UNL A   1      35.179  34.060  34.451  1.00  0.00     0.119 C 
BRANCH  80  81
ATOM     81  N   UNL A   1      33.987  34.127  33.626  1.00  0.00    -0.360 N 
ATOM     82  H   UNL A   1      33.352  33.377  33.681  1.00  0.00     0.162 HD
BRANCH  81  83
ATOM     83  C   UNL A   1      33.683  35.146  32.781  1.00  0.00     0.205 A 
ATOM     84  N   UNL A   1      33.086  34.950  31.622  1.00  0.00    -0.121 NA
ATOM     85  S   UNL A   1      34.028  36.817  33.066  1.00  0.00    -0.083 S 
ATOM     86  N   UNL A   1      32.824  36.116  30.929  1.00  0.00    -0.145 NA
ATOM     87  C   UNL A   1      33.246  37.171  31.586  1.00  0.00     0.204 A 
ENDBRANCH  81  83
ENDBRANCH  80  81
ENDBRANCH  79  80
ENDBRANCH  72  74
ENDBRANCH  71  72
ENDBRANCH   1  71
TORSDOF 14
ENDMDL
MODEL 2
REMARK VINA RESULT:     -10.4      1.158      2.093
REMARK SMILES O=C(OCCOC(=O)[C@H]1CC[C@@H](CNc2nncs2)CC1)c1ccc(-c2c3nc(c(-c4c(F)c(F)c(F)c(F)c4F)c4ccc([nH]4)c(-c4c(F)c(F)c(F)c(F)c4F)c4nc(c(-c5c(F)c(F)c(F)c(F)c5F)c5ccc2[nH]5)C=C4)C=C3)cc1
REMARK SMILES IDX 5 1 4 2 3 3 2 4 1 5 22 6 23 7 84 8 24 9 83 10 25 11 26 12
REMARK SMILES IDX 27 13 77 14 28 15 82 16 76 17 78 18 29 19 81 20 75 21 74 22
REMARK SMILES IDX 30 24 62 25 42 26 61 27 43 28 46 29 60 30 79 31 44 32 45 33
REMARK SMILES IDX 59 35 80 36 47 37 31 38 32 39 40 40 33 41 34 42 38 43 41 44
REMARK SMILES IDX 35 45 36 46 39 47 37 48 63 49 64 50 72 51 65 52 66 53 70 54
REMARK SMILES IDX 73 55 67 56 68 57 71 58 69 59 48 60 49 61 57 62 50 63 51 64
REMARK SMILES IDX 55 65 58 66 52 67 53 68 56 69 54 70 6 71 7 72 8 73 9 74
REMARK SMILES IDX 21 75 10 76 20 77 11 78 12 79 13 80 14 81 15 83 16 84 19 85
REMARK SMILES IDX 17 86 18 87
REMARK H PARENT 78 23 46 34 14 82
REMARK Flexibility Score: inf
ROOT
ATOM      1  C   UNL A   1      35.352  34.083  28.008  1.00  0.00     0.274 C 
ENDROOT
BRANCH   1   2
ATOM      2  C   UNL A   1      33.961  33.444  28.101  1.00  0.00     0.275 C 
BRANCH   2   3
ATOM      3  O   UNL A   1      33.961  32.088  28.555  1.00  0.00    -0.458 OA
BRANCH   3   4
ATOM      4  C   UNL A   1      34.351  30.971  27.904  1.00  0.00     0.338 C 
ATOM      5  O   UNL A   1      33.537  30.427  27.157  1.00  0.00    -0.246 OA
BRANCH   4   6
ATOM      6  C   UNL A   1      35.666  30.273  28.121  1.00  0.00     0.060 A 
ATOM      7  C   UNL A   1      36.753  30.165  27.241  1.00  0.00     0.016 A 
ATOM      8  C   UNL A   1      35.831  29.733  29.402  1.00  0.00     0.016 A 
ATOM      9  C   UNL A   1      38.001  29.661  27.657  1.00  0.00     0.010 A 
ATOM     10  C   UNL A   1      37.073  29.260  29.823  1.00  0.00     0.010 A 
ATOM     11  C   UNL A   1      38.188  29.243  28.970  1.00  0.00    -0.014 A 
BRANCH  11  12
ATOM     12  C   UNL A   1      39.474  28.701  29.487  1.00  0.00     0.031 A 
ATOM     13  C   UNL A   1      40.254  29.569  30.435  1.00  0.00     0.074 A 
ATOM     14  C   UNL A   1      40.019  27.553  29.028  1.00  0.00     0.049 A 
ATOM     15  N   UNL A   1      41.476  29.437  30.876  1.00  0.00    -0.248 NA
ATOM     16  C   UNL A   1      39.575  30.793  30.899  1.00  0.00     0.031 C 
ATOM     17  C   UNL A   1      39.403  26.622  28.084  1.00  0.00     0.029 A 
ATOM     18  N   UNL A   1      41.257  26.998  29.260  1.00  0.00    -0.354 N 
ATOM     19  C   UNL A   1      41.706  30.578  31.630  1.00  0.00     0.074 A 
ATOM     20  C   UNL A   1      40.578  31.457  31.442  1.00  0.00     0.031 C 
ATOM     21  C   UNL A   1      40.283  25.656  27.762  1.00  0.00     0.029 A 
ATOM     22  C   UNL A   1      41.516  25.872  28.510  1.00  0.00     0.049 A 
ATOM     23  H   UNL A   1      41.899  27.372  29.905  1.00  0.00     0.167 HD
ATOM     24  C   UNL A   1      42.703  30.824  32.509  1.00  0.00     0.037 A 
ATOM     25  C   UNL A   1      42.617  25.095  28.456  1.00  0.00     0.037 A 
ATOM     26  C   UNL A   1      43.778  29.910  32.753  1.00  0.00     0.049 A 
ATOM     27  C   UNL A   1      43.748  25.386  29.412  1.00  0.00     0.074 A 
ATOM     28  C   UNL A   1      44.781  29.981  33.698  1.00  0.00     0.029 A 
ATOM     29  N   UNL A   1      43.980  28.745  32.028  1.00  0.00    -0.354 N 
ATOM     30  N   UNL A   1      43.879  26.379  30.258  1.00  0.00    -0.248 NA
ATOM     31  C   UNL A   1      44.850  24.414  29.456  1.00  0.00     0.031 C 
ATOM     32  C   UNL A   1      45.609  28.868  33.526  1.00  0.00     0.029 A 
ATOM     33  C   UNL A   1      45.094  28.082  32.505  1.00  0.00     0.049 A 
ATOM     34  H   UNL A   1      43.413  28.437  31.284  1.00  0.00     0.167 HD
ATOM     35  C   UNL A   1      45.035  26.117  30.981  1.00  0.00     0.074 A 
ATOM     36  C   UNL A   1      45.575  24.876  30.466  1.00  0.00     0.031 C 
ATOM     37  C   UNL A   1      45.588  26.828  31.996  1.00  0.00     0.037 A 
BRANCH  24  38
ATOM     38  C   UNL A   1      42.591  32.088  33.310  1.00  0.00     0.064 A 
ATOM     39  C   UNL A   1      43.234  33.269  32.894  1.00  0.00     0.173 A 
ATOM     40  C   UNL A   1      41.905  32.113  34.530  1.00  0.00     0.173 A 
ATOM     41  F   UNL A   1      43.916  33.298  31.737  1.00  0.00    -0.203 F 
ATOM     42  C   UNL A   1      43.263  34.397  33.708  1.00  0.00     0.198 A 
ATOM     43  C   UNL A   1      41.900  33.260  35.322  1.00  0.00     0.198 A 
ATOM     44  F   UNL A   1      41.257  31.023  34.968  1.00  0.00    -0.203 F 
ATOM     45  F   UNL A   1      43.976  35.470  33.335  1.00  0.00    -0.200 F 
ATOM     46  C   UNL A   1      42.596  34.391  34.920  1.00  0.00     0.200 A 
ATOM     47  F   UNL A   1      41.243  33.262  36.490  1.00  0.00    -0.200 F 
ATOM     48  F   UNL A   1      42.638  35.472  35.711  1.00  0.00    -0.200 F 
ENDBRANCH  24  38
BRANCH  25  49
ATOM     49  C   UNL A   1      42.676  23.907  27.557  1.00  0.00     0.064 A 
ATOM     50  C   UNL A   1      42.374  22.626  28.041  1.00  0.00     0.173 A 
ATOM     51  C   UNL A   1      43.072  24.016  26.217  1.00  0.00     0.173 A 
ATOM     52  F   UNL A   1      42.006  22.465  29.322  1.00  0.00    -0.203 F 
ATOM     53  C   UNL A   1      42.501  21.496  27.234  1.00  0.00     0.198 A 
ATOM     54  C   UNL A   1      43.180  22.885  25.402  1.00  0.00     0.198 A 
ATOM     55  F   UNL A   1      43.366  25.216  25.697  1.00  0.00    -0.203 F 
ATOM     56  F   UNL A   1      42.257  20.280  27.743  1.00  0.00    -0.200 F 
ATOM     57  C   UNL A   1      42.905  21.626  25.915  1.00  0.00     0.200 A 
ATOM     58  F   UNL A   1      43.562  23.014  24.124  1.00  0.00    -0.200 F 
ATOM     59  F   UNL A   1      43.036  20.539  25.142  1.00  0.00    -0.200 F 
ENDBRANCH  25  49
BRANCH  37  60
ATOM     60  C   UNL A   1      46.794  26.250  32.671  1.00  0.00     0.064 A 
ATOM     61  C   UNL A   1      46.685  25.347  33.736  1.00  0.00     0.173 A 
ATOM     62  C   UNL A   1      48.078  26.546  32.184  1.00  0.00     0.173 A 
ATOM     63  F   UNL A   1      45.482  25.047  34.248  1.00  0.00    -0.203 F 
ATOM     64  C   UNL A   1      47.820  24.770  34.299  1.00  0.00     0.198 A 
ATOM     65  C   UNL A   1      49.206  25.940  32.725  1.00  0.00     0.198 A 
ATOM     66  F   UNL A   1      48.233  27.401  31.162  1.00  0.00    -0.203 F 
ATOM     67  F   UNL A   1      47.697  23.939  35.343  1.00  0.00    -0.200 F 
ATOM     68  C   UNL A   1      49.076  25.057  33.785  1.00  0.00     0.200 A 
ATOM     69  F   UNL A   1      50.417  26.203  32.214  1.00  0.00    -0.200 F 
ATOM     70  F   UNL A   1      50.165  24.482  34.315  1.00  0.00    -0.200 F 
ENDBRANCH  37  60
ENDBRANCH  11  12
ENDBRANCH   4   6
ENDBRANCH   3   4
ENDBRANCH   2   3
ENDBRANCH   1   2
BRANCH   1  71
ATOM     71  O   UNL A   1      35.997  34.315  29.280  1.00  0.00    -0.462 OA
BRANCH  71  72
ATOM     72  C   UNL A   1      37.085  33.542  29.556  1.00  0.00     0.309 C 
ATOM     73  O   UNL A   1      37.902  33.187  28.708  1.00  0.00    -0.252 OA
BRANCH  72  74
ATOM     74  C   UNL A   1      37.193  33.105  31.024  1.00  0.00     0.099 C 
ATOM     75  C   UNL A   1      37.534  34.309  31.904  1.00  0.00     0.015 C 
ATOM     76  C   UNL A   1      35.965  32.403  31.585  1.00  0.00     0.015 C 
ATOM     77  C   UNL A   1      37.751  33.901  33.362  1.00  0.00     0.006 C 
ATOM     78  C   UNL A   1      36.010  32.090  33.084  1.00  0.00     0.006 C 
ATOM     79  C   UNL A   1      36.543  33.200  34.008  1.00  0.00     0.008 C 
BRANCH  79  80
ATOM     80  C   UNL A   1      35.515  34.241  34.514  1.00  0.00     0.119 C 
BRANCH  80  81
ATOM     81  N   UNL A   1      34.235  34.134  33.836  1.00  0.00    -0.360 N 
ATOM     82  H   UNL A   1      33.636  33.402  34.108  1.00  0.00     0.162 HD
BRANCH  81  83
ATOM     83  C   UNL A   1      33.804  34.968  32.855  1.00  0.00     0.205 A 
ATOM     84  N   UNL A   1      33.339  34.524  31.703  1.00  0.00    -0.121 NA
ATOM     85  S   UNL A   1      33.804  36.696  32.939  1.00  0.00    -0.083 S 
ATOM     86  N   UNL A   1      32.911  35.527  30.855  1.00  0.00    -0.145 NA
ATOM     87  C   UNL A   1      33.077  36.713  31.390  1.00  0.00     0.204 A 
ENDBRANCH  81  83
ENDBRANCH  80  81
ENDBRANCH  79  80
ENDBRANCH  72  74
ENDBRANCH  71  72
ENDBRANCH   1  71
TORSDOF 14
ENDMDL
MODEL 3
REMARK VINA RESULT:     -10.3      3.722      5.782
REMARK SMILES O=C(OCCOC(=O)[C@H]1CC[C@@H](CNc2nncs2)CC1)c1ccc(-c2c3nc(c(-c4c(F)c(F)c(F)c(F)c4F)c4ccc([nH]4)c(-c4c(F)c(F)c(F)c(F)c4F)c4nc(c(-c5c(F)c(F)c(F)c(F)c5F)c5ccc2[nH]5)C=C4)C=C3)cc1
REMARK SMILES IDX 5 1 4 2 3 3 2 4 1 5 22 6 23 7 84 8 24 9 83 10 25 11 26 12
REMARK SMILES IDX 27 13 77 14 28 15 82 16 76 17 78 18 29 19 81 20 75 21 74 22
REMARK SMILES IDX 30 24 62 25 42 26 61 27 43 28 46 29 60 30 79 31 44 32 45 33
REMARK SMILES IDX 59 35 80 36 47 37 31 38 32 39 40 40 33 41 34 42 38 43 41 44
REMARK SMILES IDX 35 45 36 46 39 47 37 48 63 49 64 50 72 51 65 52 66 53 70 54
REMARK SMILES IDX 73 55 67 56 68 57 71 58 69 59 48 60 49 61 57 62 50 63 51 64
REMARK SMILES IDX 55 65 58 66 52 67 53 68 56 69 54 70 6 71 7 72 8 73 9 74
REMARK SMILES IDX 21 75 10 76 20 77 11 78 12 79 13 80 14 81 15 83 16 84 19 85
REMARK SMILES IDX 17 86 18 87
REMARK H PARENT 78 23 46 34 14 82
REMARK Flexibility Score: inf
ROOT
ATOM      1  C   UNL A   1      32.192  31.044  26.308  1.00  0.00     0.274 C 
ENDROOT
BRANCH   1   2
ATOM      2  C   UNL A   1      31.443  32.235  26.916  1.00  0.00     0.275 C 
BRANCH   2   3
ATOM      3  O   UNL A   1      32.217  33.434  27.014  1.00  0.00    -0.458 OA
BRANCH   3   4
ATOM      4  C   UNL A   1      33.042  33.837  28.004  1.00  0.00     0.338 C 
ATOM      5  O   UNL A   1      32.775  34.891  28.582  1.00  0.00    -0.246 OA
BRANCH   4   6
ATOM      6  C   UNL A   1      34.333  33.157  28.367  1.00  0.00     0.060 A 
ATOM      7  C   UNL A   1      35.646  33.581  28.110  1.00  0.00     0.016 A 
ATOM      8  C   UNL A   1      34.181  31.989  29.122  1.00  0.00     0.016 A 
ATOM      9  C   UNL A   1      36.761  32.947  28.694  1.00  0.00     0.010 A 
ATOM     10  C   UNL A   1      35.281  31.378  29.722  1.00  0.00     0.010 A 
ATOM     11  C   UNL A   1      36.587  31.862  29.545  1.00  0.00    -0.014 A 
BRANCH  11  12
ATOM     12  C   UNL A   1      37.711  31.139  30.201  1.00  0.00     0.031 A 
ATOM     13  C   UNL A   1      38.130  31.614  31.564  1.00  0.00     0.074 A 
ATOM     14  C   UNL A   1      38.443  30.198  29.564  1.00  0.00     0.049 A 
ATOM     15  N   UNL A   1      39.185  31.305  32.268  1.00  0.00    -0.248 NA
ATOM     16  C   UNL A   1      37.264  32.629  32.190  1.00  0.00     0.031 C 
ATOM     17  C   UNL A   1      38.184  29.658  28.231  1.00  0.00     0.029 A 
ATOM     18  N   UNL A   1      39.602  29.561  29.946  1.00  0.00    -0.354 N 
ATOM     19  C   UNL A   1      39.113  32.117  33.390  1.00  0.00     0.074 A 
ATOM     20  C   UNL A   1      38.024  33.041  33.187  1.00  0.00     0.031 C 
ATOM     21  C   UNL A   1      39.185  28.832  27.875  1.00  0.00     0.029 A 
ATOM     22  C   UNL A   1      40.140  28.747  28.974  1.00  0.00     0.049 A 
ATOM     23  H   UNL A   1      40.009  29.677  30.834  1.00  0.00     0.167 HD
ATOM     24  C   UNL A   1      39.803  32.023  34.549  1.00  0.00     0.037 A 
ATOM     25  C   UNL A   1      41.264  28.002  28.985  1.00  0.00     0.037 A 
ATOM     26  C   UNL A   1      40.829  31.050  34.774  1.00  0.00     0.049 A 
ATOM     27  C   UNL A   1      42.058  27.920  30.266  1.00  0.00     0.074 A 
ATOM     28  C   UNL A   1      41.518  30.768  35.936  1.00  0.00     0.029 A 
ATOM     29  N   UNL A   1      41.308  30.192  33.795  1.00  0.00    -0.354 N 
ATOM     30  N   UNL A   1      41.876  28.566  31.392  1.00  0.00    -0.248 NA
ATOM     31  C   UNL A   1      43.170  26.959  30.301  1.00  0.00     0.031 C 
ATOM     32  C   UNL A   1      42.438  29.754  35.651  1.00  0.00     0.029 A 
ATOM     33  C   UNL A   1      42.288  29.375  34.325  1.00  0.00     0.049 A 
ATOM     34  H   UNL A   1      40.996  30.170  32.862  1.00  0.00     0.167 HD
ATOM     35  C   UNL A   1      42.798  28.042  32.288  1.00  0.00     0.074 A 
ATOM     36  C   UNL A   1      43.547  27.031  31.570  1.00  0.00     0.031 C 
ATOM     37  C   UNL A   1      42.992  28.352  33.595  1.00  0.00     0.037 A 
BRANCH  24  38
ATOM     38  C   UNL A   1      39.382  32.946  35.654  1.00  0.00     0.064 A 
ATOM     39  C   UNL A   1      39.994  34.202  35.823  1.00  0.00     0.173 A 
ATOM     40  C   UNL A   1      38.420  32.556  36.595  1.00  0.00     0.173 A 
ATOM     41  F   UNL A   1      40.931  34.621  34.957  1.00  0.00    -0.203 F 
ATOM     42  C   UNL A   1      39.718  34.993  36.933  1.00  0.00     0.198 A 
ATOM     43  C   UNL A   1      38.116  33.372  37.682  1.00  0.00     0.198 A 
ATOM     44  F   UNL A   1      37.790  31.378  36.474  1.00  0.00    -0.203 F 
ATOM     45  F   UNL A   1      40.396  36.134  37.125  1.00  0.00    -0.200 F 
ATOM     46  C   UNL A   1      38.779  34.578  37.861  1.00  0.00     0.200 A 
ATOM     47  F   UNL A   1      37.196  32.979  38.575  1.00  0.00    -0.200 F 
ATOM     48  F   UNL A   1      38.526  35.331  38.940  1.00  0.00    -0.200 F 
ENDBRANCH  24  38
BRANCH  25  49
ATOM     49  C   UNL A   1      41.657  27.186  27.800  1.00  0.00     0.064 A 
ATOM     50  C   UNL A   1      41.177  25.878  27.641  1.00  0.00     0.173 A 
ATOM     51  C   UNL A   1      42.546  27.672  26.832  1.00  0.00     0.173 A 
ATOM     52  F   UNL A   1      40.337  25.359  28.549  1.00  0.00    -0.203 F 
ATOM     53  C   UNL A   1      41.598  25.075  26.580  1.00  0.00     0.198 A 
ATOM     54  C   UNL A   1      42.951  26.874  25.759  1.00  0.00     0.198 A 
ATOM     55  F   UNL A   1      43.032  28.918  26.929  1.00  0.00    -0.203 F 
ATOM     56  F   UNL A   1      41.162  23.811  26.486  1.00  0.00    -0.200 F 
ATOM     57  C   UNL A   1      42.485  25.573  25.640  1.00  0.00     0.200 A 
ATOM     58  F   UNL A   1      43.803  27.361  24.846  1.00  0.00    -0.200 F 
ATOM     59  F   UNL A   1      42.896  24.798  24.627  1.00  0.00    -0.200 F 
ENDBRANCH  25  49
BRANCH  37  60
ATOM     60  C   UNL A   1      43.998  27.545  34.358  1.00  0.00     0.064 A 
ATOM     61  C   UNL A   1      45.323  27.971  34.516  1.00  0.00     0.173 A 
ATOM     62  C   UNL A   1      43.600  26.366  35.009  1.00  0.00     0.173 A 
ATOM     63  F   UNL A   1      45.754  29.082  33.898  1.00  0.00    -0.203 F 
ATOM     64  C   UNL A   1      46.219  27.239  35.289  1.00  0.00     0.198 A 
ATOM     65  C   UNL A   1      44.489  25.657  35.809  1.00  0.00     0.198 A 
ATOM     66  F   UNL A   1      42.340  25.920  34.892  1.00  0.00    -0.203 F 
ATOM     67  F   UNL A   1      47.492  27.642  35.395  1.00  0.00    -0.200 F 
ATOM     68  C   UNL A   1      45.798  26.091  35.944  1.00  0.00     0.200 A 
ATOM     69  F   UNL A   1      44.075  24.559  36.458  1.00  0.00    -0.200 F 
ATOM     70  F   UNL A   1      46.657  25.400  36.706  1.00  0.00    -0.200 F 
ENDBRANCH  37  60
ENDBRANCH  11  12
ENDBRANCH   4   6
ENDBRANCH   3   4
ENDBRANCH   2   3
ENDBRANCH   1   2
BRANCH   1  71
ATOM     71  O   UNL A   1      32.109  29.822  27.075  1.00  0.00    -0.462 OA
BRANCH  71  72
ATOM     72  C   UNL A   1      33.110  28.917  26.881  1.00  0.00     0.309 C 
ATOM     73  O   UNL A   1      34.281  29.117  27.201  1.00  0.00    -0.252 OA
BRANCH  72  74
ATOM     74  C   UNL A   1      32.665  27.623  26.183  1.00  0.00     0.099 C 
ATOM     75  C   UNL A   1      31.305  27.179  26.724  1.00  0.00     0.015 C 
ATOM     76  C   UNL A   1      32.604  27.694  24.664  1.00  0.00     0.015 C 
ATOM     77  C   UNL A   1      30.872  25.838  26.129  1.00  0.00     0.006 C 
ATOM     78  C   UNL A   1      32.029  26.456  23.969  1.00  0.00     0.006 C 
ATOM     79  C   UNL A   1      30.767  25.834  24.594  1.00  0.00     0.008 C 
BRANCH  79  80
ATOM     80  C   UNL A   1      29.405  26.411  24.138  1.00  0.00     0.119 C 
BRANCH  80  81
ATOM     81  N   UNL A   1      29.547  27.426  23.110  1.00  0.00    -0.360 N 
ATOM     82  H   UNL A   1      30.102  27.207  22.327  1.00  0.00     0.162 HD
BRANCH  81  83
ATOM     83  C   UNL A   1      28.972  28.656  23.149  1.00  0.00     0.205 A 
ATOM     84  N   UNL A   1      27.673  28.834  23.004  1.00  0.00    -0.121 NA
ATOM     85  S   UNL A   1      29.816  30.149  23.374  1.00  0.00    -0.083 S 
ATOM     86  N   UNL A   1      27.278  30.153  23.117  1.00  0.00    -0.145 NA
ATOM     87  C   UNL A   1      28.302  30.944  23.336  1.00  0.00     0.204 A 
ENDBRANCH  81  83
ENDBRANCH  80  81
ENDBRANCH  79  80
ENDBRANCH  72  74
ENDBRANCH  71  72
ENDBRANCH   1  71
TORSDOF 14
ENDMDL
