MODEL 1
REMARK VINA RESULT:     -10.7      0.000      0.000
REMARK SMILES C[C@@H](C(=O)OCCOC(=O)c1ccc(-c2c3nc(c(-c4c(F)c(F)c(F)c(F)c4F)c4ccc([nH]4)c(-c4c(F)c(F)c(F)c(F)c4F)c4nc(c(-c5c(F)c(F)c(F)c(F)c5F)c5ccc2[nH]5)C=C4)C=C3)cc1)c1cccn(C(F)F)c1=O
REMARK SMILES IDX 6 1 5 2 3 3 4 4 2 5 1 6 74 7 75 8 82 9 76 10 78 11 83 12
REMARK SMILES IDX 77 13 79 14 80 15 81 16 7 17 8 18 9 19 10 20 11 21 12 22
REMARK SMILES IDX 73 23 13 24 72 25 14 26 15 27 16 28 66 29 17 30 71 31 65 32
REMARK SMILES IDX 67 33 18 34 70 35 64 36 63 37 19 39 51 40 31 41 50 42 32 43
REMARK SMILES IDX 35 44 49 45 68 46 33 47 34 48 48 50 69 51 36 52 20 53 21 54
REMARK SMILES IDX 29 55 22 56 23 57 27 58 30 59 24 60 25 61 28 62 26 63 52 64
REMARK SMILES IDX 53 65 61 66 54 67 55 68 59 69 62 70 56 71 57 72 60 73 58 74
REMARK SMILES IDX 37 75 38 76 46 77 39 78 40 79 44 80 47 81 41 82 42 83 45 84
REMARK SMILES IDX 43 85
REMARK H PARENT 67 38 35 49
REMARK Flexibility Score: inf
ROOT
ATOM      1  C   UNL A   1      31.064  31.645  26.153  1.00  0.00     0.274 C 
ENDROOT
BRANCH   1   2
ATOM      2  O   UNL A   1      31.769  30.562  26.802  1.00  0.00    -0.462 OA
BRANCH   2   3
ATOM      3  C   UNL A   1      32.344  29.622  25.998  1.00  0.00     0.313 C 
ATOM      4  O   UNL A   1      32.198  29.572  24.781  1.00  0.00    -0.252 OA
BRANCH   3   5
ATOM      5  C   UNL A   1      33.078  28.539  26.826  1.00  0.00     0.132 C 
ATOM      6  C   UNL A   1      34.485  28.953  27.253  1.00  0.00     0.025 C 
BRANCH   5   7
ATOM      7  C   UNL A   1      33.079  27.213  26.086  1.00  0.00     0.032 A 
ATOM      8  C   UNL A   1      34.043  26.774  25.256  1.00  0.00     0.012 A 
ATOM      9  C   UNL A   1      31.974  26.266  26.414  1.00  0.00     0.259 A 
ATOM     10  C   UNL A   1      34.048  25.407  24.779  1.00  0.00     0.019 A 
ATOM     11  N   UNL A   1      32.226  24.932  26.192  1.00  0.00    -0.258 N 
ATOM     12  O   UNL A   1      30.936  26.703  26.889  1.00  0.00    -0.269 OA
ATOM     13  C   UNL A   1      33.205  24.515  25.317  1.00  0.00     0.095 A 
BRANCH  11  14
ATOM     14  C   UNL A   1      31.393  23.982  26.876  1.00  0.00     0.451 C 
ATOM     15  F   UNL A   1      30.329  23.653  26.102  1.00  0.00    -0.185 F 
ATOM     16  F   UNL A   1      32.091  22.831  27.083  1.00  0.00    -0.185 F 
ENDBRANCH  11  14
ENDBRANCH   5   7
ENDBRANCH   3   5
ENDBRANCH   2   3
ENDBRANCH   1   2
BRANCH   1  17
ATOM     17  C   UNL A   1      31.522  32.993  26.713  1.00  0.00     0.275 C 
BRANCH  17  18
ATOM     18  O   UNL A   1      32.891  32.873  27.138  1.00  0.00    -0.458 OA
BRANCH  18  19
ATOM     19  C   UNL A   1      33.334  33.816  28.000  1.00  0.00     0.338 C 
ATOM     20  O   UNL A   1      32.801  34.873  28.299  1.00  0.00    -0.246 OA
BRANCH  19  21
ATOM     21  C   UNL A   1      34.539  33.277  28.643  1.00  0.00     0.060 A 
ATOM     22  C   UNL A   1      34.396  32.100  29.367  1.00  0.00     0.016 A 
ATOM     23  C   UNL A   1      35.792  33.878  28.517  1.00  0.00     0.016 A 
ATOM     24  C   UNL A   1      35.517  31.458  29.889  1.00  0.00     0.010 A 
ATOM     25  C   UNL A   1      36.918  33.253  29.082  1.00  0.00     0.010 A 
ATOM     26  C   UNL A   1      36.791  32.024  29.751  1.00  0.00    -0.014 A 
BRANCH  26  27
ATOM     27  C   UNL A   1      37.946  31.330  30.380  1.00  0.00     0.031 A 
ATOM     28  C   UNL A   1      38.221  31.537  31.843  1.00  0.00     0.074 A 
ATOM     29  C   UNL A   1      38.662  30.410  29.705  1.00  0.00     0.049 A 
ATOM     30  N   UNL A   1      39.174  31.033  32.588  1.00  0.00    -0.248 NA
ATOM     31  C   UNL A   1      37.281  32.403  32.569  1.00  0.00     0.031 C 
ATOM     32  C   UNL A   1      38.406  29.980  28.333  1.00  0.00     0.029 A 
ATOM     33  N   UNL A   1      39.723  29.633  30.107  1.00  0.00    -0.354 N 
ATOM     34  C   UNL A   1      38.951  31.526  33.865  1.00  0.00     0.074 A 
ATOM     35  C   UNL A   1      37.756  32.341  33.803  1.00  0.00     0.031 C 
ATOM     36  C   UNL A   1      39.255  28.983  28.023  1.00  0.00     0.029 A 
ATOM     37  C   UNL A   1      40.166  28.756  29.146  1.00  0.00     0.049 A 
ATOM     38  H   UNL A   1      40.129  29.697  31.002  1.00  0.00     0.167 HD
ATOM     39  C   UNL A   1      39.693  31.351  34.982  1.00  0.00     0.037 A 
ATOM     40  C   UNL A   1      41.204  27.893  29.160  1.00  0.00     0.037 A 
ATOM     41  C   UNL A   1      40.909  30.587  35.049  1.00  0.00     0.049 A 
ATOM     42  C   UNL A   1      42.101  27.828  30.375  1.00  0.00     0.074 A 
ATOM     43  C   UNL A   1      41.797  30.466  36.105  1.00  0.00     0.029 A 
ATOM     44  N   UNL A   1      41.412  29.816  34.013  1.00  0.00    -0.354 N 
ATOM     45  N   UNL A   1      41.954  28.388  31.550  1.00  0.00    -0.248 NA
ATOM     46  C   UNL A   1      43.335  27.034  30.247  1.00  0.00     0.031 C 
ATOM     47  C   UNL A   1      42.862  29.659  35.692  1.00  0.00     0.029 A 
ATOM     48  C   UNL A   1      42.610  29.235  34.397  1.00  0.00     0.049 A 
ATOM     49  H   UNL A   1      40.983  29.700  33.135  1.00  0.00     0.167 HD
ATOM     50  C   UNL A   1      43.065  28.012  32.298  1.00  0.00     0.074 A 
ATOM     51  C   UNL A   1      43.862  27.146  31.458  1.00  0.00     0.031 C 
ATOM     52  C   UNL A   1      43.401  28.368  33.562  1.00  0.00     0.037 A 
BRANCH  39  53
ATOM     53  C   UNL A   1      39.260  32.104  36.200  1.00  0.00     0.064 A 
ATOM     54  C   UNL A   1      38.324  31.583  37.103  1.00  0.00     0.173 A 
ATOM     55  C   UNL A   1      39.783  33.382  36.450  1.00  0.00     0.173 A 
ATOM     56  F   UNL A   1      37.777  30.377  36.888  1.00  0.00    -0.203 F 
ATOM     57  C   UNL A   1      37.912  32.326  38.206  1.00  0.00     0.198 A 
ATOM     58  C   UNL A   1      39.386  34.111  37.564  1.00  0.00     0.198 A 
ATOM     59  F   UNL A   1      40.677  33.923  35.608  1.00  0.00    -0.203 F 
ATOM     60  F   UNL A   1      36.982  31.832  39.035  1.00  0.00    -0.200 F 
ATOM     61  C   UNL A   1      38.445  33.587  38.437  1.00  0.00     0.200 A 
ATOM     62  F   UNL A   1      39.905  35.327  37.787  1.00  0.00    -0.200 F 
ATOM     63  F   UNL A   1      38.043  34.301  39.498  1.00  0.00    -0.200 F 
ENDBRANCH  39  53
BRANCH  40  64
ATOM     64  C   UNL A   1      41.518  27.055  27.969  1.00  0.00     0.064 A 
ATOM     65  C   UNL A   1      40.978  25.768  27.825  1.00  0.00     0.173 A 
ATOM     66  C   UNL A   1      42.432  27.486  26.995  1.00  0.00     0.173 A 
ATOM     67  F   UNL A   1      40.134  25.289  28.751  1.00  0.00    -0.203 F 
ATOM     68  C   UNL A   1      41.356  24.940  26.768  1.00  0.00     0.198 A 
ATOM     69  C   UNL A   1      42.781  26.672  25.920  1.00  0.00     0.198 A 
ATOM     70  F   UNL A   1      43.000  28.697  27.093  1.00  0.00    -0.203 F 
ATOM     71  F   UNL A   1      40.879  23.689  26.697  1.00  0.00    -0.200 F 
ATOM     72  C   UNL A   1      42.252  25.394  25.814  1.00  0.00     0.200 A 
ATOM     73  F   UNL A   1      43.647  27.117  25.000  1.00  0.00    -0.200 F 
ATOM     74  F   UNL A   1      42.625  24.594  24.806  1.00  0.00    -0.200 F 
ENDBRANCH  40  64
BRANCH  52  75
ATOM     75  C   UNL A   1      44.680  27.821  34.130  1.00  0.00     0.064 A 
ATOM     76  C   UNL A   1      45.890  28.523  34.018  1.00  0.00     0.173 A 
ATOM     77  C   UNL A   1      44.686  26.616  34.848  1.00  0.00     0.173 A 
ATOM     78  F   UNL A   1      45.942  29.674  33.332  1.00  0.00    -0.203 F 
ATOM     79  C   UNL A   1      47.061  28.027  34.586  1.00  0.00     0.198 A 
ATOM     80  C   UNL A   1      45.853  26.138  35.438  1.00  0.00     0.198 A 
ATOM     81  F   UNL A   1      43.555  25.910  34.993  1.00  0.00    -0.203 F 
ATOM     82  F   UNL A   1      48.213  28.696  34.434  1.00  0.00    -0.200 F 
ATOM     83  C   UNL A   1      47.040  26.841  35.304  1.00  0.00     0.200 A 
ATOM     84  F   UNL A   1      45.828  24.998  36.144  1.00  0.00    -0.200 F 
ATOM     85  F   UNL A   1      48.166  26.372  35.860  1.00  0.00    -0.200 F 
ENDBRANCH  52  75
ENDBRANCH  26  27
ENDBRANCH  19  21
ENDBRANCH  18  19
ENDBRANCH  17  18
ENDBRANCH   1  17
TORSDOF 13
ENDMDL
MODEL 2
REMARK VINA RESULT:     -10.7      5.429     10.691
REMARK SMILES C[C@@H](C(=O)OCCOC(=O)c1ccc(-c2c3nc(c(-c4c(F)c(F)c(F)c(F)c4F)c4ccc([nH]4)c(-c4c(F)c(F)c(F)c(F)c4F)c4nc(c(-c5c(F)c(F)c(F)c(F)c5F)c5ccc2[nH]5)C=C4)C=C3)cc1)c1cccn(C(F)F)c1=O
REMARK SMILES IDX 6 1 5 2 3 3 4 4 2 5 1 6 74 7 75 8 82 9 76 10 78 11 83 12
REMARK SMILES IDX 77 13 79 14 80 15 81 16 7 17 8 18 9 19 10 20 11 21 12 22
REMARK SMILES IDX 73 23 13 24 72 25 14 26 15 27 16 28 66 29 17 30 71 31 65 32
REMARK SMILES IDX 67 33 18 34 70 35 64 36 63 37 19 39 51 40 31 41 50 42 32 43
REMARK SMILES IDX 35 44 49 45 68 46 33 47 34 48 48 50 69 51 36 52 20 53 21 54
REMARK SMILES IDX 29 55 22 56 23 57 27 58 30 59 24 60 25 61 28 62 26 63 52 64
REMARK SMILES IDX 53 65 61 66 54 67 55 68 59 69 62 70 56 71 57 72 60 73 58 74
REMARK SMILES IDX 37 75 38 76 46 77 39 78 40 79 44 80 47 81 41 82 42 83 45 84
REMARK SMILES IDX 43 85
REMARK H PARENT 67 38 35 49
REMARK Flexibility Score: inf
ROOT
ATOM      1  C   UNL A   1      42.095  20.567  26.522  1.00  0.00     0.274 C 
ENDROOT
BRANCH   1   2
ATOM      2  O   UNL A   1      42.655  21.290  25.401  1.00  0.00    -0.462 OA
BRANCH   2   3
ATOM      3  C   UNL A   1      43.827  21.956  25.611  1.00  0.00     0.313 C 
ATOM      4  O   UNL A   1      44.939  21.451  25.489  1.00  0.00    -0.252 OA
BRANCH   3   5
ATOM      5  C   UNL A   1      43.581  23.379  26.168  1.00  0.00     0.132 C 
ATOM      6  C   UNL A   1      43.518  24.452  25.082  1.00  0.00     0.025 C 
BRANCH   5   7
ATOM      7  C   UNL A   1      44.605  23.717  27.237  1.00  0.00     0.032 A 
ATOM      8  C   UNL A   1      45.835  24.216  27.022  1.00  0.00     0.012 A 
ATOM      9  C   UNL A   1      44.149  23.606  28.654  1.00  0.00     0.259 A 
ATOM     10  C   UNL A   1      46.642  24.706  28.119  1.00  0.00     0.019 A 
ATOM     11  N   UNL A   1      44.822  24.375  29.574  1.00  0.00    -0.258 N 
ATOM     12  O   UNL A   1      43.199  22.884  28.919  1.00  0.00    -0.269 OA
ATOM     13  C   UNL A   1      46.092  24.851  29.332  1.00  0.00     0.095 A 
BRANCH  11  14
ATOM     14  C   UNL A   1      44.165  24.628  30.827  1.00  0.00     0.451 C 
ATOM     15  F   UNL A   1      44.881  24.091  31.846  1.00  0.00    -0.185 F 
ATOM     16  F   UNL A   1      44.118  25.970  31.053  1.00  0.00    -0.185 F 
ENDBRANCH  11  14
ENDBRANCH   5   7
ENDBRANCH   3   5
ENDBRANCH   2   3
ENDBRANCH   1   2
BRANCH   1  17
ATOM     17  C   UNL A   1      40.567  20.596  26.465  1.00  0.00     0.275 C 
BRANCH  17  18
ATOM     18  O   UNL A   1      40.103  21.780  27.134  1.00  0.00    -0.458 OA
BRANCH  18  19
ATOM     19  C   UNL A   1      39.353  22.630  26.395  1.00  0.00     0.338 C 
ATOM     20  O   UNL A   1      38.479  22.355  25.588  1.00  0.00    -0.246 OA
BRANCH  19  21
ATOM     21  C   UNL A   1      39.683  23.990  26.839  1.00  0.00     0.060 A 
ATOM     22  C   UNL A   1      39.642  24.235  28.206  1.00  0.00     0.016 A 
ATOM     23  C   UNL A   1      40.061  25.000  25.953  1.00  0.00     0.016 A 
ATOM     24  C   UNL A   1      40.073  25.461  28.711  1.00  0.00     0.010 A 
ATOM     25  C   UNL A   1      40.454  26.252  26.461  1.00  0.00     0.010 A 
ATOM     26  C   UNL A   1      40.486  26.482  27.847  1.00  0.00    -0.014 A 
BRANCH  26  27
ATOM     27  C   UNL A   1      40.878  27.791  28.433  1.00  0.00     0.031 A 
ATOM     28  C   UNL A   1      42.335  28.146  28.533  1.00  0.00     0.074 A 
ATOM     29  C   UNL A   1      39.957  28.724  28.740  1.00  0.00     0.049 A 
ATOM     30  N   UNL A   1      42.894  29.229  29.012  1.00  0.00    -0.248 NA
ATOM     31  C   UNL A   1      43.286  27.162  27.997  1.00  0.00     0.031 C 
ATOM     32  C   UNL A   1      38.516  28.588  28.540  1.00  0.00     0.029 A 
ATOM     33  N   UNL A   1      40.105  29.995  29.243  1.00  0.00    -0.354 N 
ATOM     34  C   UNL A   1      44.259  29.054  28.840  1.00  0.00     0.074 A 
ATOM     35  C   UNL A   1      44.443  27.777  28.184  1.00  0.00     0.031 C 
ATOM     36  C   UNL A   1      37.919  29.747  28.869  1.00  0.00     0.029 A 
ATOM     37  C   UNL A   1      38.923  30.682  29.379  1.00  0.00     0.049 A 
ATOM     38  H   UNL A   1      40.979  30.380  29.483  1.00  0.00     0.167 HD
ATOM     39  C   UNL A   1      45.273  29.862  29.227  1.00  0.00     0.037 A 
ATOM     40  C   UNL A   1      38.677  31.910  29.883  1.00  0.00     0.037 A 
ATOM     41  C   UNL A   1      45.109  31.108  29.924  1.00  0.00     0.049 A 
ATOM     42  C   UNL A   1      39.819  32.728  30.441  1.00  0.00     0.074 A 
ATOM     43  C   UNL A   1      46.083  31.926  30.473  1.00  0.00     0.029 A 
ATOM     44  N   UNL A   1      43.889  31.716  30.174  1.00  0.00    -0.354 N 
ATOM     45  N   UNL A   1      41.108  32.507  30.382  1.00  0.00    -0.248 NA
ATOM     46  C   UNL A   1      39.461  33.956  31.171  1.00  0.00     0.031 C 
ATOM     47  C   UNL A   1      45.448  33.006  31.096  1.00  0.00     0.029 A 
ATOM     48  C   UNL A   1      44.084  32.887  30.889  1.00  0.00     0.049 A 
ATOM     49  H   UNL A   1      43.015  31.368  29.887  1.00  0.00     0.167 HD
ATOM     50  C   UNL A   1      41.712  33.562  31.057  1.00  0.00     0.074 A 
ATOM     51  C   UNL A   1      40.651  34.446  31.488  1.00  0.00     0.031 C 
ATOM     52  C   UNL A   1      43.027  33.769  31.312  1.00  0.00     0.037 A 
BRANCH  39  53
ATOM     53  C   UNL A   1      46.660  29.351  29.002  1.00  0.00     0.064 A 
ATOM     54  C   UNL A   1      47.258  28.418  29.860  1.00  0.00     0.173 A 
ATOM     55  C   UNL A   1      47.409  29.825  27.914  1.00  0.00     0.173 A 
ATOM     56  F   UNL A   1      46.589  27.959  30.929  1.00  0.00    -0.203 F 
ATOM     57  C   UNL A   1      48.565  27.992  29.645  1.00  0.00     0.198 A 
ATOM     58  C   UNL A   1      48.706  29.380  27.690  1.00  0.00     0.198 A 
ATOM     59  F   UNL A   1      46.878  30.724  27.070  1.00  0.00    -0.203 F 
ATOM     60  F   UNL A   1      49.138  27.134  30.501  1.00  0.00    -0.200 F 
ATOM     61  C   UNL A   1      49.286  28.470  28.560  1.00  0.00     0.200 A 
ATOM     62  F   UNL A   1      49.399  29.840  26.639  1.00  0.00    -0.200 F 
ATOM     63  F   UNL A   1      50.547  28.061  28.359  1.00  0.00    -0.200 F 
ENDBRANCH  39  53
BRANCH  40  64
ATOM     64  C   UNL A   1      37.286  32.439  29.962  1.00  0.00     0.064 A 
ATOM     65  C   UNL A   1      36.810  33.368  29.024  1.00  0.00     0.173 A 
ATOM     66  C   UNL A   1      36.434  32.098  31.023  1.00  0.00     0.173 A 
ATOM     67  F   UNL A   1      37.599  33.764  28.014  1.00  0.00    -0.203 F 
ATOM     68  C   UNL A   1      35.549  33.949  29.157  1.00  0.00     0.198 A 
ATOM     69  C   UNL A   1      35.161  32.651  31.136  1.00  0.00     0.198 A 
ATOM     70  F   UNL A   1      36.844  31.234  31.965  1.00  0.00    -0.203 F 
ATOM     71  F   UNL A   1      35.150  34.886  28.287  1.00  0.00    -0.200 F 
ATOM     72  C   UNL A   1      34.723  33.585  30.210  1.00  0.00     0.200 A 
ATOM     73  F   UNL A   1      34.367  32.295  32.155  1.00  0.00    -0.200 F 
ATOM     74  F   UNL A   1      33.517  34.152  30.345  1.00  0.00    -0.200 F 
ENDBRANCH  40  64
BRANCH  52  75
ATOM     75  C   UNL A   1      43.408  35.001  32.084  1.00  0.00     0.064 A 
ATOM     76  C   UNL A   1      43.562  34.973  33.478  1.00  0.00     0.173 A 
ATOM     77  C   UNL A   1      43.683  36.205  31.419  1.00  0.00     0.173 A 
ATOM     78  F   UNL A   1      43.299  33.851  34.164  1.00  0.00    -0.203 F 
ATOM     79  C   UNL A   1      43.958  36.110  34.179  1.00  0.00     0.198 A 
ATOM     80  C   UNL A   1      44.106  37.332  32.120  1.00  0.00     0.198 A 
ATOM     81  F   UNL A   1      43.561  36.285  30.086  1.00  0.00    -0.203 F 
ATOM     82  F   UNL A   1      44.061  36.070  35.515  1.00  0.00    -0.200 F 
ATOM     83  C   UNL A   1      44.238  37.285  33.499  1.00  0.00     0.200 A 
ATOM     84  F   UNL A   1      44.391  38.463  31.459  1.00  0.00    -0.200 F 
ATOM     85  F   UNL A   1      44.631  38.375  34.174  1.00  0.00    -0.200 F 
ENDBRANCH  52  75
ENDBRANCH  26  27
ENDBRANCH  19  21
ENDBRANCH  18  19
ENDBRANCH  17  18
ENDBRANCH   1  17
TORSDOF 13
ENDMDL
MODEL 3
REMARK VINA RESULT:     -10.7      1.517      7.853
REMARK SMILES C[C@@H](C(=O)OCCOC(=O)c1ccc(-c2c3nc(c(-c4c(F)c(F)c(F)c(F)c4F)c4ccc([nH]4)c(-c4c(F)c(F)c(F)c(F)c4F)c4nc(c(-c5c(F)c(F)c(F)c(F)c5F)c5ccc2[nH]5)C=C4)C=C3)cc1)c1cccn(C(F)F)c1=O
REMARK SMILES IDX 6 1 5 2 3 3 4 4 2 5 1 6 74 7 75 8 82 9 76 10 78 11 83 12
REMARK SMILES IDX 77 13 79 14 80 15 81 16 7 17 8 18 9 19 10 20 11 21 12 22
REMARK SMILES IDX 73 23 13 24 72 25 14 26 15 27 16 28 66 29 17 30 71 31 65 32
REMARK SMILES IDX 67 33 18 34 70 35 64 36 63 37 19 39 51 40 31 41 50 42 32 43
REMARK SMILES IDX 35 44 49 45 68 46 33 47 34 48 48 50 69 51 36 52 20 53 21 54
REMARK SMILES IDX 29 55 22 56 23 57 27 58 30 59 24 60 25 61 28 62 26 63 52 64
REMARK SMILES IDX 53 65 61 66 54 67 55 68 59 69 62 70 56 71 57 72 60 73 58 74
REMARK SMILES IDX 37 75 38 76 46 77 39 78 40 79 44 80 47 81 41 82 42 83 45 84
REMARK SMILES IDX 43 85
REMARK H PARENT 67 38 35 49
REMARK Flexibility Score: inf
ROOT
ATOM      1  C   UNL A   1      32.064  27.873  25.241  1.00  0.00     0.274 C 
ENDROOT
BRANCH   1   2
ATOM      2  O   UNL A   1      30.786  27.218  25.062  1.00  0.00    -0.462 OA
BRANCH   2   3
ATOM      3  C   UNL A   1      30.661  25.950  25.549  1.00  0.00     0.313 C 
ATOM      4  O   UNL A   1      29.952  25.644  26.503  1.00  0.00    -0.252 OA
BRANCH   3   5
ATOM      5  C   UNL A   1      31.639  24.974  24.851  1.00  0.00     0.132 C 
ATOM      6  C   UNL A   1      30.949  24.018  23.880  1.00  0.00     0.025 C 
BRANCH   5   7
ATOM      7  C   UNL A   1      32.473  24.230  25.878  1.00  0.00     0.032 A 
ATOM      8  C   UNL A   1      32.002  23.402  26.828  1.00  0.00     0.012 A 
ATOM      9  C   UNL A   1      33.955  24.330  25.731  1.00  0.00     0.259 A 
ATOM     10  C   UNL A   1      32.900  22.578  27.609  1.00  0.00     0.019 A 
ATOM     11  N   UNL A   1      34.694  23.302  26.268  1.00  0.00    -0.258 N 
ATOM     12  O   UNL A   1      34.431  25.279  25.124  1.00  0.00    -0.269 OA
ATOM     13  C   UNL A   1      34.189  22.486  27.257  1.00  0.00     0.095 A 
BRANCH  11  14
ATOM     14  C   UNL A   1      36.038  23.136  25.788  1.00  0.00     0.451 C 
ATOM     15  F   UNL A   1      36.887  23.917  26.502  1.00  0.00    -0.185 F 
ATOM     16  F   UNL A   1      36.437  21.849  25.986  1.00  0.00    -0.185 F 
ENDBRANCH  11  14
ENDBRANCH   5   7
ENDBRANCH   3   5
ENDBRANCH   2   3
ENDBRANCH   1   2
BRANCH   1  17
ATOM     17  C   UNL A   1      31.885  29.391  25.271  1.00  0.00     0.275 C 
BRANCH  17  18
ATOM     18  O   UNL A   1      33.114  29.991  25.715  1.00  0.00    -0.458 OA
BRANCH  18  19
ATOM     19  C   UNL A   1      33.004  30.951  26.661  1.00  0.00     0.338 C 
ATOM     20  O   UNL A   1      32.088  31.740  26.830  1.00  0.00    -0.246 OA
BRANCH  19  21
ATOM     21  C   UNL A   1      34.149  30.793  27.568  1.00  0.00     0.060 A 
ATOM     22  C   UNL A   1      34.436  29.505  28.003  1.00  0.00     0.016 A 
ATOM     23  C   UNL A   1      34.952  31.864  27.960  1.00  0.00     0.016 A 
ATOM     24  C   UNL A   1      35.584  29.259  28.754  1.00  0.00     0.010 A 
ATOM     25  C   UNL A   1      36.087  31.622  28.754  1.00  0.00     0.010 A 
ATOM     26  C   UNL A   1      36.425  30.312  29.136  1.00  0.00    -0.014 A 
BRANCH  26  27
ATOM     27  C   UNL A   1      37.603  30.004  29.987  1.00  0.00     0.031 A 
ATOM     28  C   UNL A   1      38.750  29.225  29.405  1.00  0.00     0.074 A 
ATOM     29  C   UNL A   1      37.732  30.529  31.221  1.00  0.00     0.049 A 
ATOM     30  N   UNL A   1      39.869  28.846  29.970  1.00  0.00    -0.248 NA
ATOM     31  C   UNL A   1      38.631  28.849  27.988  1.00  0.00     0.031 C 
ATOM     32  C   UNL A   1      36.782  31.439  31.856  1.00  0.00     0.029 A 
ATOM     33  N   UNL A   1      38.747  30.409  32.142  1.00  0.00    -0.354 N 
ATOM     34  C   UNL A   1      40.582  28.184  28.982  1.00  0.00     0.074 A 
ATOM     35  C   UNL A   1      39.787  28.241  27.774  1.00  0.00     0.031 C 
ATOM     36  C   UNL A   1      37.281  31.832  33.041  1.00  0.00     0.029 A 
ATOM     37  C   UNL A   1      38.549  31.143  33.287  1.00  0.00     0.049 A 
ATOM     38  H   UNL A   1      39.543  29.849  31.995  1.00  0.00     0.167 HD
ATOM     39  C   UNL A   1      41.774  27.551  29.078  1.00  0.00     0.037 A 
ATOM     40  C   UNL A   1      39.290  31.226  34.412  1.00  0.00     0.037 A 
ATOM     41  C   UNL A   1      42.551  27.442  30.282  1.00  0.00     0.049 A 
ATOM     42  C   UNL A   1      40.543  30.391  34.541  1.00  0.00     0.074 A 
ATOM     43  C   UNL A   1      43.703  26.705  30.503  1.00  0.00     0.029 A 
ATOM     44  N   UNL A   1      42.253  28.085  31.472  1.00  0.00    -0.354 N 
ATOM     45  N   UNL A   1      41.159  29.668  33.640  1.00  0.00    -0.248 NA
ATOM     46  C   UNL A   1      41.184  30.357  35.867  1.00  0.00     0.031 C 
ATOM     47  C   UNL A   1      44.077  26.867  31.841  1.00  0.00     0.029 A 
ATOM     48  C   UNL A   1      43.187  27.744  32.439  1.00  0.00     0.049 A 
ATOM     49  H   UNL A   1      41.492  28.693  31.611  1.00  0.00     0.167 HD
ATOM     50  C   UNL A   1      42.255  29.102  34.282  1.00  0.00     0.074 A 
ATOM     51  C   UNL A   1      42.243  29.593  35.642  1.00  0.00     0.031 C 
ATOM     52  C   UNL A   1      43.177  28.239  33.791  1.00  0.00     0.037 A 
BRANCH  39  53
ATOM     53  C   UNL A   1      42.246  26.824  27.859  1.00  0.00     0.064 A 
ATOM     54  C   UNL A   1      41.848  25.510  27.576  1.00  0.00     0.173 A 
ATOM     55  C   UNL A   1      43.131  27.454  26.971  1.00  0.00     0.173 A 
ATOM     56  F   UNL A   1      41.025  24.858  28.412  1.00  0.00    -0.203 F 
ATOM     57  C   UNL A   1      42.336  24.847  26.454  1.00  0.00     0.198 A 
ATOM     58  C   UNL A   1      43.598  26.797  25.840  1.00  0.00     0.198 A 
ATOM     59  F   UNL A   1      43.543  28.709  27.207  1.00  0.00    -0.203 F 
ATOM     60  F   UNL A   1      41.982  23.575  26.221  1.00  0.00    -0.200 F 
ATOM     61  C   UNL A   1      43.207  25.491  25.586  1.00  0.00     0.200 A 
ATOM     62  F   UNL A   1      44.437  27.422  25.002  1.00  0.00    -0.200 F 
ATOM     63  F   UNL A   1      43.679  24.848  24.508  1.00  0.00    -0.200 F 
ENDBRANCH  39  53
BRANCH  40  64
ATOM     64  C   UNL A   1      38.851  32.075  35.555  1.00  0.00     0.064 A 
ATOM     65  C   UNL A   1      39.217  33.428  35.635  1.00  0.00     0.173 A 
ATOM     66  C   UNL A   1      38.134  31.535  36.633  1.00  0.00     0.173 A 
ATOM     67  F   UNL A   1      39.941  33.985  34.654  1.00  0.00    -0.203 F 
ATOM     68  C   UNL A   1      38.902  34.197  36.756  1.00  0.00     0.198 A 
ATOM     69  C   UNL A   1      37.788  32.312  37.736  1.00  0.00     0.198 A 
ATOM     70  F   UNL A   1      37.778  30.241  36.624  1.00  0.00    -0.203 F 
ATOM     71  F   UNL A   1      39.327  35.465  36.836  1.00  0.00    -0.200 F 
ATOM     72  C   UNL A   1      38.183  33.640  37.802  1.00  0.00     0.200 A 
ATOM     73  F   UNL A   1      37.092  31.769  38.743  1.00  0.00    -0.200 F 
ATOM     74  F   UNL A   1      37.892  34.374  38.884  1.00  0.00    -0.200 F 
ENDBRANCH  40  64
BRANCH  52  75
ATOM     75  C   UNL A   1      44.262  27.768  34.718  1.00  0.00     0.064 A 
ATOM     76  C   UNL A   1      45.454  28.492  34.878  1.00  0.00     0.173 A 
ATOM     77  C   UNL A   1      44.086  26.617  35.500  1.00  0.00     0.173 A 
ATOM     78  F   UNL A   1      45.679  29.593  34.146  1.00  0.00    -0.203 F 
ATOM     79  C   UNL A   1      46.435  28.069  35.772  1.00  0.00     0.198 A 
ATOM     80  C   UNL A   1      45.056  26.213  36.413  1.00  0.00     0.198 A 
ATOM     81  F   UNL A   1      42.962  25.893  35.393  1.00  0.00    -0.203 F 
ATOM     82  F   UNL A   1      47.581  28.756  35.881  1.00  0.00    -0.200 F 
ATOM     83  C   UNL A   1      46.232  26.937  36.545  1.00  0.00     0.200 A 
ATOM     84  F   UNL A   1      44.853  25.126  37.170  1.00  0.00    -0.200 F 
ATOM     85  F   UNL A   1      47.172  26.539  37.414  1.00  0.00    -0.200 F 
ENDBRANCH  52  75
ENDBRANCH  26  27
ENDBRANCH  19  21
ENDBRANCH  18  19
ENDBRANCH  17  18
ENDBRANCH   1  17
TORSDOF 13
ENDMDL
