MODEL 1
REMARK VINA RESULT:     -11.9      0.000      0.000
REMARK SMILES COc1c(Cl)cc(C(=O)Nc2ccc(C(=O)OCCOC(=O)c3ccc(-c4c5nc(c(-c6c(F)c(F)c(F)c(F)c6F)c6ccc([nH]6)c(-c6c(F)c(F)c(F)c(F)c6F)c6nc(c(-c7c(F)c(F)c(F)c(F)c7F)c7ccc4[nH]7)C=C6)C=C5)cc3)c(Cl)c2)cc1Cl
REMARK SMILES IDX 18 1 17 2 15 3 16 4 14 5 11 6 12 7 88 8 13 9 86 10 87 11
REMARK SMILES IDX 10 12 8 13 9 14 7 16 3 17 4 18 90 19 5 20 6 21 89 22 91 23
REMARK SMILES IDX 2 24 1 25 19 26 20 27 21 28 22 29 23 30 24 31 85 32 25 33
REMARK SMILES IDX 84 34 26 35 27 36 28 37 78 38 29 39 83 40 77 41 79 42 30 43
REMARK SMILES IDX 82 44 76 45 75 46 31 48 63 49 43 50 62 51 44 52 47 53 61 54
REMARK SMILES IDX 80 55 45 56 46 57 60 59 81 60 48 61 32 62 33 63 41 64 34 65
REMARK SMILES IDX 35 66 39 67 42 68 36 69 37 70 40 71 38 72 64 73 65 74 73 75
REMARK SMILES IDX 66 76 67 77 71 78 74 79 68 80 69 81 72 82 70 83 49 84 50 85
REMARK SMILES IDX 58 86 51 87 52 88 56 89 59 90 53 91 54 92 57 93 55 94
REMARK H PARENT 10 15 79 47 47 58
REMARK Flexibility Score: inf
ROOT
ATOM      1  C   UNL A   1      31.753  30.817  26.841  1.00  0.00     0.275 C 
ENDROOT
BRANCH   1   2
ATOM      2  O   UNL A   1      32.937  30.473  26.091  1.00  0.00    -0.458 OA
BRANCH   2   3
ATOM      3  C   UNL A   1      33.416  29.215  26.248  1.00  0.00     0.339 C 
ATOM      4  O   UNL A   1      33.928  28.748  27.249  1.00  0.00    -0.246 OA
BRANCH   3   5
ATOM      5  C   UNL A   1      33.074  28.384  25.070  1.00  0.00     0.078 A 
ATOM      6  C   UNL A   1      32.757  26.741  22.819  1.00  0.00     0.043 A 
ATOM      7  C   UNL A   1      33.671  27.792  22.784  1.00  0.00     0.027 A 
ATOM      8  C   UNL A   1      31.916  26.591  23.925  1.00  0.00     0.047 A 
ATOM      9  C   UNL A   1      33.802  28.630  23.893  1.00  0.00     0.019 A 
ATOM     10  C   UNL A   1      32.093  27.389  25.066  1.00  0.00     0.057 A 
ATOM     11  Cl  UNL A   1      31.035  27.102  26.400  1.00  0.00    -0.083 Cl
BRANCH   6  12
ATOM     12  N   UNL A   1      32.641  25.818  21.771  1.00  0.00    -0.322 N 
ATOM     13  C   UNL A   1      33.197  24.564  21.620  1.00  0.00     0.255 C 
ATOM     14  O   UNL A   1      33.278  24.078  20.492  1.00  0.00    -0.269 OA
ATOM     15  H   UNL A   1      32.073  26.111  21.023  1.00  0.00     0.170 HD
BRANCH  13  16
ATOM     16  C   UNL A   1      33.560  23.708  22.793  1.00  0.00     0.043 A 
ATOM     17  C   UNL A   1      34.417  22.051  24.927  1.00  0.00     0.156 A 
ATOM     18  C   UNL A   1      33.252  21.753  24.213  1.00  0.00     0.085 A 
ATOM     19  C   UNL A   1      35.145  23.194  24.564  1.00  0.00     0.085 A 
ATOM     20  Cl  UNL A   1      32.197  20.453  24.634  1.00  0.00    -0.080 Cl
ATOM     21  C   UNL A   1      32.860  22.545  23.128  1.00  0.00     0.038 A 
ATOM     22  C   UNL A   1      34.722  24.016  23.510  1.00  0.00     0.038 A 
ATOM     23  Cl  UNL A   1      36.608  23.616  25.382  1.00  0.00    -0.080 Cl
BRANCH  17  24
ATOM     24  O   UNL A   1      34.849  21.341  26.019  1.00  0.00    -0.494 OA
ATOM     25  C   UNL A   1      34.235  21.703  27.255  1.00  0.00     0.278 C 
ENDBRANCH  17  24
ENDBRANCH  13  16
ENDBRANCH   6  12
ENDBRANCH   3   5
ENDBRANCH   2   3
ENDBRANCH   1   2
BRANCH   1  26
ATOM     26  C   UNL A   1      31.555  32.330  26.870  1.00  0.00     0.275 C 
BRANCH  26  27
ATOM     27  O   UNL A   1      32.834  32.985  26.779  1.00  0.00    -0.458 OA
BRANCH  27  28
ATOM     28  C   UNL A   1      33.222  33.653  27.887  1.00  0.00     0.338 C 
ATOM     29  O   UNL A   1      32.655  34.576  28.444  1.00  0.00    -0.246 OA
BRANCH  28  30
ATOM     30  C   UNL A   1      34.456  33.044  28.405  1.00  0.00     0.060 A 
ATOM     31  C   UNL A   1      34.366  31.812  29.049  1.00  0.00     0.016 A 
ATOM     32  C   UNL A   1      35.664  33.735  28.373  1.00  0.00     0.016 A 
ATOM     33  C   UNL A   1      35.469  31.287  29.718  1.00  0.00     0.010 A 
ATOM     34  C   UNL A   1      36.791  33.175  28.987  1.00  0.00     0.010 A 
ATOM     35  C   UNL A   1      36.700  31.960  29.694  1.00  0.00    -0.014 A 
BRANCH  35  36
ATOM     36  C   UNL A   1      37.870  31.419  30.444  1.00  0.00     0.031 A 
ATOM     37  C   UNL A   1      38.793  30.417  29.799  1.00  0.00     0.074 A 
ATOM     38  C   UNL A   1      38.126  31.830  31.701  1.00  0.00     0.049 A 
ATOM     39  N   UNL A   1      39.787  29.743  30.323  1.00  0.00    -0.248 NA
ATOM     40  C   UNL A   1      38.558  30.130  28.378  1.00  0.00     0.031 C 
ATOM     41  C   UNL A   1      37.343  32.815  32.445  1.00  0.00     0.029 A 
ATOM     42  N   UNL A   1      39.122  31.465  32.577  1.00  0.00    -0.354 N 
ATOM     43  C   UNL A   1      40.272  28.931  29.305  1.00  0.00     0.074 A 
ATOM     44  C   UNL A   1      39.457  29.187  28.138  1.00  0.00     0.031 C 
ATOM     45  C   UNL A   1      37.895  32.992  33.655  1.00  0.00     0.029 A 
ATOM     46  C   UNL A   1      39.029  32.083  33.800  1.00  0.00     0.049 A 
ATOM     47  H   UNL A   1      39.832  30.823  32.349  1.00  0.00     0.167 HD
ATOM     48  C   UNL A   1      41.304  28.053  29.337  1.00  0.00     0.037 A 
ATOM     49  C   UNL A   1      39.747  31.913  34.927  1.00  0.00     0.037 A 
ATOM     50  C   UNL A   1      42.148  27.824  30.481  1.00  0.00     0.049 A 
ATOM     51  C   UNL A   1      40.864  30.906  34.953  1.00  0.00     0.074 A 
ATOM     52  C   UNL A   1      43.236  26.975  30.596  1.00  0.00     0.029 A 
ATOM     53  N   UNL A   1      42.001  28.451  31.708  1.00  0.00    -0.354 N 
ATOM     54  N   UNL A   1      41.297  30.126  33.993  1.00  0.00    -0.248 NA
ATOM     55  C   UNL A   1      41.581  30.743  36.227  1.00  0.00     0.031 C 
ATOM     56  C   UNL A   1      43.720  27.058  31.906  1.00  0.00     0.029 A 
ATOM     57  C   UNL A   1      42.962  27.990  32.593  1.00  0.00     0.049 A 
ATOM     58  H   UNL A   1      41.314  29.125  31.919  1.00  0.00     0.167 HD
ATOM     59  C   UNL A   1      42.338  29.388  34.540  1.00  0.00     0.074 A 
ATOM     60  C   UNL A   1      42.486  29.828  35.913  1.00  0.00     0.031 C 
ATOM     61  C   UNL A   1      43.097  28.429  33.959  1.00  0.00     0.037 A 
BRANCH  48  62
ATOM     62  C   UNL A   1      41.563  27.240  28.101  1.00  0.00     0.064 A 
ATOM     63  C   UNL A   1      40.899  26.031  27.854  1.00  0.00     0.173 A 
ATOM     64  C   UNL A   1      42.467  27.705  27.133  1.00  0.00     0.173 A 
ATOM     65  F   UNL A   1      40.035  25.539  28.753  1.00  0.00    -0.203 F 
ATOM     66  C   UNL A   1      41.149  25.303  26.694  1.00  0.00     0.198 A 
ATOM     67  C   UNL A   1      42.694  26.989  25.962  1.00  0.00     0.198 A 
ATOM     68  F   UNL A   1      43.125  28.860  27.319  1.00  0.00    -0.203 F 
ATOM     69  F   UNL A   1      40.538  24.126  26.496  1.00  0.00    -0.200 F 
ATOM     70  C   UNL A   1      42.040  25.785  25.746  1.00  0.00     0.200 A 
ATOM     71  F   UNL A   1      43.548  27.461  25.043  1.00  0.00    -0.200 F 
ATOM     72  F   UNL A   1      42.275  25.086  24.626  1.00  0.00    -0.200 F 
ENDBRANCH  48  62
BRANCH  49  73
ATOM     73  C   UNL A   1      39.400  32.696  36.140  1.00  0.00     0.064 A 
ATOM     74  C   UNL A   1      38.439  32.236  37.049  1.00  0.00     0.173 A 
ATOM     75  C   UNL A   1      40.040  33.912  36.424  1.00  0.00     0.173 A 
ATOM     76  F   UNL A   1      37.781  31.093  36.806  1.00  0.00    -0.203 F 
ATOM     77  C   UNL A   1      38.127  32.964  38.194  1.00  0.00     0.198 A 
ATOM     78  C   UNL A   1      39.748  34.626  37.584  1.00  0.00     0.198 A 
ATOM     79  F   UNL A   1      40.966  34.396  35.583  1.00  0.00    -0.203 F 
ATOM     80  F   UNL A   1      37.180  32.520  39.032  1.00  0.00    -0.200 F 
ATOM     81  C   UNL A   1      38.789  34.153  38.467  1.00  0.00     0.200 A 
ATOM     82  F   UNL A   1      40.400  35.765  37.848  1.00  0.00    -0.200 F 
ATOM     83  F   UNL A   1      38.499  34.846  39.575  1.00  0.00    -0.200 F 
ENDBRANCH  49  73
BRANCH  61  84
ATOM     84  C   UNL A   1      44.167  27.797  34.798  1.00  0.00     0.064 A 
ATOM     85  C   UNL A   1      45.433  28.385  34.933  1.00  0.00     0.173 A 
ATOM     86  C   UNL A   1      43.914  26.611  35.502  1.00  0.00     0.173 A 
ATOM     87  F   UNL A   1      45.729  29.511  34.266  1.00  0.00    -0.203 F 
ATOM     88  C   UNL A   1      46.415  27.796  35.727  1.00  0.00     0.198 A 
ATOM     89  C   UNL A   1      44.889  26.038  36.315  1.00  0.00     0.198 A 
ATOM     90  F   UNL A   1      42.717  26.013  35.410  1.00  0.00    -0.203 F 
ATOM     91  F   UNL A   1      47.631  28.352  35.809  1.00  0.00    -0.200 F 
ATOM     92  C   UNL A   1      46.140  26.627  36.421  1.00  0.00     0.200 A 
ATOM     93  F   UNL A   1      44.619  24.914  36.993  1.00  0.00    -0.200 F 
ATOM     94  F   UNL A   1      47.084  26.064  37.188  1.00  0.00    -0.200 F 
ENDBRANCH  61  84
ENDBRANCH  35  36
ENDBRANCH  28  30
ENDBRANCH  27  28
ENDBRANCH  26  27
ENDBRANCH   1  26
TORSDOF 14
ENDMDL
MODEL 2
REMARK VINA RESULT:     -11.8      0.466      1.898
REMARK SMILES COc1c(Cl)cc(C(=O)Nc2ccc(C(=O)OCCOC(=O)c3ccc(-c4c5nc(c(-c6c(F)c(F)c(F)c(F)c6F)c6ccc([nH]6)c(-c6c(F)c(F)c(F)c(F)c6F)c6nc(c(-c7c(F)c(F)c(F)c(F)c7F)c7ccc4[nH]7)C=C6)C=C5)cc3)c(Cl)c2)cc1Cl
REMARK SMILES IDX 18 1 17 2 15 3 16 4 14 5 11 6 12 7 88 8 13 9 86 10 87 11
REMARK SMILES IDX 10 12 8 13 9 14 7 16 3 17 4 18 90 19 5 20 6 21 89 22 91 23
REMARK SMILES IDX 2 24 1 25 19 26 20 27 21 28 22 29 23 30 24 31 85 32 25 33
REMARK SMILES IDX 84 34 26 35 27 36 28 37 78 38 29 39 83 40 77 41 79 42 30 43
REMARK SMILES IDX 82 44 76 45 75 46 31 48 63 49 43 50 62 51 44 52 47 53 61 54
REMARK SMILES IDX 80 55 45 56 46 57 60 59 81 60 48 61 32 62 33 63 41 64 34 65
REMARK SMILES IDX 35 66 39 67 42 68 36 69 37 70 40 71 38 72 64 73 65 74 73 75
REMARK SMILES IDX 66 76 67 77 71 78 74 79 68 80 69 81 72 82 70 83 49 84 50 85
REMARK SMILES IDX 58 86 51 87 52 88 56 89 59 90 53 91 54 92 57 93 55 94
REMARK H PARENT 10 15 79 47 47 58
REMARK Flexibility Score: inf
ROOT
ATOM      1  C   UNL A   1      31.472  30.993  26.147  1.00  0.00     0.275 C 
ENDROOT
BRANCH   1   2
ATOM      2  O   UNL A   1      31.874  29.915  27.018  1.00  0.00    -0.458 OA
BRANCH   2   3
ATOM      3  C   UNL A   1      32.904  29.140  26.598  1.00  0.00     0.339 C 
ATOM      4  O   UNL A   1      33.903  28.847  27.229  1.00  0.00    -0.246 OA
BRANCH   3   5
ATOM      5  C   UNL A   1      32.581  28.523  25.290  1.00  0.00     0.078 A 
ATOM      6  C   UNL A   1      32.305  27.308  22.777  1.00  0.00     0.043 A 
ATOM      7  C   UNL A   1      33.155  28.402  22.926  1.00  0.00     0.027 A 
ATOM      8  C   UNL A   1      31.502  26.905  23.847  1.00  0.00     0.047 A 
ATOM      9  C   UNL A   1      33.265  29.027  24.170  1.00  0.00     0.019 A 
ATOM     10  C   UNL A   1      31.660  27.488  25.114  1.00  0.00     0.057 A 
ATOM     11  Cl  UNL A   1      30.654  26.894  26.386  1.00  0.00    -0.083 Cl
BRANCH   6  12
ATOM     12  N   UNL A   1      32.217  26.590  21.577  1.00  0.00    -0.322 N 
ATOM     13  C   UNL A   1      32.854  25.431  21.182  1.00  0.00     0.255 C 
ATOM     14  O   UNL A   1      32.928  25.170  19.981  1.00  0.00    -0.269 OA
ATOM     15  H   UNL A   1      31.604  26.973  20.910  1.00  0.00     0.170 HD
BRANCH  13  16
ATOM     16  C   UNL A   1      33.316  24.402  22.165  1.00  0.00     0.043 A 
ATOM     17  C   UNL A   1      34.010  22.445  24.096  1.00  0.00     0.156 A 
ATOM     18  C   UNL A   1      34.656  23.686  24.068  1.00  0.00     0.085 A 
ATOM     19  C   UNL A   1      33.016  22.193  23.138  1.00  0.00     0.085 A 
ATOM     20  Cl  UNL A   1      35.980  24.078  25.104  1.00  0.00    -0.080 Cl
ATOM     21  C   UNL A   1      34.276  24.667  23.146  1.00  0.00     0.038 A 
ATOM     22  C   UNL A   1      32.672  23.158  22.181  1.00  0.00     0.038 A 
ATOM     23  Cl  UNL A   1      32.154  20.695  23.121  1.00  0.00    -0.080 Cl
BRANCH  17  24
ATOM     24  O   UNL A   1      34.347  21.425  24.948  1.00  0.00    -0.494 OA
ATOM     25  C   UNL A   1      33.750  21.497  26.242  1.00  0.00     0.278 C 
ENDBRANCH  17  24
ENDBRANCH  13  16
ENDBRANCH   6  12
ENDBRANCH   3   5
ENDBRANCH   2   3
ENDBRANCH   1   2
BRANCH   1  26
ATOM     26  C   UNL A   1      31.476  32.322  26.898  1.00  0.00     0.275 C 
BRANCH  26  27
ATOM     27  O   UNL A   1      32.776  32.930  26.792  1.00  0.00    -0.458 OA
BRANCH  27  28
ATOM     28  C   UNL A   1      33.173  33.639  27.872  1.00  0.00     0.338 C 
ATOM     29  O   UNL A   1      32.605  34.576  28.404  1.00  0.00    -0.246 OA
BRANCH  28  30
ATOM     30  C   UNL A   1      34.419  33.059  28.393  1.00  0.00     0.060 A 
ATOM     31  C   UNL A   1      34.384  31.760  28.893  1.00  0.00     0.016 A 
ATOM     32  C   UNL A   1      35.574  33.827  28.508  1.00  0.00     0.016 A 
ATOM     33  C   UNL A   1      35.487  31.236  29.566  1.00  0.00     0.010 A 
ATOM     34  C   UNL A   1      36.705  33.277  29.124  1.00  0.00     0.010 A 
ATOM     35  C   UNL A   1      36.665  31.987  29.688  1.00  0.00    -0.014 A 
BRANCH  35  36
ATOM     36  C   UNL A   1      37.831  31.444  30.444  1.00  0.00     0.031 A 
ATOM     37  C   UNL A   1      38.759  30.446  29.800  1.00  0.00     0.074 A 
ATOM     38  C   UNL A   1      38.078  31.849  31.705  1.00  0.00     0.049 A 
ATOM     39  N   UNL A   1      39.750  29.770  30.328  1.00  0.00    -0.248 NA
ATOM     40  C   UNL A   1      38.534  30.165  28.377  1.00  0.00     0.031 C 
ATOM     41  C   UNL A   1      37.289  32.830  32.448  1.00  0.00     0.029 A 
ATOM     42  N   UNL A   1      39.068  31.481  32.586  1.00  0.00    -0.354 N 
ATOM     43  C   UNL A   1      40.243  28.963  29.309  1.00  0.00     0.074 A 
ATOM     44  C   UNL A   1      39.435  29.223  28.138  1.00  0.00     0.031 C 
ATOM     45  C   UNL A   1      37.832  33.002  33.662  1.00  0.00     0.029 A 
ATOM     46  C   UNL A   1      38.967  32.094  33.810  1.00  0.00     0.049 A 
ATOM     47  H   UNL A   1      39.780  30.841  32.359  1.00  0.00     0.167 HD
ATOM     48  C   UNL A   1      41.276  28.086  29.344  1.00  0.00     0.037 A 
ATOM     49  C   UNL A   1      39.677  31.919  34.941  1.00  0.00     0.037 A 
ATOM     50  C   UNL A   1      42.111  27.852  30.493  1.00  0.00     0.049 A 
ATOM     51  C   UNL A   1      40.794  30.912  34.971  1.00  0.00     0.074 A 
ATOM     52  C   UNL A   1      43.200  27.004  30.612  1.00  0.00     0.029 A 
ATOM     53  N   UNL A   1      41.955  28.474  31.722  1.00  0.00    -0.354 N 
ATOM     54  N   UNL A   1      41.234  30.138  34.010  1.00  0.00    -0.248 NA
ATOM     55  C   UNL A   1      41.503  30.745  36.249  1.00  0.00     0.031 C 
ATOM     56  C   UNL A   1      43.675  27.082  31.925  1.00  0.00     0.029 A 
ATOM     57  C   UNL A   1      42.911  28.010  32.612  1.00  0.00     0.049 A 
ATOM     58  H   UNL A   1      41.267  29.146  31.932  1.00  0.00     0.167 HD
ATOM     59  C   UNL A   1      42.272  29.398  34.561  1.00  0.00     0.074 A 
ATOM     60  C   UNL A   1      42.411  29.832  35.936  1.00  0.00     0.031 C 
ATOM     61  C   UNL A   1      43.037  28.442  33.980  1.00  0.00     0.037 A 
BRANCH  48  62
ATOM     62  C   UNL A   1      41.544  27.279  28.107  1.00  0.00     0.064 A 
ATOM     63  C   UNL A   1      40.893  26.063  27.857  1.00  0.00     0.173 A 
ATOM     64  C   UNL A   1      42.442  27.757  27.140  1.00  0.00     0.173 A 
ATOM     65  F   UNL A   1      40.036  25.559  28.755  1.00  0.00    -0.203 F 
ATOM     66  C   UNL A   1      41.152  25.340  26.695  1.00  0.00     0.198 A 
ATOM     67  C   UNL A   1      42.677  27.046  25.967  1.00  0.00     0.198 A 
ATOM     68  F   UNL A   1      43.086  28.918  27.328  1.00  0.00    -0.203 F 
ATOM     69  F   UNL A   1      40.554  24.157  26.494  1.00  0.00    -0.200 F 
ATOM     70  C   UNL A   1      42.037  25.835  25.748  1.00  0.00     0.200 A 
ATOM     71  F   UNL A   1      43.525  27.530  25.049  1.00  0.00    -0.200 F 
ATOM     72  F   UNL A   1      42.280  25.142  24.627  1.00  0.00    -0.200 F 
ENDBRANCH  48  62
BRANCH  49  73
ATOM     73  C   UNL A   1      39.321  32.695  36.156  1.00  0.00     0.064 A 
ATOM     74  C   UNL A   1      39.910  33.938  36.421  1.00  0.00     0.173 A 
ATOM     75  C   UNL A   1      38.368  32.215  37.068  1.00  0.00     0.173 A 
ATOM     76  F   UNL A   1      40.847  34.424  35.594  1.00  0.00    -0.203 F 
ATOM     77  C   UNL A   1      39.563  34.671  37.554  1.00  0.00     0.198 A 
ATOM     78  C   UNL A   1      38.000  32.962  38.185  1.00  0.00     0.198 A 
ATOM     79  F   UNL A   1      37.778  31.029  36.860  1.00  0.00    -0.203 F 
ATOM     80  F   UNL A   1      40.164  35.842  37.802  1.00  0.00    -0.200 F 
ATOM     81  C   UNL A   1      38.600  34.188  38.429  1.00  0.00     0.200 A 
ATOM     82  F   UNL A   1      37.061  32.497  39.018  1.00  0.00    -0.200 F 
ATOM     83  F   UNL A   1      38.256  34.899  39.509  1.00  0.00    -0.200 F 
ENDBRANCH  49  73
BRANCH  61  84
ATOM     84  C   UNL A   1      44.102  27.807  34.824  1.00  0.00     0.064 A 
ATOM     85  C   UNL A   1      43.860  26.626  35.539  1.00  0.00     0.173 A 
ATOM     86  C   UNL A   1      45.387  28.365  34.889  1.00  0.00     0.173 A 
ATOM     87  F   UNL A   1      42.642  26.063  35.521  1.00  0.00    -0.203 F 
ATOM     88  C   UNL A   1      44.862  26.037  36.308  1.00  0.00     0.198 A 
ATOM     89  C   UNL A   1      46.393  27.761  35.638  1.00  0.00     0.198 A 
ATOM     90  F   UNL A   1      45.670  29.492  34.218  1.00  0.00    -0.203 F 
ATOM     91  F   UNL A   1      44.597  24.931  37.017  1.00  0.00    -0.200 F 
ATOM     92  C   UNL A   1      46.128  26.602  36.352  1.00  0.00     0.200 A 
ATOM     93  F   UNL A   1      47.618  28.302  35.673  1.00  0.00    -0.200 F 
ATOM     94  F   UNL A   1      47.091  26.033  37.089  1.00  0.00    -0.200 F 
ENDBRANCH  61  84
ENDBRANCH  35  36
ENDBRANCH  28  30
ENDBRANCH  27  28
ENDBRANCH  26  27
ENDBRANCH   1  26
TORSDOF 14
ENDMDL
MODEL 3
REMARK VINA RESULT:     -11.8      4.520      8.336
REMARK SMILES COc1c(Cl)cc(C(=O)Nc2ccc(C(=O)OCCOC(=O)c3ccc(-c4c5nc(c(-c6c(F)c(F)c(F)c(F)c6F)c6ccc([nH]6)c(-c6c(F)c(F)c(F)c(F)c6F)c6nc(c(-c7c(F)c(F)c(F)c(F)c7F)c7ccc4[nH]7)C=C6)C=C5)cc3)c(Cl)c2)cc1Cl
REMARK SMILES IDX 18 1 17 2 15 3 16 4 14 5 11 6 12 7 88 8 13 9 86 10 87 11
REMARK SMILES IDX 10 12 8 13 9 14 7 16 3 17 4 18 90 19 5 20 6 21 89 22 91 23
REMARK SMILES IDX 2 24 1 25 19 26 20 27 21 28 22 29 23 30 24 31 85 32 25 33
REMARK SMILES IDX 84 34 26 35 27 36 28 37 78 38 29 39 83 40 77 41 79 42 30 43
REMARK SMILES IDX 82 44 76 45 75 46 31 48 63 49 43 50 62 51 44 52 47 53 61 54
REMARK SMILES IDX 80 55 45 56 46 57 60 59 81 60 48 61 32 62 33 63 41 64 34 65
REMARK SMILES IDX 35 66 39 67 42 68 36 69 37 70 40 71 38 72 64 73 65 74 73 75
REMARK SMILES IDX 66 76 67 77 71 78 74 79 68 80 69 81 72 82 70 83 49 84 50 85
REMARK SMILES IDX 58 86 51 87 52 88 56 89 59 90 53 91 54 92 57 93 55 94
REMARK H PARENT 10 15 79 47 47 58
REMARK Flexibility Score: inf
ROOT
ATOM      1  C   UNL A   1      37.801  20.726  24.941  1.00  0.00     0.275 C 
ENDROOT
BRANCH   1   2
ATOM      2  O   UNL A   1      36.683  21.094  25.776  1.00  0.00    -0.458 OA
BRANCH   2   3
ATOM      3  C   UNL A   1      36.322  22.401  25.772  1.00  0.00     0.339 C 
ATOM      4  O   UNL A   1      37.050  23.359  25.585  1.00  0.00    -0.246 OA
BRANCH   3   5
ATOM      5  C   UNL A   1      34.848  22.527  25.853  1.00  0.00     0.078 A 
ATOM      6  C   UNL A   1      32.111  22.988  26.256  1.00  0.00     0.043 A 
ATOM      7  C   UNL A   1      32.914  22.615  27.332  1.00  0.00     0.027 A 
ATOM      8  C   UNL A   1      32.646  23.006  24.965  1.00  0.00     0.047 A 
ATOM      9  C   UNL A   1      34.270  22.351  27.122  1.00  0.00     0.019 A 
ATOM     10  C   UNL A   1      34.021  22.808  24.763  1.00  0.00     0.057 A 
ATOM     11  Cl  UNL A   1      34.598  22.893  23.137  1.00  0.00    -0.083 Cl
BRANCH   6  12
ATOM     12  N   UNL A   1      30.766  23.344  26.419  1.00  0.00    -0.322 N 
ATOM     13  C   UNL A   1      30.180  24.589  26.530  1.00  0.00     0.255 C 
ATOM     14  O   UNL A   1      29.059  24.678  27.031  1.00  0.00    -0.269 OA
ATOM     15  H   UNL A   1      30.139  22.587  26.461  1.00  0.00     0.170 HD
BRANCH  13  16
ATOM     16  C   UNL A   1      30.788  25.813  25.920  1.00  0.00     0.043 A 
ATOM     17  C   UNL A   1      31.969  28.028  24.604  1.00  0.00     0.156 A 
ATOM     18  C   UNL A   1      32.507  27.534  25.797  1.00  0.00     0.085 A 
ATOM     19  C   UNL A   1      30.826  27.404  24.082  1.00  0.00     0.085 A 
ATOM     20  Cl  UNL A   1      33.830  28.284  26.614  1.00  0.00    -0.080 Cl
ATOM     21  C   UNL A   1      31.951  26.410  26.417  1.00  0.00     0.038 A 
ATOM     22  C   UNL A   1      30.239  26.309  24.732  1.00  0.00     0.038 A 
ATOM     23  Cl  UNL A   1      30.116  27.940  22.599  1.00  0.00    -0.080 Cl
BRANCH  17  24
ATOM     24  O   UNL A   1      32.439  29.142  23.956  1.00  0.00    -0.494 OA
ATOM     25  C   UNL A   1      33.517  28.904  23.052  1.00  0.00     0.278 C 
ENDBRANCH  17  24
ENDBRANCH  13  16
ENDBRANCH   6  12
ENDBRANCH   3   5
ENDBRANCH   2   3
ENDBRANCH   1   2
BRANCH   1  26
ATOM     26  C   UNL A   1      38.761  19.812  25.700  1.00  0.00     0.275 C 
BRANCH  26  27
ATOM     27  O   UNL A   1      40.045  20.452  25.815  1.00  0.00    -0.458 OA
BRANCH  27  28
ATOM     28  C   UNL A   1      40.547  20.522  27.067  1.00  0.00     0.338 C 
ATOM     29  O   UNL A   1      40.785  19.603  27.832  1.00  0.00    -0.246 OA
BRANCH  28  30
ATOM     30  C   UNL A   1      40.851  21.925  27.384  1.00  0.00     0.060 A 
ATOM     31  C   UNL A   1      40.298  22.918  26.581  1.00  0.00     0.016 A 
ATOM     32  C   UNL A   1      41.770  22.251  28.377  1.00  0.00     0.016 A 
ATOM     33  C   UNL A   1      40.704  24.244  26.723  1.00  0.00     0.010 A 
ATOM     34  C   UNL A   1      42.127  23.592  28.566  1.00  0.00     0.010 A 
ATOM     35  C   UNL A   1      41.622  24.601  27.722  1.00  0.00    -0.014 A 
BRANCH  35  36
ATOM     36  C   UNL A   1      42.088  26.012  27.849  1.00  0.00     0.031 A 
ATOM     37  C   UNL A   1      43.403  26.438  27.248  1.00  0.00     0.074 A 
ATOM     38  C   UNL A   1      41.333  26.927  28.488  1.00  0.00     0.049 A 
ATOM     39  N   UNL A   1      44.034  27.581  27.353  1.00  0.00    -0.248 NA
ATOM     40  C   UNL A   1      44.102  25.442  26.427  1.00  0.00     0.031 C 
ATOM     41  C   UNL A   1      40.027  26.672  29.093  1.00  0.00     0.029 A 
ATOM     42  N   UNL A   1      41.561  28.260  28.737  1.00  0.00    -0.354 N 
ATOM     43  C   UNL A   1      45.218  27.427  26.641  1.00  0.00     0.074 A 
ATOM     44  C   UNL A   1      45.222  26.079  26.119  1.00  0.00     0.031 C 
ATOM     45  C   UNL A   1      39.560  27.811  29.625  1.00  0.00     0.029 A 
ATOM     46  C   UNL A   1      40.562  28.861  29.462  1.00  0.00     0.049 A 
ATOM     47  H   UNL A   1      42.364  28.737  28.425  1.00  0.00     0.167 HD
ATOM     48  C   UNL A   1      46.210  28.328  26.437  1.00  0.00     0.037 A 
ATOM     49  C   UNL A   1      40.474  30.103  29.974  1.00  0.00     0.037 A 
ATOM     50  C   UNL A   1      46.195  29.685  26.917  1.00  0.00     0.049 A 
ATOM     51  C   UNL A   1      41.604  31.075  29.770  1.00  0.00     0.074 A 
ATOM     52  C   UNL A   1      47.143  30.677  26.734  1.00  0.00     0.029 A 
ATOM     53  N   UNL A   1      45.175  30.243  27.672  1.00  0.00    -0.354 N 
ATOM     54  N   UNL A   1      42.728  30.910  29.117  1.00  0.00    -0.248 NA
ATOM     55  C   UNL A   1      41.459  32.401  30.390  1.00  0.00     0.031 C 
ATOM     56  C   UNL A   1      46.716  31.823  27.414  1.00  0.00     0.029 A 
ATOM     57  C   UNL A   1      45.483  31.559  27.983  1.00  0.00     0.049 A 
ATOM     58  H   UNL A   1      44.353  29.775  27.946  1.00  0.00     0.167 HD
ATOM     59  C   UNL A   1      43.420  32.108  29.239  1.00  0.00     0.074 A 
ATOM     60  C   UNL A   1      42.579  32.999  30.012  1.00  0.00     0.031 C 
ATOM     61  C   UNL A   1      44.643  32.435  28.758  1.00  0.00     0.037 A 
BRANCH  48  62
ATOM     62  C   UNL A   1      47.425  27.864  25.687  1.00  0.00     0.064 A 
ATOM     63  C   UNL A   1      47.469  27.836  24.286  1.00  0.00     0.173 A 
ATOM     64  C   UNL A   1      48.577  27.477  26.389  1.00  0.00     0.173 A 
ATOM     65  F   UNL A   1      46.391  28.185  23.570  1.00  0.00    -0.203 F 
ATOM     66  C   UNL A   1      48.613  27.412  23.615  1.00  0.00     0.198 A 
ATOM     67  C   UNL A   1      49.729  27.080  25.715  1.00  0.00     0.198 A 
ATOM     68  F   UNL A   1      48.590  27.490  27.731  1.00  0.00    -0.203 F 
ATOM     69  F   UNL A   1      48.620  27.349  22.276  1.00  0.00    -0.200 F 
ATOM     70  C   UNL A   1      49.744  27.042  24.329  1.00  0.00     0.200 A 
ATOM     71  F   UNL A   1      50.823  26.732  26.406  1.00  0.00    -0.200 F 
ATOM     72  F   UNL A   1      50.847  26.641  23.681  1.00  0.00    -0.200 F 
ENDBRANCH  48  62
BRANCH  49  73
ATOM     73  C   UNL A   1      39.278  30.484  30.769  1.00  0.00     0.064 A 
ATOM     74  C   UNL A   1      38.174  31.099  30.166  1.00  0.00     0.173 A 
ATOM     75  C   UNL A   1      39.211  30.222  32.146  1.00  0.00     0.173 A 
ATOM     76  F   UNL A   1      38.203  31.395  28.859  1.00  0.00    -0.203 F 
ATOM     77  C   UNL A   1      37.047  31.441  30.911  1.00  0.00     0.198 A 
ATOM     78  C   UNL A   1      38.073  30.538  32.884  1.00  0.00     0.198 A 
ATOM     79  F   UNL A   1      40.245  29.638  32.769  1.00  0.00    -0.203 F 
ATOM     80  F   UNL A   1      36.016  32.058  30.318  1.00  0.00    -0.200 F 
ATOM     81  C   UNL A   1      36.993  31.150  32.267  1.00  0.00     0.200 A 
ATOM     82  F   UNL A   1      38.022  30.243  34.189  1.00  0.00    -0.200 F 
ATOM     83  F   UNL A   1      35.904  31.466  32.979  1.00  0.00    -0.200 F 
ENDBRANCH  49  73
BRANCH  61  84
ATOM     84  C   UNL A   1      45.145  33.820  29.041  1.00  0.00     0.064 A 
ATOM     85  C   UNL A   1      45.933  34.097  30.168  1.00  0.00     0.173 A 
ATOM     86  C   UNL A   1      44.864  34.874  28.160  1.00  0.00     0.173 A 
ATOM     87  F   UNL A   1      46.214  33.125  31.049  1.00  0.00    -0.203 F 
ATOM     88  C   UNL A   1      46.405  35.384  30.412  1.00  0.00     0.198 A 
ATOM     89  C   UNL A   1      45.358  36.155  28.394  1.00  0.00     0.198 A 
ATOM     90  F   UNL A   1      44.118  34.660  27.065  1.00  0.00    -0.203 F 
ATOM     91  F   UNL A   1      47.122  35.635  31.517  1.00  0.00    -0.200 F 
ATOM     92  C   UNL A   1      46.122  36.410  29.523  1.00  0.00     0.200 A 
ATOM     93  F   UNL A   1      45.092  37.143  27.529  1.00  0.00    -0.200 F 
ATOM     94  F   UNL A   1      46.580  37.647  29.758  1.00  0.00    -0.200 F 
ENDBRANCH  61  84
ENDBRANCH  35  36
ENDBRANCH  28  30
ENDBRANCH  27  28
ENDBRANCH  26  27
ENDBRANCH   1  26
TORSDOF 14
ENDMDL
