MODEL 1
REMARK VINA RESULT:     -12.4      0.000      0.000
REMARK SMILES C#CCN(CC(=O)OCCOC(=O)c1ccc(-c2c3nc(c(-c4c(F)c(F)c(F)c(F)c4F)c4ccc([nH]4)c(-c4c(F)c(F)c(F)c(F)c4F)c4nc(c(-c5c(F)c(F)c(F)c(F)c5F)c5ccc2[nH]5)C=C4)C=C3)cc1)C(=O)N1CC[N@H+]2CCC[C@H]2C1
REMARK SMILES IDX 9 1 8 2 6 3 7 4 5 5 4 6 3 7 2 8 1 9 77 10 78 11 79 12 80 13
REMARK SMILES IDX 87 14 81 15 86 16 82 17 85 18 83 19 84 21 10 22 11 23 12 24
REMARK SMILES IDX 13 25 14 26 15 27 76 28 16 29 75 30 17 31 18 32 19 33 69 34
REMARK SMILES IDX 20 35 74 36 68 37 70 38 21 39 73 40 67 41 66 42 22 44 54 45
REMARK SMILES IDX 34 46 53 47 35 48 38 49 52 50 71 51 36 52 37 53 51 55 72 56
REMARK SMILES IDX 39 57 23 58 24 59 32 60 25 61 26 62 30 63 33 64 27 65 28 66
REMARK SMILES IDX 31 67 29 68 55 69 56 70 64 71 57 72 58 73 62 74 65 75 59 76
REMARK SMILES IDX 60 77 63 78 61 79 40 80 41 81 49 82 42 83 43 84 47 85 50 86
REMARK SMILES IDX 44 87 45 88 48 89 46 90
REMARK H PARENT 82 20 70 43 38 54
REMARK Flexibility Score: inf
ROOT
ATOM      1  C   UNL A   1      33.811  28.049  23.542  1.00  0.00     0.274 C 
ENDROOT
BRANCH   1   2
ATOM      2  O   UNL A   1      33.593  27.774  22.122  1.00  0.00    -0.461 OA
BRANCH   2   3
ATOM      3  C   UNL A   1      33.004  26.575  21.855  1.00  0.00     0.325 C 
ATOM      4  O   UNL A   1      33.640  25.617  21.416  1.00  0.00    -0.250 OA
BRANCH   3   5
ATOM      5  C   UNL A   1      31.500  26.403  22.314  1.00  0.00     0.245 C 
BRANCH   5   6
ATOM      6  N   UNL A   1      30.992  25.895  23.618  1.00  0.00    -0.302 N 
BRANCH   6   7
ATOM      7  C   UNL A   1      29.774  26.587  23.892  1.00  0.00     0.211 C 
BRANCH   7   8
ATOM      8  C   UNL A   1      29.584  27.988  23.334  1.00  0.00    -0.085 C 
ATOM      9  C   UNL A   1      29.420  29.190  22.856  1.00  0.00     0.006 C 
ENDBRANCH   7   8
ENDBRANCH   6   7
BRANCH   6  10
ATOM     10  C   UNL A   1      31.611  25.142  24.714  1.00  0.00     0.321 C 
ATOM     11  O   UNL A   1      31.108  25.103  25.840  1.00  0.00    -0.248 OA
BRANCH  10  12
ATOM     12  N   UNL A   1      32.640  24.185  24.396  1.00  0.00    -0.313 N 
ATOM     13  C   UNL A   1      32.474  22.517  23.501  1.00  0.00     0.183 C 
ATOM     14  C   UNL A   1      34.059  24.708  25.119  1.00  0.00     0.186 C 
ATOM     15  C   UNL A   1      33.473  20.962  24.276  1.00  0.00     0.284 C 
ATOM     16  C   UNL A   1      35.055  23.394  26.030  1.00  0.00     0.204 C 
ATOM     17  N   UNL A   1      34.728  21.296  25.690  1.00  0.00    -0.330 N 
ATOM     18  C   UNL A   1      36.985  23.727  25.533  1.00  0.00     0.073 C 
ATOM     19  C   UNL A   1      36.378  20.514  25.173  1.00  0.00     0.262 C 
ATOM     20  H   UNL A   1      34.354  20.901  26.553  1.00  0.00     0.348 HD
ATOM     21  C   UNL A   1      37.780  21.910  25.027  1.00  0.00     0.068 C 
ENDBRANCH  10  12
ENDBRANCH   6  10
ENDBRANCH   5   6
ENDBRANCH   3   5
ENDBRANCH   2   3
ENDBRANCH   1   2
BRANCH   1  22
ATOM     22  C   UNL A   1      32.946  29.203  24.150  1.00  0.00     0.275 C 
BRANCH  22  23
ATOM     23  O   UNL A   1      32.426  28.944  25.493  1.00  0.00    -0.458 OA
BRANCH  23  24
ATOM     24  C   UNL A   1      32.371  30.130  26.157  1.00  0.00     0.338 C 
ATOM     25  O   UNL A   1      31.432  30.861  25.877  1.00  0.00    -0.246 OA
BRANCH  24  26
ATOM     26  C   UNL A   1      33.564  30.536  27.151  1.00  0.00     0.060 A 
ATOM     27  C   UNL A   1      34.544  29.180  27.318  1.00  0.00     0.016 A 
ATOM     28  C   UNL A   1      34.082  32.317  27.668  1.00  0.00     0.016 A 
ATOM     29  C   UNL A   1      36.004  29.307  27.931  1.00  0.00     0.010 A 
ATOM     30  C   UNL A   1      35.567  32.507  28.108  1.00  0.00     0.010 A 
ATOM     31  C   UNL A   1      36.670  30.848  28.351  1.00  0.00    -0.014 A 
BRANCH  31  32
ATOM     32  C   UNL A   1      38.179  30.477  29.223  1.00  0.00     0.031 A 
ATOM     33  C   UNL A   1      39.434  29.507  28.752  1.00  0.00     0.074 A 
ATOM     34  C   UNL A   1      38.328  30.888  30.512  1.00  0.00     0.049 A 
ATOM     35  N   UNL A   1      40.133  28.680  29.525  1.00  0.00    -0.248 NA
ATOM     36  C   UNL A   1      39.764  29.210  27.334  1.00  0.00     0.031 C 
ATOM     37  C   UNL A   1      37.368  31.652  31.304  1.00  0.00     0.029 A 
ATOM     38  N   UNL A   1      39.377  30.719  31.400  1.00  0.00    -0.354 N 
ATOM     39  C   UNL A   1      40.678  27.731  28.647  1.00  0.00     0.074 A 
ATOM     40  C   UNL A   1      40.020  27.916  27.391  1.00  0.00     0.031 C 
ATOM     41  C   UNL A   1      37.925  32.047  32.454  1.00  0.00     0.029 A 
ATOM     42  C   UNL A   1      39.195  31.359  32.607  1.00  0.00     0.049 A 
ATOM     43  H   UNL A   1      40.180  30.190  31.188  1.00  0.00     0.167 HD
ATOM     44  C   UNL A   1      41.751  26.904  28.723  1.00  0.00     0.037 A 
ATOM     45  C   UNL A   1      39.902  31.342  33.755  1.00  0.00     0.037 A 
ATOM     46  C   UNL A   1      42.614  26.862  29.854  1.00  0.00     0.049 A 
ATOM     47  C   UNL A   1      41.098  30.436  33.872  1.00  0.00     0.074 A 
ATOM     48  C   UNL A   1      43.756  26.113  30.057  1.00  0.00     0.029 A 
ATOM     49  N   UNL A   1      42.435  27.663  30.965  1.00  0.00    -0.354 N 
ATOM     50  N   UNL A   1      41.596  29.595  32.999  1.00  0.00    -0.248 NA
ATOM     51  C   UNL A   1      41.814  30.459  35.155  1.00  0.00     0.031 C 
ATOM     52  C   UNL A   1      44.236  26.419  31.333  1.00  0.00     0.029 A 
ATOM     53  C   UNL A   1      43.432  27.407  31.879  1.00  0.00     0.049 A 
ATOM     54  H   UNL A   1      41.708  28.315  31.084  1.00  0.00     0.167 HD
ATOM     55  C   UNL A   1      42.702  29.019  33.615  1.00  0.00     0.074 A 
ATOM     56  C   UNL A   1      42.809  29.617  34.927  1.00  0.00     0.031 C 
ATOM     57  C   UNL A   1      43.549  28.072  33.146  1.00  0.00     0.037 A 
BRANCH  44  58
ATOM     58  C   UNL A   1      42.076  26.045  27.514  1.00  0.00     0.064 A 
ATOM     59  C   UNL A   1      41.463  24.795  27.288  1.00  0.00     0.173 A 
ATOM     60  C   UNL A   1      43.091  26.431  26.627  1.00  0.00     0.173 A 
ATOM     61  F   UNL A   1      40.495  24.358  28.110  1.00  0.00    -0.203 F 
ATOM     62  C   UNL A   1      41.929  23.928  26.300  1.00  0.00     0.198 A 
ATOM     63  C   UNL A   1      43.517  25.582  25.604  1.00  0.00     0.198 A 
ATOM     64  F   UNL A   1      43.696  27.618  26.769  1.00  0.00    -0.203 F 
ATOM     65  F   UNL A   1      41.424  22.689  26.206  1.00  0.00    -0.200 F 
ATOM     66  C   UNL A   1      42.957  24.322  25.460  1.00  0.00     0.200 A 
ATOM     67  F   UNL A   1      44.499  25.971  24.779  1.00  0.00    -0.200 F 
ATOM     68  F   UNL A   1      43.425  23.478  24.529  1.00  0.00    -0.200 F 
ENDBRANCH  44  58
BRANCH  45  69
ATOM     69  C   UNL A   1      39.485  32.194  34.909  1.00  0.00     0.064 A 
ATOM     70  C   UNL A   1      38.682  31.663  35.929  1.00  0.00     0.173 A 
ATOM     71  C   UNL A   1      39.862  33.542  35.022  1.00  0.00     0.173 A 
ATOM     72  F   UNL A   1      38.273  30.388  35.862  1.00  0.00    -0.203 F 
ATOM     73  C   UNL A   1      38.253  32.448  36.998  1.00  0.00     0.198 A 
ATOM     74  C   UNL A   1      39.471  34.315  36.116  1.00  0.00     0.198 A 
ATOM     75  F   UNL A   1      40.638  34.106  34.084  1.00  0.00    -0.203 F 
ATOM     76  F   UNL A   1      37.435  31.927  37.923  1.00  0.00    -0.200 F 
ATOM     77  C   UNL A   1      38.655  33.771  37.096  1.00  0.00     0.200 A 
ATOM     78  F   UNL A   1      39.883  35.586  36.218  1.00  0.00    -0.200 F 
ATOM     79  F   UNL A   1      38.247  34.524  38.127  1.00  0.00    -0.200 F 
ENDBRANCH  45  69
BRANCH  57  80
ATOM     80  C   UNL A   1      44.719  27.695  33.992  1.00  0.00     0.064 A 
ATOM     81  C   UNL A   1      45.918  28.415  33.958  1.00  0.00     0.173 A 
ATOM     82  C   UNL A   1      44.591  26.653  34.924  1.00  0.00     0.173 A 
ATOM     83  F   UNL A   1      46.081  29.416  33.079  1.00  0.00    -0.203 F 
ATOM     84  C   UNL A   1      46.961  28.093  34.818  1.00  0.00     0.198 A 
ATOM     85  C   UNL A   1      45.621  26.360  35.807  1.00  0.00     0.198 A 
ATOM     86  F   UNL A   1      43.451  25.950  35.000  1.00  0.00    -0.203 F 
ATOM     87  F   UNL A   1      48.117  28.768  34.746  1.00  0.00    -0.200 F 
ATOM     88  C   UNL A   1      46.808  27.075  35.750  1.00  0.00     0.200 A 
ATOM     89  F   UNL A   1      45.460  25.395  36.723  1.00  0.00    -0.200 F 
ATOM     90  F   UNL A   1      47.805  26.783  36.594  1.00  0.00    -0.200 F 
ENDBRANCH  57  80
ENDBRANCH  31  32
ENDBRANCH  24  26
ENDBRANCH  23  24
ENDBRANCH  22  23
ENDBRANCH   1  22
TORSDOF 16
ENDMDL
MODEL 2
REMARK VINA RESULT:     -11.9      1.118      2.252
REMARK SMILES C#CCN(CC(=O)OCCOC(=O)c1ccc(-c2c3nc(c(-c4c(F)c(F)c(F)c(F)c4F)c4ccc([nH]4)c(-c4c(F)c(F)c(F)c(F)c4F)c4nc(c(-c5c(F)c(F)c(F)c(F)c5F)c5ccc2[nH]5)C=C4)C=C3)cc1)C(=O)N1CC[N@H+]2CCC[C@H]2C1
REMARK SMILES IDX 9 1 8 2 6 3 7 4 5 5 4 6 3 7 2 8 1 9 77 10 78 11 79 12 80 13
REMARK SMILES IDX 87 14 81 15 86 16 82 17 85 18 83 19 84 21 10 22 11 23 12 24
REMARK SMILES IDX 13 25 14 26 15 27 76 28 16 29 75 30 17 31 18 32 19 33 69 34
REMARK SMILES IDX 20 35 74 36 68 37 70 38 21 39 73 40 67 41 66 42 22 44 54 45
REMARK SMILES IDX 34 46 53 47 35 48 38 49 52 50 71 51 36 52 37 53 51 55 72 56
REMARK SMILES IDX 39 57 23 58 24 59 32 60 25 61 26 62 30 63 33 64 27 65 28 66
REMARK SMILES IDX 31 67 29 68 55 69 56 70 64 71 57 72 58 73 62 74 65 75 59 76
REMARK SMILES IDX 60 77 63 78 61 79 40 80 41 81 49 82 42 83 43 84 47 85 50 86
REMARK SMILES IDX 44 87 45 88 48 89 46 90
REMARK H PARENT 82 20 70 43 38 54
REMARK Flexibility Score: inf
ROOT
ATOM      1  C   UNL A   1      33.616  28.980  23.464  1.00  0.00     0.274 C 
ENDROOT
BRANCH   1   2
ATOM      2  O   UNL A   1      33.498  28.094  22.306  1.00  0.00    -0.461 OA
BRANCH   2   3
ATOM      3  C   UNL A   1      33.604  26.766  22.588  1.00  0.00     0.325 C 
ATOM      4  O   UNL A   1      33.685  25.914  21.703  1.00  0.00    -0.250 OA
BRANCH   3   5
ATOM      5  C   UNL A   1      33.814  26.374  24.106  1.00  0.00     0.245 C 
BRANCH   5   6
ATOM      6  N   UNL A   1      34.080  25.025  24.677  1.00  0.00    -0.302 N 
BRANCH   6   7
ATOM      7  C   UNL A   1      33.396  24.956  25.927  1.00  0.00     0.211 C 
BRANCH   7   8
ATOM      8  C   UNL A   1      32.440  23.801  26.178  1.00  0.00    -0.085 C 
ATOM      9  C   UNL A   1      31.620  22.811  26.394  1.00  0.00     0.006 C 
ENDBRANCH   7   8
ENDBRANCH   6   7
BRANCH   6  10
ATOM     10  C   UNL A   1      35.077  23.989  24.384  1.00  0.00     0.321 C 
ATOM     11  O   UNL A   1      36.191  23.994  24.913  1.00  0.00    -0.248 OA
BRANCH  10  12
ATOM     12  N   UNL A   1      34.644  22.786  23.721  1.00  0.00    -0.313 N 
ATOM     13  C   UNL A   1      33.375  22.593  22.319  1.00  0.00     0.183 C 
ATOM     14  C   UNL A   1      35.336  21.488  24.526  1.00  0.00     0.186 C 
ATOM     15  C   UNL A   1      32.057  21.093  22.481  1.00  0.00     0.284 C 
ATOM     16  C   UNL A   1      34.189  20.040  24.898  1.00  0.00     0.204 C 
ATOM     17  N   UNL A   1      32.311  19.800  23.877  1.00  0.00    -0.330 N 
ATOM     18  C   UNL A   1      35.252  18.376  24.473  1.00  0.00     0.073 C 
ATOM     19  C   UNL A   1      32.294  18.085  23.064  1.00  0.00     0.262 C 
ATOM     20  H   UNL A   1      31.570  19.919  24.567  1.00  0.00     0.348 HD
ATOM     21  C   UNL A   1      34.033  17.175  23.350  1.00  0.00     0.068 C 
ENDBRANCH  10  12
ENDBRANCH   6  10
ENDBRANCH   5   6
ENDBRANCH   3   5
ENDBRANCH   2   3
ENDBRANCH   1   2
BRANCH   1  22
ATOM     22  C   UNL A   1      32.278  29.304  24.210  1.00  0.00     0.275 C 
BRANCH  22  23
ATOM     23  O   UNL A   1      32.309  29.088  25.656  1.00  0.00    -0.458 OA
BRANCH  23  24
ATOM     24  C   UNL A   1      32.307  30.307  26.262  1.00  0.00     0.338 C 
ATOM     25  O   UNL A   1      31.415  31.072  25.928  1.00  0.00    -0.246 OA
BRANCH  24  26
ATOM     26  C   UNL A   1      33.503  30.695  27.260  1.00  0.00     0.060 A 
ATOM     27  C   UNL A   1      34.481  29.335  27.405  1.00  0.00     0.016 A 
ATOM     28  C   UNL A   1      34.025  32.467  27.803  1.00  0.00     0.016 A 
ATOM     29  C   UNL A   1      35.942  29.451  28.017  1.00  0.00     0.010 A 
ATOM     30  C   UNL A   1      35.510  32.648  28.244  1.00  0.00     0.010 A 
ATOM     31  C   UNL A   1      36.611  30.983  28.459  1.00  0.00    -0.014 A 
BRANCH  31  32
ATOM     32  C   UNL A   1      38.121  30.597  29.323  1.00  0.00     0.031 A 
ATOM     33  C   UNL A   1      39.365  29.616  28.842  1.00  0.00     0.074 A 
ATOM     34  C   UNL A   1      38.281  31.003  30.611  1.00  0.00     0.049 A 
ATOM     35  N   UNL A   1      40.061  28.782  29.611  1.00  0.00    -0.248 NA
ATOM     36  C   UNL A   1      39.685  29.320  27.423  1.00  0.00     0.031 C 
ATOM     37  C   UNL A   1      37.331  31.774  31.410  1.00  0.00     0.029 A 
ATOM     38  N   UNL A   1      39.332  30.823  31.494  1.00  0.00    -0.354 N 
ATOM     39  C   UNL A   1      40.592  27.830  28.727  1.00  0.00     0.074 A 
ATOM     40  C   UNL A   1      39.930  28.024  27.475  1.00  0.00     0.031 C 
ATOM     41  C   UNL A   1      37.898  32.161  32.559  1.00  0.00     0.029 A 
ATOM     42  C   UNL A   1      39.162  31.461  32.704  1.00  0.00     0.049 A 
ATOM     43  H   UNL A   1      40.129  30.287  31.277  1.00  0.00     0.167 HD
ATOM     44  C   UNL A   1      41.659  26.993  28.796  1.00  0.00     0.037 A 
ATOM     45  C   UNL A   1      39.875  31.435  33.848  1.00  0.00     0.037 A 
ATOM     46  C   UNL A   1      42.527  26.941  29.923  1.00  0.00     0.049 A 
ATOM     47  C   UNL A   1      41.063  30.518  33.957  1.00  0.00     0.074 A 
ATOM     48  C   UNL A   1      43.663  26.181  30.118  1.00  0.00     0.029 A 
ATOM     49  N   UNL A   1      42.361  27.741  31.036  1.00  0.00    -0.354 N 
ATOM     50  N   UNL A   1      41.549  29.675  33.079  1.00  0.00    -0.248 NA
ATOM     51  C   UNL A   1      41.785  30.532  35.236  1.00  0.00     0.031 C 
ATOM     52  C   UNL A   1      44.152  26.479  31.393  1.00  0.00     0.029 A 
ATOM     53  C   UNL A   1      43.360  27.474  31.945  1.00  0.00     0.049 A 
ATOM     54  H   UNL A   1      41.640  28.399  31.161  1.00  0.00     0.167 HD
ATOM     55  C   UNL A   1      42.652  29.088  33.688  1.00  0.00     0.074 A 
ATOM     56  C   UNL A   1      42.771  29.681  35.001  1.00  0.00     0.031 C 
ATOM     57  C   UNL A   1      43.489  28.134  33.213  1.00  0.00     0.037 A 
BRANCH  44  58
ATOM     58  C   UNL A   1      41.970  26.134  27.583  1.00  0.00     0.064 A 
ATOM     59  C   UNL A   1      41.428  24.844  27.412  1.00  0.00     0.173 A 
ATOM     60  C   UNL A   1      42.905  26.568  26.633  1.00  0.00     0.173 A 
ATOM     61  F   UNL A   1      40.539  24.361  28.295  1.00  0.00    -0.203 F 
ATOM     62  C   UNL A   1      41.893  23.990  26.411  1.00  0.00     0.198 A 
ATOM     63  C   UNL A   1      43.327  25.729  25.600  1.00  0.00     0.198 A 
ATOM     64  F   UNL A   1      43.439  27.795  26.722  1.00  0.00    -0.203 F 
ATOM     65  F   UNL A   1      41.466  22.719  26.366  1.00  0.00    -0.200 F 
ATOM     66  C   UNL A   1      42.843  24.434  25.508  1.00  0.00     0.200 A 
ATOM     67  F   UNL A   1      44.233  26.166  24.714  1.00  0.00    -0.200 F 
ATOM     68  F   UNL A   1      43.312  23.604  24.564  1.00  0.00    -0.200 F 
ENDBRANCH  44  58
BRANCH  45  69
ATOM     69  C   UNL A   1      39.470  32.288  35.006  1.00  0.00     0.064 A 
ATOM     70  C   UNL A   1      38.672  31.760  36.032  1.00  0.00     0.173 A 
ATOM     71  C   UNL A   1      39.857  33.633  35.118  1.00  0.00     0.173 A 
ATOM     72  F   UNL A   1      38.255  30.487  35.965  1.00  0.00    -0.203 F 
ATOM     73  C   UNL A   1      38.255  32.546  37.104  1.00  0.00     0.198 A 
ATOM     74  C   UNL A   1      39.478  34.407  36.216  1.00  0.00     0.198 A 
ATOM     75  F   UNL A   1      40.629  34.194  34.176  1.00  0.00    -0.203 F 
ATOM     76  F   UNL A   1      37.441  32.029  38.034  1.00  0.00    -0.200 F 
ATOM     77  C   UNL A   1      38.666  33.867  37.201  1.00  0.00     0.200 A 
ATOM     78  F   UNL A   1      39.898  35.675  36.317  1.00  0.00    -0.200 F 
ATOM     79  F   UNL A   1      38.270  34.621  38.236  1.00  0.00    -0.200 F 
ENDBRANCH  45  69
BRANCH  57  80
ATOM     80  C   UNL A   1      44.660  27.744  34.052  1.00  0.00     0.064 A 
ATOM     81  C   UNL A   1      44.608  26.657  34.932  1.00  0.00     0.173 A 
ATOM     82  C   UNL A   1      45.881  28.416  33.891  1.00  0.00     0.173 A 
ATOM     83  F   UNL A   1      43.458  25.991  35.117  1.00  0.00    -0.203 F 
ATOM     84  C   UNL A   1      45.738  26.266  35.639  1.00  0.00     0.198 A 
ATOM     85  C   UNL A   1      47.017  27.998  34.570  1.00  0.00     0.198 A 
ATOM     86  F   UNL A   1      45.976  29.452  33.044  1.00  0.00    -0.203 F 
ATOM     87  F   UNL A   1      45.662  25.247  36.506  1.00  0.00    -0.200 F 
ATOM     88  C   UNL A   1      46.944  26.927  35.448  1.00  0.00     0.200 A 
ATOM     89  F   UNL A   1      48.185  28.621  34.363  1.00  0.00    -0.200 F 
ATOM     90  F   UNL A   1      48.038  26.532  36.112  1.00  0.00    -0.200 F 
ENDBRANCH  57  80
ENDBRANCH  31  32
ENDBRANCH  24  26
ENDBRANCH  23  24
ENDBRANCH  22  23
ENDBRANCH   1  22
TORSDOF 16
ENDMDL
MODEL 3
REMARK VINA RESULT:     -11.8      1.178      2.809
REMARK SMILES C#CCN(CC(=O)OCCOC(=O)c1ccc(-c2c3nc(c(-c4c(F)c(F)c(F)c(F)c4F)c4ccc([nH]4)c(-c4c(F)c(F)c(F)c(F)c4F)c4nc(c(-c5c(F)c(F)c(F)c(F)c5F)c5ccc2[nH]5)C=C4)C=C3)cc1)C(=O)N1CC[N@H+]2CCC[C@H]2C1
REMARK SMILES IDX 9 1 8 2 6 3 7 4 5 5 4 6 3 7 2 8 1 9 77 10 78 11 79 12 80 13
REMARK SMILES IDX 87 14 81 15 86 16 82 17 85 18 83 19 84 21 10 22 11 23 12 24
REMARK SMILES IDX 13 25 14 26 15 27 76 28 16 29 75 30 17 31 18 32 19 33 69 34
REMARK SMILES IDX 20 35 74 36 68 37 70 38 21 39 73 40 67 41 66 42 22 44 54 45
REMARK SMILES IDX 34 46 53 47 35 48 38 49 52 50 71 51 36 52 37 53 51 55 72 56
REMARK SMILES IDX 39 57 23 58 24 59 32 60 25 61 26 62 30 63 33 64 27 65 28 66
REMARK SMILES IDX 31 67 29 68 55 69 56 70 64 71 57 72 58 73 62 74 65 75 59 76
REMARK SMILES IDX 60 77 63 78 61 79 40 80 41 81 49 82 42 83 43 84 47 85 50 86
REMARK SMILES IDX 44 87 45 88 48 89 46 90
REMARK H PARENT 82 20 70 43 38 54
REMARK Flexibility Score: inf
ROOT
ATOM      1  C   UNL A   1      31.755  26.916  26.601  1.00  0.00     0.274 C 
ENDROOT
BRANCH   1   2
ATOM      2  O   UNL A   1      30.970  25.683  26.557  1.00  0.00    -0.461 OA
BRANCH   2   3
ATOM      3  C   UNL A   1      31.697  24.537  26.670  1.00  0.00     0.325 C 
ATOM      4  O   UNL A   1      31.323  23.591  27.364  1.00  0.00    -0.250 OA
BRANCH   3   5
ATOM      5  C   UNL A   1      32.951  24.392  25.717  1.00  0.00     0.245 C 
BRANCH   5   6
ATOM      6  N   UNL A   1      32.995  23.834  24.337  1.00  0.00    -0.302 N 
BRANCH   6   7
ATOM      7  C   UNL A   1      31.748  24.147  23.718  1.00  0.00     0.211 C 
BRANCH   7   8
ATOM      8  C   UNL A   1      31.711  25.215  22.637  1.00  0.00    -0.085 C 
ATOM      9  C   UNL A   1      31.680  26.131  21.710  1.00  0.00     0.006 C 
ENDBRANCH   7   8
ENDBRANCH   6   7
BRANCH   6  10
ATOM     10  C   UNL A   1      33.855  22.843  23.680  1.00  0.00     0.321 C 
ATOM     11  O   UNL A   1      34.521  23.124  22.681  1.00  0.00    -0.248 OA
BRANCH  10  12
ATOM     12  N   UNL A   1      34.169  21.629  24.388  1.00  0.00    -0.313 N 
ATOM     13  C   UNL A   1      35.808  21.122  25.206  1.00  0.00     0.183 C 
ATOM     14  C   UNL A   1      32.857  20.597  24.231  1.00  0.00     0.186 C 
ATOM     15  C   UNL A   1      36.434  19.242  24.908  1.00  0.00     0.284 C 
ATOM     16  C   UNL A   1      33.260  18.808  23.797  1.00  0.00     0.204 C 
ATOM     17  N   UNL A   1      35.239  18.006  24.053  1.00  0.00    -0.330 N 
ATOM     18  C   UNL A   1      32.063  17.677  24.967  1.00  0.00     0.073 C 
ATOM     19  C   UNL A   1      35.119  16.477  25.172  1.00  0.00     0.262 C 
ATOM     20  H   UNL A   1      35.605  17.791  23.126  1.00  0.00     0.348 HD
ATOM     21  C   UNL A   1      33.250  16.226  25.788  1.00  0.00     0.068 C 
ENDBRANCH  10  12
ENDBRANCH   6  10
ENDBRANCH   5   6
ENDBRANCH   3   5
ENDBRANCH   2   3
ENDBRANCH   1   2
BRANCH   1  22
ATOM     22  C   UNL A   1      31.590  27.870  25.370  1.00  0.00     0.275 C 
BRANCH  22  23
ATOM     23  O   UNL A   1      32.704  28.792  25.150  1.00  0.00    -0.458 OA
BRANCH  23  24
ATOM     24  C   UNL A   1      32.512  29.879  25.947  1.00  0.00     0.338 C 
ATOM     25  O   UNL A   1      31.499  30.529  25.736  1.00  0.00    -0.246 OA
BRANCH  24  26
ATOM     26  C   UNL A   1      33.647  30.294  27.004  1.00  0.00     0.060 A 
ATOM     27  C   UNL A   1      34.716  29.000  27.107  1.00  0.00     0.016 A 
ATOM     28  C   UNL A   1      34.024  32.064  27.659  1.00  0.00     0.016 A 
ATOM     29  C   UNL A   1      36.147  29.183  27.772  1.00  0.00     0.010 A 
ATOM     30  C   UNL A   1      35.479  32.324  28.158  1.00  0.00     0.010 A 
ATOM     31  C   UNL A   1      36.691  30.732  28.318  1.00  0.00    -0.014 A 
BRANCH  31  32
ATOM     32  C   UNL A   1      38.199  30.405  29.210  1.00  0.00     0.031 A 
ATOM     33  C   UNL A   1      39.488  29.473  28.753  1.00  0.00     0.074 A 
ATOM     34  C   UNL A   1      38.319  30.818  30.501  1.00  0.00     0.049 A 
ATOM     35  N   UNL A   1      40.201  28.666  29.535  1.00  0.00    -0.248 NA
ATOM     36  C   UNL A   1      39.845  29.189  27.340  1.00  0.00     0.031 C 
ATOM     37  C   UNL A   1      37.326  31.552  31.281  1.00  0.00     0.029 A 
ATOM     38  N   UNL A   1      39.361  30.678  31.402  1.00  0.00    -0.354 N 
ATOM     39  C   UNL A   1      40.785  27.735  28.662  1.00  0.00     0.074 A 
ATOM     40  C   UNL A   1      40.138  27.903  27.398  1.00  0.00     0.031 C 
ATOM     41  C   UNL A   1      37.857  31.961  32.439  1.00  0.00     0.029 A 
ATOM     42  C   UNL A   1      39.144  31.310  32.608  1.00  0.00     0.049 A 
ATOM     43  H   UNL A   1      40.182  30.174  31.200  1.00  0.00     0.167 HD
ATOM     44  C   UNL A   1      41.882  26.940  28.751  1.00  0.00     0.037 A 
ATOM     45  C   UNL A   1      39.837  31.313  33.765  1.00  0.00     0.037 A 
ATOM     46  C   UNL A   1      42.731  26.922  29.894  1.00  0.00     0.049 A 
ATOM     47  C   UNL A   1      41.057  30.442  33.896  1.00  0.00     0.074 A 
ATOM     48  C   UNL A   1      43.892  26.207  30.110  1.00  0.00     0.029 A 
ATOM     49  N   UNL A   1      42.514  27.716  31.002  1.00  0.00    -0.354 N 
ATOM     50  N   UNL A   1      41.592  29.618  33.028  1.00  0.00    -0.248 NA
ATOM     51  C   UNL A   1      41.756  30.485  35.188  1.00  0.00     0.031 C 
ATOM     52  C   UNL A   1      44.346  26.525  31.393  1.00  0.00     0.029 A 
ATOM     53  C   UNL A   1      43.506  27.488  31.930  1.00  0.00     0.049 A 
ATOM     54  H   UNL A   1      41.767  28.346  31.113  1.00  0.00     0.167 HD
ATOM     55  C   UNL A   1      42.706  29.074  33.657  1.00  0.00     0.074 A 
ATOM     56  C   UNL A   1      42.778  29.673  34.972  1.00  0.00     0.031 C 
ATOM     57  C   UNL A   1      43.587  28.154  33.198  1.00  0.00     0.037 A 
BRANCH  44  58
ATOM     58  C   UNL A   1      42.247  26.093  27.545  1.00  0.00     0.064 A 
ATOM     59  C   UNL A   1      41.697  24.814  27.325  1.00  0.00     0.173 A 
ATOM     60  C   UNL A   1      43.241  26.525  26.655  1.00  0.00     0.173 A 
ATOM     61  F   UNL A   1      40.751  24.333  28.149  1.00  0.00    -0.203 F 
ATOM     62  C   UNL A   1      42.203  23.967  26.340  1.00  0.00     0.198 A 
ATOM     63  C   UNL A   1      43.708  25.694  25.635  1.00  0.00     0.198 A 
ATOM     64  F   UNL A   1      43.788  27.741  26.792  1.00  0.00    -0.203 F 
ATOM     65  F   UNL A   1      41.760  22.704  26.251  1.00  0.00    -0.200 F 
ATOM     66  C   UNL A   1      43.210  24.408  25.497  1.00  0.00     0.200 A 
ATOM     67  F   UNL A   1      44.669  26.128  24.808  1.00  0.00    -0.200 F 
ATOM     68  F   UNL A   1      43.718  23.584  24.570  1.00  0.00    -0.200 F 
ENDBRANCH  44  58
BRANCH  45  69
ATOM     69  C   UNL A   1      39.379  32.150  34.914  1.00  0.00     0.064 A 
ATOM     70  C   UNL A   1      39.726  33.508  34.984  1.00  0.00     0.173 A 
ATOM     71  C   UNL A   1      38.601  31.629  35.961  1.00  0.00     0.173 A 
ATOM     72  F   UNL A   1      40.486  34.054  34.023  1.00  0.00    -0.203 F 
ATOM     73  C   UNL A   1      39.338  34.301  36.062  1.00  0.00     0.198 A 
ATOM     74  C   UNL A   1      38.174  32.435  37.016  1.00  0.00     0.198 A 
ATOM     75  F   UNL A   1      38.229  30.341  35.946  1.00  0.00    -0.203 F 
ATOM     76  F   UNL A   1      39.739  35.578  36.130  1.00  0.00    -0.200 F 
ATOM     77  C   UNL A   1      38.555  33.767  37.074  1.00  0.00     0.200 A 
ATOM     78  F   UNL A   1      37.397  31.920  37.979  1.00  0.00    -0.200 F 
ATOM     79  F   UNL A   1      38.176  34.532  38.107  1.00  0.00    -0.200 F 
ENDBRANCH  45  69
BRANCH  57  80
ATOM     80  C   UNL A   1      44.757  27.810  34.059  1.00  0.00     0.064 A 
ATOM     81  C   UNL A   1      44.734  26.717  34.933  1.00  0.00     0.173 A 
ATOM     82  C   UNL A   1      45.951  28.534  33.925  1.00  0.00     0.173 A 
ATOM     83  F   UNL A   1      43.610  26.001  35.093  1.00  0.00    -0.203 F 
ATOM     84  C   UNL A   1      45.866  26.371  35.661  1.00  0.00     0.198 A 
ATOM     85  C   UNL A   1      47.090  28.161  34.624  1.00  0.00     0.198 A 
ATOM     86  F   UNL A   1      46.019  29.577  33.084  1.00  0.00    -0.203 F 
ATOM     87  F   UNL A   1      45.817  25.345  36.522  1.00  0.00    -0.200 F 
ATOM     88  C   UNL A   1      47.046  27.083  35.497  1.00  0.00     0.200 A 
ATOM     89  F   UNL A   1      48.235  28.834  34.443  1.00  0.00    -0.200 F 
ATOM     90  F   UNL A   1      48.142  26.732  36.180  1.00  0.00    -0.200 F 
ENDBRANCH  57  80
ENDBRANCH  31  32
ENDBRANCH  24  26
ENDBRANCH  23  24
ENDBRANCH  22  23
ENDBRANCH   1  22
TORSDOF 16
ENDMDL
