MODEL 1
REMARK VINA RESULT:     -13.1      0.000      0.000
REMARK SMILES CNC(=O)c1cccc(-c2cnc(O)c(C(=O)OCCOC(=O)c3ccc(-c4c5nc(c(-c6c(F)c(F)c(F)c(F)c6F)c6ccc([nH]6)c(-c6c(F)c(F)c(F)c(F)c6F)c6nc(c(-c7c(F)c(F)c(F)c(F)c7F)c7ccc4[nH]7)C=C6)C=C5)cc3)c2)c1
REMARK SMILES IDX 19 1 18 2 16 3 17 4 15 5 10 6 11 7 87 8 12 9 13 10 9 11 5 12
REMARK SMILES IDX 6 13 88 14 7 15 8 16 3 17 1 18 2 19 4 21 14 22 20 24 21 25
REMARK SMILES IDX 22 26 23 27 24 28 25 29 86 30 26 31 85 32 27 33 28 34 29 35
REMARK SMILES IDX 79 36 30 37 84 38 78 39 80 40 31 41 83 42 77 43 76 44 32 46
REMARK SMILES IDX 64 47 44 48 63 49 45 50 48 51 62 52 81 53 46 54 47 55 61 57
REMARK SMILES IDX 82 58 49 59 33 60 34 61 42 62 35 63 36 64 40 65 43 66 37 67
REMARK SMILES IDX 38 68 41 69 39 70 65 71 66 72 74 73 67 74 68 75 72 76 75 77
REMARK SMILES IDX 69 78 70 79 73 80 71 81 50 82 51 83 59 84 52 85 53 86 57 87
REMARK SMILES IDX 60 88 54 89 55 90 58 91 56 92
REMARK H PARENT 2 20 14 23 80 45 48 56
REMARK Flexibility Score: inf
ROOT
ATOM      1  C   UNL A   1      31.753  28.999  25.608  1.00  0.00     0.275 C 
ENDROOT
BRANCH   1   2
ATOM      2  O   UNL A   1      33.031  28.387  25.346  1.00  0.00    -0.458 OA
BRANCH   2   3
ATOM      3  C   UNL A   1      33.445  28.396  24.053  1.00  0.00     0.343 C 
ATOM      4  O   UNL A   1      33.560  29.374  23.339  1.00  0.00    -0.246 OA
BRANCH   3   5
ATOM      5  C   UNL A   1      33.711  27.018  23.614  1.00  0.00     0.122 A 
ATOM      6  C   UNL A   1      34.122  24.688  24.109  1.00  0.00     0.001 A 
ATOM      7  C   UNL A   1      33.979  24.433  22.745  1.00  0.00     0.124 A 
ATOM      8  C   UNL A   1      34.027  26.024  24.532  1.00  0.00     0.031 A 
ATOM      9  N   UNL A   1      33.756  25.387  21.819  1.00  0.00    -0.221 NA
ATOM     10  C   UNL A   1      33.592  26.636  22.293  1.00  0.00     0.225 A 
BRANCH   6  11
ATOM     11  C   UNL A   1      34.208  23.605  25.084  1.00  0.00    -0.016 A 
ATOM     12  C   UNL A   1      34.941  21.334  25.565  1.00  0.00     0.040 A 
ATOM     13  C   UNL A   1      34.540  21.483  26.893  1.00  0.00     0.014 A 
ATOM     14  C   UNL A   1      34.733  22.373  24.665  1.00  0.00     0.022 A 
ATOM     15  C   UNL A   1      33.990  22.694  27.324  1.00  0.00     0.001 A 
ATOM     16  C   UNL A   1      33.840  23.756  26.427  1.00  0.00     0.009 A 
BRANCH  12  17
ATOM     17  C   UNL A   1      35.520  20.053  25.101  1.00  0.00     0.251 C 
ATOM     18  C   UNL A   1      33.275  18.950  24.557  1.00  0.00     0.143 C 
ATOM     19  N   UNL A   1      34.708  18.996  24.765  1.00  0.00    -0.355 N 
ATOM     20  H   UNL A   1      35.173  18.136  24.645  1.00  0.00     0.163 HD
ATOM     21  O   UNL A   1      36.740  19.935  25.032  1.00  0.00    -0.269 OA
ENDBRANCH  12  17
ENDBRANCH   6  11
BRANCH  10  22
ATOM     22  O   UNL A   1      33.379  27.522  21.305  1.00  0.00    -0.493 OA
ATOM     23  H   UNL A   1      33.165  27.223  20.444  1.00  0.00     0.295 HD
ENDBRANCH  10  22
ENDBRANCH   3   5
ENDBRANCH   2   3
ENDBRANCH   1   2
BRANCH   1  24
ATOM     24  C   UNL A   1      31.916  30.458  26.035  1.00  0.00     0.275 C 
BRANCH  24  25
ATOM     25  O   UNL A   1      32.550  30.558  27.326  1.00  0.00    -0.458 OA
BRANCH  25  26
ATOM     26  C   UNL A   1      33.295  31.671  27.498  1.00  0.00     0.338 C 
ATOM     27  O   UNL A   1      32.895  32.816  27.641  1.00  0.00    -0.246 OA
BRANCH  26  28
ATOM     28  C   UNL A   1      34.726  31.354  27.608  1.00  0.00     0.060 A 
ATOM     29  C   UNL A   1      35.046  30.024  27.804  1.00  0.00     0.016 A 
ATOM     30  C   UNL A   1      35.662  32.341  27.904  1.00  0.00     0.016 A 
ATOM     31  C   UNL A   1      36.183  29.696  28.534  1.00  0.00     0.010 A 
ATOM     32  C   UNL A   1      36.902  31.979  28.459  1.00  0.00     0.010 A 
ATOM     33  C   UNL A   1      37.150  30.655  28.864  1.00  0.00    -0.014 A 
BRANCH  33  34
ATOM     34  C   UNL A   1      38.359  30.260  29.663  1.00  0.00     0.031 A 
ATOM     35  C   UNL A   1      39.417  29.344  29.083  1.00  0.00     0.074 A 
ATOM     36  C   UNL A   1      38.552  30.756  30.905  1.00  0.00     0.049 A 
ATOM     37  N   UNL A   1      40.410  28.735  29.687  1.00  0.00    -0.248 NA
ATOM     38  C   UNL A   1      39.341  29.058  27.643  1.00  0.00     0.031 C 
ATOM     39  C   UNL A   1      37.660  31.690  31.596  1.00  0.00     0.029 A 
ATOM     40  N   UNL A   1      39.572  30.562  31.808  1.00  0.00    -0.354 N 
ATOM     41  C   UNL A   1      41.012  27.930  28.725  1.00  0.00     0.074 A 
ATOM     42  C   UNL A   1      40.281  28.134  27.494  1.00  0.00     0.031 C 
ATOM     43  C   UNL A   1      38.207  32.053  32.762  1.00  0.00     0.029 A 
ATOM     44  C   UNL A   1      39.402  31.254  32.984  1.00  0.00     0.049 A 
ATOM     45  H   UNL A   1      40.349  29.984  31.629  1.00  0.00     0.167 HD
ATOM     46  C   UNL A   1      42.071  27.092  28.863  1.00  0.00     0.037 A 
ATOM     47  C   UNL A   1      40.071  31.208  34.150  1.00  0.00     0.037 A 
ATOM     48  C   UNL A   1      42.849  26.959  30.071  1.00  0.00     0.049 A 
ATOM     49  C   UNL A   1      41.223  30.260  34.288  1.00  0.00     0.074 A 
ATOM     50  C   UNL A   1      43.960  26.164  30.301  1.00  0.00     0.029 A 
ATOM     51  N   UNL A   1      42.609  27.654  31.249  1.00  0.00    -0.354 N 
ATOM     52  N   UNL A   1      41.731  29.442  33.398  1.00  0.00    -0.248 NA
ATOM     53  C   UNL A   1      41.881  30.208  35.599  1.00  0.00     0.031 C 
ATOM     54  C   UNL A   1      44.356  26.334  31.632  1.00  0.00     0.029 A 
ATOM     55  C   UNL A   1      43.536  27.287  32.214  1.00  0.00     0.049 A 
ATOM     56  H   UNL A   1      41.887  28.310  31.380  1.00  0.00     0.167 HD
ATOM     57  C   UNL A   1      42.772  28.786  34.036  1.00  0.00     0.074 A 
ATOM     58  C   UNL A   1      42.840  29.322  35.381  1.00  0.00     0.031 C 
ATOM     59  C   UNL A   1      43.593  27.824  33.551  1.00  0.00     0.037 A 
BRANCH  46  60
ATOM     60  C   UNL A   1      42.424  26.202  27.698  1.00  0.00     0.064 A 
ATOM     61  C   UNL A   1      43.418  26.530  26.766  1.00  0.00     0.173 A 
ATOM     62  C   UNL A   1      41.766  24.969  27.539  1.00  0.00     0.173 A 
ATOM     63  F   UNL A   1      44.076  27.695  26.862  1.00  0.00    -0.203 F 
ATOM     64  C   UNL A   1      43.712  25.681  25.699  1.00  0.00     0.198 A 
ATOM     65  C   UNL A   1      42.087  24.107  26.494  1.00  0.00     0.198 A 
ATOM     66  F   UNL A   1      40.814  24.594  28.407  1.00  0.00    -0.203 F 
ATOM     67  F   UNL A   1      44.625  26.044  24.788  1.00  0.00    -0.200 F 
ATOM     68  C   UNL A   1      43.052  24.468  25.568  1.00  0.00     0.200 A 
ATOM     69  F   UNL A   1      41.460  22.928  26.383  1.00  0.00    -0.200 F 
ATOM     70  F   UNL A   1      43.340  23.652  24.546  1.00  0.00    -0.200 F 
ENDBRANCH  46  60
BRANCH  47  71
ATOM     71  C   UNL A   1      39.603  32.032  35.298  1.00  0.00     0.064 A 
ATOM     72  C   UNL A   1      40.041  33.351  35.473  1.00  0.00     0.173 A 
ATOM     73  C   UNL A   1      38.679  31.524  36.227  1.00  0.00     0.173 A 
ATOM     74  F   UNL A   1      40.944  33.874  34.631  1.00  0.00    -0.203 F 
ATOM     75  C   UNL A   1      39.575  34.127  36.532  1.00  0.00     0.198 A 
ATOM     76  C   UNL A   1      38.182  32.315  37.258  1.00  0.00     0.198 A 
ATOM     77  F   UNL A   1      38.227  30.266  36.106  1.00  0.00    -0.203 F 
ATOM     78  F   UNL A   1      40.039  35.374  36.700  1.00  0.00    -0.200 F 
ATOM     79  C   UNL A   1      38.636  33.615  37.414  1.00  0.00     0.200 A 
ATOM     80  F   UNL A   1      37.257  31.821  38.092  1.00  0.00    -0.200 F 
ATOM     81  F   UNL A   1      38.172  34.371  38.418  1.00  0.00    -0.200 F 
ENDBRANCH  47  71
BRANCH  59  82
ATOM     82  C   UNL A   1      44.666  27.319  34.472  1.00  0.00     0.064 A 
ATOM     83  C   UNL A   1      45.921  27.940  34.557  1.00  0.00     0.173 A 
ATOM     84  C   UNL A   1      44.431  26.198  35.282  1.00  0.00     0.173 A 
ATOM     85  F   UNL A   1      46.202  29.003  33.789  1.00  0.00    -0.203 F 
ATOM     86  C   UNL A   1      46.912  27.436  35.394  1.00  0.00     0.198 A 
ATOM     87  C   UNL A   1      45.413  25.718  36.143  1.00  0.00     0.198 A 
ATOM     88  F   UNL A   1      43.247  25.569  35.240  1.00  0.00    -0.203 F 
ATOM     89  F   UNL A   1      48.125  28.008  35.412  1.00  0.00    -0.200 F 
ATOM     90  C   UNL A   1      46.656  26.330  36.191  1.00  0.00     0.200 A 
ATOM     91  F   UNL A   1      45.159  24.657  36.922  1.00  0.00    -0.200 F 
ATOM     92  F   UNL A   1      47.612  25.847  36.996  1.00  0.00    -0.200 F 
ENDBRANCH  59  82
ENDBRANCH  33  34
ENDBRANCH  26  28
ENDBRANCH  25  26
ENDBRANCH  24  25
ENDBRANCH   1  24
TORSDOF 14
ENDMDL
MODEL 2
REMARK VINA RESULT:     -13.0      0.892      1.602
REMARK SMILES CNC(=O)c1cccc(-c2cnc(O)c(C(=O)OCCOC(=O)c3ccc(-c4c5nc(c(-c6c(F)c(F)c(F)c(F)c6F)c6ccc([nH]6)c(-c6c(F)c(F)c(F)c(F)c6F)c6nc(c(-c7c(F)c(F)c(F)c(F)c7F)c7ccc4[nH]7)C=C6)C=C5)cc3)c2)c1
REMARK SMILES IDX 19 1 18 2 16 3 17 4 15 5 10 6 11 7 87 8 12 9 13 10 9 11 5 12
REMARK SMILES IDX 6 13 88 14 7 15 8 16 3 17 1 18 2 19 4 21 14 22 20 24 21 25
REMARK SMILES IDX 22 26 23 27 24 28 25 29 86 30 26 31 85 32 27 33 28 34 29 35
REMARK SMILES IDX 79 36 30 37 84 38 78 39 80 40 31 41 83 42 77 43 76 44 32 46
REMARK SMILES IDX 64 47 44 48 63 49 45 50 48 51 62 52 81 53 46 54 47 55 61 57
REMARK SMILES IDX 82 58 49 59 33 60 34 61 42 62 35 63 36 64 40 65 43 66 37 67
REMARK SMILES IDX 38 68 41 69 39 70 65 71 66 72 74 73 67 74 68 75 72 76 75 77
REMARK SMILES IDX 69 78 70 79 73 80 71 81 50 82 51 83 59 84 52 85 53 86 57 87
REMARK SMILES IDX 60 88 54 89 55 90 58 91 56 92
REMARK H PARENT 2 20 14 23 80 45 48 56
REMARK Flexibility Score: inf
ROOT
ATOM      1  C   UNL A   1      32.499  29.463  25.024  1.00  0.00     0.275 C 
ENDROOT
BRANCH   1   2
ATOM      2  O   UNL A   1      32.102  28.110  25.324  1.00  0.00    -0.458 OA
BRANCH   2   3
ATOM      3  C   UNL A   1      31.261  27.522  24.435  1.00  0.00     0.343 C 
ATOM      4  O   UNL A   1      30.057  27.678  24.368  1.00  0.00    -0.246 OA
BRANCH   3   5
ATOM      5  C   UNL A   1      32.027  26.621  23.560  1.00  0.00     0.122 A 
ATOM      6  C   UNL A   1      33.578  24.793  23.252  1.00  0.00     0.001 A 
ATOM      7  C   UNL A   1      33.255  24.824  21.896  1.00  0.00     0.124 A 
ATOM      8  C   UNL A   1      32.974  25.750  24.083  1.00  0.00     0.031 A 
ATOM      9  N   UNL A   1      32.404  25.711  21.343  1.00  0.00    -0.221 NA
ATOM     10  C   UNL A   1      31.793  26.549  22.200  1.00  0.00     0.225 A 
BRANCH   6  11
ATOM     11  C   UNL A   1      34.384  23.717  23.822  1.00  0.00    -0.016 A 
ATOM     12  C   UNL A   1      34.530  21.902  25.437  1.00  0.00     0.040 A 
ATOM     13  C   UNL A   1      35.780  21.547  24.928  1.00  0.00     0.014 A 
ATOM     14  C   UNL A   1      33.865  23.005  24.913  1.00  0.00     0.022 A 
ATOM     15  C   UNL A   1      36.325  22.261  23.857  1.00  0.00     0.001 A 
ATOM     16  C   UNL A   1      35.623  23.331  23.296  1.00  0.00     0.009 A 
BRANCH  12  17
ATOM     17  C   UNL A   1      33.949  21.153  26.574  1.00  0.00     0.251 C 
ATOM     18  C   UNL A   1      32.995  19.249  25.153  1.00  0.00     0.143 C 
ATOM     19  N   UNL A   1      33.186  20.031  26.358  1.00  0.00    -0.355 N 
ATOM     20  H   UNL A   1      32.692  19.706  27.147  1.00  0.00     0.163 HD
ATOM     21  O   UNL A   1      34.141  21.554  27.718  1.00  0.00    -0.269 OA
ENDBRANCH  12  17
ENDBRANCH   6  11
BRANCH  10  22
ATOM     22  O   UNL A   1      30.967  27.400  21.567  1.00  0.00    -0.493 OA
ATOM     23  H   UNL A   1      31.039  28.322  21.717  1.00  0.00     0.295 HD
ENDBRANCH  10  22
ENDBRANCH   3   5
ENDBRANCH   2   3
ENDBRANCH   1   2
BRANCH   1  24
ATOM     24  C   UNL A   1      31.818  30.459  25.963  1.00  0.00     0.275 C 
BRANCH  24  25
ATOM     25  O   UNL A   1      32.489  30.519  27.238  1.00  0.00    -0.458 OA
BRANCH  25  26
ATOM     26  C   UNL A   1      33.227  31.635  27.428  1.00  0.00     0.338 C 
ATOM     27  O   UNL A   1      32.819  32.777  27.573  1.00  0.00    -0.246 OA
BRANCH  26  28
ATOM     28  C   UNL A   1      34.657  31.323  27.557  1.00  0.00     0.060 A 
ATOM     29  C   UNL A   1      34.978  29.997  27.779  1.00  0.00     0.016 A 
ATOM     30  C   UNL A   1      35.588  32.318  27.844  1.00  0.00     0.016 A 
ATOM     31  C   UNL A   1      36.109  29.686  28.526  1.00  0.00     0.010 A 
ATOM     32  C   UNL A   1      36.823  31.968  28.417  1.00  0.00     0.010 A 
ATOM     33  C   UNL A   1      37.071  30.652  28.847  1.00  0.00    -0.014 A 
BRANCH  33  34
ATOM     34  C   UNL A   1      38.273  30.274  29.664  1.00  0.00     0.031 A 
ATOM     35  C   UNL A   1      39.367  29.398  29.091  1.00  0.00     0.074 A 
ATOM     36  C   UNL A   1      38.428  30.753  30.919  1.00  0.00     0.049 A 
ATOM     37  N   UNL A   1      40.364  28.804  29.704  1.00  0.00    -0.248 NA
ATOM     38  C   UNL A   1      39.329  29.137  27.644  1.00  0.00     0.031 C 
ATOM     39  C   UNL A   1      37.498  31.650  31.608  1.00  0.00     0.029 A 
ATOM     40  N   UNL A   1      39.434  30.568  31.840  1.00  0.00    -0.354 N 
ATOM     41  C   UNL A   1      41.007  28.033  28.741  1.00  0.00     0.074 A 
ATOM     42  C   UNL A   1      40.295  28.241  27.498  1.00  0.00     0.031 C 
ATOM     43  C   UNL A   1      38.010  32.005  32.791  1.00  0.00     0.029 A 
ATOM     44  C   UNL A   1      39.221  31.234  33.024  1.00  0.00     0.049 A 
ATOM     45  H   UNL A   1      40.230  30.015  31.666  1.00  0.00     0.167 HD
ATOM     46  C   UNL A   1      42.085  27.220  28.886  1.00  0.00     0.037 A 
ATOM     47  C   UNL A   1      39.867  31.184  34.203  1.00  0.00     0.037 A 
ATOM     48  C   UNL A   1      42.841  27.086  30.107  1.00  0.00     0.049 A 
ATOM     49  C   UNL A   1      41.041  30.264  34.348  1.00  0.00     0.074 A 
ATOM     50  C   UNL A   1      43.967  26.317  30.346  1.00  0.00     0.029 A 
ATOM     51  N   UNL A   1      42.558  27.752  31.292  1.00  0.00    -0.354 N 
ATOM     52  N   UNL A   1      41.589  29.477  33.454  1.00  0.00    -0.248 NA
ATOM     53  C   UNL A   1      41.673  30.206  35.672  1.00  0.00     0.031 C 
ATOM     54  C   UNL A   1      44.332  26.472  31.688  1.00  0.00     0.029 A 
ATOM     55  C   UNL A   1      43.475  27.392  32.270  1.00  0.00     0.049 A 
ATOM     56  H   UNL A   1      41.816  28.387  31.420  1.00  0.00     0.167 HD
ATOM     57  C   UNL A   1      42.634  28.837  34.102  1.00  0.00     0.074 A 
ATOM     58  C   UNL A   1      42.660  29.349  35.457  1.00  0.00     0.031 C 
ATOM     59  C   UNL A   1      43.490  27.906  33.617  1.00  0.00     0.037 A 
BRANCH  46  60
ATOM     60  C   UNL A   1      42.485  26.362  27.713  1.00  0.00     0.064 A 
ATOM     61  C   UNL A   1      43.491  26.733  26.809  1.00  0.00     0.173 A 
ATOM     62  C   UNL A   1      41.861  25.117  27.516  1.00  0.00     0.173 A 
ATOM     63  F   UNL A   1      44.118  27.911  26.942  1.00  0.00    -0.203 F 
ATOM     64  C   UNL A   1      43.829  25.911  25.734  1.00  0.00     0.198 A 
ATOM     65  C   UNL A   1      42.227  24.283  26.463  1.00  0.00     0.198 A 
ATOM     66  F   UNL A   1      40.900  24.702  28.356  1.00  0.00    -0.203 F 
ATOM     67  F   UNL A   1      44.752  26.314  24.850  1.00  0.00    -0.200 F 
ATOM     68  C   UNL A   1      43.203  24.685  25.565  1.00  0.00     0.200 A 
ATOM     69  F   UNL A   1      41.632  23.091  26.315  1.00  0.00    -0.200 F 
ATOM     70  F   UNL A   1      43.533  23.896  24.534  1.00  0.00    -0.200 F 
ENDBRANCH  46  60
BRANCH  47  71
ATOM     71  C   UNL A   1      39.354  31.974  35.355  1.00  0.00     0.064 A 
ATOM     72  C   UNL A   1      38.492  31.406  36.302  1.00  0.00     0.173 A 
ATOM     73  C   UNL A   1      39.745  33.310  35.550  1.00  0.00     0.173 A 
ATOM     74  F   UNL A   1      38.067  30.143  36.147  1.00  0.00    -0.203 F 
ATOM     75  C   UNL A   1      38.040  32.142  37.395  1.00  0.00     0.198 A 
ATOM     76  C   UNL A   1      39.327  34.030  36.664  1.00  0.00     0.198 A 
ATOM     77  F   UNL A   1      40.569  33.904  34.673  1.00  0.00    -0.203 F 
ATOM     78  F   UNL A   1      37.185  31.587  38.265  1.00  0.00    -0.200 F 
ATOM     79  C   UNL A   1      38.469  33.447  37.583  1.00  0.00     0.200 A 
ATOM     80  F   UNL A   1      39.764  35.283  36.853  1.00  0.00    -0.200 F 
ATOM     81  F   UNL A   1      38.051  34.147  38.647  1.00  0.00    -0.200 F 
ENDBRANCH  47  71
BRANCH  59  82
ATOM     82  C   UNL A   1      44.557  27.412  34.551  1.00  0.00     0.064 A 
ATOM     83  C   UNL A   1      45.793  28.064  34.673  1.00  0.00     0.173 A 
ATOM     84  C   UNL A   1      44.335  26.271  35.337  1.00  0.00     0.173 A 
ATOM     85  F   UNL A   1      46.062  29.147  33.929  1.00  0.00    -0.203 F 
ATOM     86  C   UNL A   1      46.781  27.571  35.521  1.00  0.00     0.198 A 
ATOM     87  C   UNL A   1      45.312  25.801  36.209  1.00  0.00     0.198 A 
ATOM     88  F   UNL A   1      43.169  25.613  35.260  1.00  0.00    -0.203 F 
ATOM     89  F   UNL A   1      47.977  28.172  35.574  1.00  0.00    -0.200 F 
ATOM     90  C   UNL A   1      46.537  26.444  36.293  1.00  0.00     0.200 A 
ATOM     91  F   UNL A   1      45.069  24.720  36.964  1.00  0.00    -0.200 F 
ATOM     92  F   UNL A   1      47.489  25.971  37.110  1.00  0.00    -0.200 F 
ENDBRANCH  59  82
ENDBRANCH  33  34
ENDBRANCH  26  28
ENDBRANCH  25  26
ENDBRANCH  24  25
ENDBRANCH   1  24
TORSDOF 14
ENDMDL
MODEL 3
REMARK VINA RESULT:     -12.9      3.168      8.208
REMARK SMILES CNC(=O)c1cccc(-c2cnc(O)c(C(=O)OCCOC(=O)c3ccc(-c4c5nc(c(-c6c(F)c(F)c(F)c(F)c6F)c6ccc([nH]6)c(-c6c(F)c(F)c(F)c(F)c6F)c6nc(c(-c7c(F)c(F)c(F)c(F)c7F)c7ccc4[nH]7)C=C6)C=C5)cc3)c2)c1
REMARK SMILES IDX 19 1 18 2 16 3 17 4 15 5 10 6 11 7 87 8 12 9 13 10 9 11 5 12
REMARK SMILES IDX 6 13 88 14 7 15 8 16 3 17 1 18 2 19 4 21 14 22 20 24 21 25
REMARK SMILES IDX 22 26 23 27 24 28 25 29 86 30 26 31 85 32 27 33 28 34 29 35
REMARK SMILES IDX 79 36 30 37 84 38 78 39 80 40 31 41 83 42 77 43 76 44 32 46
REMARK SMILES IDX 64 47 44 48 63 49 45 50 48 51 62 52 81 53 46 54 47 55 61 57
REMARK SMILES IDX 82 58 49 59 33 60 34 61 42 62 35 63 36 64 40 65 43 66 37 67
REMARK SMILES IDX 38 68 41 69 39 70 65 71 66 72 74 73 67 74 68 75 72 76 75 77
REMARK SMILES IDX 69 78 70 79 73 80 71 81 50 82 51 83 59 84 52 85 53 86 57 87
REMARK SMILES IDX 60 88 54 89 55 90 58 91 56 92
REMARK H PARENT 2 20 14 23 80 45 48 56
REMARK Flexibility Score: inf
ROOT
ATOM      1  C   UNL A   1      42.754  21.156  26.123  1.00  0.00     0.275 C 
ENDROOT
BRANCH   1   2
ATOM      2  O   UNL A   1      41.404  21.387  25.674  1.00  0.00    -0.458 OA
BRANCH   2   3
ATOM      3  C   UNL A   1      40.448  21.404  26.637  1.00  0.00     0.343 C 
ATOM      4  O   UNL A   1      40.622  21.612  27.823  1.00  0.00    -0.246 OA
BRANCH   3   5
ATOM      5  C   UNL A   1      39.142  21.095  26.036  1.00  0.00     0.122 A 
ATOM      6  C   UNL A   1      36.979  21.794  25.213  1.00  0.00     0.001 A 
ATOM      7  C   UNL A   1      36.817  20.503  24.711  1.00  0.00     0.124 A 
ATOM      8  C   UNL A   1      38.156  22.067  25.929  1.00  0.00     0.031 A 
ATOM      9  N   UNL A   1      37.718  19.513  24.871  1.00  0.00    -0.221 NA
ATOM     10  C   UNL A   1      38.861  19.856  25.493  1.00  0.00     0.225 A 
BRANCH   6  11
ATOM     11  C   UNL A   1      36.046  22.866  24.879  1.00  0.00    -0.016 A 
ATOM     12  C   UNL A   1      34.196  23.612  23.483  1.00  0.00     0.040 A 
ATOM     13  C   UNL A   1      34.123  24.800  24.212  1.00  0.00     0.014 A 
ATOM     14  C   UNL A   1      35.181  22.679  23.792  1.00  0.00     0.022 A 
ATOM     15  C   UNL A   1      34.995  25.016  25.284  1.00  0.00     0.001 A 
ATOM     16  C   UNL A   1      35.942  24.046  25.626  1.00  0.00     0.009 A 
BRANCH  12  17
ATOM     17  C   UNL A   1      33.280  23.378  22.345  1.00  0.00     0.251 C 
ATOM     18  C   UNL A   1      31.152  23.252  23.763  1.00  0.00     0.143 C 
ATOM     19  N   UNL A   1      31.947  23.122  22.559  1.00  0.00    -0.355 N 
ATOM     20  H   UNL A   1      31.454  22.799  21.769  1.00  0.00     0.163 HD
ATOM     21  O   UNL A   1      33.725  23.400  21.202  1.00  0.00    -0.269 OA
ENDBRANCH  12  17
ENDBRANCH   6  11
BRANCH  10  22
ATOM     22  O   UNL A   1      39.700  18.813  25.614  1.00  0.00    -0.493 OA
ATOM     23  H   UNL A   1      40.024  18.567  26.458  1.00  0.00     0.295 HD
ENDBRANCH  10  22
ENDBRANCH   3   5
ENDBRANCH   2   3
ENDBRANCH   1   2
BRANCH   1  24
ATOM     24  C   UNL A   1      43.745  22.044  25.369  1.00  0.00     0.275 C 
BRANCH  24  25
ATOM     25  O   UNL A   1      43.078  23.155  24.737  1.00  0.00    -0.458 OA
BRANCH  25  26
ATOM     26  C   UNL A   1      43.634  24.359  24.993  1.00  0.00     0.338 C 
ATOM     27  O   UNL A   1      44.722  24.768  24.617  1.00  0.00    -0.246 OA
BRANCH  26  28
ATOM     28  C   UNL A   1      42.711  25.236  25.727  1.00  0.00     0.060 A 
ATOM     29  C   UNL A   1      43.002  26.587  25.706  1.00  0.00     0.016 A 
ATOM     30  C   UNL A   1      41.855  24.728  26.701  1.00  0.00     0.016 A 
ATOM     31  C   UNL A   1      42.657  27.376  26.797  1.00  0.00     0.010 A 
ATOM     32  C   UNL A   1      41.344  25.584  27.691  1.00  0.00     0.010 A 
ATOM     33  C   UNL A   1      41.806  26.908  27.807  1.00  0.00    -0.014 A 
BRANCH  33  34
ATOM     34  C   UNL A   1      41.467  27.790  28.975  1.00  0.00     0.031 A 
ATOM     35  C   UNL A   1      42.321  27.797  30.225  1.00  0.00     0.074 A 
ATOM     36  C   UNL A   1      40.416  28.636  28.913  1.00  0.00     0.049 A 
ATOM     37  N   UNL A   1      42.073  28.329  31.399  1.00  0.00    -0.248 NA
ATOM     38  C   UNL A   1      43.615  27.101  30.159  1.00  0.00     0.031 C 
ATOM     39  C   UNL A   1      39.518  28.796  27.766  1.00  0.00     0.029 A 
ATOM     40  N   UNL A   1      39.927  29.541  29.828  1.00  0.00    -0.354 N 
ATOM     41  C   UNL A   1      43.127  27.954  32.226  1.00  0.00     0.074 A 
ATOM     42  C   UNL A   1      44.026  27.157  31.419  1.00  0.00     0.031 C 
ATOM     43  C   UNL A   1      38.656  29.789  28.007  1.00  0.00     0.029 A 
ATOM     44  C   UNL A   1      38.821  30.226  29.384  1.00  0.00     0.049 A 
ATOM     45  H   UNL A   1      40.332  29.684  30.714  1.00  0.00     0.167 HD
ATOM     46  C   UNL A   1      43.319  28.241  33.538  1.00  0.00     0.037 A 
ATOM     47  C   UNL A   1      37.971  31.054  30.019  1.00  0.00     0.037 A 
ATOM     48  C   UNL A   1      42.465  29.108  34.312  1.00  0.00     0.049 A 
ATOM     49  C   UNL A   1      38.190  31.341  31.473  1.00  0.00     0.074 A 
ATOM     50  C   UNL A   1      42.592  29.490  35.638  1.00  0.00     0.029 A 
ATOM     51  N   UNL A   1      41.331  29.745  33.826  1.00  0.00    -0.354 N 
ATOM     52  N   UNL A   1      39.142  30.913  32.265  1.00  0.00    -0.248 NA
ATOM     53  C   UNL A   1      37.201  32.205  32.130  1.00  0.00     0.031 C 
ATOM     54  C   UNL A   1      41.507  30.309  35.968  1.00  0.00     0.029 A 
ATOM     55  C   UNL A   1      40.739  30.496  34.831  1.00  0.00     0.049 A 
ATOM     56  H   UNL A   1      40.997  29.675  32.902  1.00  0.00     0.167 HD
ATOM     57  C   UNL A   1      38.876  31.462  33.510  1.00  0.00     0.074 A 
ATOM     58  C   UNL A   1      37.686  32.276  33.360  1.00  0.00     0.031 C 
ATOM     59  C   UNL A   1      39.554  31.301  34.672  1.00  0.00     0.037 A 
BRANCH  46  60
ATOM     60  C   UNL A   1      44.467  27.569  34.248  1.00  0.00     0.064 A 
ATOM     61  C   UNL A   1      45.730  28.163  34.381  1.00  0.00     0.173 A 
ATOM     62  C   UNL A   1      44.277  26.307  34.839  1.00  0.00     0.173 A 
ATOM     63  F   UNL A   1      45.973  29.364  33.834  1.00  0.00    -0.203 F 
ATOM     64  C   UNL A   1      46.767  27.506  35.042  1.00  0.00     0.198 A 
ATOM     65  C   UNL A   1      45.304  25.670  35.530  1.00  0.00     0.198 A 
ATOM     66  F   UNL A   1      43.087  25.694  34.756  1.00  0.00    -0.203 F 
ATOM     67  F   UNL A   1      47.982  28.069  35.105  1.00  0.00    -0.200 F 
ATOM     68  C   UNL A   1      46.553  26.264  35.622  1.00  0.00     0.200 A 
ATOM     69  F   UNL A   1      45.086  24.479  36.104  1.00  0.00    -0.200 F 
ATOM     70  F   UNL A   1      47.549  25.638  36.261  1.00  0.00    -0.200 F 
ENDBRANCH  46  60
BRANCH  47  71
ATOM     71  C   UNL A   1      36.794  31.598  29.289  1.00  0.00     0.064 A 
ATOM     72  C   UNL A   1      35.698  30.787  28.967  1.00  0.00     0.173 A 
ATOM     73  C   UNL A   1      36.728  32.954  28.926  1.00  0.00     0.173 A 
ATOM     74  F   UNL A   1      35.723  29.480  29.267  1.00  0.00    -0.203 F 
ATOM     75  C   UNL A   1      34.586  31.309  28.312  1.00  0.00     0.198 A 
ATOM     76  C   UNL A   1      35.599  33.483  28.310  1.00  0.00     0.198 A 
ATOM     77  F   UNL A   1      37.751  33.776  29.209  1.00  0.00    -0.203 F 
ATOM     78  F   UNL A   1      33.567  30.503  27.981  1.00  0.00    -0.200 F 
ATOM     79  C   UNL A   1      34.530  32.658  27.996  1.00  0.00     0.200 A 
ATOM     80  F   UNL A   1      35.542  34.793  28.030  1.00  0.00    -0.200 F 
ATOM     81  F   UNL A   1      33.450  33.164  27.386  1.00  0.00    -0.200 F 
ENDBRANCH  47  71
BRANCH  59  82
ATOM     82  C   UNL A   1      39.045  32.057  35.865  1.00  0.00     0.064 A 
ATOM     83  C   UNL A   1      39.387  33.399  36.091  1.00  0.00     0.173 A 
ATOM     84  C   UNL A   1      38.201  31.428  36.793  1.00  0.00     0.173 A 
ATOM     85  F   UNL A   1      40.207  34.039  35.245  1.00  0.00    -0.203 F 
ATOM     86  C   UNL A   1      38.931  34.072  37.222  1.00  0.00     0.198 A 
ATOM     87  C   UNL A   1      37.719  32.115  37.903  1.00  0.00     0.198 A 
ATOM     88  F   UNL A   1      37.842  30.147  36.621  1.00  0.00    -0.203 F 
ATOM     89  F   UNL A   1      39.321  35.333  37.451  1.00  0.00    -0.200 F 
ATOM     90  C   UNL A   1      38.092  33.432  38.123  1.00  0.00     0.200 A 
ATOM     91  F   UNL A   1      36.898  31.498  38.766  1.00  0.00    -0.200 F 
ATOM     92  F   UNL A   1      37.654  34.081  39.210  1.00  0.00    -0.200 F 
ENDBRANCH  59  82
ENDBRANCH  33  34
ENDBRANCH  26  28
ENDBRANCH  25  26
ENDBRANCH  24  25
ENDBRANCH   1  24
TORSDOF 14
ENDMDL
