MODEL 1
REMARK VINA RESULT:     -10.7      0.000      0.000
REMARK SMILES C[C@H](NC(=O)CCn1ccccc1=O)C(=O)OCCOC(=O)c1ccc(-c2c3nc(c(-c4c(F)c(F)c(F)c(F)c4F)c4ccc([nH]4)c(-c4c(F)c(F)c(F)c(F)c4F)c4nc(c(-c5c(F)c(F)c(F)c(F)c5F)c5ccc2[nH]5)C=C4)C=C3)cc1
REMARK SMILES IDX 18 1 17 2 15 3 16 4 2 5 1 6 3 7 4 8 5 10 6 11 7 12 8 13 9 14
REMARK SMILES IDX 13 15 10 16 12 17 14 18 11 19 19 20 20 21 21 22 22 23 23 24
REMARK SMILES IDX 24 25 85 26 25 27 84 28 26 29 27 30 28 31 78 32 29 33 83 34
REMARK SMILES IDX 77 35 79 36 30 37 82 38 76 39 75 40 31 42 63 43 43 44 62 45
REMARK SMILES IDX 44 46 47 47 61 48 80 49 45 50 46 51 60 53 81 54 48 55 32 56
REMARK SMILES IDX 33 57 41 58 34 59 35 60 39 61 42 62 36 63 37 64 40 65 38 66
REMARK SMILES IDX 64 67 65 68 73 69 66 70 67 71 71 72 74 73 68 74 69 75 72 76
REMARK SMILES IDX 70 77 49 78 50 79 58 80 51 81 52 82 56 83 59 84 53 85 54 86
REMARK SMILES IDX 57 87 55 88
REMARK H PARENT 3 9 79 41 47 52
REMARK Flexibility Score: inf
ROOT
ATOM      1  C   UNL A   1      41.733  20.229  26.463  1.00  0.00     0.274 C 
ENDROOT
BRANCH   1   2
ATOM      2  O   UNL A   1      42.265  19.519  25.323  1.00  0.00    -0.461 OA
BRANCH   2   3
ATOM      3  C   UNL A   1      43.286  18.670  25.603  1.00  0.00     0.328 C 
ATOM      4  O   UNL A   1      43.256  17.833  26.500  1.00  0.00    -0.250 OA
BRANCH   3   5
ATOM      5  C   UNL A   1      44.520  18.872  24.727  1.00  0.00     0.189 C 
ATOM      6  C   UNL A   1      45.859  18.580  25.379  1.00  0.00     0.043 C 
BRANCH   5   7
ATOM      7  N   UNL A   1      44.577  20.035  23.861  1.00  0.00    -0.343 N 
ATOM      8  C   UNL A   1      44.802  21.335  24.197  1.00  0.00     0.222 C 
ATOM      9  H   UNL A   1      44.434  19.862  22.902  1.00  0.00     0.164 HD
ATOM     10  O   UNL A   1      44.463  22.195  23.378  1.00  0.00    -0.275 OA
BRANCH   8  11
ATOM     11  C   UNL A   1      45.584  21.748  25.445  1.00  0.00     0.122 C 
BRANCH  11  12
ATOM     12  C   UNL A   1      44.959  22.679  26.497  1.00  0.00     0.135 C 
BRANCH  12  13
ATOM     13  N   UNL A   1      45.066  24.137  26.281  1.00  0.00    -0.315 N 
ATOM     14  C   UNL A   1      44.017  24.862  25.729  1.00  0.00     0.089 A 
ATOM     15  C   UNL A   1      46.287  24.755  26.591  1.00  0.00     0.250 A 
ATOM     16  C   UNL A   1      44.182  26.126  25.319  1.00  0.00     0.018 A 
ATOM     17  C   UNL A   1      46.460  26.152  26.098  1.00  0.00     0.072 A 
ATOM     18  O   UNL A   1      47.230  24.205  27.153  1.00  0.00    -0.269 OA
ATOM     19  C   UNL A   1      45.459  26.773  25.465  1.00  0.00     0.007 A 
ENDBRANCH  12  13
ENDBRANCH  11  12
ENDBRANCH   8  11
ENDBRANCH   5   7
ENDBRANCH   3   5
ENDBRANCH   2   3
ENDBRANCH   1   2
BRANCH   1  20
ATOM     20  C   UNL A   1      41.169  21.620  26.140  1.00  0.00     0.275 C 
BRANCH  20  21
ATOM     21  O   UNL A   1      39.942  21.896  26.843  1.00  0.00    -0.458 OA
BRANCH  21  22
ATOM     22  C   UNL A   1      39.150  22.854  26.302  1.00  0.00     0.338 C 
ATOM     23  O   UNL A   1      38.223  22.685  25.522  1.00  0.00    -0.246 OA
BRANCH  22  24
ATOM     24  C   UNL A   1      39.485  24.162  26.907  1.00  0.00     0.060 A 
ATOM     25  C   UNL A   1      39.188  24.432  28.243  1.00  0.00     0.016 A 
ATOM     26  C   UNL A   1      40.139  25.123  26.123  1.00  0.00     0.016 A 
ATOM     27  C   UNL A   1      39.549  25.666  28.790  1.00  0.00     0.010 A 
ATOM     28  C   UNL A   1      40.496  26.359  26.670  1.00  0.00     0.010 A 
ATOM     29  C   UNL A   1      40.211  26.636  28.013  1.00  0.00    -0.014 A 
BRANCH  29  30
ATOM     30  C   UNL A   1      40.712  27.870  28.670  1.00  0.00     0.031 A 
ATOM     31  C   UNL A   1      42.172  28.103  28.912  1.00  0.00     0.074 A 
ATOM     32  C   UNL A   1      39.816  28.811  29.021  1.00  0.00     0.049 A 
ATOM     33  N   UNL A   1      42.778  29.210  29.264  1.00  0.00    -0.248 NA
ATOM     34  C   UNL A   1      43.066  26.949  28.756  1.00  0.00     0.031 C 
ATOM     35  C   UNL A   1      38.366  28.662  28.904  1.00  0.00     0.029 A 
ATOM     36  N   UNL A   1      39.987  30.080  29.514  1.00  0.00    -0.354 N 
ATOM     37  C   UNL A   1      44.128  28.897  29.338  1.00  0.00     0.074 A 
ATOM     38  C   UNL A   1      44.244  27.480  29.061  1.00  0.00     0.031 C 
ATOM     39  C   UNL A   1      37.780  29.815  29.259  1.00  0.00     0.029 A 
ATOM     40  C   UNL A   1      38.811  30.778  29.639  1.00  0.00     0.049 A 
ATOM     41  H   UNL A   1      40.865  30.454  29.755  1.00  0.00     0.167 HD
ATOM     42  C   UNL A   1      45.170  29.728  29.588  1.00  0.00     0.037 A 
ATOM     43  C   UNL A   1      38.586  32.059  29.989  1.00  0.00     0.037 A 
ATOM     44  C   UNL A   1      45.033  31.133  29.882  1.00  0.00     0.049 A 
ATOM     45  C   UNL A   1      39.756  32.959  30.275  1.00  0.00     0.074 A 
ATOM     46  C   UNL A   1      46.031  32.074  30.080  1.00  0.00     0.029 A 
ATOM     47  N   UNL A   1      43.825  31.797  30.043  1.00  0.00    -0.354 N 
ATOM     48  N   UNL A   1      41.037  32.692  30.207  1.00  0.00    -0.248 NA
ATOM     49  C   UNL A   1      39.450  34.340  30.675  1.00  0.00     0.031 C 
ATOM     50  C   UNL A   1      45.427  33.287  30.426  1.00  0.00     0.029 A 
ATOM     51  C   UNL A   1      44.052  33.122  30.383  1.00  0.00     0.049 A 
ATOM     52  H   UNL A   1      42.936  31.387  29.933  1.00  0.00     0.167 HD
ATOM     53  C   UNL A   1      41.691  33.869  30.545  1.00  0.00     0.074 A 
ATOM     54  C   UNL A   1      40.665  34.861  30.794  1.00  0.00     0.031 C 
ATOM     55  C   UNL A   1      43.024  34.100  30.641  1.00  0.00     0.037 A 
BRANCH  42  56
ATOM     56  C   UNL A   1      46.557  29.152  29.538  1.00  0.00     0.064 A 
ATOM     57  C   UNL A   1      47.180  28.648  30.690  1.00  0.00     0.173 A 
ATOM     58  C   UNL A   1      47.240  29.025  28.318  1.00  0.00     0.173 A 
ATOM     59  F   UNL A   1      46.573  28.741  31.883  1.00  0.00    -0.203 F 
ATOM     60  C   UNL A   1      48.443  28.062  30.627  1.00  0.00     0.198 A 
ATOM     61  C   UNL A   1      48.489  28.411  28.255  1.00  0.00     0.198 A 
ATOM     62  F   UNL A   1      46.687  29.476  27.182  1.00  0.00    -0.203 F 
ATOM     63  F   UNL A   1      49.031  27.623  31.748  1.00  0.00    -0.200 F 
ATOM     64  C   UNL A   1      49.092  27.937  29.409  1.00  0.00     0.200 A 
ATOM     65  F   UNL A   1      49.107  28.273  27.073  1.00  0.00    -0.200 F 
ATOM     66  F   UNL A   1      50.299  27.359  29.348  1.00  0.00    -0.200 F 
ENDBRANCH  42  56
BRANCH  43  67
ATOM     67  C   UNL A   1      37.191  32.565  30.014  1.00  0.00     0.064 A 
ATOM     68  C   UNL A   1      36.387  32.404  31.151  1.00  0.00     0.173 A 
ATOM     69  C   UNL A   1      36.656  33.282  28.933  1.00  0.00     0.173 A 
ATOM     70  F   UNL A   1      36.847  31.715  32.204  1.00  0.00    -0.203 F 
ATOM     71  C   UNL A   1      35.102  32.941  31.205  1.00  0.00     0.198 A 
ATOM     72  C   UNL A   1      35.383  33.842  28.998  1.00  0.00     0.198 A 
ATOM     73  F   UNL A   1      37.390  33.469  27.825  1.00  0.00    -0.203 F 
ATOM     74  F   UNL A   1      34.346  32.757  32.296  1.00  0.00    -0.200 F 
ATOM     75  C   UNL A   1      34.606  33.670  30.133  1.00  0.00     0.200 A 
ATOM     76  F   UNL A   1      34.916  34.561  27.969  1.00  0.00    -0.200 F 
ATOM     77  F   UNL A   1      33.381  34.208  30.197  1.00  0.00    -0.200 F 
ENDBRANCH  43  67
BRANCH  55  78
ATOM     78  C   UNL A   1      43.467  35.476  31.051  1.00  0.00     0.064 A 
ATOM     79  C   UNL A   1      43.675  36.488  30.102  1.00  0.00     0.173 A 
ATOM     80  C   UNL A   1      43.586  35.815  32.409  1.00  0.00     0.173 A 
ATOM     81  F   UNL A   1      43.588  36.212  28.792  1.00  0.00    -0.203 F 
ATOM     82  C   UNL A   1      43.988  37.786  30.496  1.00  0.00     0.198 A 
ATOM     83  C   UNL A   1      43.871  37.121  32.799  1.00  0.00     0.198 A 
ATOM     84  F   UNL A   1      43.392  34.886  33.356  1.00  0.00    -0.203 F 
ATOM     85  F   UNL A   1      44.206  38.730  29.571  1.00  0.00    -0.200 F 
ATOM     86  C   UNL A   1      44.072  38.105  31.843  1.00  0.00     0.200 A 
ATOM     87  F   UNL A   1      43.934  37.429  34.101  1.00  0.00    -0.200 F 
ATOM     88  F   UNL A   1      44.346  39.360  32.220  1.00  0.00    -0.200 F 
ENDBRANCH  55  78
ENDBRANCH  29  30
ENDBRANCH  22  24
ENDBRANCH  21  22
ENDBRANCH  20  21
ENDBRANCH   1  20
TORSDOF 15
ENDMDL
MODEL 2
REMARK VINA RESULT:     -10.4      5.367     10.761
REMARK SMILES C[C@H](NC(=O)CCn1ccccc1=O)C(=O)OCCOC(=O)c1ccc(-c2c3nc(c(-c4c(F)c(F)c(F)c(F)c4F)c4ccc([nH]4)c(-c4c(F)c(F)c(F)c(F)c4F)c4nc(c(-c5c(F)c(F)c(F)c(F)c5F)c5ccc2[nH]5)C=C4)C=C3)cc1
REMARK SMILES IDX 18 1 17 2 15 3 16 4 2 5 1 6 3 7 4 8 5 10 6 11 7 12 8 13 9 14
REMARK SMILES IDX 13 15 10 16 12 17 14 18 11 19 19 20 20 21 21 22 22 23 23 24
REMARK SMILES IDX 24 25 85 26 25 27 84 28 26 29 27 30 28 31 78 32 29 33 83 34
REMARK SMILES IDX 77 35 79 36 30 37 82 38 76 39 75 40 31 42 63 43 43 44 62 45
REMARK SMILES IDX 44 46 47 47 61 48 80 49 45 50 46 51 60 53 81 54 48 55 32 56
REMARK SMILES IDX 33 57 41 58 34 59 35 60 39 61 42 62 36 63 37 64 40 65 38 66
REMARK SMILES IDX 64 67 65 68 73 69 66 70 67 71 71 72 74 73 68 74 69 75 72 76
REMARK SMILES IDX 70 77 49 78 50 79 58 80 51 81 52 82 56 83 59 84 53 85 54 86
REMARK SMILES IDX 57 87 55 88
REMARK H PARENT 3 9 79 41 47 52
REMARK Flexibility Score: inf
ROOT
ATOM      1  C   UNL A   1      31.380  28.823  25.293  1.00  0.00     0.274 C 
ENDROOT
BRANCH   1   2
ATOM      2  O   UNL A   1      31.174  29.490  24.029  1.00  0.00    -0.461 OA
BRANCH   2   3
ATOM      3  C   UNL A   1      31.266  28.689  22.937  1.00  0.00     0.328 C 
ATOM      4  O   UNL A   1      30.337  28.467  22.167  1.00  0.00    -0.250 OA
BRANCH   3   5
ATOM      5  C   UNL A   1      32.635  28.032  22.763  1.00  0.00     0.189 C 
ATOM      6  C   UNL A   1      33.839  28.936  22.953  1.00  0.00     0.043 C 
BRANCH   5   7
ATOM      7  N   UNL A   1      32.823  27.094  21.672  1.00  0.00    -0.343 N 
ATOM      8  C   UNL A   1      32.708  25.738  21.688  1.00  0.00     0.222 C 
ATOM      9  H   UNL A   1      33.065  27.491  20.804  1.00  0.00     0.164 HD
ATOM     10  O   UNL A   1      33.245  25.116  20.766  1.00  0.00    -0.275 OA
BRANCH   8  11
ATOM     11  C   UNL A   1      31.826  24.989  22.689  1.00  0.00     0.122 C 
BRANCH  11  12
ATOM     12  C   UNL A   1      32.388  23.823  23.519  1.00  0.00     0.135 C 
BRANCH  12  13
ATOM     13  N   UNL A   1      33.825  23.849  23.863  1.00  0.00    -0.315 N 
ATOM     14  C   UNL A   1      34.753  23.119  23.129  1.00  0.00     0.089 A 
ATOM     15  C   UNL A   1      34.214  24.582  24.994  1.00  0.00     0.250 A 
ATOM     16  C   UNL A   1      36.009  22.952  23.563  1.00  0.00     0.018 A 
ATOM     17  C   UNL A   1      35.606  24.356  25.477  1.00  0.00     0.072 A 
ATOM     18  O   UNL A   1      33.473  25.313  25.645  1.00  0.00    -0.269 OA
ATOM     19  C   UNL A   1      36.433  23.551  24.800  1.00  0.00     0.007 A 
ENDBRANCH  12  13
ENDBRANCH  11  12
ENDBRANCH   8  11
ENDBRANCH   5   7
ENDBRANCH   3   5
ENDBRANCH   2   3
ENDBRANCH   1   2
BRANCH   1  20
ATOM     20  C   UNL A   1      31.779  29.754  26.446  1.00  0.00     0.275 C 
BRANCH  20  21
ATOM     21  O   UNL A   1      32.971  30.511  26.159  1.00  0.00    -0.458 OA
BRANCH  21  22
ATOM     22  C   UNL A   1      33.304  31.461  27.068  1.00  0.00     0.338 C 
ATOM     23  O   UNL A   1      32.604  32.390  27.448  1.00  0.00    -0.246 OA
BRANCH  22  24
ATOM     24  C   UNL A   1      34.621  31.132  27.656  1.00  0.00     0.060 A 
ATOM     25  C   UNL A   1      35.545  32.134  27.952  1.00  0.00     0.016 A 
ATOM     26  C   UNL A   1      34.918  29.792  27.945  1.00  0.00     0.016 A 
ATOM     27  C   UNL A   1      36.766  31.790  28.539  1.00  0.00     0.010 A 
ATOM     28  C   UNL A   1      36.141  29.449  28.529  1.00  0.00     0.010 A 
ATOM     29  C   UNL A   1      37.072  30.448  28.839  1.00  0.00    -0.014 A 
BRANCH  29  30
ATOM     30  C   UNL A   1      38.310  30.142  29.599  1.00  0.00     0.031 A 
ATOM     31  C   UNL A   1      38.531  30.643  30.993  1.00  0.00     0.074 A 
ATOM     32  C   UNL A   1      39.236  29.360  29.014  1.00  0.00     0.049 A 
ATOM     33  N   UNL A   1      39.444  30.282  31.860  1.00  0.00    -0.248 NA
ATOM     34  C   UNL A   1      37.625  31.694  31.474  1.00  0.00     0.031 C 
ATOM     35  C   UNL A   1      39.165  28.877  27.635  1.00  0.00     0.029 A 
ATOM     36  N   UNL A   1      40.395  28.811  29.505  1.00  0.00    -0.354 N 
ATOM     37  C   UNL A   1      39.203  31.033  33.001  1.00  0.00     0.074 A 
ATOM     38  C   UNL A   1      38.100  31.920  32.693  1.00  0.00     0.031 C 
ATOM     39  C   UNL A   1      40.202  28.057  27.407  1.00  0.00     0.029 A 
ATOM     40  C   UNL A   1      41.016  27.967  28.617  1.00  0.00     0.049 A 
ATOM     41  H   UNL A   1      40.746  29.004  30.404  1.00  0.00     0.167 HD
ATOM     42  C   UNL A   1      39.832  30.963  34.200  1.00  0.00     0.037 A 
ATOM     43  C   UNL A   1      42.100  27.183  28.768  1.00  0.00     0.037 A 
ATOM     44  C   UNL A   1      40.943  30.087  34.483  1.00  0.00     0.049 A 
ATOM     45  C   UNL A   1      42.790  27.131  30.102  1.00  0.00     0.074 A 
ATOM     46  C   UNL A   1      41.603  29.892  35.685  1.00  0.00     0.029 A 
ATOM     47  N   UNL A   1      41.573  29.278  33.548  1.00  0.00    -0.354 N 
ATOM     48  N   UNL A   1      42.472  27.739  31.219  1.00  0.00    -0.248 NA
ATOM     49  C   UNL A   1      43.981  26.276  30.202  1.00  0.00     0.031 C 
ATOM     50  C   UNL A   1      42.671  29.018  35.461  1.00  0.00     0.029 A 
ATOM     51  C   UNL A   1      42.642  28.617  34.135  1.00  0.00     0.049 A 
ATOM     52  H   UNL A   1      41.302  29.186  32.605  1.00  0.00     0.167 HD
ATOM     53  C   UNL A   1      43.414  27.335  32.155  1.00  0.00     0.074 A 
ATOM     54  C   UNL A   1      44.303  26.410  31.483  1.00  0.00     0.031 C 
ATOM     55  C   UNL A   1      43.529  27.706  33.455  1.00  0.00     0.037 A 
BRANCH  42  56
ATOM     56  C   UNL A   1      39.329  31.841  35.311  1.00  0.00     0.064 A 
ATOM     57  C   UNL A   1      38.451  31.348  36.289  1.00  0.00     0.173 A 
ATOM     58  C   UNL A   1      39.789  33.160  35.452  1.00  0.00     0.173 A 
ATOM     59  F   UNL A   1      37.982  30.094  36.207  1.00  0.00    -0.203 F 
ATOM     60  C   UNL A   1      38.034  32.149  37.351  1.00  0.00     0.198 A 
ATOM     61  C   UNL A   1      39.393  33.947  36.530  1.00  0.00     0.198 A 
ATOM     62  F   UNL A   1      40.640  33.679  34.554  1.00  0.00    -0.203 F 
ATOM     63  F   UNL A   1      37.166  31.666  38.250  1.00  0.00    -0.200 F 
ATOM     64  C   UNL A   1      38.512  33.444  37.474  1.00  0.00     0.200 A 
ATOM     65  F   UNL A   1      39.871  35.193  36.660  1.00  0.00    -0.200 F 
ATOM     66  F   UNL A   1      38.121  34.208  38.504  1.00  0.00    -0.200 F 
ENDBRANCH  42  56
BRANCH  43  67
ATOM     67  C   UNL A   1      42.541  26.336  27.630  1.00  0.00     0.064 A 
ATOM     68  C   UNL A   1      43.546  26.772  26.757  1.00  0.00     0.173 A 
ATOM     69  C   UNL A   1      42.020  25.049  27.435  1.00  0.00     0.173 A 
ATOM     70  F   UNL A   1      44.066  28.001  26.893  1.00  0.00    -0.203 F 
ATOM     71  C   UNL A   1      44.014  25.952  25.732  1.00  0.00     0.198 A 
ATOM     72  C   UNL A   1      42.507  24.219  26.428  1.00  0.00     0.198 A 
ATOM     73  F   UNL A   1      41.061  24.583  28.251  1.00  0.00    -0.203 F 
ATOM     74  F   UNL A   1      44.963  26.399  24.898  1.00  0.00    -0.200 F 
ATOM     75  C   UNL A   1      43.502  24.671  25.577  1.00  0.00     0.200 A 
ATOM     76  F   UNL A   1      42.024  22.977  26.295  1.00  0.00    -0.200 F 
ATOM     77  F   UNL A   1      43.971  23.874  24.608  1.00  0.00    -0.200 F 
ENDBRANCH  43  67
BRANCH  55  78
ATOM     78  C   UNL A   1      44.667  27.128  34.249  1.00  0.00     0.064 A 
ATOM     79  C   UNL A   1      44.529  25.921  34.948  1.00  0.00     0.173 A 
ATOM     80  C   UNL A   1      45.934  27.733  34.226  1.00  0.00     0.173 A 
ATOM     81  F   UNL A   1      43.336  25.310  35.011  1.00  0.00    -0.203 F 
ATOM     82  C   UNL A   1      45.616  25.341  35.598  1.00  0.00     0.198 A 
ATOM     83  C   UNL A   1      47.024  27.135  34.853  1.00  0.00     0.198 A 
ATOM     84  F   UNL A   1      46.122  28.886  33.567  1.00  0.00    -0.203 F 
ATOM     85  F   UNL A   1      45.454  24.199  36.280  1.00  0.00    -0.200 F 
ATOM     86  C   UNL A   1      46.864  25.940  35.538  1.00  0.00     0.200 A 
ATOM     87  F   UNL A   1      48.234  27.708  34.779  1.00  0.00    -0.200 F 
ATOM     88  F   UNL A   1      47.914  25.367  36.141  1.00  0.00    -0.200 F 
ENDBRANCH  55  78
ENDBRANCH  29  30
ENDBRANCH  22  24
ENDBRANCH  21  22
ENDBRANCH  20  21
ENDBRANCH   1  20
TORSDOF 15
ENDMDL
MODEL 3
REMARK VINA RESULT:     -10.4      5.229     11.658
REMARK SMILES C[C@H](NC(=O)CCn1ccccc1=O)C(=O)OCCOC(=O)c1ccc(-c2c3nc(c(-c4c(F)c(F)c(F)c(F)c4F)c4ccc([nH]4)c(-c4c(F)c(F)c(F)c(F)c4F)c4nc(c(-c5c(F)c(F)c(F)c(F)c5F)c5ccc2[nH]5)C=C4)C=C3)cc1
REMARK SMILES IDX 18 1 17 2 15 3 16 4 2 5 1 6 3 7 4 8 5 10 6 11 7 12 8 13 9 14
REMARK SMILES IDX 13 15 10 16 12 17 14 18 11 19 19 20 20 21 21 22 22 23 23 24
REMARK SMILES IDX 24 25 85 26 25 27 84 28 26 29 27 30 28 31 78 32 29 33 83 34
REMARK SMILES IDX 77 35 79 36 30 37 82 38 76 39 75 40 31 42 63 43 43 44 62 45
REMARK SMILES IDX 44 46 47 47 61 48 80 49 45 50 46 51 60 53 81 54 48 55 32 56
REMARK SMILES IDX 33 57 41 58 34 59 35 60 39 61 42 62 36 63 37 64 40 65 38 66
REMARK SMILES IDX 64 67 65 68 73 69 66 70 67 71 71 72 74 73 68 74 69 75 72 76
REMARK SMILES IDX 70 77 49 78 50 79 58 80 51 81 52 82 56 83 59 84 53 85 54 86
REMARK SMILES IDX 57 87 55 88
REMARK H PARENT 3 9 79 41 47 52
REMARK Flexibility Score: inf
ROOT
ATOM      1  C   UNL A   1      35.887  34.768  33.607  1.00  0.00     0.274 C 
ENDROOT
BRANCH   1   2
ATOM      2  O   UNL A   1      34.781  35.673  33.815  1.00  0.00    -0.461 OA
BRANCH   2   3
ATOM      3  C   UNL A   1      33.783  35.577  32.901  1.00  0.00     0.328 C 
ATOM      4  O   UNL A   1      32.986  34.646  32.849  1.00  0.00    -0.250 OA
BRANCH   3   5
ATOM      5  C   UNL A   1      33.757  36.721  31.888  1.00  0.00     0.189 C 
ATOM      6  C   UNL A   1      33.830  38.124  32.462  1.00  0.00     0.043 C 
BRANCH   5   7
ATOM      7  N   UNL A   1      32.839  36.637  30.766  1.00  0.00    -0.343 N 
ATOM      8  C   UNL A   1      32.955  35.903  29.627  1.00  0.00     0.222 C 
ATOM      9  H   UNL A   1      32.024  37.184  30.840  1.00  0.00     0.164 HD
ATOM     10  O   UNL A   1      32.256  36.240  28.666  1.00  0.00    -0.275 OA
BRANCH   8  11
ATOM     11  C   UNL A   1      33.776  34.614  29.546  1.00  0.00     0.122 C 
BRANCH  11  12
ATOM     12  C   UNL A   1      34.616  34.289  28.300  1.00  0.00     0.135 C 
BRANCH  12  13
ATOM     13  N   UNL A   1      34.922  32.870  28.024  1.00  0.00    -0.315 N 
ATOM     14  C   UNL A   1      33.926  31.980  27.641  1.00  0.00     0.089 A 
ATOM     15  C   UNL A   1      36.241  32.436  28.224  1.00  0.00     0.250 A 
ATOM     16  C   UNL A   1      34.144  30.659  27.613  1.00  0.00     0.018 A 
ATOM     17  C   UNL A   1      36.455  30.960  28.218  1.00  0.00     0.072 A 
ATOM     18  O   UNL A   1      37.191  33.170  28.482  1.00  0.00    -0.269 OA
ATOM     19  C   UNL A   1      35.437  30.132  27.959  1.00  0.00     0.007 A 
ENDBRANCH  12  13
ENDBRANCH  11  12
ENDBRANCH   8  11
ENDBRANCH   5   7
ENDBRANCH   3   5
ENDBRANCH   2   3
ENDBRANCH   1   2
BRANCH   1  20
ATOM     20  C   UNL A   1      35.821  33.480  34.440  1.00  0.00     0.275 C 
BRANCH  20  21
ATOM     21  O   UNL A   1      36.338  32.336  33.731  1.00  0.00    -0.458 OA
BRANCH  21  22
ATOM     22  C   UNL A   1      37.428  31.743  34.277  1.00  0.00     0.338 C 
ATOM     23  O   UNL A   1      37.624  31.519  35.464  1.00  0.00    -0.246 OA
BRANCH  22  24
ATOM     24  C   UNL A   1      38.316  31.266  33.195  1.00  0.00     0.060 A 
ATOM     25  C   UNL A   1      38.073  31.605  31.864  1.00  0.00     0.016 A 
ATOM     26  C   UNL A   1      39.433  30.487  33.530  1.00  0.00     0.016 A 
ATOM     27  C   UNL A   1      38.952  31.165  30.871  1.00  0.00     0.010 A 
ATOM     28  C   UNL A   1      40.310  30.044  32.536  1.00  0.00     0.010 A 
ATOM     29  C   UNL A   1      40.081  30.388  31.198  1.00  0.00    -0.014 A 
BRANCH  29  30
ATOM     30  C   UNL A   1      41.071  30.069  30.138  1.00  0.00     0.031 A 
ATOM     31  C   UNL A   1      42.142  31.036  29.736  1.00  0.00     0.074 A 
ATOM     32  C   UNL A   1      41.009  28.858  29.555  1.00  0.00     0.049 A 
ATOM     33  N   UNL A   1      43.203  30.824  28.998  1.00  0.00    -0.248 NA
ATOM     34  C   UNL A   1      42.001  32.420  30.206  1.00  0.00     0.031 C 
ATOM     35  C   UNL A   1      39.966  27.865  29.811  1.00  0.00     0.029 A 
ATOM     36  N   UNL A   1      41.848  28.243  28.659  1.00  0.00    -0.354 N 
ATOM     37  C   UNL A   1      43.876  32.036  28.942  1.00  0.00     0.074 A 
ATOM     38  C   UNL A   1      43.067  32.997  29.665  1.00  0.00     0.031 C 
ATOM     39  C   UNL A   1      40.255  26.744  29.133  1.00  0.00     0.029 A 
ATOM     40  C   UNL A   1      41.496  26.944  28.388  1.00  0.00     0.049 A 
ATOM     41  H   UNL A   1      42.624  28.690  28.250  1.00  0.00     0.167 HD
ATOM     42  C   UNL A   1      45.071  32.307  28.363  1.00  0.00     0.037 A 
ATOM     43  C   UNL A   1      42.118  26.005  27.649  1.00  0.00     0.037 A 
ATOM     44  C   UNL A   1      45.854  31.342  27.629  1.00  0.00     0.049 A 
ATOM     45  C   UNL A   1      43.436  26.331  27.004  1.00  0.00     0.074 A 
ATOM     46  C   UNL A   1      47.109  31.499  27.065  1.00  0.00     0.029 A 
ATOM     47  N   UNL A   1      45.447  30.047  27.338  1.00  0.00    -0.354 N 
ATOM     48  N   UNL A   1      44.136  27.437  27.071  1.00  0.00    -0.248 NA
ATOM     49  C   UNL A   1      44.058  25.277  26.190  1.00  0.00     0.031 C 
ATOM     50  C   UNL A   1      47.431  30.325  26.378  1.00  0.00     0.029 A 
ATOM     51  C   UNL A   1      46.406  29.411  26.564  1.00  0.00     0.049 A 
ATOM     52  H   UNL A   1      44.602  29.639  27.637  1.00  0.00     0.167 HD
ATOM     53  C   UNL A   1      45.281  27.212  26.321  1.00  0.00     0.074 A 
ATOM     54  C   UNL A   1      45.196  25.854  25.825  1.00  0.00     0.031 C 
ATOM     55  C   UNL A   1      46.307  28.061  26.065  1.00  0.00     0.037 A 
BRANCH  42  56
ATOM     56  C   UNL A   1      45.626  33.696  28.509  1.00  0.00     0.064 A 
ATOM     57  C   UNL A   1      46.417  34.053  29.612  1.00  0.00     0.173 A 
ATOM     58  C   UNL A   1      45.440  34.655  27.502  1.00  0.00     0.173 A 
ATOM     59  F   UNL A   1      46.631  33.175  30.604  1.00  0.00    -0.203 F 
ATOM     60  C   UNL A   1      46.977  35.325  29.714  1.00  0.00     0.198 A 
ATOM     61  C   UNL A   1      46.026  35.916  27.592  1.00  0.00     0.198 A 
ATOM     62  F   UNL A   1      44.705  34.364  26.417  1.00  0.00    -0.203 F 
ATOM     63  F   UNL A   1      47.696  35.653  30.796  1.00  0.00    -0.200 F 
ATOM     64  C   UNL A   1      46.788  36.251  28.700  1.00  0.00     0.200 A 
ATOM     65  F   UNL A   1      45.859  36.804  26.602  1.00  0.00    -0.200 F 
ATOM     66  F   UNL A   1      47.341  37.469  28.792  1.00  0.00    -0.200 F 
ENDBRANCH  42  56
BRANCH  43  67
ATOM     67  C   UNL A   1      41.518  24.651  27.550  1.00  0.00     0.064 A 
ATOM     68  C   UNL A   1      40.386  24.422  26.757  1.00  0.00     0.173 A 
ATOM     69  C   UNL A   1      42.103  23.546  28.188  1.00  0.00     0.173 A 
ATOM     70  F   UNL A   1      39.782  25.447  26.139  1.00  0.00    -0.203 F 
ATOM     71  C   UNL A   1      39.863  23.139  26.604  1.00  0.00     0.198 A 
ATOM     72  C   UNL A   1      41.596  22.261  28.012  1.00  0.00     0.198 A 
ATOM     73  F   UNL A   1      43.193  23.714  28.952  1.00  0.00    -0.203 F 
ATOM     74  F   UNL A   1      38.769  22.949  25.854  1.00  0.00    -0.200 F 
ATOM     75  C   UNL A   1      40.476  22.059  27.222  1.00  0.00     0.200 A 
ATOM     76  F   UNL A   1      42.202  21.219  28.595  1.00  0.00    -0.200 F 
ATOM     77  F   UNL A   1      39.987  20.823  27.053  1.00  0.00    -0.200 F 
ENDBRANCH  43  67
BRANCH  55  78
ATOM     78  C   UNL A   1      47.427  27.563  25.194  1.00  0.00     0.064 A 
ATOM     79  C   UNL A   1      47.452  27.828  23.818  1.00  0.00     0.173 A 
ATOM     80  C   UNL A   1      48.532  26.905  25.757  1.00  0.00     0.173 A 
ATOM     81  F   UNL A   1      46.414  28.442  23.229  1.00  0.00    -0.203 F 
ATOM     82  C   UNL A   1      48.541  27.452  23.036  1.00  0.00     0.198 A 
ATOM     83  C   UNL A   1      49.632  26.556  24.977  1.00  0.00     0.198 A 
ATOM     84  F   UNL A   1      48.561  26.633  27.070  1.00  0.00    -0.203 F 
ATOM     85  F   UNL A   1      48.532  27.694  21.718  1.00  0.00    -0.200 F 
ATOM     86  C   UNL A   1      49.635  26.829  23.618  1.00  0.00     0.200 A 
ATOM     87  F   UNL A   1      50.694  25.970  25.546  1.00  0.00    -0.200 F 
ATOM     88  F   UNL A   1      50.693  26.492  22.869  1.00  0.00    -0.200 F 
ENDBRANCH  55  78
ENDBRANCH  29  30
ENDBRANCH  22  24
ENDBRANCH  21  22
ENDBRANCH  20  21
ENDBRANCH   1  20
TORSDOF 15
ENDMDL
