MODEL 1
REMARK VINA RESULT:     -13.7      0.000      0.000
REMARK SMILES O=C(OCCOC(=O)[C@H](c1c[nH]c2cc(F)ccc12)[NH+]1CC[NH+](CC(=O)N2CCOCC2)CC1)c1ccc(-c2c3nc(c(-c4c(F)c(F)c(F)c(F)c4F)c4ccc([nH]4)c(-c4c(F)c(F)c(F)c(F)c4F)c4nc(c(-c5c(F)c(F)c(F)c(F)c5F)c5ccc2[nH]5)C=C4)C=C3)cc1
REMARK SMILES IDX 5 1 4 2 3 3 2 4 1 5 35 6 36 7 97 8 37 9 96 10 38 11 39 12
REMARK SMILES IDX 40 13 90 14 41 15 95 16 89 17 91 18 42 19 94 20 88 21 87 22
REMARK SMILES IDX 43 24 75 25 55 26 74 27 56 28 59 29 73 30 92 31 57 32 58 33
REMARK SMILES IDX 72 35 93 36 60 37 44 38 45 39 53 40 46 41 47 42 51 43 54 44
REMARK SMILES IDX 48 45 49 46 52 47 50 48 76 49 77 50 85 51 78 52 79 53 83 54
REMARK SMILES IDX 86 55 80 56 81 57 84 58 82 59 61 60 62 61 70 62 63 63 64 64
REMARK SMILES IDX 68 65 71 66 65 67 66 68 69 69 67 70 6 71 7 72 8 73 9 74
REMARK SMILES IDX 20 75 21 76 34 77 22 79 33 80 23 81 24 83 25 84 26 85 27 86
REMARK SMILES IDX 28 87 32 88 29 89 31 90 30 91 10 92 11 93 19 94 12 95 13 96
REMARK SMILES IDX 18 97 14 99 17 100 15 101 16 102
REMARK H PARENT 91 23 59 34 20 78 23 82 12 98
REMARK Flexibility Score: inf
ROOT
ATOM      1  C   UNL A   1      32.637  29.567  25.077  1.00  0.00     0.274 C 
ENDROOT
BRANCH   1   2
ATOM      2  C   UNL A   1      31.808  30.501  25.962  1.00  0.00     0.275 C 
BRANCH   2   3
ATOM      3  O   UNL A   1      32.394  30.520  27.270  1.00  0.00    -0.458 OA
BRANCH   3   4
ATOM      4  C   UNL A   1      33.198  31.590  27.478  1.00  0.00     0.338 C 
ATOM      5  O   UNL A   1      32.915  32.754  27.252  1.00  0.00    -0.246 OA
BRANCH   4   6
ATOM      6  C   UNL A   1      34.551  31.104  27.849  1.00  0.00     0.060 A 
ATOM      7  C   UNL A   1      34.884  29.740  27.869  1.00  0.00     0.016 A 
ATOM      8  C   UNL A   1      35.538  32.054  28.091  1.00  0.00     0.016 A 
ATOM      9  C   UNL A   1      36.177  29.328  28.192  1.00  0.00     0.010 A 
ATOM     10  C   UNL A   1      36.839  31.644  28.373  1.00  0.00     0.010 A 
ATOM     11  C   UNL A   1      37.156  30.281  28.484  1.00  0.00    -0.014 A 
BRANCH  11  12
ATOM     12  C   UNL A   1      38.390  29.878  29.201  1.00  0.00     0.031 A 
ATOM     13  C   UNL A   1      38.519  30.321  30.636  1.00  0.00     0.074 A 
ATOM     14  C   UNL A   1      39.346  29.122  28.632  1.00  0.00     0.049 A 
ATOM     15  N   UNL A   1      39.519  30.200  31.467  1.00  0.00    -0.248 NA
ATOM     16  C   UNL A   1      37.376  31.069  31.190  1.00  0.00     0.031 C 
ATOM     17  C   UNL A   1      39.353  28.646  27.250  1.00  0.00     0.029 A 
ATOM     18  N   UNL A   1      40.498  28.604  29.170  1.00  0.00    -0.354 N 
ATOM     19  C   UNL A   1      39.148  30.925  32.592  1.00  0.00     0.074 A 
ATOM     20  C   UNL A   1      37.887  31.561  32.302  1.00  0.00     0.031 C 
ATOM     21  C   UNL A   1      40.436  27.870  27.060  1.00  0.00     0.029 A 
ATOM     22  C   UNL A   1      41.205  27.808  28.303  1.00  0.00     0.049 A 
ATOM     23  H   UNL A   1      40.791  28.787  30.092  1.00  0.00     0.167 HD
ATOM     24  C   UNL A   1      39.764  31.005  33.793  1.00  0.00     0.037 A 
ATOM     25  C   UNL A   1      42.332  27.096  28.511  1.00  0.00     0.037 A 
ATOM     26  C   UNL A   1      40.939  30.256  34.120  1.00  0.00     0.049 A 
ATOM     27  C   UNL A   1      42.958  27.113  29.885  1.00  0.00     0.074 A 
ATOM     28  C   UNL A   1      41.619  30.188  35.319  1.00  0.00     0.029 A 
ATOM     29  N   UNL A   1      41.582  29.404  33.234  1.00  0.00    -0.354 N 
ATOM     30  N   UNL A   1      42.585  27.773  30.957  1.00  0.00    -0.248 NA
ATOM     31  C   UNL A   1      44.151  26.276  30.087  1.00  0.00     0.031 C 
ATOM     32  C   UNL A   1      42.686  29.299  35.155  1.00  0.00     0.029 A 
ATOM     33  C   UNL A   1      42.650  28.795  33.862  1.00  0.00     0.049 A 
ATOM     34  H   UNL A   1      41.318  29.257  32.297  1.00  0.00     0.167 HD
ATOM     35  C   UNL A   1      43.475  27.412  31.962  1.00  0.00     0.074 A 
ATOM     36  C   UNL A   1      44.403  26.468  31.375  1.00  0.00     0.031 C 
ATOM     37  C   UNL A   1      43.525  27.826  33.252  1.00  0.00     0.037 A 
BRANCH  24  38
ATOM     38  C   UNL A   1      39.145  31.922  34.808  1.00  0.00     0.064 A 
ATOM     39  C   UNL A   1      39.378  33.308  34.792  1.00  0.00     0.173 A 
ATOM     40  C   UNL A   1      38.402  31.393  35.871  1.00  0.00     0.173 A 
ATOM     41  F   UNL A   1      40.106  33.859  33.809  1.00  0.00    -0.203 F 
ATOM     42  C   UNL A   1      38.959  34.115  35.846  1.00  0.00     0.198 A 
ATOM     43  C   UNL A   1      37.948  32.212  36.903  1.00  0.00     0.198 A 
ATOM     44  F   UNL A   1      38.145  30.078  35.931  1.00  0.00    -0.203 F 
ATOM     45  F   UNL A   1      39.295  35.412  35.867  1.00  0.00    -0.200 F 
ATOM     46  C   UNL A   1      38.247  33.566  36.901  1.00  0.00     0.200 A 
ATOM     47  F   UNL A   1      37.250  31.683  37.918  1.00  0.00    -0.200 F 
ATOM     48  F   UNL A   1      37.871  34.339  37.929  1.00  0.00    -0.200 F 
ENDBRANCH  24  38
BRANCH  25  49
ATOM     49  C   UNL A   1      42.908  26.271  27.415  1.00  0.00     0.064 A 
ATOM     50  C   UNL A   1      43.917  26.776  26.583  1.00  0.00     0.173 A 
ATOM     51  C   UNL A   1      42.462  24.963  27.175  1.00  0.00     0.173 A 
ATOM     52  F   UNL A   1      44.363  28.029  26.758  1.00  0.00    -0.203 F 
ATOM     53  C   UNL A   1      44.445  26.014  25.541  1.00  0.00     0.198 A 
ATOM     54  C   UNL A   1      43.007  24.193  26.147  1.00  0.00     0.198 A 
ATOM     55  F   UNL A   1      41.502  24.430  27.944  1.00  0.00    -0.203 F 
ATOM     56  F   UNL A   1      45.379  26.538  24.736  1.00  0.00    -0.200 F 
ATOM     57  C   UNL A   1      43.992  24.721  25.328  1.00  0.00     0.200 A 
ATOM     58  F   UNL A   1      42.572  22.941  25.949  1.00  0.00    -0.200 F 
ATOM     59  F   UNL A   1      44.500  23.988  24.327  1.00  0.00    -0.200 F 
ENDBRANCH  25  49
BRANCH  37  60
ATOM     60  C   UNL A   1      44.579  27.239  34.137  1.00  0.00     0.064 A 
ATOM     61  C   UNL A   1      44.364  26.038  34.826  1.00  0.00     0.173 A 
ATOM     62  C   UNL A   1      45.861  27.808  34.177  1.00  0.00     0.173 A 
ATOM     63  F   UNL A   1      43.151  25.463  34.818  1.00  0.00    -0.203 F 
ATOM     64  C   UNL A   1      45.400  25.422  35.521  1.00  0.00     0.198 A 
ATOM     65  C   UNL A   1      46.899  27.178  34.856  1.00  0.00     0.198 A 
ATOM     66  F   UNL A   1      46.113  28.951  33.522  1.00  0.00    -0.203 F 
ATOM     67  F   UNL A   1      45.175  24.276  36.178  1.00  0.00    -0.200 F 
ATOM     68  C   UNL A   1      46.668  25.985  35.524  1.00  0.00     0.200 A 
ATOM     69  F   UNL A   1      48.127  27.713  34.843  1.00  0.00    -0.200 F 
ATOM     70  F   UNL A   1      47.672  25.373  36.167  1.00  0.00    -0.200 F 
ENDBRANCH  37  60
ENDBRANCH  11  12
ENDBRANCH   4   6
ENDBRANCH   3   4
ENDBRANCH   2   3
ENDBRANCH   1   2
BRANCH   1  71
ATOM     71  O   UNL A   1      32.268  28.188  25.309  1.00  0.00    -0.457 OA
BRANCH  71  72
ATOM     72  C   UNL A   1      32.686  27.330  24.339  1.00  0.00     0.370 C 
ATOM     73  O   UNL A   1      33.871  27.240  24.014  1.00  0.00    -0.245 OA
BRANCH  72  74
ATOM     74  C   UNL A   1      31.575  26.511  23.644  1.00  0.00     0.328 C 
BRANCH  74  75
ATOM     75  N   UNL A   1      31.697  25.083  24.002  1.00  0.00    -0.310 N 
ATOM     76  C   UNL A   1      32.616  24.214  23.259  1.00  0.00     0.325 C 
ATOM     77  C   UNL A   1      31.709  24.787  25.423  1.00  0.00     0.325 C 
ATOM     78  H   UNL A   1      30.791  24.804  23.625  1.00  0.00     0.349 HD
ATOM     79  C   UNL A   1      33.929  23.760  23.969  1.00  0.00     0.325 C 
ATOM     80  C   UNL A   1      33.122  24.690  26.033  1.00  0.00     0.325 C 
ATOM     81  N   UNL A   1      33.925  23.638  25.435  1.00  0.00    -0.318 N 
ATOM     82  H   UNL A   1      34.898  23.781  25.705  1.00  0.00     0.348 HD
BRANCH  81  83
ATOM     83  C   UNL A   1      33.730  22.302  26.015  1.00  0.00     0.364 C 
BRANCH  83  84
ATOM     84  C   UNL A   1      34.634  21.169  25.515  1.00  0.00     0.277 C 
ATOM     85  O   UNL A   1      35.842  21.196  25.769  1.00  0.00    -0.268 OA
ATOM     86  N   UNL A   1      34.052  20.075  24.861  1.00  0.00    -0.333 N 
ATOM     87  C   UNL A   1      32.857  20.133  24.007  1.00  0.00     0.148 C 
ATOM     88  C   UNL A   1      34.896  18.902  24.626  1.00  0.00     0.148 C 
ATOM     89  C   UNL A   1      32.154  18.792  23.792  1.00  0.00     0.181 C 
ATOM     90  C   UNL A   1      34.054  17.628  24.525  1.00  0.00     0.181 C 
ATOM     91  O   UNL A   1      33.081  17.749  23.479  1.00  0.00    -0.378 OA
ENDBRANCH  83  84
ENDBRANCH  81  83
ENDBRANCH  74  75
BRANCH  74  92
ATOM     92  C   UNL A   1      30.133  26.982  23.656  1.00  0.00     0.046 A 
ATOM     93  C   UNL A   1      29.002  26.326  24.107  1.00  0.00     0.094 A 
ATOM     94  C   UNL A   1      29.655  28.222  23.055  1.00  0.00     0.009 A 
ATOM     95  N   UNL A   1      27.896  27.080  23.799  1.00  0.00    -0.361 N 
ATOM     96  C   UNL A   1      28.260  28.222  23.126  1.00  0.00     0.049 A 
ATOM     97  C   UNL A   1      30.282  29.318  22.404  1.00  0.00     0.014 A 
ATOM     98  H   UNL A   1      26.971  26.835  24.028  1.00  0.00     0.166 HD
ATOM     99  C   UNL A   1      27.473  29.239  22.563  1.00  0.00     0.065 A 
ATOM    100  C   UNL A   1      29.512  30.340  21.836  1.00  0.00     0.040 A 
ATOM    101  C   UNL A   1      28.131  30.285  21.915  1.00  0.00     0.125 A 
ATOM    102  F   UNL A   1      27.408  31.265  21.357  1.00  0.00    -0.207 F 
ENDBRANCH  74  92
ENDBRANCH  72  74
ENDBRANCH  71  72
ENDBRANCH   1  71
TORSDOF 15
ENDMDL
MODEL 2
REMARK VINA RESULT:     -13.4      3.957     10.117
REMARK SMILES O=C(OCCOC(=O)[C@H](c1c[nH]c2cc(F)ccc12)[NH+]1CC[NH+](CC(=O)N2CCOCC2)CC1)c1ccc(-c2c3nc(c(-c4c(F)c(F)c(F)c(F)c4F)c4ccc([nH]4)c(-c4c(F)c(F)c(F)c(F)c4F)c4nc(c(-c5c(F)c(F)c(F)c(F)c5F)c5ccc2[nH]5)C=C4)C=C3)cc1
REMARK SMILES IDX 5 1 4 2 3 3 2 4 1 5 35 6 36 7 97 8 37 9 96 10 38 11 39 12
REMARK SMILES IDX 40 13 90 14 41 15 95 16 89 17 91 18 42 19 94 20 88 21 87 22
REMARK SMILES IDX 43 24 75 25 55 26 74 27 56 28 59 29 73 30 92 31 57 32 58 33
REMARK SMILES IDX 72 35 93 36 60 37 44 38 45 39 53 40 46 41 47 42 51 43 54 44
REMARK SMILES IDX 48 45 49 46 52 47 50 48 76 49 77 50 85 51 78 52 79 53 83 54
REMARK SMILES IDX 86 55 80 56 81 57 84 58 82 59 61 60 62 61 70 62 63 63 64 64
REMARK SMILES IDX 68 65 71 66 65 67 66 68 69 69 67 70 6 71 7 72 8 73 9 74
REMARK SMILES IDX 20 75 21 76 34 77 22 79 33 80 23 81 24 83 25 84 26 85 27 86
REMARK SMILES IDX 28 87 32 88 29 89 31 90 30 91 10 92 11 93 19 94 12 95 13 96
REMARK SMILES IDX 18 97 14 99 17 100 15 101 16 102
REMARK H PARENT 91 23 59 34 20 78 23 82 12 98
REMARK Flexibility Score: inf
ROOT
ATOM      1  C   UNL A   1      36.681  22.816  23.803  1.00  0.00     0.274 C 
ENDROOT
BRANCH   1   2
ATOM      2  C   UNL A   1      37.148  21.468  24.358  1.00  0.00     0.275 C 
BRANCH   2   3
ATOM      3  O   UNL A   1      37.519  21.650  25.731  1.00  0.00    -0.458 OA
BRANCH   3   4
ATOM      4  C   UNL A   1      38.858  21.610  25.930  1.00  0.00     0.338 C 
ATOM      5  O   UNL A   1      39.581  20.644  25.753  1.00  0.00    -0.246 OA
BRANCH   4   6
ATOM      6  C   UNL A   1      39.281  22.877  26.579  1.00  0.00     0.060 A 
ATOM      7  C   UNL A   1      38.516  24.052  26.511  1.00  0.00     0.016 A 
ATOM      8  C   UNL A   1      40.434  22.853  27.358  1.00  0.00     0.016 A 
ATOM      9  C   UNL A   1      38.934  25.212  27.163  1.00  0.00     0.010 A 
ATOM     10  C   UNL A   1      40.829  24.000  28.042  1.00  0.00     0.010 A 
ATOM     11  C   UNL A   1      40.118  25.202  27.904  1.00  0.00    -0.014 A 
BRANCH  11  12
ATOM     12  C   UNL A   1      40.777  26.482  28.263  1.00  0.00     0.031 A 
ATOM     13  C   UNL A   1      42.156  26.717  27.701  1.00  0.00     0.074 A 
ATOM     14  C   UNL A   1      40.180  27.419  29.020  1.00  0.00     0.049 A 
ATOM     15  N   UNL A   1      42.999  27.690  27.924  1.00  0.00    -0.248 NA
ATOM     16  C   UNL A   1      42.683  25.667  26.812  1.00  0.00     0.031 C 
ATOM     17  C   UNL A   1      38.861  27.307  29.640  1.00  0.00     0.029 A 
ATOM     18  N   UNL A   1      40.612  28.671  29.378  1.00  0.00    -0.354 N 
ATOM     19  C   UNL A   1      44.167  27.315  27.271  1.00  0.00     0.074 A 
ATOM     20  C   UNL A   1      43.959  25.993  26.734  1.00  0.00     0.031 C 
ATOM     21  C   UNL A   1      38.573  28.462  30.268  1.00  0.00     0.029 A 
ATOM     22  C   UNL A   1      39.693  29.387  30.107  1.00  0.00     0.049 A 
ATOM     23  H   UNL A   1      41.498  29.025  29.136  1.00  0.00     0.167 HD
ATOM     24  C   UNL A   1      45.296  28.031  27.071  1.00  0.00     0.037 A 
ATOM     25  C   UNL A   1      39.756  30.655  30.564  1.00  0.00     0.037 A 
ATOM     26  C   UNL A   1      45.440  29.394  27.484  1.00  0.00     0.049 A 
ATOM     27  C   UNL A   1      40.981  31.481  30.251  1.00  0.00     0.074 A 
ATOM     28  C   UNL A   1      46.499  30.255  27.279  1.00  0.00     0.029 A 
ATOM     29  N   UNL A   1      44.456  30.105  28.155  1.00  0.00    -0.354 N 
ATOM     30  N   UNL A   1      42.070  31.134  29.603  1.00  0.00    -0.248 NA
ATOM     31  C   UNL A   1      40.984  32.876  30.715  1.00  0.00     0.031 C 
ATOM     32  C   UNL A   1      46.159  31.490  27.839  1.00  0.00     0.029 A 
ATOM     33  C   UNL A   1      44.878  31.403  28.366  1.00  0.00     0.049 A 
ATOM     34  H   UNL A   1      43.588  29.739  28.440  1.00  0.00     0.167 HD
ATOM     35  C   UNL A   1      42.870  32.269  29.558  1.00  0.00     0.074 A 
ATOM     36  C   UNL A   1      42.140  33.320  30.237  1.00  0.00     0.031 C 
ATOM     37  C   UNL A   1      44.100  32.430  29.010  1.00  0.00     0.037 A 
BRANCH  24  38
ATOM     38  C   UNL A   1      46.422  27.331  26.368  1.00  0.00     0.064 A 
ATOM     39  C   UNL A   1      47.382  26.583  27.070  1.00  0.00     0.173 A 
ATOM     40  C   UNL A   1      46.604  27.503  24.989  1.00  0.00     0.173 A 
ATOM     41  F   UNL A   1      47.268  26.411  28.396  1.00  0.00    -0.203 F 
ATOM     42  C   UNL A   1      48.523  26.105  26.432  1.00  0.00     0.198 A 
ATOM     43  C   UNL A   1      47.726  26.985  24.346  1.00  0.00     0.198 A 
ATOM     44  F   UNL A   1      45.713  28.202  24.271  1.00  0.00    -0.203 F 
ATOM     45  F   UNL A   1      49.481  25.496  27.145  1.00  0.00    -0.200 F 
ATOM     46  C   UNL A   1      48.695  26.308  25.072  1.00  0.00     0.200 A 
ATOM     47  F   UNL A   1      47.887  27.173  23.029  1.00  0.00    -0.200 F 
ATOM     48  F   UNL A   1      49.807  25.873  24.465  1.00  0.00    -0.200 F 
ENDBRANCH  24  38
BRANCH  25  49
ATOM     49  C   UNL A   1      38.611  31.236  31.315  1.00  0.00     0.064 A 
ATOM     50  C   UNL A   1      38.552  31.164  32.714  1.00  0.00     0.173 A 
ATOM     51  C   UNL A   1      37.552  31.873  30.653  1.00  0.00     0.173 A 
ATOM     52  F   UNL A   1      39.531  30.547  33.393  1.00  0.00    -0.203 F 
ATOM     53  C   UNL A   1      37.471  31.689  33.421  1.00  0.00     0.198 A 
ATOM     54  C   UNL A   1      36.480  32.418  31.361  1.00  0.00     0.198 A 
ATOM     55  F   UNL A   1      37.560  31.972  29.316  1.00  0.00    -0.203 F 
ATOM     56  F   UNL A   1      37.422  31.569  34.755  1.00  0.00    -0.200 F 
ATOM     57  C   UNL A   1      36.438  32.319  32.744  1.00  0.00     0.200 A 
ATOM     58  F   UNL A   1      35.488  33.033  30.704  1.00  0.00    -0.200 F 
ATOM     59  F   UNL A   1      35.399  32.824  33.423  1.00  0.00    -0.200 F 
ENDBRANCH  25  49
BRANCH  37  60
ATOM     60  C   UNL A   1      44.724  33.789  29.074  1.00  0.00     0.064 A 
ATOM     61  C   UNL A   1      45.606  34.137  30.105  1.00  0.00     0.173 A 
ATOM     62  C   UNL A   1      44.549  34.693  28.016  1.00  0.00     0.173 A 
ATOM     63  F   UNL A   1      45.798  33.303  31.139  1.00  0.00    -0.203 F 
ATOM     64  C   UNL A   1      46.298  35.343  30.072  1.00  0.00     0.198 A 
ATOM     65  C   UNL A   1      45.259  35.889  27.976  1.00  0.00     0.198 A 
ATOM     66  F   UNL A   1      43.722  34.395  27.002  1.00  0.00    -0.203 F 
ATOM     67  F   UNL A   1      47.135  35.661  31.069  1.00  0.00    -0.200 F 
ATOM     68  C   UNL A   1      46.134  36.211  29.002  1.00  0.00     0.200 A 
ATOM     69  F   UNL A   1      45.113  36.718  26.933  1.00  0.00    -0.200 F 
ATOM     70  F   UNL A   1      46.827  37.357  28.956  1.00  0.00    -0.200 F 
ENDBRANCH  37  60
ENDBRANCH  11  12
ENDBRANCH   4   6
ENDBRANCH   3   4
ENDBRANCH   2   3
ENDBRANCH   1   2
BRANCH   1  71
ATOM     71  O   UNL A   1      35.302  22.737  23.372  1.00  0.00    -0.457 OA
BRANCH  71  72
ATOM     72  C   UNL A   1      34.405  23.171  24.299  1.00  0.00     0.370 C 
ATOM     73  O   UNL A   1      34.739  23.879  25.250  1.00  0.00    -0.245 OA
BRANCH  72  74
ATOM     74  C   UNL A   1      32.952  22.680  24.105  1.00  0.00     0.328 C 
BRANCH  74  75
ATOM     75  N   UNL A   1      32.085  23.806  23.704  1.00  0.00    -0.310 N 
ATOM     76  C   UNL A   1      31.490  24.676  24.723  1.00  0.00     0.325 C 
ATOM     77  C   UNL A   1      32.526  24.561  22.545  1.00  0.00     0.325 C 
ATOM     78  H   UNL A   1      31.290  23.231  23.426  1.00  0.00     0.349 HD
ATOM     79  C   UNL A   1      32.064  26.119  24.880  1.00  0.00     0.325 C 
ATOM     80  C   UNL A   1      33.373  25.804  22.888  1.00  0.00     0.325 C 
ATOM     81  N   UNL A   1      32.652  26.771  23.700  1.00  0.00    -0.318 N 
ATOM     82  H   UNL A   1      33.324  27.435  24.084  1.00  0.00     0.348 HD
BRANCH  81  83
ATOM     83  C   UNL A   1      31.816  27.714  22.946  1.00  0.00     0.364 C 
BRANCH  83  84
ATOM     84  C   UNL A   1      31.285  28.946  23.688  1.00  0.00     0.277 C 
ATOM     85  O   UNL A   1      32.042  29.591  24.420  1.00  0.00    -0.268 OA
ATOM     86  N   UNL A   1      29.972  29.371  23.445  1.00  0.00    -0.333 N 
ATOM     87  C   UNL A   1      28.839  28.490  23.126  1.00  0.00     0.148 C 
ATOM     88  C   UNL A   1      29.580  30.682  23.964  1.00  0.00     0.148 C 
ATOM     89  C   UNL A   1      27.652  29.185  22.458  1.00  0.00     0.181 C 
ATOM     90  C   UNL A   1      28.444  31.286  23.135  1.00  0.00     0.181 C 
ATOM     91  O   UNL A   1      27.311  30.407  23.117  1.00  0.00    -0.378 OA
ENDBRANCH  83  84
ENDBRANCH  81  83
ENDBRANCH  74  75
BRANCH  74  92
ATOM     92  C   UNL A   1      32.651  21.418  23.319  1.00  0.00     0.046 A 
ATOM     93  C   UNL A   1      31.876  21.258  22.185  1.00  0.00     0.094 A 
ATOM     94  C   UNL A   1      33.054  20.073  23.713  1.00  0.00     0.009 A 
ATOM     95  N   UNL A   1      31.778  19.919  21.897  1.00  0.00    -0.361 N 
ATOM     96  C   UNL A   1      32.455  19.171  22.831  1.00  0.00     0.049 A 
ATOM     97  C   UNL A   1      33.827  19.537  24.779  1.00  0.00     0.014 A 
ATOM     98  H   UNL A   1      31.289  19.546  21.127  1.00  0.00     0.166 HD
ATOM     99  C   UNL A   1      32.570  17.780  22.975  1.00  0.00     0.065 A 
ATOM    100  C   UNL A   1      33.951  18.153  24.938  1.00  0.00     0.040 A 
ATOM    101  C   UNL A   1      33.322  17.299  24.048  1.00  0.00     0.125 A 
ATOM    102  F   UNL A   1      33.442  15.976  24.221  1.00  0.00    -0.207 F 
ENDBRANCH  74  92
ENDBRANCH  72  74
ENDBRANCH  71  72
ENDBRANCH   1  71
TORSDOF 15
ENDMDL
MODEL 3
REMARK VINA RESULT:     -13.1      0.869      1.751
REMARK SMILES O=C(OCCOC(=O)[C@H](c1c[nH]c2cc(F)ccc12)[NH+]1CC[NH+](CC(=O)N2CCOCC2)CC1)c1ccc(-c2c3nc(c(-c4c(F)c(F)c(F)c(F)c4F)c4ccc([nH]4)c(-c4c(F)c(F)c(F)c(F)c4F)c4nc(c(-c5c(F)c(F)c(F)c(F)c5F)c5ccc2[nH]5)C=C4)C=C3)cc1
REMARK SMILES IDX 5 1 4 2 3 3 2 4 1 5 35 6 36 7 97 8 37 9 96 10 38 11 39 12
REMARK SMILES IDX 40 13 90 14 41 15 95 16 89 17 91 18 42 19 94 20 88 21 87 22
REMARK SMILES IDX 43 24 75 25 55 26 74 27 56 28 59 29 73 30 92 31 57 32 58 33
REMARK SMILES IDX 72 35 93 36 60 37 44 38 45 39 53 40 46 41 47 42 51 43 54 44
REMARK SMILES IDX 48 45 49 46 52 47 50 48 76 49 77 50 85 51 78 52 79 53 83 54
REMARK SMILES IDX 86 55 80 56 81 57 84 58 82 59 61 60 62 61 70 62 63 63 64 64
REMARK SMILES IDX 68 65 71 66 65 67 66 68 69 69 67 70 6 71 7 72 8 73 9 74
REMARK SMILES IDX 20 75 21 76 34 77 22 79 33 80 23 81 24 83 25 84 26 85 27 86
REMARK SMILES IDX 28 87 32 88 29 89 31 90 30 91 10 92 11 93 19 94 12 95 13 96
REMARK SMILES IDX 18 97 14 99 17 100 15 101 16 102
REMARK H PARENT 91 23 59 34 20 78 23 82 12 98
REMARK Flexibility Score: inf
ROOT
ATOM      1  C   UNL A   1      31.957  28.522  27.102  1.00  0.00     0.274 C 
ENDROOT
BRANCH   1   2
ATOM      2  C   UNL A   1      31.774  29.989  26.702  1.00  0.00     0.275 C 
BRANCH   2   3
ATOM      3  O   UNL A   1      33.060  30.531  26.377  1.00  0.00    -0.458 OA
BRANCH   3   4
ATOM      4  C   UNL A   1      33.536  31.377  27.322  1.00  0.00     0.338 C 
ATOM      5  O   UNL A   1      33.014  32.419  27.679  1.00  0.00    -0.246 OA
BRANCH   4   6
ATOM      6  C   UNL A   1      34.894  30.929  27.722  1.00  0.00     0.060 A 
ATOM      7  C   UNL A   1      35.280  29.579  27.701  1.00  0.00     0.016 A 
ATOM      8  C   UNL A   1      35.833  31.906  28.036  1.00  0.00     0.016 A 
ATOM      9  C   UNL A   1      36.576  29.205  28.055  1.00  0.00     0.010 A 
ATOM     10  C   UNL A   1      37.138  31.535  28.349  1.00  0.00     0.010 A 
ATOM     11  C   UNL A   1      37.505  30.182  28.418  1.00  0.00    -0.014 A 
BRANCH  11  12
ATOM     12  C   UNL A   1      38.730  29.799  29.163  1.00  0.00     0.031 A 
ATOM     13  C   UNL A   1      38.830  30.265  30.593  1.00  0.00     0.074 A 
ATOM     14  C   UNL A   1      39.700  29.041  28.623  1.00  0.00     0.049 A 
ATOM     15  N   UNL A   1      39.816  30.163  31.443  1.00  0.00    -0.248 NA
ATOM     16  C   UNL A   1      37.673  31.014  31.115  1.00  0.00     0.031 C 
ATOM     17  C   UNL A   1      39.735  28.543  27.249  1.00  0.00     0.029 A 
ATOM     18  N   UNL A   1      40.845  28.538  29.189  1.00  0.00    -0.354 N 
ATOM     19  C   UNL A   1      39.421  30.904  32.550  1.00  0.00     0.074 A 
ATOM     20  C   UNL A   1      38.161  31.526  32.228  1.00  0.00     0.031 C 
ATOM     21  C   UNL A   1      40.826  27.771  27.091  1.00  0.00     0.029 A 
ATOM     22  C   UNL A   1      41.573  27.733  28.347  1.00  0.00     0.049 A 
ATOM     23  H   UNL A   1      41.121  28.737  30.113  1.00  0.00     0.167 HD
ATOM     24  C   UNL A   1      40.015  31.006  33.760  1.00  0.00     0.037 A 
ATOM     25  C   UNL A   1      42.701  27.033  28.586  1.00  0.00     0.037 A 
ATOM     26  C   UNL A   1      41.189  30.270  34.119  1.00  0.00     0.049 A 
ATOM     27  C   UNL A   1      43.303  27.075  29.971  1.00  0.00     0.074 A 
ATOM     28  C   UNL A   1      41.847  30.226  35.331  1.00  0.00     0.029 A 
ATOM     29  N   UNL A   1      41.853  29.409  33.258  1.00  0.00    -0.354 N 
ATOM     30  N   UNL A   1      42.906  27.749  31.025  1.00  0.00    -0.248 NA
ATOM     31  C   UNL A   1      44.496  26.250  30.206  1.00  0.00     0.031 C 
ATOM     32  C   UNL A   1      42.923  29.341  35.200  1.00  0.00     0.029 A 
ATOM     33  C   UNL A   1      42.913  28.816  33.915  1.00  0.00     0.049 A 
ATOM     34  H   UNL A   1      41.606  29.245  32.320  1.00  0.00     0.167 HD
ATOM     35  C   UNL A   1      43.780  27.410  32.051  1.00  0.00     0.074 A 
ATOM     36  C   UNL A   1      44.725  26.463  31.496  1.00  0.00     0.031 C 
ATOM     37  C   UNL A   1      43.805  27.845  33.335  1.00  0.00     0.037 A 
BRANCH  24  38
ATOM     38  C   UNL A   1      39.373  31.935  34.749  1.00  0.00     0.064 A 
ATOM     39  C   UNL A   1      39.649  33.312  34.759  1.00  0.00     0.173 A 
ATOM     40  C   UNL A   1      38.557  31.422  35.766  1.00  0.00     0.173 A 
ATOM     41  F   UNL A   1      40.446  33.848  33.822  1.00  0.00    -0.203 F 
ATOM     42  C   UNL A   1      39.202  34.124  35.797  1.00  0.00     0.198 A 
ATOM     43  C   UNL A   1      38.075  32.247  36.780  1.00  0.00     0.198 A 
ATOM     44  F   UNL A   1      38.255  30.116  35.800  1.00  0.00    -0.203 F 
ATOM     45  F   UNL A   1      39.577  35.410  35.848  1.00  0.00    -0.200 F 
ATOM     46  C   UNL A   1      38.417  33.591  36.807  1.00  0.00     0.200 A 
ATOM     47  F   UNL A   1      37.308  31.733  37.752  1.00  0.00    -0.200 F 
ATOM     48  F   UNL A   1      38.011  34.367  37.821  1.00  0.00    -0.200 F 
ENDBRANCH  24  38
BRANCH  25  49
ATOM     49  C   UNL A   1      43.301  26.195  27.514  1.00  0.00     0.064 A 
ATOM     50  C   UNL A   1      44.238  26.728  26.617  1.00  0.00     0.173 A 
ATOM     51  C   UNL A   1      42.951  24.845  27.360  1.00  0.00     0.173 A 
ATOM     52  F   UNL A   1      44.591  28.019  26.709  1.00  0.00    -0.203 F 
ATOM     53  C   UNL A   1      44.788  25.952  25.598  1.00  0.00     0.198 A 
ATOM     54  C   UNL A   1      43.518  24.062  26.354  1.00  0.00     0.198 A 
ATOM     55  F   UNL A   1      42.063  24.284  28.193  1.00  0.00    -0.203 F 
ATOM     56  F   UNL A   1      45.650  26.500  24.731  1.00  0.00    -0.200 F 
ATOM     57  C   UNL A   1      44.431  24.618  25.470  1.00  0.00     0.200 A 
ATOM     58  F   UNL A   1      43.176  22.772  26.239  1.00  0.00    -0.200 F 
ATOM     59  F   UNL A   1      44.959  23.871  24.491  1.00  0.00    -0.200 F 
ENDBRANCH  25  49
BRANCH  37  60
ATOM     60  C   UNL A   1      44.847  27.278  34.248  1.00  0.00     0.064 A 
ATOM     61  C   UNL A   1      46.075  27.925  34.440  1.00  0.00     0.173 A 
ATOM     62  C   UNL A   1      44.554  26.160  35.043  1.00  0.00     0.173 A 
ATOM     63  F   UNL A   1      46.398  28.995  33.696  1.00  0.00    -0.203 F 
ATOM     64  C   UNL A   1      46.972  27.475  35.403  1.00  0.00     0.198 A 
ATOM     65  C   UNL A   1      45.444  25.726  36.019  1.00  0.00     0.198 A 
ATOM     66  F   UNL A   1      43.385  25.518  34.899  1.00  0.00    -0.203 F 
ATOM     67  F   UNL A   1      48.144  28.104  35.570  1.00  0.00    -0.200 F 
ATOM     68  C   UNL A   1      46.651  26.386  36.200  1.00  0.00     0.200 A 
ATOM     69  F   UNL A   1      45.125  24.685  36.800  1.00  0.00    -0.200 F 
ATOM     70  F   UNL A   1      47.503  25.975  37.149  1.00  0.00    -0.200 F 
ENDBRANCH  37  60
ENDBRANCH  11  12
ENDBRANCH   4   6
ENDBRANCH   3   4
ENDBRANCH   2   3
ENDBRANCH   1   2
BRANCH   1  71
ATOM     71  O   UNL A   1      31.181  27.660  26.238  1.00  0.00    -0.457 OA
BRANCH  71  72
ATOM     72  C   UNL A   1      31.870  27.180  25.167  1.00  0.00     0.370 C 
ATOM     73  O   UNL A   1      33.101  27.193  25.124  1.00  0.00    -0.245 OA
BRANCH  72  74
ATOM     74  C   UNL A   1      31.007  26.661  23.994  1.00  0.00     0.328 C 
BRANCH  74  75
ATOM     75  N   UNL A   1      31.025  25.184  23.966  1.00  0.00    -0.310 N 
ATOM     76  C   UNL A   1      31.965  24.476  23.091  1.00  0.00     0.325 C 
ATOM     77  C   UNL A   1      30.890  24.526  25.253  1.00  0.00     0.325 C 
ATOM     78  H   UNL A   1      30.146  25.079  23.460  1.00  0.00     0.349 HD
ATOM     79  C   UNL A   1      33.182  23.757  23.754  1.00  0.00     0.325 C 
ATOM     80  C   UNL A   1      32.233  24.172  25.923  1.00  0.00     0.325 C 
ATOM     81  N   UNL A   1      33.035  23.256  25.129  1.00  0.00    -0.318 N 
ATOM     82  H   UNL A   1      33.985  23.253  25.502  1.00  0.00     0.348 HD
BRANCH  81  83
ATOM     83  C   UNL A   1      32.721  21.834  25.315  1.00  0.00     0.364 C 
BRANCH  83  84
ATOM     84  C   UNL A   1      33.874  20.829  25.205  1.00  0.00     0.277 C 
ATOM     85  O   UNL A   1      33.636  19.660  24.885  1.00  0.00    -0.268 OA
ATOM     86  N   UNL A   1      35.189  21.282  25.378  1.00  0.00    -0.333 N 
ATOM     87  C   UNL A   1      35.600  22.373  26.274  1.00  0.00     0.148 C 
ATOM     88  C   UNL A   1      36.271  20.365  25.019  1.00  0.00     0.148 C 
ATOM     89  C   UNL A   1      36.964  22.986  25.956  1.00  0.00     0.181 C 
ATOM     90  C   UNL A   1      37.540  21.132  24.639  1.00  0.00     0.181 C 
ATOM     91  O   UNL A   1      37.955  21.983  25.716  1.00  0.00    -0.378 OA
ENDBRANCH  83  84
ENDBRANCH  81  83
ENDBRANCH  74  75
BRANCH  74  92
ATOM     92  C   UNL A   1      29.622  27.221  23.733  1.00  0.00     0.046 A 
ATOM     93  C   UNL A   1      28.387  26.658  23.995  1.00  0.00     0.094 A 
ATOM     94  C   UNL A   1      29.345  28.462  23.019  1.00  0.00     0.009 A 
ATOM     95  N   UNL A   1      27.408  27.465  23.471  1.00  0.00    -0.361 N 
ATOM     96  C   UNL A   1      27.963  28.553  22.838  1.00  0.00     0.049 A 
ATOM     97  C   UNL A   1      30.151  29.488  22.456  1.00  0.00     0.014 A 
ATOM     98  H   UNL A   1      26.442  27.289  23.538  1.00  0.00     0.166 HD
ATOM     99  C   UNL A   1      27.360  29.591  22.113  1.00  0.00     0.065 A 
ATOM    100  C   UNL A   1      29.567  30.530  21.728  1.00  0.00     0.040 A 
ATOM    101  C   UNL A   1      28.192  30.565  21.561  1.00  0.00     0.125 A 
ATOM    102  F   UNL A   1      27.649  31.564  20.853  1.00  0.00    -0.207 F 
ENDBRANCH  74  92
ENDBRANCH  72  74
ENDBRANCH  71  72
ENDBRANCH   1  71
TORSDOF 15
ENDMDL
