MODEL 1
REMARK VINA RESULT:     -11.6      0.000      0.000
REMARK SMILES CCC(C)(C)[C@@H]1CCc2c(sc(=O)n2CCCC(=O)OCCOC(=O)c2ccc(-c3c4nc(c(-c5c(F)c(F)c(F)c(F)c5F)c5ccc([nH]5)c(-c5c(F)c(F)c(F)c(F)c5F)c5nc(c(-c6c(F)c(F)c(F)c(F)c6F)c6ccc3[nH]6)C=C5)C=C4)cc2)C1
REMARK SMILES IDX 20 1 18 2 19 3 17 4 16 5 15 6 14 7 6 8 7 9 89 10 8 11 10 12
REMARK SMILES IDX 9 13 11 14 12 15 13 16 3 17 4 18 5 19 2 20 1 21 21 22 22 23
REMARK SMILES IDX 23 24 24 25 25 26 26 27 27 28 88 29 28 30 87 31 29 32 30 33
REMARK SMILES IDX 31 34 81 35 32 36 86 37 80 38 82 39 33 40 85 41 79 42 78 43
REMARK SMILES IDX 34 45 66 46 46 47 65 48 47 49 50 50 64 51 83 52 48 53 49 54
REMARK SMILES IDX 63 56 84 57 51 58 35 59 36 60 44 61 37 62 38 63 42 64 45 65
REMARK SMILES IDX 39 66 40 67 43 68 41 69 67 70 68 71 76 72 69 73 70 74 74 75
REMARK SMILES IDX 77 76 71 77 72 78 75 79 73 80 52 81 53 82 61 83 54 84 55 85
REMARK SMILES IDX 59 86 62 87 56 88 57 89 60 90 58 91
REMARK H PARENT 82 44 50 55
REMARK Flexibility Score: inf
ROOT
ATOM      1  O   UNL A   1      35.573  20.748  25.166  1.00  0.00    -0.462 OA
ENDROOT
BRANCH   1   2
ATOM      2  C   UNL A   1      34.591  21.633  25.451  1.00  0.00     0.305 C 
ATOM      3  O   UNL A   1      34.546  22.320  26.466  1.00  0.00    -0.252 OA
BRANCH   2   4
ATOM      4  C   UNL A   1      33.518  21.686  24.377  1.00  0.00     0.124 C 
BRANCH   4   5
ATOM      5  C   UNL A   1      33.767  22.521  23.116  1.00  0.00     0.034 C 
BRANCH   5   6
ATOM      6  C   UNL A   1      34.153  23.992  23.289  1.00  0.00     0.127 C 
BRANCH   6   7
ATOM      7  N   UNL A   1      33.036  24.902  23.093  1.00  0.00    -0.303 N 
ATOM      8  C   UNL A   1      31.434  27.473  25.928  1.00  0.00     0.000 C 
ATOM      9  C   UNL A   1      31.793  26.079  26.521  1.00  0.00     0.011 C 
ATOM     10  C   UNL A   1      30.608  27.185  24.649  1.00  0.00     0.053 C 
ATOM     11  C   UNL A   1      32.627  25.198  25.583  1.00  0.00     0.055 C 
ATOM     12  C   UNL A   1      31.341  26.277  23.732  1.00  0.00     0.030 A 
ATOM     13  C   UNL A   1      32.285  25.415  24.136  1.00  0.00     0.035 A 
ATOM     14  S   UNL A   1      31.286  26.453  22.015  1.00  0.00    -0.079 S 
ATOM     15  C   UNL A   1      32.721  25.437  21.838  1.00  0.00     0.307 A 
ATOM     16  O   UNL A   1      33.277  25.297  20.772  1.00  0.00    -0.257 OA
BRANCH   8  17
ATOM     17  C   UNL A   1      32.641  28.511  25.802  1.00  0.00    -0.032 C 
ATOM     18  C   UNL A   1      33.399  28.539  24.455  1.00  0.00     0.011 C 
ATOM     19  C   UNL A   1      33.705  28.159  26.878  1.00  0.00     0.011 C 
BRANCH  17  20
ATOM     20  C   UNL A   1      32.187  29.975  26.130  1.00  0.00     0.003 C 
ATOM     21  C   UNL A   1      33.005  30.782  27.131  1.00  0.00     0.004 C 
ENDBRANCH  17  20
ENDBRANCH   8  17
ENDBRANCH   6   7
ENDBRANCH   5   6
ENDBRANCH   4   5
ENDBRANCH   2   4
ENDBRANCH   1   2
BRANCH   1  22
ATOM     22  C   UNL A   1      36.781  21.225  24.561  1.00  0.00     0.274 C 
BRANCH  22  23
ATOM     23  C   UNL A   1      37.939  21.023  25.520  1.00  0.00     0.275 C 
BRANCH  23  24
ATOM     24  O   UNL A   1      38.679  22.233  25.679  1.00  0.00    -0.458 OA
BRANCH  24  25
ATOM     25  C   UNL A   1      39.762  22.130  26.479  1.00  0.00     0.338 C 
ATOM     26  O   UNL A   1      40.447  21.142  26.684  1.00  0.00    -0.246 OA
BRANCH  25  27
ATOM     27  C   UNL A   1      39.875  23.334  27.297  1.00  0.00     0.060 A 
ATOM     28  C   UNL A   1      38.951  24.358  27.080  1.00  0.00     0.016 A 
ATOM     29  C   UNL A   1      41.056  23.539  28.022  1.00  0.00     0.016 A 
ATOM     30  C   UNL A   1      39.298  25.637  27.459  1.00  0.00     0.010 A 
ATOM     31  C   UNL A   1      41.408  24.816  28.383  1.00  0.00     0.010 A 
ATOM     32  C   UNL A   1      40.556  25.861  28.041  1.00  0.00    -0.014 A 
BRANCH  32  33
ATOM     33  C   UNL A   1      40.858  27.190  28.531  1.00  0.00     0.031 A 
ATOM     34  C   UNL A   1      42.073  27.711  27.871  1.00  0.00     0.074 A 
ATOM     35  C   UNL A   1      40.085  27.887  29.386  1.00  0.00     0.049 A 
ATOM     36  N   UNL A   1      43.241  27.803  28.408  1.00  0.00    -0.248 NA
ATOM     37  C   UNL A   1      42.069  27.916  26.412  1.00  0.00     0.031 C 
ATOM     38  C   UNL A   1      38.753  27.532  29.881  1.00  0.00     0.029 A 
ATOM     39  N   UNL A   1      40.297  29.118  29.941  1.00  0.00    -0.354 N 
ATOM     40  C   UNL A   1      44.055  28.351  27.424  1.00  0.00     0.074 A 
ATOM     41  C   UNL A   1      43.359  28.174  26.181  1.00  0.00     0.031 C 
ATOM     42  C   UNL A   1      38.187  28.615  30.465  1.00  0.00     0.029 A 
ATOM     43  C   UNL A   1      39.162  29.692  30.513  1.00  0.00     0.049 A 
ATOM     44  H   UNL A   1      41.175  29.561  29.937  1.00  0.00     0.167 HD
ATOM     45  C   UNL A   1      45.019  29.233  27.801  1.00  0.00     0.037 A 
ATOM     46  C   UNL A   1      39.041  30.969  30.960  1.00  0.00     0.037 A 
ATOM     47  C   UNL A   1      45.265  29.115  29.221  1.00  0.00     0.049 A 
ATOM     48  C   UNL A   1      40.408  31.453  31.260  1.00  0.00     0.074 A 
ATOM     49  C   UNL A   1      45.823  28.187  30.073  1.00  0.00     0.029 A 
ATOM     50  N   UNL A   1      44.439  29.907  29.970  1.00  0.00    -0.354 N 
ATOM     51  N   UNL A   1      41.122  31.002  32.253  1.00  0.00    -0.248 NA
ATOM     52  C   UNL A   1      41.148  32.184  30.239  1.00  0.00     0.031 C 
ATOM     53  C   UNL A   1      45.185  28.374  31.339  1.00  0.00     0.029 A 
ATOM     54  C   UNL A   1      44.305  29.450  31.248  1.00  0.00     0.049 A 
ATOM     55  H   UNL A   1      43.993  30.714  29.626  1.00  0.00     0.167 HD
ATOM     56  C   UNL A   1      42.407  30.970  31.752  1.00  0.00     0.074 A 
ATOM     57  C   UNL A   1      42.393  31.878  30.609  1.00  0.00     0.031 C 
ATOM     58  C   UNL A   1      43.249  29.952  32.096  1.00  0.00     0.037 A 
BRANCH  45  59
ATOM     59  C   UNL A   1      45.257  30.561  27.095  1.00  0.00     0.064 A 
ATOM     60  C   UNL A   1      46.590  30.939  26.824  1.00  0.00     0.173 A 
ATOM     61  C   UNL A   1      44.308  31.604  27.000  1.00  0.00     0.173 A 
ATOM     62  F   UNL A   1      47.584  30.042  26.910  1.00  0.00    -0.203 F 
ATOM     63  C   UNL A   1      46.947  32.267  26.566  1.00  0.00     0.198 A 
ATOM     64  C   UNL A   1      44.662  32.917  26.697  1.00  0.00     0.198 A 
ATOM     65  F   UNL A   1      43.018  31.440  27.307  1.00  0.00    -0.203 F 
ATOM     66  F   UNL A   1      48.240  32.598  26.448  1.00  0.00    -0.200 F 
ATOM     67  C   UNL A   1      45.984  33.256  26.511  1.00  0.00     0.200 A 
ATOM     68  F   UNL A   1      43.714  33.865  26.681  1.00  0.00    -0.200 F 
ATOM     69  F   UNL A   1      46.327  34.537  26.329  1.00  0.00    -0.200 F 
ENDBRANCH  45  59
BRANCH  46  70
ATOM     70  C   UNL A   1      37.884  31.900  30.928  1.00  0.00     0.064 A 
ATOM     71  C   UNL A   1      37.317  32.308  29.704  1.00  0.00     0.173 A 
ATOM     72  C   UNL A   1      37.114  32.146  32.079  1.00  0.00     0.173 A 
ATOM     73  F   UNL A   1      37.965  32.090  28.551  1.00  0.00    -0.203 F 
ATOM     74  C   UNL A   1      36.036  32.867  29.633  1.00  0.00     0.198 A 
ATOM     75  C   UNL A   1      35.836  32.707  32.007  1.00  0.00     0.198 A 
ATOM     76  F   UNL A   1      37.540  31.751  33.287  1.00  0.00    -0.203 F 
ATOM     77  F   UNL A   1      35.500  33.163  28.440  1.00  0.00    -0.200 F 
ATOM     78  C   UNL A   1      35.289  33.048  30.783  1.00  0.00     0.200 A 
ATOM     79  F   UNL A   1      35.109  32.848  33.124  1.00  0.00    -0.200 F 
ATOM     80  F   UNL A   1      34.031  33.506  30.710  1.00  0.00    -0.200 F 
ENDBRANCH  46  70
BRANCH  58  81
ATOM     81  C   UNL A   1      42.973  29.242  33.384  1.00  0.00     0.064 A 
ATOM     82  C   UNL A   1      43.413  29.665  34.650  1.00  0.00     0.173 A 
ATOM     83  C   UNL A   1      42.175  28.091  33.327  1.00  0.00     0.173 A 
ATOM     84  F   UNL A   1      44.106  30.802  34.798  1.00  0.00    -0.203 F 
ATOM     85  C   UNL A   1      43.111  28.931  35.796  1.00  0.00     0.198 A 
ATOM     86  C   UNL A   1      41.841  27.385  34.475  1.00  0.00     0.198 A 
ATOM     87  F   UNL A   1      41.695  27.665  32.148  1.00  0.00    -0.203 F 
ATOM     88  F   UNL A   1      43.568  29.333  36.991  1.00  0.00    -0.200 F 
ATOM     89  C   UNL A   1      42.322  27.795  35.708  1.00  0.00     0.200 A 
ATOM     90  F   UNL A   1      41.040  26.314  34.387  1.00  0.00    -0.200 F 
ATOM     91  F   UNL A   1      42.008  27.103  36.812  1.00  0.00    -0.200 F 
ENDBRANCH  58  81
ENDBRANCH  32  33
ENDBRANCH  25  27
ENDBRANCH  24  25
ENDBRANCH  23  24
ENDBRANCH  22  23
ENDBRANCH   1  22
TORSDOF 16
ENDMDL
MODEL 2
REMARK VINA RESULT:     -11.5      3.220      8.559
REMARK SMILES CCC(C)(C)[C@@H]1CCc2c(sc(=O)n2CCCC(=O)OCCOC(=O)c2ccc(-c3c4nc(c(-c5c(F)c(F)c(F)c(F)c5F)c5ccc([nH]5)c(-c5c(F)c(F)c(F)c(F)c5F)c5nc(c(-c6c(F)c(F)c(F)c(F)c6F)c6ccc3[nH]6)C=C5)C=C4)cc2)C1
REMARK SMILES IDX 20 1 18 2 19 3 17 4 16 5 15 6 14 7 6 8 7 9 89 10 8 11 10 12
REMARK SMILES IDX 9 13 11 14 12 15 13 16 3 17 4 18 5 19 2 20 1 21 21 22 22 23
REMARK SMILES IDX 23 24 24 25 25 26 26 27 27 28 88 29 28 30 87 31 29 32 30 33
REMARK SMILES IDX 31 34 81 35 32 36 86 37 80 38 82 39 33 40 85 41 79 42 78 43
REMARK SMILES IDX 34 45 66 46 46 47 65 48 47 49 50 50 64 51 83 52 48 53 49 54
REMARK SMILES IDX 63 56 84 57 51 58 35 59 36 60 44 61 37 62 38 63 42 64 45 65
REMARK SMILES IDX 39 66 40 67 43 68 41 69 67 70 68 71 76 72 69 73 70 74 74 75
REMARK SMILES IDX 77 76 71 77 72 78 75 79 73 80 52 81 53 82 61 83 54 84 55 85
REMARK SMILES IDX 59 86 62 87 56 88 57 89 60 90 58 91
REMARK H PARENT 82 44 50 55
REMARK Flexibility Score: inf
ROOT
ATOM      1  O   UNL A   1      31.754  29.564  26.462  1.00  0.00    -0.462 OA
ENDROOT
BRANCH   1   2
ATOM      2  C   UNL A   1      31.907  28.420  27.166  1.00  0.00     0.305 C 
ATOM      3  O   UNL A   1      31.080  27.968  27.950  1.00  0.00    -0.252 OA
BRANCH   2   4
ATOM      4  C   UNL A   1      33.239  27.740  26.899  1.00  0.00     0.124 C 
BRANCH   4   5
ATOM      5  C   UNL A   1      33.408  26.911  25.620  1.00  0.00     0.034 C 
BRANCH   5   6
ATOM      6  C   UNL A   1      32.148  26.470  24.872  1.00  0.00     0.127 C 
BRANCH   6   7
ATOM      7  N   UNL A   1      31.887  25.044  24.985  1.00  0.00    -0.303 N 
ATOM      8  C   UNL A   1      34.550  21.983  24.114  1.00  0.00     0.000 C 
ATOM      9  C   UNL A   1      34.611  23.142  23.076  1.00  0.00     0.011 C 
ATOM     10  C   UNL A   1      33.048  21.631  24.259  1.00  0.00     0.053 C 
ATOM     11  C   UNL A   1      33.847  24.402  23.501  1.00  0.00     0.055 C 
ATOM     12  C   UNL A   1      32.247  22.830  24.603  1.00  0.00     0.030 A 
ATOM     13  C   UNL A   1      32.622  24.084  24.310  1.00  0.00     0.035 A 
ATOM     14  S   UNL A   1      30.908  22.771  25.691  1.00  0.00    -0.079 S 
ATOM     15  C   UNL A   1      30.958  24.526  25.895  1.00  0.00     0.307 A 
ATOM     16  O   UNL A   1      30.276  25.093  26.716  1.00  0.00    -0.257 OA
BRANCH   8  17
ATOM     17  C   UNL A   1      35.383  22.202  25.458  1.00  0.00    -0.032 C 
ATOM     18  C   UNL A   1      35.815  23.650  25.783  1.00  0.00     0.011 C 
ATOM     19  C   UNL A   1      36.700  21.382  25.358  1.00  0.00     0.011 C 
BRANCH  17  20
ATOM     20  C   UNL A   1      34.632  21.631  26.709  1.00  0.00     0.003 C 
ATOM     21  C   UNL A   1      34.095  22.612  27.745  1.00  0.00     0.004 C 
ENDBRANCH  17  20
ENDBRANCH   8  17
ENDBRANCH   6   7
ENDBRANCH   5   6
ENDBRANCH   4   5
ENDBRANCH   2   4
ENDBRANCH   1   2
BRANCH   1  22
ATOM     22  C   UNL A   1      32.905  30.378  26.206  1.00  0.00     0.274 C 
BRANCH  22  23
ATOM     23  C   UNL A   1      33.109  31.340  27.361  1.00  0.00     0.275 C 
BRANCH  23  24
ATOM     24  O   UNL A   1      34.150  30.881  28.222  1.00  0.00    -0.458 OA
BRANCH  24  25
ATOM     25  C   UNL A   1      35.090  31.806  28.513  1.00  0.00     0.338 C 
ATOM     26  O   UNL A   1      34.931  33.002  28.686  1.00  0.00    -0.246 OA
BRANCH  25  27
ATOM     27  C   UNL A   1      36.415  31.217  28.346  1.00  0.00     0.060 A 
ATOM     28  C   UNL A   1      36.489  29.899  27.893  1.00  0.00     0.016 A 
ATOM     29  C   UNL A   1      37.512  31.868  28.927  1.00  0.00     0.016 A 
ATOM     30  C   UNL A   1      37.631  29.178  28.175  1.00  0.00     0.010 A 
ATOM     31  C   UNL A   1      38.640  31.144  29.222  1.00  0.00     0.010 A 
ATOM     32  C   UNL A   1      38.664  29.791  28.902  1.00  0.00    -0.014 A 
BRANCH  32  33
ATOM     33  C   UNL A   1      39.897  29.055  29.094  1.00  0.00     0.031 A 
ATOM     34  C   UNL A   1      40.127  28.816  30.533  1.00  0.00     0.074 A 
ATOM     35  C   UNL A   1      40.665  28.571  28.098  1.00  0.00     0.049 A 
ATOM     36  N   UNL A   1      40.982  29.436  31.273  1.00  0.00    -0.248 NA
ATOM     37  C   UNL A   1      39.163  28.001  31.292  1.00  0.00     0.031 C 
ATOM     38  C   UNL A   1      40.368  28.557  26.665  1.00  0.00     0.029 A 
ATOM     39  N   UNL A   1      41.858  27.908  28.167  1.00  0.00    -0.354 N 
ATOM     40  C   UNL A   1      40.849  28.875  32.537  1.00  0.00     0.074 A 
ATOM     41  C   UNL A   1      39.586  28.193  32.544  1.00  0.00     0.031 C 
ATOM     42  C   UNL A   1      41.228  27.724  26.034  1.00  0.00     0.029 A 
ATOM     43  C   UNL A   1      42.221  27.257  26.989  1.00  0.00     0.049 A 
ATOM     44  H   UNL A   1      42.414  27.892  28.979  1.00  0.00     0.167 HD
ATOM     45  C   UNL A   1      41.969  28.707  33.290  1.00  0.00     0.037 A 
ATOM     46  C   UNL A   1      43.246  26.379  26.834  1.00  0.00     0.037 A 
ATOM     47  C   UNL A   1      43.038  29.530  32.769  1.00  0.00     0.049 A 
ATOM     48  C   UNL A   1      44.219  26.656  27.915  1.00  0.00     0.074 A 
ATOM     49  C   UNL A   1      43.329  30.875  32.690  1.00  0.00     0.029 A 
ATOM     50  N   UNL A   1      43.764  28.901  31.795  1.00  0.00    -0.354 N 
ATOM     51  N   UNL A   1      44.941  27.740  27.963  1.00  0.00    -0.248 NA
ATOM     52  C   UNL A   1      44.139  25.901  29.159  1.00  0.00     0.031 C 
ATOM     53  C   UNL A   1      44.154  31.037  31.535  1.00  0.00     0.029 A 
ATOM     54  C   UNL A   1      44.402  29.786  30.976  1.00  0.00     0.049 A 
ATOM     55  H   UNL A   1      43.820  27.924  31.696  1.00  0.00     0.167 HD
ATOM     56  C   UNL A   1      44.996  28.044  29.309  1.00  0.00     0.074 A 
ATOM     57  C   UNL A   1      44.666  26.798  29.995  1.00  0.00     0.031 C 
ATOM     58  C   UNL A   1      44.955  29.346  29.716  1.00  0.00     0.037 A 
BRANCH  45  59
ATOM     59  C   UNL A   1      42.293  27.416  34.029  1.00  0.00     0.064 A 
ATOM     60  C   UNL A   1      42.064  27.372  35.420  1.00  0.00     0.173 A 
ATOM     61  C   UNL A   1      43.121  26.386  33.526  1.00  0.00     0.173 A 
ATOM     62  F   UNL A   1      41.317  28.313  36.019  1.00  0.00    -0.203 F 
ATOM     63  C   UNL A   1      42.683  26.427  36.245  1.00  0.00     0.198 A 
ATOM     64  C   UNL A   1      43.698  25.418  34.345  1.00  0.00     0.198 A 
ATOM     65  F   UNL A   1      43.509  26.328  32.248  1.00  0.00    -0.203 F 
ATOM     66  F   UNL A   1      42.540  26.508  37.576  1.00  0.00    -0.200 F 
ATOM     67  C   UNL A   1      43.506  25.457  35.708  1.00  0.00     0.200 A 
ATOM     68  F   UNL A   1      44.520  24.507  33.805  1.00  0.00    -0.200 F 
ATOM     69  F   UNL A   1      44.152  24.592  36.499  1.00  0.00    -0.200 F 
ENDBRANCH  45  59
BRANCH  46  70
ATOM     70  C   UNL A   1      43.358  25.162  25.989  1.00  0.00     0.064 A 
ATOM     71  C   UNL A   1      44.484  24.954  25.167  1.00  0.00     0.173 A 
ATOM     72  C   UNL A   1      42.538  24.041  26.210  1.00  0.00     0.173 A 
ATOM     73  F   UNL A   1      45.339  25.957  24.923  1.00  0.00    -0.203 F 
ATOM     74  C   UNL A   1      44.802  23.691  24.655  1.00  0.00     0.198 A 
ATOM     75  C   UNL A   1      42.855  22.781  25.695  1.00  0.00     0.198 A 
ATOM     76  F   UNL A   1      41.471  24.121  27.016  1.00  0.00    -0.203 F 
ATOM     77  F   UNL A   1      45.928  23.519  23.949  1.00  0.00    -0.200 F 
ATOM     78  C   UNL A   1      43.996  22.601  24.936  1.00  0.00     0.200 A 
ATOM     79  F   UNL A   1      42.084  21.727  26.000  1.00  0.00    -0.200 F 
ATOM     80  F   UNL A   1      44.342  21.376  24.515  1.00  0.00    -0.200 F 
ENDBRANCH  46  70
BRANCH  58  81
ATOM     81  C   UNL A   1      45.406  30.384  28.735  1.00  0.00     0.064 A 
ATOM     82  C   UNL A   1      44.577  31.019  27.795  1.00  0.00     0.173 A 
ATOM     83  C   UNL A   1      46.747  30.784  28.792  1.00  0.00     0.173 A 
ATOM     84  F   UNL A   1      43.265  30.754  27.737  1.00  0.00    -0.203 F 
ATOM     85  C   UNL A   1      45.091  31.971  26.916  1.00  0.00     0.198 A 
ATOM     86  C   UNL A   1      47.247  31.763  27.943  1.00  0.00     0.198 A 
ATOM     87  F   UNL A   1      47.573  30.238  29.699  1.00  0.00    -0.203 F 
ATOM     88  F   UNL A   1      44.292  32.543  26.002  1.00  0.00    -0.200 F 
ATOM     89  C   UNL A   1      46.423  32.345  26.994  1.00  0.00     0.200 A 
ATOM     90  F   UNL A   1      48.524  32.151  28.056  1.00  0.00    -0.200 F 
ATOM     91  F   UNL A   1      46.912  33.280  26.167  1.00  0.00    -0.200 F 
ENDBRANCH  58  81
ENDBRANCH  32  33
ENDBRANCH  25  27
ENDBRANCH  24  25
ENDBRANCH  23  24
ENDBRANCH  22  23
ENDBRANCH   1  22
TORSDOF 16
ENDMDL
MODEL 3
REMARK VINA RESULT:     -11.4      3.129      8.471
REMARK SMILES CCC(C)(C)[C@@H]1CCc2c(sc(=O)n2CCCC(=O)OCCOC(=O)c2ccc(-c3c4nc(c(-c5c(F)c(F)c(F)c(F)c5F)c5ccc([nH]5)c(-c5c(F)c(F)c(F)c(F)c5F)c5nc(c(-c6c(F)c(F)c(F)c(F)c6F)c6ccc3[nH]6)C=C5)C=C4)cc2)C1
REMARK SMILES IDX 20 1 18 2 19 3 17 4 16 5 15 6 14 7 6 8 7 9 89 10 8 11 10 12
REMARK SMILES IDX 9 13 11 14 12 15 13 16 3 17 4 18 5 19 2 20 1 21 21 22 22 23
REMARK SMILES IDX 23 24 24 25 25 26 26 27 27 28 88 29 28 30 87 31 29 32 30 33
REMARK SMILES IDX 31 34 81 35 32 36 86 37 80 38 82 39 33 40 85 41 79 42 78 43
REMARK SMILES IDX 34 45 66 46 46 47 65 48 47 49 50 50 64 51 83 52 48 53 49 54
REMARK SMILES IDX 63 56 84 57 51 58 35 59 36 60 44 61 37 62 38 63 42 64 45 65
REMARK SMILES IDX 39 66 40 67 43 68 41 69 67 70 68 71 76 72 69 73 70 74 74 75
REMARK SMILES IDX 77 76 71 77 72 78 75 79 73 80 52 81 53 82 61 83 54 84 55 85
REMARK SMILES IDX 59 86 62 87 56 88 57 89 60 90 58 91
REMARK H PARENT 82 44 50 55
REMARK Flexibility Score: inf
ROOT
ATOM      1  O   UNL A   1      33.610  29.682  25.820  1.00  0.00    -0.462 OA
ENDROOT
BRANCH   1   2
ATOM      2  C   UNL A   1      33.010  28.827  24.962  1.00  0.00     0.305 C 
ATOM      3  O   UNL A   1      33.543  28.350  23.966  1.00  0.00    -0.252 OA
BRANCH   2   4
ATOM      4  C   UNL A   1      31.574  28.518  25.350  1.00  0.00     0.124 C 
BRANCH   4   5
ATOM      5  C   UNL A   1      31.137  27.054  25.479  1.00  0.00     0.034 C 
BRANCH   5   6
ATOM      6  C   UNL A   1      32.070  26.082  26.204  1.00  0.00     0.127 C 
BRANCH   6   7
ATOM      7  N   UNL A   1      31.939  24.711  25.738  1.00  0.00    -0.303 N 
ATOM      8  C   UNL A   1      34.901  22.439  23.925  1.00  0.00     0.000 C 
ATOM      9  C   UNL A   1      34.887  23.913  23.424  1.00  0.00     0.011 C 
ATOM     10  C   UNL A   1      33.434  21.949  23.824  1.00  0.00     0.053 C 
ATOM     11  C   UNL A   1      33.996  24.847  24.253  1.00  0.00     0.055 C 
ATOM     12  C   UNL A   1      32.515  22.856  24.553  1.00  0.00     0.030 A 
ATOM     13  C   UNL A   1      32.781  24.148  24.794  1.00  0.00     0.035 A 
ATOM     14  S   UNL A   1      31.153  22.277  25.443  1.00  0.00    -0.079 S 
ATOM     15  C   UNL A   1      31.034  23.811  26.313  1.00  0.00     0.307 A 
ATOM     16  O   UNL A   1      30.276  23.960  27.244  1.00  0.00    -0.257 OA
BRANCH   8  17
ATOM     17  C   UNL A   1      35.667  22.175  25.301  1.00  0.00    -0.032 C 
ATOM     18  C   UNL A   1      36.311  23.400  25.988  1.00  0.00     0.011 C 
ATOM     19  C   UNL A   1      36.833  21.183  25.030  1.00  0.00     0.011 C 
BRANCH  17  20
ATOM     20  C   UNL A   1      34.750  21.460  26.351  1.00  0.00     0.003 C 
ATOM     21  C   UNL A   1      34.329  22.234  27.595  1.00  0.00     0.004 C 
ENDBRANCH  17  20
ENDBRANCH   8  17
ENDBRANCH   6   7
ENDBRANCH   5   6
ENDBRANCH   4   5
ENDBRANCH   2   4
ENDBRANCH   1   2
BRANCH   1  22
ATOM     22  C   UNL A   1      32.990  29.941  27.086  1.00  0.00     0.274 C 
BRANCH  22  23
ATOM     23  C   UNL A   1      33.423  31.305  27.589  1.00  0.00     0.275 C 
BRANCH  23  24
ATOM     24  O   UNL A   1      34.845  31.386  27.672  1.00  0.00    -0.458 OA
BRANCH  24  25
ATOM     25  C   UNL A   1      35.313  31.937  28.812  1.00  0.00     0.338 C 
ATOM     26  O   UNL A   1      34.994  33.002  29.313  1.00  0.00    -0.246 OA
BRANCH  25  27
ATOM     27  C   UNL A   1      36.479  31.185  29.269  1.00  0.00     0.060 A 
ATOM     28  C   UNL A   1      37.607  31.907  29.662  1.00  0.00     0.016 A 
ATOM     29  C   UNL A   1      36.530  29.809  29.006  1.00  0.00     0.016 A 
ATOM     30  C   UNL A   1      38.829  31.270  29.632  1.00  0.00     0.010 A 
ATOM     31  C   UNL A   1      37.749  29.181  28.960  1.00  0.00     0.010 A 
ATOM     32  C   UNL A   1      38.892  29.931  29.211  1.00  0.00    -0.014 A 
BRANCH  32  33
ATOM     33  C   UNL A   1      40.167  29.248  29.290  1.00  0.00     0.031 A 
ATOM     34  C   UNL A   1      40.542  29.033  30.702  1.00  0.00     0.074 A 
ATOM     35  C   UNL A   1      40.857  28.785  28.229  1.00  0.00     0.049 A 
ATOM     36  N   UNL A   1      41.437  29.695  31.354  1.00  0.00    -0.248 NA
ATOM     37  C   UNL A   1      39.689  28.187  31.555  1.00  0.00     0.031 C 
ATOM     38  C   UNL A   1      40.426  28.745  26.830  1.00  0.00     0.029 A 
ATOM     39  N   UNL A   1      42.078  28.172  28.189  1.00  0.00    -0.354 N 
ATOM     40  C   UNL A   1      41.448  29.143  32.628  1.00  0.00     0.074 A 
ATOM     41  C   UNL A   1      40.220  28.410  32.759  1.00  0.00     0.031 C 
ATOM     42  C   UNL A   1      41.257  27.940  26.126  1.00  0.00     0.029 A 
ATOM     43  C   UNL A   1      42.354  27.524  26.986  1.00  0.00     0.049 A 
ATOM     44  H   UNL A   1      42.708  28.188  28.944  1.00  0.00     0.167 HD
ATOM     45  C   UNL A   1      42.640  29.029  33.272  1.00  0.00     0.037 A 
ATOM     46  C   UNL A   1      43.395  26.687  26.740  1.00  0.00     0.037 A 
ATOM     47  C   UNL A   1      43.620  29.889  32.647  1.00  0.00     0.049 A 
ATOM     48  C   UNL A   1      44.454  27.015  27.721  1.00  0.00     0.074 A 
ATOM     49  C   UNL A   1      43.845  31.244  32.532  1.00  0.00     0.029 A 
ATOM     50  N   UNL A   1      44.276  29.281  31.612  1.00  0.00    -0.354 N 
ATOM     51  N   UNL A   1      45.132  28.128  27.694  1.00  0.00    -0.248 NA
ATOM     52  C   UNL A   1      44.524  26.270  28.972  1.00  0.00     0.031 C 
ATOM     53  C   UNL A   1      44.550  31.428  31.302  1.00  0.00     0.029 A 
ATOM     54  C   UNL A   1      44.796  30.182  30.730  1.00  0.00     0.049 A 
ATOM     55  H   UNL A   1      44.363  28.305  31.515  1.00  0.00     0.167 HD
ATOM     56  C   UNL A   1      45.301  28.448  29.026  1.00  0.00     0.074 A 
ATOM     57  C   UNL A   1      45.090  27.197  29.748  1.00  0.00     0.031 C 
ATOM     58  C   UNL A   1      45.245  29.752  29.426  1.00  0.00     0.037 A 
BRANCH  45  59
ATOM     59  C   UNL A   1      43.086  27.759  33.985  1.00  0.00     0.064 A 
ATOM     60  C   UNL A   1      43.495  27.863  35.332  1.00  0.00     0.173 A 
ATOM     61  C   UNL A   1      43.460  26.561  33.336  1.00  0.00     0.173 A 
ATOM     62  F   UNL A   1      43.223  28.967  36.045  1.00  0.00    -0.203 F 
ATOM     63  C   UNL A   1      44.287  26.886  35.944  1.00  0.00     0.198 A 
ATOM     64  C   UNL A   1      44.210  25.568  33.966  1.00  0.00     0.198 A 
ATOM     65  F   UNL A   1      43.229  26.336  32.039  1.00  0.00    -0.203 F 
ATOM     66  F   UNL A   1      44.762  27.092  37.181  1.00  0.00    -0.200 F 
ATOM     67  C   UNL A   1      44.650  25.744  35.258  1.00  0.00     0.200 A 
ATOM     68  F   UNL A   1      44.577  24.483  33.269  1.00  0.00    -0.200 F 
ATOM     69  F   UNL A   1      45.460  24.837  35.817  1.00  0.00    -0.200 F 
ENDBRANCH  45  59
BRANCH  46  70
ATOM     70  C   UNL A   1      43.478  25.467  25.895  1.00  0.00     0.064 A 
ATOM     71  C   UNL A   1      44.637  25.183  25.147  1.00  0.00     0.173 A 
ATOM     72  C   UNL A   1      42.569  24.406  26.055  1.00  0.00     0.173 A 
ATOM     73  F   UNL A   1      45.574  26.125  24.965  1.00  0.00    -0.203 F 
ATOM     74  C   UNL A   1      44.899  23.902  24.648  1.00  0.00     0.198 A 
ATOM     75  C   UNL A   1      42.830  23.128  25.553  1.00  0.00     0.198 A 
ATOM     76  F   UNL A   1      41.460  24.558  26.791  1.00  0.00    -0.203 F 
ATOM     77  F   UNL A   1      46.054  23.653  24.014  1.00  0.00    -0.200 F 
ATOM     78  C   UNL A   1      44.003  22.871  24.869  1.00  0.00     0.200 A 
ATOM     79  F   UNL A   1      41.970  22.129  25.801  1.00  0.00    -0.200 F 
ATOM     80  F   UNL A   1      44.289  21.625  24.463  1.00  0.00    -0.200 F 
ENDBRANCH  46  70
BRANCH  58  81
ATOM     81  C   UNL A   1      45.557  30.796  28.401  1.00  0.00     0.064 A 
ATOM     82  C   UNL A   1      46.850  31.188  28.015  1.00  0.00     0.173 A 
ATOM     83  C   UNL A   1      44.475  31.397  27.743  1.00  0.00     0.173 A 
ATOM     84  F   UNL A   1      47.936  30.599  28.534  1.00  0.00    -0.203 F 
ATOM     85  C   UNL A   1      47.041  32.179  27.053  1.00  0.00     0.198 A 
ATOM     86  C   UNL A   1      44.669  32.353  26.755  1.00  0.00     0.198 A 
ATOM     87  F   UNL A   1      43.219  31.031  28.045  1.00  0.00    -0.203 F 
ATOM     88  F   UNL A   1      48.283  32.563  26.721  1.00  0.00    -0.200 F 
ATOM     89  C   UNL A   1      45.952  32.757  26.421  1.00  0.00     0.200 A 
ATOM     90  F   UNL A   1      43.612  32.874  26.118  1.00  0.00    -0.200 F 
ATOM     91  F   UNL A   1      46.135  33.690  25.477  1.00  0.00    -0.200 F 
ENDBRANCH  58  81
ENDBRANCH  32  33
ENDBRANCH  25  27
ENDBRANCH  24  25
ENDBRANCH  23  24
ENDBRANCH  22  23
ENDBRANCH   1  22
TORSDOF 16
ENDMDL
