MODEL 1
REMARK VINA RESULT:     -12.0      0.000      0.000
REMARK SMILES O=C(CCCN1C(=O)/C(=C/c2ccccc2Cl)SC1=S)Nc1cccc(C(=O)OCCOC(=O)c2ccc(-c3c4nc(c(-c5c(F)c(F)c(F)c(F)c5F)c5ccc([nH]5)c(-c5c(F)c(F)c(F)c(F)c5F)c5nc(c(-c6c(F)c(F)c(F)c(F)c6F)c6ccc3[nH]6)C=C5)C=C4)cc2)c1
REMARK SMILES IDX 27 1 28 2 26 3 22 4 23 5 98 6 24 7 25 8 21 9 1 10 2 11 3 13
REMARK SMILES IDX 4 14 5 15 6 16 7 17 19 18 8 19 9 20 18 21 20 22 10 23 11 24
REMARK SMILES IDX 12 25 16 26 13 27 15 28 17 29 14 30 29 31 30 32 31 33 32 34
REMARK SMILES IDX 33 35 34 36 35 37 36 38 97 39 37 40 96 41 38 42 39 43 40 44
REMARK SMILES IDX 90 45 41 46 95 47 89 48 91 49 42 50 94 51 88 52 87 53 43 55
REMARK SMILES IDX 75 56 55 57 74 58 56 59 59 60 73 61 92 62 57 63 58 64 72 66
REMARK SMILES IDX 93 67 60 68 44 69 45 70 53 71 46 72 47 73 51 74 54 75 48 76
REMARK SMILES IDX 49 77 52 78 50 79 76 80 77 81 85 82 78 83 79 84 83 85 86 86
REMARK SMILES IDX 80 87 81 88 84 89 82 90 61 91 62 92 70 93 63 94 64 95 68 96
REMARK SMILES IDX 71 97 65 98 66 99 69 100 67 101
REMARK H PARENT 21 12 91 54 59 65
REMARK Flexibility Score: inf
ROOT
ATOM      1  C   UNL A   1      33.989  32.950  28.632  1.00  0.00     0.338 C 
ATOM      2  O   UNL A   1      33.747  33.976  28.018  1.00  0.00    -0.246 OA
ENDROOT
BRANCH   1   3
ATOM      3  C   UNL A   1      34.349  31.668  27.978  1.00  0.00     0.062 A 
ATOM      4  C   UNL A   1      33.752  29.762  26.629  1.00  0.00     0.042 A 
ATOM      5  C   UNL A   1      34.928  29.115  27.018  1.00  0.00     0.026 A 
ATOM      6  C   UNL A   1      33.441  31.019  27.145  1.00  0.00     0.041 A 
ATOM      7  C   UNL A   1      35.869  29.791  27.789  1.00  0.00     0.003 A 
ATOM      8  C   UNL A   1      35.599  31.087  28.226  1.00  0.00     0.016 A 
BRANCH   4   9
ATOM      9  N   UNL A   1      32.934  29.111  25.694  1.00  0.00    -0.326 N 
ATOM     10  O   UNL A   1      31.592  27.903  27.155  1.00  0.00    -0.275 OA
ATOM     11  C   UNL A   1      31.904  28.251  26.019  1.00  0.00     0.224 C 
ATOM     12  H   UNL A   1      33.106  29.280  24.739  1.00  0.00     0.169 HD
BRANCH  11  13
ATOM     13  C   UNL A   1      31.111  27.752  24.835  1.00  0.00     0.102 C 
BRANCH  13  14
ATOM     14  C   UNL A   1      30.245  26.526  25.135  1.00  0.00     0.032 C 
BRANCH  14  15
ATOM     15  C   UNL A   1      30.070  25.512  23.993  1.00  0.00     0.128 C 
BRANCH  15  16
ATOM     16  N   UNL A   1      31.167  24.550  23.860  1.00  0.00    -0.293 N 
ATOM     17  C   UNL A   1      31.267  23.516  24.776  1.00  0.00     0.266 C 
ATOM     18  C   UNL A   1      32.130  24.584  22.871  1.00  0.00     0.148 C 
ATOM     19  O   UNL A   1      30.463  23.290  25.673  1.00  0.00    -0.268 OA
ATOM     20  C   UNL A   1      32.458  22.678  24.492  1.00  0.00     0.081 C 
ATOM     21  S   UNL A   1      33.160  23.168  23.000  1.00  0.00    -0.054 SA
ATOM     22  S   UNL A   1      32.353  25.731  21.683  1.00  0.00    -0.052 S 
ATOM     23  C   UNL A   1      32.887  21.719  25.325  1.00  0.00     0.031 C 
BRANCH  23  24
ATOM     24  C   UNL A   1      34.083  20.891  25.094  1.00  0.00    -0.006 A 
ATOM     25  C   UNL A   1      35.338  21.488  25.283  1.00  0.00     0.010 A 
ATOM     26  C   UNL A   1      34.028  19.534  24.726  1.00  0.00     0.048 A 
ATOM     27  C   UNL A   1      36.509  20.735  25.159  1.00  0.00     0.001 A 
ATOM     28  C   UNL A   1      35.201  18.780  24.624  1.00  0.00     0.021 A 
ATOM     29  Cl  UNL A   1      32.534  18.738  24.359  1.00  0.00    -0.084 Cl
ATOM     30  C   UNL A   1      36.439  19.378  24.847  1.00  0.00     0.002 A 
ENDBRANCH  23  24
ENDBRANCH  15  16
ENDBRANCH  14  15
ENDBRANCH  13  14
ENDBRANCH  11  13
ENDBRANCH   4   9
ENDBRANCH   1   3
BRANCH   1  31
ATOM     31  O   UNL A   1      34.127  32.817  29.976  1.00  0.00    -0.458 OA
BRANCH  31  32
ATOM     32  C   UNL A   1      34.154  34.022  30.763  1.00  0.00     0.275 C 
BRANCH  32  33
ATOM     33  C   UNL A   1      34.408  33.699  32.236  1.00  0.00     0.275 C 
BRANCH  33  34
ATOM     34  O   UNL A   1      35.050  32.416  32.354  1.00  0.00    -0.458 OA
BRANCH  34  35
ATOM     35  C   UNL A   1      36.160  32.381  33.123  1.00  0.00     0.338 C 
ATOM     36  O   UNL A   1      36.290  32.742  34.279  1.00  0.00    -0.246 OA
BRANCH  35  37
ATOM     37  C   UNL A   1      37.234  31.730  32.364  1.00  0.00     0.060 A 
ATOM     38  C   UNL A   1      38.045  30.823  33.037  1.00  0.00     0.016 A 
ATOM     39  C   UNL A   1      37.517  32.079  31.048  1.00  0.00     0.016 A 
ATOM     40  C   UNL A   1      39.184  30.300  32.436  1.00  0.00     0.010 A 
ATOM     41  C   UNL A   1      38.617  31.491  30.410  1.00  0.00     0.010 A 
ATOM     42  C   UNL A   1      39.474  30.614  31.105  1.00  0.00    -0.014 A 
BRANCH  42  43
ATOM     43  C   UNL A   1      40.690  30.062  30.448  1.00  0.00     0.031 A 
ATOM     44  C   UNL A   1      41.928  30.906  30.346  1.00  0.00     0.074 A 
ATOM     45  C   UNL A   1      40.690  28.814  29.941  1.00  0.00     0.049 A 
ATOM     46  N   UNL A   1      43.002  30.725  29.619  1.00  0.00    -0.248 NA
ATOM     47  C   UNL A   1      41.958  32.127  31.165  1.00  0.00     0.031 C 
ATOM     48  C   UNL A   1      39.585  27.859  30.033  1.00  0.00     0.029 A 
ATOM     49  N   UNL A   1      41.654  28.135  29.235  1.00  0.00    -0.354 N 
ATOM     50  C   UNL A   1      43.802  31.838  29.843  1.00  0.00     0.074 A 
ATOM     51  C   UNL A   1      43.096  32.686  30.779  1.00  0.00     0.031 C 
ATOM     52  C   UNL A   1      39.936  26.717  29.423  1.00  0.00     0.029 A 
ATOM     53  C   UNL A   1      41.251  26.890  28.816  1.00  0.00     0.049 A 
ATOM     54  H   UNL A   1      42.547  28.506  29.048  1.00  0.00     0.167 HD
ATOM     55  C   UNL A   1      45.012  32.123  29.305  1.00  0.00     0.037 A 
ATOM     56  C   UNL A   1      41.846  26.010  27.989  1.00  0.00     0.037 A 
ATOM     57  C   UNL A   1      45.727  31.246  28.415  1.00  0.00     0.049 A 
ATOM     58  C   UNL A   1      43.169  26.366  27.371  1.00  0.00     0.074 A 
ATOM     59  C   UNL A   1      46.963  31.437  27.821  1.00  0.00     0.029 A 
ATOM     60  N   UNL A   1      45.275  30.001  28.004  1.00  0.00    -0.354 N 
ATOM     61  N   UNL A   1      43.891  27.449  27.530  1.00  0.00    -0.248 NA
ATOM     62  C   UNL A   1      43.751  25.388  26.443  1.00  0.00     0.031 C 
ATOM     63  C   UNL A   1      47.241  30.323  27.022  1.00  0.00     0.029 A 
ATOM     64  C   UNL A   1      46.203  29.417  27.156  1.00  0.00     0.049 A 
ATOM     65  H   UNL A   1      44.422  29.592  28.275  1.00  0.00     0.167 HD
ATOM     66  C   UNL A   1      45.020  27.274  26.742  1.00  0.00     0.074 A 
ATOM     67  C   UNL A   1      44.893  25.976  26.114  1.00  0.00     0.031 C 
ATOM     68  C   UNL A   1      46.066  28.116  26.554  1.00  0.00     0.037 A 
BRANCH  55  69
ATOM     69  C   UNL A   1      45.619  33.458  29.627  1.00  0.00     0.064 A 
ATOM     70  C   UNL A   1      45.326  34.610  28.882  1.00  0.00     0.173 A 
ATOM     71  C   UNL A   1      46.489  33.589  30.721  1.00  0.00     0.173 A 
ATOM     72  F   UNL A   1      44.513  34.536  27.818  1.00  0.00    -0.203 F 
ATOM     73  C   UNL A   1      45.901  35.836  29.206  1.00  0.00     0.198 A 
ATOM     74  C   UNL A   1      47.038  34.822  31.059  1.00  0.00     0.198 A 
ATOM     75  F   UNL A   1      46.799  32.519  31.469  1.00  0.00    -0.203 F 
ATOM     76  F   UNL A   1      45.644  36.915  28.452  1.00  0.00    -0.200 F 
ATOM     77  C   UNL A   1      46.751  35.944  30.298  1.00  0.00     0.200 A 
ATOM     78  F   UNL A   1      47.850  34.924  32.122  1.00  0.00    -0.200 F 
ATOM     79  F   UNL A   1      47.299  37.125  30.609  1.00  0.00    -0.200 F 
ENDBRANCH  55  69
BRANCH  56  80
ATOM     80  C   UNL A   1      41.167  24.729  27.662  1.00  0.00     0.064 A 
ATOM     81  C   UNL A   1      40.066  24.696  26.795  1.00  0.00     0.173 A 
ATOM     82  C   UNL A   1      41.612  23.510  28.198  1.00  0.00     0.173 A 
ATOM     83  F   UNL A   1      39.587  25.837  26.280  1.00  0.00    -0.203 F 
ATOM     84  C   UNL A   1      39.430  23.495  26.486  1.00  0.00     0.198 A 
ATOM     85  C   UNL A   1      40.995  22.307  27.863  1.00  0.00     0.198 A 
ATOM     86  F   UNL A   1      42.660  23.487  29.034  1.00  0.00    -0.203 F 
ATOM     87  F   UNL A   1      38.355  23.496  25.687  1.00  0.00    -0.200 F 
ATOM     88  C   UNL A   1      39.901  22.301  27.012  1.00  0.00     0.200 A 
ATOM     89  F   UNL A   1      41.462  21.155  28.362  1.00  0.00    -0.200 F 
ATOM     90  F   UNL A   1      39.296  21.146  26.704  1.00  0.00    -0.200 F 
ENDBRANCH  56  80
BRANCH  68  91
ATOM     91  C   UNL A   1      47.180  27.637  25.672  1.00  0.00     0.064 A 
ATOM     92  C   UNL A   1      48.234  26.861  26.171  1.00  0.00     0.173 A 
ATOM     93  C   UNL A   1      47.165  27.926  24.298  1.00  0.00     0.173 A 
ATOM     94  F   UNL A   1      48.300  26.573  27.481  1.00  0.00    -0.203 F 
ATOM     95  C   UNL A   1      49.246  26.406  25.330  1.00  0.00     0.198 A 
ATOM     96  C   UNL A   1      48.165  27.448  23.456  1.00  0.00     0.198 A 
ATOM     97  F   UNL A   1      46.175  28.661  23.772  1.00  0.00    -0.203 F 
ATOM     98  F   UNL A   1      50.267  25.699  25.835  1.00  0.00    -0.200 F 
ATOM     99  C   UNL A   1      49.207  26.693  23.974  1.00  0.00     0.200 A 
ATOM    100  F   UNL A   1      48.119  27.716  22.144  1.00  0.00    -0.200 F 
ATOM    101  F   UNL A   1      50.177  26.248  23.164  1.00  0.00    -0.200 F 
ENDBRANCH  68  91
ENDBRANCH  42  43
ENDBRANCH  35  37
ENDBRANCH  34  35
ENDBRANCH  33  34
ENDBRANCH  32  33
ENDBRANCH  31  32
ENDBRANCH   1  31
TORSDOF 17
ENDMDL
MODEL 2
REMARK VINA RESULT:     -11.8      1.016      2.218
REMARK SMILES O=C(CCCN1C(=O)/C(=C/c2ccccc2Cl)SC1=S)Nc1cccc(C(=O)OCCOC(=O)c2ccc(-c3c4nc(c(-c5c(F)c(F)c(F)c(F)c5F)c5ccc([nH]5)c(-c5c(F)c(F)c(F)c(F)c5F)c5nc(c(-c6c(F)c(F)c(F)c(F)c6F)c6ccc3[nH]6)C=C5)C=C4)cc2)c1
REMARK SMILES IDX 27 1 28 2 26 3 22 4 23 5 98 6 24 7 25 8 21 9 1 10 2 11 3 13
REMARK SMILES IDX 4 14 5 15 6 16 7 17 19 18 8 19 9 20 18 21 20 22 10 23 11 24
REMARK SMILES IDX 12 25 16 26 13 27 15 28 17 29 14 30 29 31 30 32 31 33 32 34
REMARK SMILES IDX 33 35 34 36 35 37 36 38 97 39 37 40 96 41 38 42 39 43 40 44
REMARK SMILES IDX 90 45 41 46 95 47 89 48 91 49 42 50 94 51 88 52 87 53 43 55
REMARK SMILES IDX 75 56 55 57 74 58 56 59 59 60 73 61 92 62 57 63 58 64 72 66
REMARK SMILES IDX 93 67 60 68 44 69 45 70 53 71 46 72 47 73 51 74 54 75 48 76
REMARK SMILES IDX 49 77 52 78 50 79 76 80 77 81 85 82 78 83 79 84 83 85 86 86
REMARK SMILES IDX 80 87 81 88 84 89 82 90 61 91 62 92 70 93 63 94 64 95 68 96
REMARK SMILES IDX 71 97 65 98 66 99 69 100 67 101
REMARK H PARENT 21 12 91 54 59 65
REMARK Flexibility Score: inf
ROOT
ATOM      1  C   UNL A   1      34.354  33.167  29.328  1.00  0.00     0.338 C 
ATOM      2  O   UNL A   1      34.115  34.210  28.741  1.00  0.00    -0.246 OA
ENDROOT
BRANCH   1   3
ATOM      3  C   UNL A   1      34.894  31.957  28.664  1.00  0.00     0.062 A 
ATOM      4  C   UNL A   1      34.603  30.052  27.215  1.00  0.00     0.042 A 
ATOM      5  C   UNL A   1      35.812  29.518  27.671  1.00  0.00     0.026 A 
ATOM      6  C   UNL A   1      34.124  31.248  27.745  1.00  0.00     0.041 A 
ATOM      7  C   UNL A   1      36.618  30.259  28.531  1.00  0.00     0.003 A 
ATOM      8  C   UNL A   1      36.179  31.501  28.986  1.00  0.00     0.016 A 
BRANCH   4   9
ATOM      9  N   UNL A   1      33.929  29.355  26.202  1.00  0.00    -0.326 N 
ATOM     10  O   UNL A   1      32.497  28.085  27.518  1.00  0.00    -0.275 OA
ATOM     11  C   UNL A   1      32.915  28.444  26.420  1.00  0.00     0.224 C 
ATOM     12  H   UNL A   1      34.197  29.529  25.270  1.00  0.00     0.169 HD
BRANCH  11  13
ATOM     13  C   UNL A   1      32.285  27.899  25.160  1.00  0.00     0.102 C 
BRANCH  13  14
ATOM     14  C   UNL A   1      30.761  27.770  25.229  1.00  0.00     0.032 C 
BRANCH  14  15
ATOM     15  C   UNL A   1      30.120  26.704  24.326  1.00  0.00     0.128 C 
BRANCH  15  16
ATOM     16  N   UNL A   1      30.917  25.485  24.165  1.00  0.00    -0.293 N 
ATOM     17  C   UNL A   1      30.942  24.559  25.195  1.00  0.00     0.266 C 
ATOM     18  C   UNL A   1      31.658  25.170  23.043  1.00  0.00     0.148 C 
ATOM     19  O   UNL A   1      30.291  24.639  26.230  1.00  0.00    -0.268 OA
ATOM     20  C   UNL A   1      31.830  23.420  24.853  1.00  0.00     0.081 C 
ATOM     21  S   UNL A   1      32.333  23.558  23.215  1.00  0.00    -0.054 SA
ATOM     22  S   UNL A   1      31.915  26.094  21.681  1.00  0.00    -0.052 S 
ATOM     23  C   UNL A   1      32.171  22.474  25.739  1.00  0.00     0.031 C 
BRANCH  23  24
ATOM     24  C   UNL A   1      33.074  21.348  25.447  1.00  0.00    -0.006 A 
ATOM     25  C   UNL A   1      32.495  20.124  25.079  1.00  0.00     0.010 A 
ATOM     26  C   UNL A   1      34.477  21.446  25.488  1.00  0.00     0.048 A 
ATOM     27  C   UNL A   1      33.297  19.040  24.711  1.00  0.00     0.001 A 
ATOM     28  C   UNL A   1      35.275  20.366  25.097  1.00  0.00     0.021 A 
ATOM     29  Cl  UNL A   1      35.285  22.876  26.038  1.00  0.00    -0.084 Cl
ATOM     30  C   UNL A   1      34.684  19.166  24.703  1.00  0.00     0.002 A 
ENDBRANCH  23  24
ENDBRANCH  15  16
ENDBRANCH  14  15
ENDBRANCH  13  14
ENDBRANCH  11  13
ENDBRANCH   4   9
ENDBRANCH   1   3
BRANCH   1  31
ATOM     31  O   UNL A   1      34.323  32.961  30.669  1.00  0.00    -0.458 OA
BRANCH  31  32
ATOM     32  C   UNL A   1      34.603  34.088  31.520  1.00  0.00     0.275 C 
BRANCH  32  33
ATOM     33  C   UNL A   1      34.723  33.645  32.979  1.00  0.00     0.275 C 
BRANCH  33  34
ATOM     34  O   UNL A   1      35.377  32.366  33.053  1.00  0.00    -0.458 OA
BRANCH  34  35
ATOM     35  C   UNL A   1      36.508  32.323  33.791  1.00  0.00     0.338 C 
ATOM     36  O   UNL A   1      36.672  32.681  34.944  1.00  0.00    -0.246 OA
BRANCH  35  37
ATOM     37  C   UNL A   1      37.558  31.668  33.002  1.00  0.00     0.060 A 
ATOM     38  C   UNL A   1      38.218  30.585  33.574  1.00  0.00     0.016 A 
ATOM     39  C   UNL A   1      37.967  32.167  31.770  1.00  0.00     0.016 A 
ATOM     40  C   UNL A   1      39.333  30.026  32.962  1.00  0.00     0.010 A 
ATOM     41  C   UNL A   1      39.041  31.554  31.112  1.00  0.00     0.010 A 
ATOM     42  C   UNL A   1      39.749  30.492  31.712  1.00  0.00    -0.014 A 
BRANCH  42  43
ATOM     43  C   UNL A   1      40.942  29.904  31.045  1.00  0.00     0.031 A 
ATOM     44  C   UNL A   1      42.253  30.637  31.084  1.00  0.00     0.074 A 
ATOM     45  C   UNL A   1      40.858  28.721  30.405  1.00  0.00     0.049 A 
ATOM     46  N   UNL A   1      43.340  30.435  30.383  1.00  0.00    -0.248 NA
ATOM     47  C   UNL A   1      42.349  31.757  32.032  1.00  0.00     0.031 C 
ATOM     48  C   UNL A   1      39.670  27.867  30.351  1.00  0.00     0.029 A 
ATOM     49  N   UNL A   1      41.792  28.035  29.667  1.00  0.00    -0.354 N 
ATOM     50  C   UNL A   1      44.222  31.440  30.758  1.00  0.00     0.074 A 
ATOM     51  C   UNL A   1      43.548  32.247  31.753  1.00  0.00     0.031 C 
ATOM     52  C   UNL A   1      39.950  26.769  29.633  1.00  0.00     0.029 A 
ATOM     53  C   UNL A   1      41.303  26.883  29.099  1.00  0.00     0.049 A 
ATOM     54  H   UNL A   1      42.722  28.340  29.556  1.00  0.00     0.167 HD
ATOM     55  C   UNL A   1      45.477  31.668  30.301  1.00  0.00     0.037 A 
ATOM     56  C   UNL A   1      41.858  26.044  28.205  1.00  0.00     0.037 A 
ATOM     57  C   UNL A   1      46.155  30.828  29.349  1.00  0.00     0.049 A 
ATOM     58  C   UNL A   1      43.236  26.341  27.681  1.00  0.00     0.074 A 
ATOM     59  C   UNL A   1      47.430  30.967  28.827  1.00  0.00     0.029 A 
ATOM     60  N   UNL A   1      45.616  29.680  28.787  1.00  0.00    -0.354 N 
ATOM     61  N   UNL A   1      44.040  27.329  27.985  1.00  0.00    -0.248 NA
ATOM     62  C   UNL A   1      43.774  25.416  26.675  1.00  0.00     0.031 C 
ATOM     63  C   UNL A   1      47.649  29.922  27.923  1.00  0.00     0.029 A 
ATOM     64  C   UNL A   1      46.530  29.106  27.917  1.00  0.00     0.049 A 
ATOM     65  H   UNL A   1      44.719  29.324  28.979  1.00  0.00     0.167 HD
ATOM     66  C   UNL A   1      45.186  27.136  27.226  1.00  0.00     0.074 A 
ATOM     67  C   UNL A   1      44.977  25.928  26.455  1.00  0.00     0.031 C 
ATOM     68  C   UNL A   1      46.309  27.893  27.171  1.00  0.00     0.037 A 
BRANCH  55  69
ATOM     69  C   UNL A   1      46.182  32.900  30.790  1.00  0.00     0.064 A 
ATOM     70  C   UNL A   1      47.009  32.888  31.922  1.00  0.00     0.173 A 
ATOM     71  C   UNL A   1      46.047  34.111  30.090  1.00  0.00     0.173 A 
ATOM     72  F   UNL A   1      47.160  31.761  32.635  1.00  0.00    -0.203 F 
ATOM     73  C   UNL A   1      47.655  34.046  32.350  1.00  0.00     0.198 A 
ATOM     74  C   UNL A   1      46.717  35.258  30.504  1.00  0.00     0.198 A 
ATOM     75  F   UNL A   1      45.271  34.176  28.998  1.00  0.00    -0.203 F 
ATOM     76  F   UNL A   1      48.403  34.022  33.462  1.00  0.00    -0.200 F 
ATOM     77  C   UNL A   1      47.514  35.228  31.637  1.00  0.00     0.200 A 
ATOM     78  F   UNL A   1      46.589  36.396  29.806  1.00  0.00    -0.200 F 
ATOM     79  F   UNL A   1      48.140  36.339  32.048  1.00  0.00    -0.200 F 
ENDBRANCH  55  69
BRANCH  56  80
ATOM     80  C   UNL A   1      41.087  24.872  27.714  1.00  0.00     0.064 A 
ATOM     81  C   UNL A   1      41.362  23.580  28.182  1.00  0.00     0.173 A 
ATOM     82  C   UNL A   1      40.053  25.020  26.777  1.00  0.00     0.173 A 
ATOM     83  F   UNL A   1      42.359  23.383  29.057  1.00  0.00    -0.203 F 
ATOM     84  C   UNL A   1      40.639  22.481  27.724  1.00  0.00     0.198 A 
ATOM     85  C   UNL A   1      39.310  23.925  26.343  1.00  0.00     0.198 A 
ATOM     86  F   UNL A   1      39.752  26.235  26.295  1.00  0.00    -0.203 F 
ATOM     87  F   UNL A   1      40.948  21.250  28.157  1.00  0.00    -0.200 F 
ATOM     88  C   UNL A   1      39.607  22.654  26.812  1.00  0.00     0.200 A 
ATOM     89  F   UNL A   1      38.306  24.100  25.474  1.00  0.00    -0.200 F 
ATOM     90  F   UNL A   1      38.905  21.598  26.382  1.00  0.00    -0.200 F 
ENDBRANCH  56  80
BRANCH  68  91
ATOM     91  C   UNL A   1      47.418  27.410  26.286  1.00  0.00     0.064 A 
ATOM     92  C   UNL A   1      47.457  27.717  24.919  1.00  0.00     0.173 A 
ATOM     93  C   UNL A   1      48.479  26.666  26.826  1.00  0.00     0.173 A 
ATOM     94  F   UNL A   1      46.457  28.411  24.354  1.00  0.00    -0.203 F 
ATOM     95  C   UNL A   1      48.509  27.279  24.119  1.00  0.00     0.198 A 
ATOM     96  C   UNL A   1      49.541  26.253  26.029  1.00  0.00     0.198 A 
ATOM     97  F   UNL A   1      48.489  26.352  28.130  1.00  0.00    -0.203 F 
ATOM     98  F   UNL A   1      48.507  27.547  22.806  1.00  0.00    -0.200 F 
ATOM     99  C   UNL A   1      49.553  26.554  24.676  1.00  0.00     0.200 A 
ATOM    100  F   UNL A   1      50.555  25.562  26.570  1.00  0.00    -0.200 F 
ATOM    101  F   UNL A   1      50.569  26.140  23.906  1.00  0.00    -0.200 F 
ENDBRANCH  68  91
ENDBRANCH  42  43
ENDBRANCH  35  37
ENDBRANCH  34  35
ENDBRANCH  33  34
ENDBRANCH  32  33
ENDBRANCH  31  32
ENDBRANCH   1  31
TORSDOF 17
ENDMDL
MODEL 3
REMARK VINA RESULT:     -11.7      1.155      7.162
REMARK SMILES O=C(CCCN1C(=O)/C(=C/c2ccccc2Cl)SC1=S)Nc1cccc(C(=O)OCCOC(=O)c2ccc(-c3c4nc(c(-c5c(F)c(F)c(F)c(F)c5F)c5ccc([nH]5)c(-c5c(F)c(F)c(F)c(F)c5F)c5nc(c(-c6c(F)c(F)c(F)c(F)c6F)c6ccc3[nH]6)C=C5)C=C4)cc2)c1
REMARK SMILES IDX 27 1 28 2 26 3 22 4 23 5 98 6 24 7 25 8 21 9 1 10 2 11 3 13
REMARK SMILES IDX 4 14 5 15 6 16 7 17 19 18 8 19 9 20 18 21 20 22 10 23 11 24
REMARK SMILES IDX 12 25 16 26 13 27 15 28 17 29 14 30 29 31 30 32 31 33 32 34
REMARK SMILES IDX 33 35 34 36 35 37 36 38 97 39 37 40 96 41 38 42 39 43 40 44
REMARK SMILES IDX 90 45 41 46 95 47 89 48 91 49 42 50 94 51 88 52 87 53 43 55
REMARK SMILES IDX 75 56 55 57 74 58 56 59 59 60 73 61 92 62 57 63 58 64 72 66
REMARK SMILES IDX 93 67 60 68 44 69 45 70 53 71 46 72 47 73 51 74 54 75 48 76
REMARK SMILES IDX 49 77 52 78 50 79 76 80 77 81 85 82 78 83 79 84 83 85 86 86
REMARK SMILES IDX 80 87 81 88 84 89 82 90 61 91 62 92 70 93 63 94 64 95 68 96
REMARK SMILES IDX 71 97 65 98 66 99 69 100 67 101
REMARK H PARENT 21 12 91 54 59 65
REMARK Flexibility Score: inf
ROOT
ATOM      1  C   UNL A   1      34.788  33.022  29.996  1.00  0.00     0.338 C 
ATOM      2  O   UNL A   1      35.059  34.179  29.721  1.00  0.00    -0.246 OA
ENDROOT
BRANCH   1   3
ATOM      3  C   UNL A   1      34.970  31.891  29.054  1.00  0.00     0.062 A 
ATOM      4  C   UNL A   1      34.158  30.507  27.255  1.00  0.00     0.042 A 
ATOM      5  C   UNL A   1      35.174  29.580  27.507  1.00  0.00     0.026 A 
ATOM      6  C   UNL A   1      34.029  31.638  28.058  1.00  0.00     0.041 A 
ATOM      7  C   UNL A   1      36.157  29.867  28.450  1.00  0.00     0.003 A 
ATOM      8  C   UNL A   1      36.081  31.047  29.187  1.00  0.00     0.016 A 
BRANCH   4   9
ATOM      9  N   UNL A   1      33.313  30.260  26.163  1.00  0.00    -0.326 N 
ATOM     10  O   UNL A   1      31.607  29.133  27.265  1.00  0.00    -0.275 OA
ATOM     11  C   UNL A   1      32.095  29.616  26.247  1.00  0.00     0.224 C 
ATOM     12  H   UNL A   1      33.608  30.569  25.277  1.00  0.00     0.169 HD
BRANCH  11  13
ATOM     13  C   UNL A   1      31.331  29.558  24.945  1.00  0.00     0.102 C 
BRANCH  13  14
ATOM     14  C   UNL A   1      31.603  28.300  24.116  1.00  0.00     0.032 C 
BRANCH  14  15
ATOM     15  C   UNL A   1      30.629  27.127  24.307  1.00  0.00     0.128 C 
BRANCH  15  16
ATOM     16  N   UNL A   1      31.230  25.802  24.135  1.00  0.00    -0.293 N 
ATOM     17  C   UNL A   1      31.339  24.967  25.235  1.00  0.00     0.266 C 
ATOM     18  C   UNL A   1      31.705  25.301  22.938  1.00  0.00     0.148 C 
ATOM     19  O   UNL A   1      30.909  25.216  26.354  1.00  0.00    -0.268 OA
ATOM     20  C   UNL A   1      32.005  23.694  24.861  1.00  0.00     0.081 C 
ATOM     21  S   UNL A   1      32.205  23.632  23.154  1.00  0.00    -0.054 SA
ATOM     22  S   UNL A   1      31.809  26.070  21.464  1.00  0.00    -0.052 S 
ATOM     23  C   UNL A   1      32.393  22.784  25.766  1.00  0.00     0.031 C 
BRANCH  23  24
ATOM     24  C   UNL A   1      33.085  21.527  25.437  1.00  0.00    -0.006 A 
ATOM     25  C   UNL A   1      32.297  20.419  25.089  1.00  0.00     0.010 A 
ATOM     26  C   UNL A   1      34.485  21.390  25.424  1.00  0.00     0.048 A 
ATOM     27  C   UNL A   1      32.893  19.220  24.688  1.00  0.00     0.001 A 
ATOM     28  C   UNL A   1      35.077  20.196  25.001  1.00  0.00     0.021 A 
ATOM     29  Cl  UNL A   1      35.539  22.662  25.946  1.00  0.00    -0.084 Cl
ATOM     30  C   UNL A   1      34.281  19.115  24.627  1.00  0.00     0.002 A 
ENDBRANCH  23  24
ENDBRANCH  15  16
ENDBRANCH  14  15
ENDBRANCH  13  14
ENDBRANCH  11  13
ENDBRANCH   4   9
ENDBRANCH   1   3
BRANCH   1  31
ATOM     31  O   UNL A   1      34.429  32.535  31.210  1.00  0.00    -0.458 OA
BRANCH  31  32
ATOM     32  C   UNL A   1      34.357  33.469  32.305  1.00  0.00     0.275 C 
BRANCH  32  33
ATOM     33  C   UNL A   1      35.618  33.387  33.166  1.00  0.00     0.275 C 
BRANCH  33  34
ATOM     34  O   UNL A   1      36.051  32.019  33.275  1.00  0.00    -0.458 OA
BRANCH  34  35
ATOM     35  C   UNL A   1      37.277  31.830  33.810  1.00  0.00     0.338 C 
ATOM     36  O   UNL A   1      37.613  31.913  34.978  1.00  0.00    -0.246 OA
BRANCH  35  37
ATOM     37  C   UNL A   1      38.190  31.397  32.746  1.00  0.00     0.060 A 
ATOM     38  C   UNL A   1      39.157  30.450  33.066  1.00  0.00     0.016 A 
ATOM     39  C   UNL A   1      38.175  31.985  31.485  1.00  0.00     0.016 A 
ATOM     40  C   UNL A   1      40.160  30.122  32.163  1.00  0.00     0.010 A 
ATOM     41  C   UNL A   1      39.137  31.596  30.543  1.00  0.00     0.010 A 
ATOM     42  C   UNL A   1      40.153  30.678  30.881  1.00  0.00    -0.014 A 
BRANCH  42  43
ATOM     43  C   UNL A   1      41.221  30.336  29.903  1.00  0.00     0.031 A 
ATOM     44  C   UNL A   1      41.216  28.991  29.236  1.00  0.00     0.074 A 
ATOM     45  C   UNL A   1      42.195  31.221  29.612  1.00  0.00     0.049 A 
ATOM     46  N   UNL A   1      42.160  28.399  28.548  1.00  0.00    -0.248 NA
ATOM     47  C   UNL A   1      39.985  28.197  29.371  1.00  0.00     0.031 C 
ATOM     48  C   UNL A   1      42.283  32.588  30.129  1.00  0.00     0.029 A 
ATOM     49  N   UNL A   1      43.307  31.098  28.815  1.00  0.00    -0.354 N 
ATOM     50  C   UNL A   1      41.662  27.143  28.227  1.00  0.00     0.074 A 
ATOM     51  C   UNL A   1      40.330  27.059  28.787  1.00  0.00     0.031 C 
ATOM     52  C   UNL A   1      43.377  33.180  29.626  1.00  0.00     0.029 A 
ATOM     53  C   UNL A   1      44.116  32.208  28.828  1.00  0.00     0.049 A 
ATOM     54  H   UNL A   1      43.504  30.292  28.285  1.00  0.00     0.167 HD
ATOM     55  C   UNL A   1      42.270  26.151  27.534  1.00  0.00     0.037 A 
ATOM     56  C   UNL A   1      45.342  32.403  28.307  1.00  0.00     0.037 A 
ATOM     57  C   UNL A   1      43.576  26.266  26.937  1.00  0.00     0.049 A 
ATOM     58  C   UNL A   1      46.016  31.274  27.578  1.00  0.00     0.074 A 
ATOM     59  C   UNL A   1      44.280  25.323  26.208  1.00  0.00     0.029 A 
ATOM     60  N   UNL A   1      44.369  27.404  26.989  1.00  0.00    -0.354 N 
ATOM     61  N   UNL A   1      45.571  30.066  27.334  1.00  0.00    -0.248 NA
ATOM     62  C   UNL A   1      47.370  31.530  27.068  1.00  0.00     0.031 C 
ATOM     63  C   UNL A   1      45.513  25.878  25.850  1.00  0.00     0.029 A 
ATOM     64  C   UNL A   1      45.558  27.183  26.313  1.00  0.00     0.049 A 
ATOM     65  H   UNL A   1      44.122  28.244  27.438  1.00  0.00     0.167 HD
ATOM     66  C   UNL A   1      46.578  29.424  26.627  1.00  0.00     0.074 A 
ATOM     67  C   UNL A   1      47.653  30.381  26.470  1.00  0.00     0.031 C 
ATOM     68  C   UNL A   1      46.609  28.154  26.153  1.00  0.00     0.037 A 
BRANCH  55  69
ATOM     69  C   UNL A   1      41.552  24.838  27.422  1.00  0.00     0.064 A 
ATOM     70  C   UNL A   1      40.454  24.658  26.569  1.00  0.00     0.173 A 
ATOM     71  C   UNL A   1      41.994  23.730  28.164  1.00  0.00     0.173 A 
ATOM     72  F   UNL A   1      39.982  25.688  25.850  1.00  0.00    -0.203 F 
ATOM     73  C   UNL A   1      39.809  23.426  26.483  1.00  0.00     0.198 A 
ATOM     74  C   UNL A   1      41.365  22.494  28.052  1.00  0.00     0.198 A 
ATOM     75  F   UNL A   1      43.043  23.847  28.992  1.00  0.00    -0.203 F 
ATOM     76  F   UNL A   1      38.732  23.290  25.696  1.00  0.00    -0.200 F 
ATOM     77  C   UNL A   1      40.269  22.343  27.218  1.00  0.00     0.200 A 
ATOM     78  F   UNL A   1      41.819  21.446  28.756  1.00  0.00    -0.200 F 
ATOM     79  F   UNL A   1      39.650  21.159  27.129  1.00  0.00    -0.200 F 
ENDBRANCH  55  69
BRANCH  56  80
ATOM     80  C   UNL A   1      46.028  33.708  28.501  1.00  0.00     0.064 A 
ATOM     81  C   UNL A   1      46.871  33.923  29.600  1.00  0.00     0.173 A 
ATOM     82  C   UNL A   1      45.865  34.761  27.588  1.00  0.00     0.173 A 
ATOM     83  F   UNL A   1      47.037  32.957  30.515  1.00  0.00    -0.203 F 
ATOM     84  C   UNL A   1      47.517  35.144  29.782  1.00  0.00     0.198 A 
ATOM     85  C   UNL A   1      46.535  35.970  27.755  1.00  0.00     0.198 A 
ATOM     86  F   UNL A   1      45.067  34.608  26.521  1.00  0.00    -0.203 F 
ATOM     87  F   UNL A   1      48.286  35.338  30.863  1.00  0.00    -0.200 F 
ATOM     88  C   UNL A   1      47.356  36.164  28.855  1.00  0.00     0.200 A 
ATOM     89  F   UNL A   1      46.388  36.947  26.849  1.00  0.00    -0.200 F 
ATOM     90  F   UNL A   1      47.987  37.333  29.026  1.00  0.00    -0.200 F 
ENDBRANCH  56  80
BRANCH  68  91
ATOM     91  C   UNL A   1      47.823  27.743  25.376  1.00  0.00     0.064 A 
ATOM     92  C   UNL A   1      47.863  27.815  23.977  1.00  0.00     0.173 A 
ATOM     93  C   UNL A   1      48.978  27.312  26.048  1.00  0.00     0.173 A 
ATOM     94  F   UNL A   1      46.777  28.205  23.290  1.00  0.00    -0.203 F 
ATOM     95  C   UNL A   1      49.009  27.451  23.275  1.00  0.00     0.198 A 
ATOM     96  C   UNL A   1      50.130  26.975  25.344  1.00  0.00     0.198 A 
ATOM     97  F   UNL A   1      48.992  27.231  27.386  1.00  0.00    -0.203 F 
ATOM     98  F   UNL A   1      49.012  27.488  21.935  1.00  0.00    -0.200 F 
ATOM     99  C   UNL A   1      50.143  27.039  23.959  1.00  0.00     0.200 A 
ATOM    100  F   UNL A   1      51.229  26.588  26.007  1.00  0.00    -0.200 F 
ATOM    101  F   UNL A   1      51.248  26.697  23.283  1.00  0.00    -0.200 F 
ENDBRANCH  68  91
ENDBRANCH  42  43
ENDBRANCH  35  37
ENDBRANCH  34  35
ENDBRANCH  33  34
ENDBRANCH  32  33
ENDBRANCH  31  32
ENDBRANCH   1  31
TORSDOF 17
ENDMDL
