MODEL 1
REMARK VINA RESULT:     -12.5      0.000      0.000
REMARK SMILES C=CCN1C(=O)/C(=C\c2cccn2-c2ccc(C(=O)OCCOC(=O)c3ccc(-c4c5nc(c(-c6c(F)c(F)c(F)c(F)c6F)c6ccc([nH]6)c(-c6c(F)c(F)c(F)c(F)c6F)c6nc(c(-c7c(F)c(F)c(F)c(F)c7F)c7ccc4[nH]7)C=C6)C=C5)cc3)cc2)C(O)=NC1=S
REMARK SMILES IDX 21 1 20 2 18 3 19 4 17 5 14 6 15 7 90 8 16 9 89 10 13 11
REMARK SMILES IDX 9 12 10 13 11 14 12 15 8 16 4 17 5 18 94 19 6 20 7 21 93 22
REMARK SMILES IDX 95 23 91 24 3 25 2 26 1 27 92 28 22 30 23 31 24 32 25 33
REMARK SMILES IDX 26 34 27 35 88 36 28 37 87 38 29 39 30 40 31 41 81 42 32 43
REMARK SMILES IDX 86 44 80 45 82 46 33 47 85 48 79 49 78 50 34 52 66 53 46 54
REMARK SMILES IDX 65 55 47 56 50 57 64 58 83 59 48 60 49 61 63 63 84 64 51 65
REMARK SMILES IDX 35 66 36 67 44 68 37 69 38 70 42 71 45 72 39 73 40 74 43 75
REMARK SMILES IDX 41 76 67 77 68 78 76 79 69 80 70 81 74 82 77 83 71 84 72 85
REMARK SMILES IDX 75 86 73 87 52 88 53 89 61 90 54 91 55 92 59 93 62 94 56 95
REMARK SMILES IDX 57 96 60 97 58 98
REMARK H PARENT 92 29 82 51 50 62
REMARK Flexibility Score: inf
ROOT
ATOM      1  C   UNL A   1      39.705  21.376  26.168  1.00  0.00     0.275 C 
ENDROOT
BRANCH   1   2
ATOM      2  O   UNL A   1      38.609  21.766  25.322  1.00  0.00    -0.458 OA
BRANCH   2   3
ATOM      3  C   UNL A   1      37.685  20.800  25.094  1.00  0.00     0.338 C 
ATOM      4  O   UNL A   1      37.920  19.655  24.722  1.00  0.00    -0.246 OA
BRANCH   3   5
ATOM      5  C   UNL A   1      36.318  21.253  25.458  1.00  0.00     0.060 A 
ATOM      6  C   UNL A   1      33.687  22.057  25.967  1.00  0.00     0.046 A 
ATOM      7  C   UNL A   1      33.924  20.855  25.293  1.00  0.00     0.027 A 
ATOM      8  C   UNL A   1      34.761  22.809  26.460  1.00  0.00     0.027 A 
ATOM      9  C   UNL A   1      35.238  20.470  25.020  1.00  0.00     0.018 A 
ATOM     10  C   UNL A   1      36.078  22.403  26.215  1.00  0.00     0.018 A 
BRANCH   6  11
ATOM     11  N   UNL A   1      32.349  22.521  26.092  1.00  0.00    -0.317 N 
ATOM     12  C   UNL A   1      31.598  23.219  25.146  1.00  0.00     0.047 A 
ATOM     13  C   UNL A   1      30.325  23.400  25.661  1.00  0.00     0.028 A 
ATOM     14  C   UNL A   1      30.287  22.811  26.942  1.00  0.00     0.020 A 
ATOM     15  C   UNL A   1      31.523  22.250  27.168  1.00  0.00     0.092 A 
BRANCH  12  16
ATOM     16  C   UNL A   1      32.116  23.530  23.860  1.00  0.00     0.046 C 
ATOM     17  N   UNL A   1      33.322  27.000  24.063  1.00  0.00    -0.279 N 
ATOM     18  C   UNL A   1      33.020  25.743  24.581  1.00  0.00     0.265 C 
ATOM     19  C   UNL A   1      33.589  27.230  22.705  1.00  0.00     0.206 C 
ATOM     20  O   UNL A   1      33.024  25.503  25.786  1.00  0.00    -0.268 OA
ATOM     21  C   UNL A   1      32.750  24.684  23.570  1.00  0.00     0.104 C 
ATOM     22  N   UNL A   1      33.597  26.166  21.837  1.00  0.00    -0.184 NA
ATOM     23  S   UNL A   1      33.934  28.758  22.053  1.00  0.00    -0.038 S 
ATOM     24  C   UNL A   1      33.213  25.007  22.221  1.00  0.00     0.226 C 
BRANCH  17  25
ATOM     25  C   UNL A   1      33.393  28.067  25.068  1.00  0.00     0.155 C 
BRANCH  25  26
ATOM     26  C   UNL A   1      32.021  28.640  25.293  1.00  0.00    -0.013 C 
ATOM     27  C   UNL A   1      31.770  29.936  25.524  1.00  0.00     0.006 C 
ENDBRANCH  25  26
ENDBRANCH  17  25
BRANCH  24  28
ATOM     28  O   UNL A   1      33.281  24.022  21.308  1.00  0.00    -0.493 OA
ATOM     29  H   UNL A   1      32.582  23.899  20.698  1.00  0.00     0.295 HD
ENDBRANCH  24  28
ENDBRANCH  12  16
ENDBRANCH   6  11
ENDBRANCH   3   5
ENDBRANCH   2   3
ENDBRANCH   1   2
BRANCH   1  30
ATOM     30  C   UNL A   1      40.024  22.415  27.245  1.00  0.00     0.275 C 
BRANCH  30  31
ATOM     31  O   UNL A   1      40.266  23.738  26.750  1.00  0.00    -0.458 OA
BRANCH  31  32
ATOM     32  C   UNL A   1      39.254  24.592  27.017  1.00  0.00     0.338 C 
ATOM     33  O   UNL A   1      38.106  24.538  26.606  1.00  0.00    -0.246 OA
BRANCH  32  34
ATOM     34  C   UNL A   1      39.727  25.804  27.682  1.00  0.00     0.060 A 
ATOM     35  C   UNL A   1      39.329  25.986  29.010  1.00  0.00     0.016 A 
ATOM     36  C   UNL A   1      40.228  26.858  26.907  1.00  0.00     0.016 A 
ATOM     37  C   UNL A   1      39.336  27.261  29.539  1.00  0.00     0.010 A 
ATOM     38  C   UNL A   1      40.214  28.141  27.430  1.00  0.00     0.010 A 
ATOM     39  C   UNL A   1      39.750  28.335  28.737  1.00  0.00    -0.014 A 
BRANCH  39  40
ATOM     40  C   UNL A   1      39.948  29.624  29.419  1.00  0.00     0.031 A 
ATOM     41  C   UNL A   1      38.689  30.500  29.199  1.00  0.00     0.074 A 
ATOM     42  C   UNL A   1      41.168  29.831  30.014  1.00  0.00     0.049 A 
ATOM     43  N   UNL A   1      38.565  31.789  29.192  1.00  0.00    -0.248 NA
ATOM     44  C   UNL A   1      37.379  29.854  28.873  1.00  0.00     0.031 C 
ATOM     45  C   UNL A   1      42.233  28.808  30.165  1.00  0.00     0.029 A 
ATOM     46  N   UNL A   1      41.780  30.924  30.604  1.00  0.00    -0.354 N 
ATOM     47  C   UNL A   1      37.186  32.090  29.100  1.00  0.00     0.074 A 
ATOM     48  C   UNL A   1      36.524  30.872  28.769  1.00  0.00     0.031 C 
ATOM     49  C   UNL A   1      43.358  29.339  30.703  1.00  0.00     0.029 A 
ATOM     50  C   UNL A   1      43.149  30.749  30.978  1.00  0.00     0.049 A 
ATOM     51  H   UNL A   1      41.301  31.770  30.757  1.00  0.00     0.167 HD
ATOM     52  C   UNL A   1      36.676  33.301  29.474  1.00  0.00     0.037 A 
ATOM     53  C   UNL A   1      44.046  31.687  31.437  1.00  0.00     0.037 A 
ATOM     54  C   UNL A   1      37.748  34.169  29.817  1.00  0.00     0.049 A 
ATOM     55  C   UNL A   1      43.217  32.865  31.692  1.00  0.00     0.074 A 
ATOM     56  C   UNL A   1      38.711  34.760  29.043  1.00  0.00     0.029 A 
ATOM     57  N   UNL A   1      38.155  34.145  31.128  1.00  0.00    -0.354 N 
ATOM     58  N   UNL A   1      42.413  32.982  32.705  1.00  0.00    -0.248 NA
ATOM     59  C   UNL A   1      43.224  33.960  30.716  1.00  0.00     0.031 C 
ATOM     60  C   UNL A   1      39.869  34.598  29.824  1.00  0.00     0.029 A 
ATOM     61  C   UNL A   1      39.522  34.221  31.127  1.00  0.00     0.049 A 
ATOM     62  H   UNL A   1      37.573  34.084  31.920  1.00  0.00     0.167 HD
ATOM     63  C   UNL A   1      41.578  33.981  32.275  1.00  0.00     0.074 A 
ATOM     64  C   UNL A   1      42.310  34.742  31.284  1.00  0.00     0.031 C 
ATOM     65  C   UNL A   1      40.239  33.761  32.287  1.00  0.00     0.037 A 
BRANCH  52  66
ATOM     66  C   UNL A   1      35.293  33.755  29.848  1.00  0.00     0.064 A 
ATOM     67  C   UNL A   1      34.603  34.583  28.924  1.00  0.00     0.173 A 
ATOM     68  C   UNL A   1      34.814  33.762  31.163  1.00  0.00     0.173 A 
ATOM     69  F   UNL A   1      34.947  34.603  27.627  1.00  0.00    -0.203 F 
ATOM     70  C   UNL A   1      33.626  35.487  29.332  1.00  0.00     0.198 A 
ATOM     71  C   UNL A   1      33.792  34.631  31.555  1.00  0.00     0.198 A 
ATOM     72  F   UNL A   1      35.386  33.018  32.116  1.00  0.00    -0.203 F 
ATOM     73  F   UNL A   1      33.128  36.371  28.456  1.00  0.00    -0.200 F 
ATOM     74  C   UNL A   1      33.237  35.526  30.655  1.00  0.00     0.200 A 
ATOM     75  F   UNL A   1      33.407  34.660  32.839  1.00  0.00    -0.200 F 
ATOM     76  F   UNL A   1      32.358  36.447  31.070  1.00  0.00    -0.200 F 
ENDBRANCH  52  66
BRANCH  53  77
ATOM     77  C   UNL A   1      45.530  31.893  31.718  1.00  0.00     0.064 A 
ATOM     78  C   UNL A   1      46.113  32.215  32.948  1.00  0.00     0.173 A 
ATOM     79  C   UNL A   1      46.488  31.665  30.677  1.00  0.00     0.173 A 
ATOM     80  F   UNL A   1      45.356  32.580  33.988  1.00  0.00    -0.203 F 
ATOM     81  C   UNL A   1      47.515  32.187  33.140  1.00  0.00     0.198 A 
ATOM     82  C   UNL A   1      47.864  31.570  30.880  1.00  0.00     0.198 A 
ATOM     83  F   UNL A   1      46.126  31.524  29.395  1.00  0.00    -0.203 F 
ATOM     84  F   UNL A   1      48.031  32.508  34.335  1.00  0.00    -0.200 F 
ATOM     85  C   UNL A   1      48.382  31.815  32.123  1.00  0.00     0.200 A 
ATOM     86  F   UNL A   1      48.665  31.223  29.860  1.00  0.00    -0.200 F 
ATOM     87  F   UNL A   1      49.701  31.710  32.333  1.00  0.00    -0.200 F 
ENDBRANCH  53  77
BRANCH  65  88
ATOM     88  C   UNL A   1      39.780  32.736  33.311  1.00  0.00     0.064 A 
ATOM     89  C   UNL A   1      40.040  32.957  34.675  1.00  0.00     0.173 A 
ATOM     90  C   UNL A   1      39.207  31.492  32.995  1.00  0.00     0.173 A 
ATOM     91  F   UNL A   1      40.556  34.130  35.073  1.00  0.00    -0.203 F 
ATOM     92  C   UNL A   1      39.775  31.987  35.647  1.00  0.00     0.198 A 
ATOM     93  C   UNL A   1      38.943  30.517  33.963  1.00  0.00     0.198 A 
ATOM     94  F   UNL A   1      38.877  31.195  31.740  1.00  0.00    -0.203 F 
ATOM     95  F   UNL A   1      40.041  32.245  36.935  1.00  0.00    -0.200 F 
ATOM     96  C   UNL A   1      39.234  30.764  35.291  1.00  0.00     0.200 A 
ATOM     97  F   UNL A   1      38.398  29.343  33.606  1.00  0.00    -0.200 F 
ATOM     98  F   UNL A   1      38.971  29.839  36.225  1.00  0.00    -0.200 F 
ENDBRANCH  65  88
ENDBRANCH  39  40
ENDBRANCH  32  34
ENDBRANCH  31  32
ENDBRANCH  30  31
ENDBRANCH   1  30
TORSDOF 16
ENDMDL
MODEL 2
REMARK VINA RESULT:     -12.4      2.560      7.836
REMARK SMILES C=CCN1C(=O)/C(=C\c2cccn2-c2ccc(C(=O)OCCOC(=O)c3ccc(-c4c5nc(c(-c6c(F)c(F)c(F)c(F)c6F)c6ccc([nH]6)c(-c6c(F)c(F)c(F)c(F)c6F)c6nc(c(-c7c(F)c(F)c(F)c(F)c7F)c7ccc4[nH]7)C=C6)C=C5)cc3)cc2)C(O)=NC1=S
REMARK SMILES IDX 21 1 20 2 18 3 19 4 17 5 14 6 15 7 90 8 16 9 89 10 13 11
REMARK SMILES IDX 9 12 10 13 11 14 12 15 8 16 4 17 5 18 94 19 6 20 7 21 93 22
REMARK SMILES IDX 95 23 91 24 3 25 2 26 1 27 92 28 22 30 23 31 24 32 25 33
REMARK SMILES IDX 26 34 27 35 88 36 28 37 87 38 29 39 30 40 31 41 81 42 32 43
REMARK SMILES IDX 86 44 80 45 82 46 33 47 85 48 79 49 78 50 34 52 66 53 46 54
REMARK SMILES IDX 65 55 47 56 50 57 64 58 83 59 48 60 49 61 63 63 84 64 51 65
REMARK SMILES IDX 35 66 36 67 44 68 37 69 38 70 42 71 45 72 39 73 40 74 43 75
REMARK SMILES IDX 41 76 67 77 68 78 76 79 69 80 70 81 74 82 77 83 71 84 72 85
REMARK SMILES IDX 75 86 73 87 52 88 53 89 61 90 54 91 55 92 59 93 62 94 56 95
REMARK SMILES IDX 57 96 60 97 58 98
REMARK H PARENT 92 29 82 51 50 62
REMARK Flexibility Score: inf
ROOT
ATOM      1  C   UNL A   1      39.897  21.676  26.122  1.00  0.00     0.275 C 
ENDROOT
BRANCH   1   2
ATOM      2  O   UNL A   1      39.266  22.659  26.961  1.00  0.00    -0.458 OA
BRANCH   2   3
ATOM      3  C   UNL A   1      38.730  23.718  26.306  1.00  0.00     0.338 C 
ATOM      4  O   UNL A   1      39.246  24.824  26.185  1.00  0.00    -0.246 OA
BRANCH   3   5
ATOM      5  C   UNL A   1      37.456  23.358  25.632  1.00  0.00     0.060 A 
ATOM      6  C   UNL A   1      35.009  22.582  24.520  1.00  0.00     0.046 A 
ATOM      7  C   UNL A   1      35.058  23.016  25.848  1.00  0.00     0.027 A 
ATOM      8  C   UNL A   1      36.163  22.619  23.726  1.00  0.00     0.027 A 
ATOM      9  C   UNL A   1      36.284  23.378  26.405  1.00  0.00     0.018 A 
ATOM     10  C   UNL A   1      37.386  23.017  24.278  1.00  0.00     0.018 A 
BRANCH   6  11
ATOM     11  N   UNL A   1      33.788  22.057  24.013  1.00  0.00    -0.317 N 
ATOM     12  C   UNL A   1      32.925  22.650  23.092  1.00  0.00     0.047 A 
ATOM     13  C   UNL A   1      31.903  21.754  22.828  1.00  0.00     0.028 A 
ATOM     14  C   UNL A   1      32.132  20.594  23.597  1.00  0.00     0.020 A 
ATOM     15  C   UNL A   1      33.308  20.789  24.284  1.00  0.00     0.092 A 
BRANCH  12  16
ATOM     16  C   UNL A   1      33.211  23.910  22.499  1.00  0.00     0.046 C 
ATOM     17  N   UNL A   1      31.473  26.417  24.556  1.00  0.00    -0.279 N 
ATOM     18  C   UNL A   1      32.119  25.203  24.334  1.00  0.00     0.265 C 
ATOM     19  C   UNL A   1      31.659  27.547  23.745  1.00  0.00     0.206 C 
ATOM     20  O   UNL A   1      32.143  24.301  25.170  1.00  0.00    -0.268 OA
ATOM     21  C   UNL A   1      32.835  25.088  23.034  1.00  0.00     0.104 C 
ATOM     22  N   UNL A   1      32.548  27.480  22.701  1.00  0.00    -0.184 NA
ATOM     23  S   UNL A   1      30.862  29.026  23.985  1.00  0.00    -0.038 S 
ATOM     24  C   UNL A   1      33.084  26.367  22.369  1.00  0.00     0.226 C 
BRANCH  17  25
ATOM     25  C   UNL A   1      30.617  26.439  25.747  1.00  0.00     0.155 C 
BRANCH  25  26
ATOM     26  C   UNL A   1      31.446  26.771  26.958  1.00  0.00    -0.013 C 
ATOM     27  C   UNL A   1      31.408  27.944  27.603  1.00  0.00     0.006 C 
ENDBRANCH  25  26
ENDBRANCH  17  25
BRANCH  24  28
ATOM     28  O   UNL A   1      33.963  26.406  21.353  1.00  0.00    -0.493 OA
ATOM     29  H   UNL A   1      34.784  26.844  21.459  1.00  0.00     0.295 HD
ENDBRANCH  24  28
ENDBRANCH  12  16
ENDBRANCH   6  11
ENDBRANCH   3   5
ENDBRANCH   2   3
ENDBRANCH   1   2
BRANCH   1  30
ATOM     30  C   UNL A   1      41.424  21.747  26.167  1.00  0.00     0.275 C 
BRANCH  30  31
ATOM     31  O   UNL A   1      41.981  22.985  25.709  1.00  0.00    -0.458 OA
BRANCH  31  32
ATOM     32  C   UNL A   1      43.155  23.287  26.306  1.00  0.00     0.338 C 
ATOM     33  O   UNL A   1      44.189  22.639  26.282  1.00  0.00    -0.246 OA
BRANCH  32  34
ATOM     34  C   UNL A   1      43.016  24.393  27.250  1.00  0.00     0.060 A 
ATOM     35  C   UNL A   1      42.063  24.238  28.261  1.00  0.00     0.016 A 
ATOM     36  C   UNL A   1      43.547  25.646  26.918  1.00  0.00     0.016 A 
ATOM     37  C   UNL A   1      41.559  25.363  28.881  1.00  0.00     0.010 A 
ATOM     38  C   UNL A   1      43.026  26.778  27.524  1.00  0.00     0.010 A 
ATOM     39  C   UNL A   1      42.021  26.629  28.488  1.00  0.00    -0.014 A 
BRANCH  39  40
ATOM     40  C   UNL A   1      41.617  27.766  29.331  1.00  0.00     0.031 A 
ATOM     41  C   UNL A   1      42.417  27.709  30.656  1.00  0.00     0.074 A 
ATOM     42  C   UNL A   1      40.611  28.568  28.852  1.00  0.00     0.049 A 
ATOM     43  N   UNL A   1      42.115  28.168  31.829  1.00  0.00    -0.248 NA
ATOM     44  C   UNL A   1      43.720  26.974  30.710  1.00  0.00     0.031 C 
ATOM     45  C   UNL A   1      40.015  28.478  27.495  1.00  0.00     0.029 A 
ATOM     46  N   UNL A   1      39.871  29.608  29.386  1.00  0.00    -0.354 N 
ATOM     47  C   UNL A   1      43.243  27.994  32.665  1.00  0.00     0.074 A 
ATOM     48  C   UNL A   1      44.140  27.136  31.965  1.00  0.00     0.031 C 
ATOM     49  C   UNL A   1      38.975  29.336  27.353  1.00  0.00     0.029 A 
ATOM     50  C   UNL A   1      38.790  30.087  28.581  1.00  0.00     0.049 A 
ATOM     51  H   UNL A   1      40.077  29.996  30.268  1.00  0.00     0.167 HD
ATOM     52  C   UNL A   1      43.421  28.716  33.810  1.00  0.00     0.037 A 
ATOM     53  C   UNL A   1      37.804  30.992  28.906  1.00  0.00     0.037 A 
ATOM     54  C   UNL A   1      42.267  29.514  34.040  1.00  0.00     0.049 A 
ATOM     55  C   UNL A   1      38.250  31.545  30.185  1.00  0.00     0.074 A 
ATOM     56  C   UNL A   1      40.991  29.170  34.399  1.00  0.00     0.029 A 
ATOM     57  N   UNL A   1      42.270  30.764  33.472  1.00  0.00    -0.354 N 
ATOM     58  N   UNL A   1      39.221  32.397  30.309  1.00  0.00    -0.248 NA
ATOM     59  C   UNL A   1      37.622  31.065  31.421  1.00  0.00     0.031 C 
ATOM     60  C   UNL A   1      40.211  29.994  33.569  1.00  0.00     0.029 A 
ATOM     61  C   UNL A   1      41.007  30.993  32.997  1.00  0.00     0.049 A 
ATOM     62  H   UNL A   1      43.036  31.380  33.417  1.00  0.00     0.167 HD
ATOM     63  C   UNL A   1      39.539  32.256  31.635  1.00  0.00     0.074 A 
ATOM     64  C   UNL A   1      38.358  31.743  32.297  1.00  0.00     0.031 C 
ATOM     65  C   UNL A   1      40.827  31.987  31.971  1.00  0.00     0.037 A 
BRANCH  52  66
ATOM     66  C   UNL A   1      44.633  29.024  34.644  1.00  0.00     0.064 A 
ATOM     67  C   UNL A   1      44.537  28.810  36.044  1.00  0.00     0.173 A 
ATOM     68  C   UNL A   1      45.669  29.862  34.217  1.00  0.00     0.173 A 
ATOM     69  F   UNL A   1      43.614  27.978  36.552  1.00  0.00    -0.203 F 
ATOM     70  C   UNL A   1      45.307  29.529  36.955  1.00  0.00     0.198 A 
ATOM     71  C   UNL A   1      46.478  30.538  35.135  1.00  0.00     0.198 A 
ATOM     72  F   UNL A   1      45.855  30.133  32.920  1.00  0.00    -0.203 F 
ATOM     73  F   UNL A   1      45.060  29.423  38.268  1.00  0.00    -0.200 F 
ATOM     74  C   UNL A   1      46.263  30.411  36.497  1.00  0.00     0.200 A 
ATOM     75  F   UNL A   1      47.416  31.387  34.689  1.00  0.00    -0.200 F 
ATOM     76  F   UNL A   1      46.952  31.166  37.364  1.00  0.00    -0.200 F 
ENDBRANCH  52  66
BRANCH  53  77
ATOM     77  C   UNL A   1      36.472  31.545  28.414  1.00  0.00     0.064 A 
ATOM     78  C   UNL A   1      35.329  30.809  28.087  1.00  0.00     0.173 A 
ATOM     79  C   UNL A   1      36.277  32.963  28.336  1.00  0.00     0.173 A 
ATOM     80  F   UNL A   1      35.380  29.476  27.989  1.00  0.00    -0.203 F 
ATOM     81  C   UNL A   1      34.085  31.435  27.831  1.00  0.00     0.198 A 
ATOM     82  C   UNL A   1      35.040  33.579  28.152  1.00  0.00     0.198 A 
ATOM     83  F   UNL A   1      37.296  33.827  28.435  1.00  0.00    -0.203 F 
ATOM     84  F   UNL A   1      33.016  30.689  27.517  1.00  0.00    -0.200 F 
ATOM     85  C   UNL A   1      33.932  32.810  27.915  1.00  0.00     0.200 A 
ATOM     86  F   UNL A   1      34.945  34.915  28.226  1.00  0.00    -0.200 F 
ATOM     87  F   UNL A   1      32.736  33.392  27.753  1.00  0.00    -0.200 F 
ENDBRANCH  53  77
BRANCH  65  88
ATOM     88  C   UNL A   1      41.854  32.471  30.961  1.00  0.00     0.064 A 
ATOM     89  C   UNL A   1      41.930  33.841  30.656  1.00  0.00     0.173 A 
ATOM     90  C   UNL A   1      42.678  31.630  30.195  1.00  0.00     0.173 A 
ATOM     91  F   UNL A   1      41.203  34.722  31.360  1.00  0.00    -0.203 F 
ATOM     92  C   UNL A   1      42.750  34.328  29.633  1.00  0.00     0.198 A 
ATOM     93  C   UNL A   1      43.498  32.112  29.168  1.00  0.00     0.198 A 
ATOM     94  F   UNL A   1      42.720  30.321  30.431  1.00  0.00    -0.203 F 
ATOM     95  F   UNL A   1      42.788  35.644  29.378  1.00  0.00    -0.200 F 
ATOM     96  C   UNL A   1      43.528  33.463  28.883  1.00  0.00     0.200 A 
ATOM     97  F   UNL A   1      44.264  31.263  28.463  1.00  0.00    -0.200 F 
ATOM     98  F   UNL A   1      44.321  33.932  27.910  1.00  0.00    -0.200 F 
ENDBRANCH  65  88
ENDBRANCH  39  40
ENDBRANCH  32  34
ENDBRANCH  31  32
ENDBRANCH  30  31
ENDBRANCH   1  30
TORSDOF 16
ENDMDL
MODEL 3
REMARK VINA RESULT:     -12.3      4.498      9.657
REMARK SMILES C=CCN1C(=O)/C(=C\c2cccn2-c2ccc(C(=O)OCCOC(=O)c3ccc(-c4c5nc(c(-c6c(F)c(F)c(F)c(F)c6F)c6ccc([nH]6)c(-c6c(F)c(F)c(F)c(F)c6F)c6nc(c(-c7c(F)c(F)c(F)c(F)c7F)c7ccc4[nH]7)C=C6)C=C5)cc3)cc2)C(O)=NC1=S
REMARK SMILES IDX 21 1 20 2 18 3 19 4 17 5 14 6 15 7 90 8 16 9 89 10 13 11
REMARK SMILES IDX 9 12 10 13 11 14 12 15 8 16 4 17 5 18 94 19 6 20 7 21 93 22
REMARK SMILES IDX 95 23 91 24 3 25 2 26 1 27 92 28 22 30 23 31 24 32 25 33
REMARK SMILES IDX 26 34 27 35 88 36 28 37 87 38 29 39 30 40 31 41 81 42 32 43
REMARK SMILES IDX 86 44 80 45 82 46 33 47 85 48 79 49 78 50 34 52 66 53 46 54
REMARK SMILES IDX 65 55 47 56 50 57 64 58 83 59 48 60 49 61 63 63 84 64 51 65
REMARK SMILES IDX 35 66 36 67 44 68 37 69 38 70 42 71 45 72 39 73 40 74 43 75
REMARK SMILES IDX 41 76 67 77 68 78 76 79 69 80 70 81 74 82 77 83 71 84 72 85
REMARK SMILES IDX 75 86 73 87 52 88 53 89 61 90 54 91 55 92 59 93 62 94 56 95
REMARK SMILES IDX 57 96 60 97 58 98
REMARK H PARENT 92 29 82 51 50 62
REMARK Flexibility Score: inf
ROOT
ATOM      1  C   UNL A   1      33.711  31.986  27.946  1.00  0.00     0.275 C 
ENDROOT
BRANCH   1   2
ATOM      2  O   UNL A   1      32.881  30.869  27.586  1.00  0.00    -0.458 OA
BRANCH   2   3
ATOM      3  C   UNL A   1      32.015  31.098  26.568  1.00  0.00     0.338 C 
ATOM      4  O   UNL A   1      31.259  32.059  26.471  1.00  0.00    -0.246 OA
BRANCH   3   5
ATOM      5  C   UNL A   1      32.158  30.088  25.489  1.00  0.00     0.060 A 
ATOM      6  C   UNL A   1      32.267  28.102  23.521  1.00  0.00     0.046 A 
ATOM      7  C   UNL A   1      31.046  28.719  23.813  1.00  0.00     0.027 A 
ATOM      8  C   UNL A   1      33.442  28.537  24.147  1.00  0.00     0.027 A 
ATOM      9  C   UNL A   1      30.993  29.691  24.813  1.00  0.00     0.018 A 
ATOM     10  C   UNL A   1      33.391  29.537  25.125  1.00  0.00     0.018 A 
BRANCH   6  11
ATOM     11  N   UNL A   1      32.281  26.999  22.623  1.00  0.00    -0.317 N 
ATOM     12  C   UNL A   1      31.766  25.721  22.836  1.00  0.00     0.047 A 
ATOM     13  C   UNL A   1      31.930  24.995  21.669  1.00  0.00     0.028 A 
ATOM     14  C   UNL A   1      32.557  25.830  20.721  1.00  0.00     0.020 A 
ATOM     15  C   UNL A   1      32.728  27.060  21.315  1.00  0.00     0.092 A 
BRANCH  12  16
ATOM     16  C   UNL A   1      31.100  25.374  24.043  1.00  0.00     0.046 C 
ATOM     17  N   UNL A   1      33.616  23.711  26.150  1.00  0.00    -0.279 N 
ATOM     18  C   UNL A   1      33.192  24.600  25.165  1.00  0.00     0.265 C 
ATOM     19  C   UNL A   1      32.783  23.243  27.178  1.00  0.00     0.206 C 
ATOM     20  O   UNL A   1      33.972  25.188  24.420  1.00  0.00    -0.268 OA
ATOM     21  C   UNL A   1      31.724  24.840  25.113  1.00  0.00     0.104 C 
ATOM     22  N   UNL A   1      31.493  23.707  27.252  1.00  0.00    -0.184 NA
ATOM     23  S   UNL A   1      33.276  22.142  28.371  1.00  0.00    -0.038 S 
ATOM     24  C   UNL A   1      31.002  24.429  26.318  1.00  0.00     0.226 C 
BRANCH  17  25
ATOM     25  C   UNL A   1      35.033  23.341  26.061  1.00  0.00     0.155 C 
BRANCH  25  26
ATOM     26  C   UNL A   1      35.156  21.930  25.553  1.00  0.00    -0.013 C 
ATOM     27  C   UNL A   1      34.729  21.518  24.351  1.00  0.00     0.006 C 
ENDBRANCH  25  26
ENDBRANCH  17  25
BRANCH  24  28
ATOM     28  O   UNL A   1      29.740  24.859  26.492  1.00  0.00    -0.493 OA
ATOM     29  H   UNL A   1      29.518  25.749  26.304  1.00  0.00     0.295 HD
ENDBRANCH  24  28
ENDBRANCH  12  16
ENDBRANCH   6  11
ENDBRANCH   3   5
ENDBRANCH   2   3
ENDBRANCH   1   2
BRANCH   1  30
ATOM     30  C   UNL A   1      34.964  31.572  28.721  1.00  0.00     0.275 C 
BRANCH  30  31
ATOM     31  O   UNL A   1      36.107  31.286  27.905  1.00  0.00    -0.458 OA
BRANCH  31  32
ATOM     32  C   UNL A   1      36.315  29.962  27.738  1.00  0.00     0.338 C 
ATOM     33  O   UNL A   1      35.489  29.110  27.450  1.00  0.00    -0.246 OA
BRANCH  32  34
ATOM     34  C   UNL A   1      37.641  29.558  28.198  1.00  0.00     0.060 A 
ATOM     35  C   UNL A   1      38.669  29.590  27.250  1.00  0.00     0.016 A 
ATOM     36  C   UNL A   1      37.762  28.846  29.398  1.00  0.00     0.016 A 
ATOM     37  C   UNL A   1      39.793  28.818  27.460  1.00  0.00     0.010 A 
ATOM     38  C   UNL A   1      38.880  28.053  29.599  1.00  0.00     0.010 A 
ATOM     39  C   UNL A   1      39.879  28.030  28.617  1.00  0.00    -0.014 A 
BRANCH  39  40
ATOM     40  C   UNL A   1      41.184  27.408  28.893  1.00  0.00     0.031 A 
ATOM     41  C   UNL A   1      41.163  25.953  28.363  1.00  0.00     0.074 A 
ATOM     42  C   UNL A   1      42.093  28.158  29.599  1.00  0.00     0.049 A 
ATOM     43  N   UNL A   1      41.839  24.918  28.748  1.00  0.00    -0.248 NA
ATOM     44  C   UNL A   1      40.198  25.566  27.285  1.00  0.00     0.031 C 
ATOM     45  C   UNL A   1      41.928  29.587  29.961  1.00  0.00     0.029 A 
ATOM     46  N   UNL A   1      43.327  27.892  30.167  1.00  0.00    -0.354 N 
ATOM     47  C   UNL A   1      41.566  23.863  27.846  1.00  0.00     0.074 A 
ATOM     48  C   UNL A   1      40.454  24.277  27.058  1.00  0.00     0.031 C 
ATOM     49  C   UNL A   1      42.946  30.021  30.744  1.00  0.00     0.029 A 
ATOM     50  C   UNL A   1      43.889  28.940  30.962  1.00  0.00     0.049 A 
ATOM     51  H   UNL A   1      43.790  27.034  30.032  1.00  0.00     0.167 HD
ATOM     52  C   UNL A   1      42.397  22.788  27.708  1.00  0.00     0.037 A 
ATOM     53  C   UNL A   1      45.011  28.912  31.761  1.00  0.00     0.037 A 
ATOM     54  C   UNL A   1      43.435  22.875  28.675  1.00  0.00     0.049 A 
ATOM     55  C   UNL A   1      45.644  27.637  31.426  1.00  0.00     0.074 A 
ATOM     56  C   UNL A   1      43.408  22.740  30.038  1.00  0.00     0.029 A 
ATOM     57  N   UNL A   1      44.563  23.560  28.298  1.00  0.00    -0.354 N 
ATOM     58  N   UNL A   1      46.293  27.416  30.324  1.00  0.00    -0.248 NA
ATOM     59  C   UNL A   1      45.484  26.505  32.345  1.00  0.00     0.031 C 
ATOM     60  C   UNL A   1      44.242  23.789  30.463  1.00  0.00     0.029 A 
ATOM     61  C   UNL A   1      44.968  24.296  29.378  1.00  0.00     0.049 A 
ATOM     62  H   UNL A   1      44.998  23.528  27.415  1.00  0.00     0.167 HD
ATOM     63  C   UNL A   1      46.286  26.046  30.275  1.00  0.00     0.074 A 
ATOM     64  C   UNL A   1      46.122  25.579  31.635  1.00  0.00     0.031 C 
ATOM     65  C   UNL A   1      45.818  25.437  29.156  1.00  0.00     0.037 A 
BRANCH  52  66
ATOM     66  C   UNL A   1      42.575  21.769  26.617  1.00  0.00     0.064 A 
ATOM     67  C   UNL A   1      42.098  20.455  26.862  1.00  0.00     0.173 A 
ATOM     68  C   UNL A   1      43.506  21.906  25.581  1.00  0.00     0.173 A 
ATOM     69  F   UNL A   1      41.160  20.226  27.795  1.00  0.00    -0.203 F 
ATOM     70  C   UNL A   1      42.653  19.341  26.239  1.00  0.00     0.198 A 
ATOM     71  C   UNL A   1      44.018  20.787  24.917  1.00  0.00     0.198 A 
ATOM     72  F   UNL A   1      44.021  23.098  25.260  1.00  0.00    -0.203 F 
ATOM     73  F   UNL A   1      42.294  18.110  26.629  1.00  0.00    -0.200 F 
ATOM     74  C   UNL A   1      43.631  19.508  25.281  1.00  0.00     0.200 A 
ATOM     75  F   UNL A   1      44.961  20.951  23.977  1.00  0.00    -0.200 F 
ATOM     76  F   UNL A   1      44.227  18.439  24.734  1.00  0.00    -0.200 F 
ENDBRANCH  52  66
BRANCH  53  77
ATOM     77  C   UNL A   1      45.741  29.713  32.833  1.00  0.00     0.064 A 
ATOM     78  C   UNL A   1      46.926  30.438  32.675  1.00  0.00     0.173 A 
ATOM     79  C   UNL A   1      45.162  29.846  34.138  1.00  0.00     0.173 A 
ATOM     80  F   UNL A   1      47.655  30.321  31.560  1.00  0.00    -0.203 F 
ATOM     81  C   UNL A   1      47.410  31.306  33.682  1.00  0.00     0.198 A 
ATOM     82  C   UNL A   1      45.599  30.750  35.104  1.00  0.00     0.198 A 
ATOM     83  F   UNL A   1      44.132  29.090  34.539  1.00  0.00    -0.203 F 
ATOM     84  F   UNL A   1      48.554  31.980  33.489  1.00  0.00    -0.200 F 
ATOM     85  C   UNL A   1      46.721  31.499  34.870  1.00  0.00     0.200 A 
ATOM     86  F   UNL A   1      44.908  30.890  36.246  1.00  0.00    -0.200 F 
ATOM     87  F   UNL A   1      47.139  32.384  35.786  1.00  0.00    -0.200 F 
ENDBRANCH  53  77
BRANCH  65  88
ATOM     88  C   UNL A   1      45.934  26.270  27.890  1.00  0.00     0.064 A 
ATOM     89  C   UNL A   1      47.200  26.713  27.469  1.00  0.00     0.173 A 
ATOM     90  C   UNL A   1      44.843  26.752  27.148  1.00  0.00     0.173 A 
ATOM     91  F   UNL A   1      48.302  26.278  28.099  1.00  0.00    -0.203 F 
ATOM     92  C   UNL A   1      47.357  27.602  26.401  1.00  0.00     0.198 A 
ATOM     93  C   UNL A   1      44.994  27.644  26.080  1.00  0.00     0.198 A 
ATOM     94  F   UNL A   1      43.602  26.361  27.431  1.00  0.00    -0.203 F 
ATOM     95  F   UNL A   1      48.585  27.997  26.037  1.00  0.00    -0.200 F 
ATOM     96  C   UNL A   1      46.253  28.073  25.711  1.00  0.00     0.200 A 
ATOM     97  F   UNL A   1      43.916  28.076  25.406  1.00  0.00    -0.200 F 
ATOM     98  F   UNL A   1      46.405  28.917  24.681  1.00  0.00    -0.200 F 
ENDBRANCH  65  88
ENDBRANCH  39  40
ENDBRANCH  32  34
ENDBRANCH  31  32
ENDBRANCH  30  31
ENDBRANCH   1  30
TORSDOF 16
ENDMDL
