MODEL 1
REMARK VINA RESULT:     -11.7      0.000      0.000
REMARK SMILES CCn1ccc([C@@H](C)NC(=O)c2cnn([C@H](C)C(=O)OCCOC(=O)c3ccc(-c4c5nc(c(-c6c(F)c(F)c(F)c(F)c6F)c6ccc([nH]6)c(-c6c(F)c(F)c(F)c(F)c6F)c6nc(c(-c7c(F)c(F)c(F)c(F)c7F)c7ccc4[nH]7)C=C6)C=C5)cc3)c2)n1
REMARK SMILES IDX 20 1 18 2 19 3 16 4 17 5 15 6 12 7 13 8 89 9 14 10 10 11
REMARK SMILES IDX 9 12 11 14 7 15 8 16 6 17 3 18 4 19 90 20 5 21 2 22 1 23
REMARK SMILES IDX 21 24 22 25 23 26 24 27 25 28 26 29 27 30 88 31 28 32 87 33
REMARK SMILES IDX 29 34 30 35 31 36 81 37 32 38 86 39 80 40 82 41 33 42 85 43
REMARK SMILES IDX 79 44 78 45 34 47 66 48 46 49 65 50 47 51 50 52 64 53 83 54
REMARK SMILES IDX 48 55 49 56 63 58 84 59 51 60 35 61 36 62 44 63 37 64 38 65
REMARK SMILES IDX 42 66 45 67 39 68 40 69 43 70 41 71 67 72 68 73 76 74 69 75
REMARK SMILES IDX 70 76 74 77 77 78 71 79 72 80 75 81 73 82 52 83 53 84 61 85
REMARK SMILES IDX 54 86 55 87 59 88 62 89 56 90 57 91 60 92 58 93
REMARK H PARENT 9 13 82 46 50 57
REMARK Flexibility Score: inf
ROOT
ATOM      1  O   UNL A   1      37.187  22.569  25.725  1.00  0.00    -0.460 OA
ENDROOT
BRANCH   1   2
ATOM      2  C   UNL A   1      36.265  21.610  25.408  1.00  0.00     0.330 C 
ATOM      3  O   UNL A   1      36.535  20.521  24.910  1.00  0.00    -0.250 OA
BRANCH   2   4
ATOM      4  C   UNL A   1      34.854  22.053  25.734  1.00  0.00     0.213 C 
ATOM      5  C   UNL A   1      34.712  22.714  27.108  1.00  0.00     0.046 C 
BRANCH   4   6
ATOM      6  N   UNL A   1      34.361  22.812  24.598  1.00  0.00    -0.258 N 
ATOM      7  C   UNL A   1      33.658  24.390  23.248  1.00  0.00     0.077 A 
ATOM      8  C   UNL A   1      33.266  23.108  22.817  1.00  0.00     0.149 A 
ATOM      9  C   UNL A   1      34.457  24.147  24.347  1.00  0.00     0.123 A 
ATOM     10  N   UNL A   1      33.658  22.150  23.652  1.00  0.00    -0.180 NA
BRANCH   7  11
ATOM     11  C   UNL A   1      33.327  25.687  22.719  1.00  0.00     0.254 C 
ATOM     12  N   UNL A   1      32.334  26.402  23.329  1.00  0.00    -0.344 N 
ATOM     13  H   UNL A   1      32.056  27.227  22.868  1.00  0.00     0.164 HD
ATOM     14  O   UNL A   1      33.937  26.184  21.768  1.00  0.00    -0.269 OA
BRANCH  12  15
ATOM     15  C   UNL A   1      31.631  26.102  24.576  1.00  0.00     0.130 C 
ATOM     16  C   UNL A   1      30.127  26.113  24.339  1.00  0.00     0.038 C 
BRANCH  15  17
ATOM     17  C   UNL A   1      32.070  27.070  25.639  1.00  0.00     0.084 A 
ATOM     18  N   UNL A   1      33.338  28.461  26.630  1.00  0.00    -0.273 N 
ATOM     19  C   UNL A   1      32.242  28.354  27.435  1.00  0.00     0.109 A 
ATOM     20  N   UNL A   1      33.252  27.694  25.527  1.00  0.00    -0.176 NA
ATOM     21  C   UNL A   1      31.399  27.455  26.823  1.00  0.00     0.047 A 
BRANCH  18  22
ATOM     22  C   UNL A   1      34.521  29.284  26.800  1.00  0.00     0.141 C 
ATOM     23  C   UNL A   1      34.293  30.649  27.428  1.00  0.00     0.029 C 
ENDBRANCH  18  22
ENDBRANCH  15  17
ENDBRANCH  12  15
ENDBRANCH   7  11
ENDBRANCH   4   6
ENDBRANCH   2   4
ENDBRANCH   1   2
BRANCH   1  24
ATOM     24  C   UNL A   1      38.516  22.101  26.016  1.00  0.00     0.274 C 
BRANCH  24  25
ATOM     25  C   UNL A   1      39.482  23.232  26.360  1.00  0.00     0.275 C 
BRANCH  25  26
ATOM     26  O   UNL A   1      39.265  23.736  27.678  1.00  0.00    -0.458 OA
BRANCH  26  27
ATOM     27  C   UNL A   1      40.171  24.645  28.082  1.00  0.00     0.338 C 
ATOM     28  O   UNL A   1      41.391  24.489  28.170  1.00  0.00    -0.246 OA
BRANCH  27  29
ATOM     29  C   UNL A   1      39.524  25.857  28.565  1.00  0.00     0.060 A 
ATOM     30  C   UNL A   1      39.452  26.941  27.679  1.00  0.00     0.016 A 
ATOM     31  C   UNL A   1      39.308  26.000  29.938  1.00  0.00     0.016 A 
ATOM     32  C   UNL A   1      39.359  28.213  28.198  1.00  0.00     0.010 A 
ATOM     33  C   UNL A   1      39.231  27.269  30.455  1.00  0.00     0.010 A 
ATOM     34  C   UNL A   1      39.339  28.359  29.586  1.00  0.00    -0.014 A 
BRANCH  34  35
ATOM     35  C   UNL A   1      39.421  29.696  30.138  1.00  0.00     0.031 A 
ATOM     36  C   UNL A   1      40.739  30.358  29.989  1.00  0.00     0.074 A 
ATOM     37  C   UNL A   1      38.303  30.324  30.556  1.00  0.00     0.049 A 
ATOM     38  N   UNL A   1      41.419  31.010  30.874  1.00  0.00    -0.248 NA
ATOM     39  C   UNL A   1      41.418  30.220  28.688  1.00  0.00     0.031 C 
ATOM     40  C   UNL A   1      36.921  29.840  30.444  1.00  0.00     0.029 A 
ATOM     41  N   UNL A   1      38.152  31.593  31.025  1.00  0.00    -0.354 N 
ATOM     42  C   UNL A   1      42.532  31.504  30.199  1.00  0.00     0.074 A 
ATOM     43  C   UNL A   1      42.548  30.888  28.901  1.00  0.00     0.031 C 
ATOM     44  C   UNL A   1      36.078  30.882  30.607  1.00  0.00     0.029 A 
ATOM     45  C   UNL A   1      36.853  32.068  30.930  1.00  0.00     0.049 A 
ATOM     46  H   UNL A   1      38.895  32.122  31.395  1.00  0.00     0.167 HD
ATOM     47  C   UNL A   1      43.236  32.567  30.666  1.00  0.00     0.037 A 
ATOM     48  C   UNL A   1      36.460  33.363  31.002  1.00  0.00     0.037 A 
ATOM     49  C   UNL A   1      43.068  32.742  32.081  1.00  0.00     0.049 A 
ATOM     50  C   UNL A   1      37.569  34.143  31.604  1.00  0.00     0.074 A 
ATOM     51  C   UNL A   1      43.321  31.954  33.187  1.00  0.00     0.029 A 
ATOM     52  N   UNL A   1      42.264  33.759  32.528  1.00  0.00    -0.354 N 
ATOM     53  N   UNL A   1      37.940  34.067  32.850  1.00  0.00    -0.248 NA
ATOM     54  C   UNL A   1      38.538  34.752  30.703  1.00  0.00     0.031 C 
ATOM     55  C   UNL A   1      42.291  32.270  34.118  1.00  0.00     0.029 A 
ATOM     56  C   UNL A   1      41.487  33.249  33.535  1.00  0.00     0.049 A 
ATOM     57  H   UNL A   1      42.248  34.683  32.187  1.00  0.00     0.167 HD
ATOM     58  C   UNL A   1      39.318  34.219  32.816  1.00  0.00     0.074 A 
ATOM     59  C   UNL A   1      39.611  34.760  31.496  1.00  0.00     0.031 C 
ATOM     60  C   UNL A   1      40.112  33.626  33.754  1.00  0.00     0.037 A 
BRANCH  47  61
ATOM     61  C   UNL A   1      43.788  33.638  29.764  1.00  0.00     0.064 A 
ATOM     62  C   UNL A   1      42.909  34.393  28.967  1.00  0.00     0.173 A 
ATOM     63  C   UNL A   1      45.160  33.746  29.436  1.00  0.00     0.173 A 
ATOM     64  F   UNL A   1      41.584  34.335  29.171  1.00  0.00    -0.203 F 
ATOM     65  C   UNL A   1      43.366  35.150  27.885  1.00  0.00     0.198 A 
ATOM     66  C   UNL A   1      45.615  34.548  28.393  1.00  0.00     0.198 A 
ATOM     67  F   UNL A   1      46.096  32.998  30.033  1.00  0.00    -0.203 F 
ATOM     68  F   UNL A   1      42.482  35.752  27.078  1.00  0.00    -0.200 F 
ATOM     69  C   UNL A   1      44.716  35.224  27.597  1.00  0.00     0.200 A 
ATOM     70  F   UNL A   1      46.927  34.589  28.117  1.00  0.00    -0.200 F 
ATOM     71  F   UNL A   1      45.149  35.901  26.526  1.00  0.00    -0.200 F 
ENDBRANCH  47  61
BRANCH  48  72
ATOM     72  C   UNL A   1      35.311  34.011  30.329  1.00  0.00     0.064 A 
ATOM     73  C   UNL A   1      34.316  34.665  31.073  1.00  0.00     0.173 A 
ATOM     74  C   UNL A   1      35.288  34.219  28.936  1.00  0.00     0.173 A 
ATOM     75  F   UNL A   1      34.296  34.561  32.411  1.00  0.00    -0.203 F 
ATOM     76  C   UNL A   1      33.365  35.489  30.461  1.00  0.00     0.198 A 
ATOM     77  C   UNL A   1      34.328  35.027  28.325  1.00  0.00     0.198 A 
ATOM     78  F   UNL A   1      36.250  33.720  28.146  1.00  0.00    -0.203 F 
ATOM     79  F   UNL A   1      32.469  36.146  31.212  1.00  0.00    -0.200 F 
ATOM     80  C   UNL A   1      33.375  35.672  29.088  1.00  0.00     0.200 A 
ATOM     81  F   UNL A   1      34.371  35.221  26.999  1.00  0.00    -0.200 F 
ATOM     82  F   UNL A   1      32.496  36.500  28.508  1.00  0.00    -0.200 F 
ENDBRANCH  48  72
BRANCH  60  83
ATOM     83  C   UNL A   1      39.446  33.085  34.986  1.00  0.00     0.064 A 
ATOM     84  C   UNL A   1      39.117  33.867  36.107  1.00  0.00     0.173 A 
ATOM     85  C   UNL A   1      39.012  31.752  34.979  1.00  0.00     0.173 A 
ATOM     86  F   UNL A   1      39.397  35.177  36.140  1.00  0.00    -0.203 F 
ATOM     87  C   UNL A   1      38.438  33.322  37.194  1.00  0.00     0.198 A 
ATOM     88  C   UNL A   1      38.299  31.220  36.050  1.00  0.00     0.198 A 
ATOM     89  F   UNL A   1      39.242  30.975  33.909  1.00  0.00    -0.203 F 
ATOM     90  F   UNL A   1      38.155  34.084  38.262  1.00  0.00    -0.200 F 
ATOM     91  C   UNL A   1      38.026  32.000  37.162  1.00  0.00     0.200 A 
ATOM     92  F   UNL A   1      37.855  29.957  35.993  1.00  0.00    -0.200 F 
ATOM     93  F   UNL A   1      37.340  31.484  38.192  1.00  0.00    -0.200 F 
ENDBRANCH  60  83
ENDBRANCH  34  35
ENDBRANCH  27  29
ENDBRANCH  26  27
ENDBRANCH  25  26
ENDBRANCH  24  25
ENDBRANCH   1  24
TORSDOF 16
ENDMDL
MODEL 2
REMARK VINA RESULT:     -11.7      5.949     10.953
REMARK SMILES CCn1ccc([C@@H](C)NC(=O)c2cnn([C@H](C)C(=O)OCCOC(=O)c3ccc(-c4c5nc(c(-c6c(F)c(F)c(F)c(F)c6F)c6ccc([nH]6)c(-c6c(F)c(F)c(F)c(F)c6F)c6nc(c(-c7c(F)c(F)c(F)c(F)c7F)c7ccc4[nH]7)C=C6)C=C5)cc3)c2)n1
REMARK SMILES IDX 20 1 18 2 19 3 16 4 17 5 15 6 12 7 13 8 89 9 14 10 10 11
REMARK SMILES IDX 9 12 11 14 7 15 8 16 6 17 3 18 4 19 90 20 5 21 2 22 1 23
REMARK SMILES IDX 21 24 22 25 23 26 24 27 25 28 26 29 27 30 88 31 28 32 87 33
REMARK SMILES IDX 29 34 30 35 31 36 81 37 32 38 86 39 80 40 82 41 33 42 85 43
REMARK SMILES IDX 79 44 78 45 34 47 66 48 46 49 65 50 47 51 50 52 64 53 83 54
REMARK SMILES IDX 48 55 49 56 63 58 84 59 51 60 35 61 36 62 44 63 37 64 38 65
REMARK SMILES IDX 42 66 45 67 39 68 40 69 43 70 41 71 67 72 68 73 76 74 69 75
REMARK SMILES IDX 70 76 74 77 77 78 71 79 72 80 75 81 73 82 52 83 53 84 61 85
REMARK SMILES IDX 54 86 55 87 59 88 62 89 56 90 57 91 60 92 58 93
REMARK H PARENT 9 13 82 46 50 57
REMARK Flexibility Score: inf
ROOT
ATOM      1  O   UNL A   1      33.964  29.690  25.693  1.00  0.00    -0.460 OA
ENDROOT
BRANCH   1   2
ATOM      2  C   UNL A   1      32.617  29.552  25.499  1.00  0.00     0.330 C 
ATOM      3  O   UNL A   1      31.755  30.113  26.170  1.00  0.00    -0.250 OA
BRANCH   2   4
ATOM      4  C   UNL A   1      32.304  28.612  24.354  1.00  0.00     0.213 C 
ATOM      5  C   UNL A   1      33.463  28.423  23.371  1.00  0.00     0.046 C 
BRANCH   4   6
ATOM      6  N   UNL A   1      31.738  27.403  24.926  1.00  0.00    -0.258 N 
ATOM      7  C   UNL A   1      31.420  25.399  25.755  1.00  0.00     0.077 A 
ATOM      8  C   UNL A   1      30.226  25.970  25.271  1.00  0.00     0.149 A 
ATOM      9  C   UNL A   1      32.356  26.402  25.610  1.00  0.00     0.123 A 
ATOM     10  N   UNL A   1      30.420  27.170  24.733  1.00  0.00    -0.180 NA
BRANCH   7  11
ATOM     11  C   UNL A   1      31.671  24.081  26.277  1.00  0.00     0.254 C 
ATOM     12  N   UNL A   1      32.197  23.140  25.437  1.00  0.00    -0.344 N 
ATOM     13  H   UNL A   1      32.243  22.224  25.796  1.00  0.00     0.164 HD
ATOM     14  O   UNL A   1      31.468  23.794  27.460  1.00  0.00    -0.269 OA
BRANCH  12  15
ATOM     15  C   UNL A   1      32.701  23.316  24.076  1.00  0.00     0.130 C 
ATOM     16  C   UNL A   1      32.008  22.339  23.135  1.00  0.00     0.038 C 
BRANCH  15  17
ATOM     17  C   UNL A   1      34.198  23.175  24.078  1.00  0.00     0.084 A 
ATOM     18  N   UNL A   1      36.150  22.937  24.890  1.00  0.00    -0.273 N 
ATOM     19  C   UNL A   1      36.342  23.030  23.542  1.00  0.00     0.109 A 
ATOM     20  N   UNL A   1      34.852  23.016  25.238  1.00  0.00    -0.176 NA
ATOM     21  C   UNL A   1      35.095  23.189  22.984  1.00  0.00     0.047 A 
BRANCH  18  22
ATOM     22  C   UNL A   1      37.130  22.748  25.943  1.00  0.00     0.141 C 
ATOM     23  C   UNL A   1      37.988  23.959  26.272  1.00  0.00     0.029 C 
ENDBRANCH  18  22
ENDBRANCH  15  17
ENDBRANCH  12  15
ENDBRANCH   7  11
ENDBRANCH   4   6
ENDBRANCH   2   4
ENDBRANCH   1   2
BRANCH   1  24
ATOM     24  C   UNL A   1      34.465  29.288  26.980  1.00  0.00     0.274 C 
BRANCH  24  25
ATOM     25  C   UNL A   1      34.911  30.469  27.839  1.00  0.00     0.275 C 
BRANCH  25  26
ATOM     26  O   UNL A   1      36.267  30.835  27.580  1.00  0.00    -0.458 OA
BRANCH  26  27
ATOM     27  C   UNL A   1      37.129  30.500  28.556  1.00  0.00     0.338 C 
ATOM     28  O   UNL A   1      37.195  30.985  29.689  1.00  0.00    -0.246 OA
BRANCH  27  29
ATOM     29  C   UNL A   1      38.126  29.553  28.078  1.00  0.00     0.060 A 
ATOM     30  C   UNL A   1      38.026  28.232  28.535  1.00  0.00     0.016 A 
ATOM     31  C   UNL A   1      39.286  30.048  27.475  1.00  0.00     0.016 A 
ATOM     32  C   UNL A   1      39.163  27.456  28.569  1.00  0.00     0.010 A 
ATOM     33  C   UNL A   1      40.422  29.279  27.524  1.00  0.00     0.010 A 
ATOM     34  C   UNL A   1      40.363  28.027  28.143  1.00  0.00    -0.014 A 
BRANCH  34  35
ATOM     35  C   UNL A   1      41.589  27.281  28.342  1.00  0.00     0.031 A 
ATOM     36  C   UNL A   1      42.254  27.502  29.649  1.00  0.00     0.074 A 
ATOM     37  C   UNL A   1      41.944  26.318  27.468  1.00  0.00     0.049 A 
ATOM     38  N   UNL A   1      43.505  27.723  29.890  1.00  0.00    -0.248 NA
ATOM     39  C   UNL A   1      41.393  27.542  30.844  1.00  0.00     0.031 C 
ATOM     40  C   UNL A   1      41.168  25.836  26.317  1.00  0.00     0.029 A 
ATOM     41  N   UNL A   1      42.998  25.458  27.514  1.00  0.00    -0.354 N 
ATOM     42  C   UNL A   1      43.616  27.766  31.277  1.00  0.00     0.074 A 
ATOM     43  C   UNL A   1      42.280  27.776  31.808  1.00  0.00     0.031 C 
ATOM     44  C   UNL A   1      41.653  24.637  25.932  1.00  0.00     0.029 A 
ATOM     45  C   UNL A   1      42.822  24.323  26.736  1.00  0.00     0.049 A 
ATOM     46  H   UNL A   1      43.807  25.625  28.048  1.00  0.00     0.167 HD
ATOM     47  C   UNL A   1      44.799  27.552  31.906  1.00  0.00     0.037 A 
ATOM     48  C   UNL A   1      43.521  23.166  26.827  1.00  0.00     0.037 A 
ATOM     49  C   UNL A   1      45.919  27.819  31.048  1.00  0.00     0.049 A 
ATOM     50  C   UNL A   1      44.760  23.441  27.595  1.00  0.00     0.074 A 
ATOM     51  C   UNL A   1      46.364  28.933  30.362  1.00  0.00     0.029 A 
ATOM     52  N   UNL A   1      46.616  26.760  30.525  1.00  0.00    -0.354 N 
ATOM     53  N   UNL A   1      45.764  24.146  27.158  1.00  0.00    -0.248 NA
ATOM     54  C   UNL A   1      44.725  23.237  29.037  1.00  0.00     0.031 C 
ATOM     55  C   UNL A   1      46.947  28.429  29.165  1.00  0.00     0.029 A 
ATOM     56  C   UNL A   1      46.846  27.038  29.204  1.00  0.00     0.049 A 
ATOM     57  H   UNL A   1      46.897  25.950  31.010  1.00  0.00     0.167 HD
ATOM     58  C   UNL A   1      46.234  24.819  28.276  1.00  0.00     0.074 A 
ATOM     59  C   UNL A   1      45.643  24.129  29.415  1.00  0.00     0.031 C 
ATOM     60  C   UNL A   1      46.827  26.042  28.160  1.00  0.00     0.037 A 
BRANCH  47  61
ATOM     61  C   UNL A   1      44.911  26.766  33.185  1.00  0.00     0.064 A 
ATOM     62  C   UNL A   1      44.462  25.433  33.221  1.00  0.00     0.173 A 
ATOM     63  C   UNL A   1      45.167  27.361  34.442  1.00  0.00     0.173 A 
ATOM     64  F   UNL A   1      44.156  24.787  32.086  1.00  0.00    -0.203 F 
ATOM     65  C   UNL A   1      44.227  24.770  34.428  1.00  0.00     0.198 A 
ATOM     66  C   UNL A   1      44.988  26.676  35.641  1.00  0.00     0.198 A 
ATOM     67  F   UNL A   1      45.489  28.654  34.565  1.00  0.00    -0.203 F 
ATOM     68  F   UNL A   1      43.680  23.548  34.417  1.00  0.00    -0.200 F 
ATOM     69  C   UNL A   1      44.487  25.392  35.635  1.00  0.00     0.200 A 
ATOM     70  F   UNL A   1      45.226  27.304  36.801  1.00  0.00    -0.200 F 
ATOM     71  F   UNL A   1      44.207  24.779  36.792  1.00  0.00    -0.200 F 
ENDBRANCH  47  61
BRANCH  48  72
ATOM     72  C   UNL A   1      43.056  21.789  26.543  1.00  0.00     0.064 A 
ATOM     73  C   UNL A   1      43.711  20.989  25.593  1.00  0.00     0.173 A 
ATOM     74  C   UNL A   1      42.118  21.137  27.368  1.00  0.00     0.173 A 
ATOM     75  F   UNL A   1      44.655  21.519  24.801  1.00  0.00    -0.203 F 
ATOM     76  C   UNL A   1      43.452  19.619  25.485  1.00  0.00     0.198 A 
ATOM     77  C   UNL A   1      41.848  19.774  27.247  1.00  0.00     0.198 A 
ATOM     78  F   UNL A   1      41.509  21.788  28.370  1.00  0.00    -0.203 F 
ATOM     79  F   UNL A   1      44.143  18.876  24.608  1.00  0.00    -0.200 F 
ATOM     80  C   UNL A   1      42.524  19.012  26.315  1.00  0.00     0.200 A 
ATOM     81  F   UNL A   1      40.971  19.195  28.081  1.00  0.00    -0.200 F 
ATOM     82  F   UNL A   1      42.313  17.691  26.246  1.00  0.00    -0.200 F 
ENDBRANCH  48  72
BRANCH  60  83
ATOM     83  C   UNL A   1      47.241  26.487  26.787  1.00  0.00     0.064 A 
ATOM     84  C   UNL A   1      48.479  26.171  26.202  1.00  0.00     0.173 A 
ATOM     85  C   UNL A   1      46.299  27.149  25.988  1.00  0.00     0.173 A 
ATOM     86  F   UNL A   1      49.388  25.441  26.862  1.00  0.00    -0.203 F 
ATOM     87  C   UNL A   1      48.780  26.555  24.897  1.00  0.00     0.198 A 
ATOM     88  C   UNL A   1      46.588  27.497  24.671  1.00  0.00     0.198 A 
ATOM     89  F   UNL A   1      45.077  27.420  26.473  1.00  0.00    -0.203 F 
ATOM     90  F   UNL A   1      49.978  26.261  24.368  1.00  0.00    -0.200 F 
ATOM     91  C   UNL A   1      47.832  27.214  24.132  1.00  0.00     0.200 A 
ATOM     92  F   UNL A   1      45.649  28.086  23.917  1.00  0.00    -0.200 F 
ATOM     93  F   UNL A   1      48.107  27.550  22.864  1.00  0.00    -0.200 F 
ENDBRANCH  60  83
ENDBRANCH  34  35
ENDBRANCH  27  29
ENDBRANCH  26  27
ENDBRANCH  25  26
ENDBRANCH  24  25
ENDBRANCH   1  24
TORSDOF 16
ENDMDL
MODEL 3
REMARK VINA RESULT:     -11.6      4.048      9.166
REMARK SMILES CCn1ccc([C@@H](C)NC(=O)c2cnn([C@H](C)C(=O)OCCOC(=O)c3ccc(-c4c5nc(c(-c6c(F)c(F)c(F)c(F)c6F)c6ccc([nH]6)c(-c6c(F)c(F)c(F)c(F)c6F)c6nc(c(-c7c(F)c(F)c(F)c(F)c7F)c7ccc4[nH]7)C=C6)C=C5)cc3)c2)n1
REMARK SMILES IDX 20 1 18 2 19 3 16 4 17 5 15 6 12 7 13 8 89 9 14 10 10 11
REMARK SMILES IDX 9 12 11 14 7 15 8 16 6 17 3 18 4 19 90 20 5 21 2 22 1 23
REMARK SMILES IDX 21 24 22 25 23 26 24 27 25 28 26 29 27 30 88 31 28 32 87 33
REMARK SMILES IDX 29 34 30 35 31 36 81 37 32 38 86 39 80 40 82 41 33 42 85 43
REMARK SMILES IDX 79 44 78 45 34 47 66 48 46 49 65 50 47 51 50 52 64 53 83 54
REMARK SMILES IDX 48 55 49 56 63 58 84 59 51 60 35 61 36 62 44 63 37 64 38 65
REMARK SMILES IDX 42 66 45 67 39 68 40 69 43 70 41 71 67 72 68 73 76 74 69 75
REMARK SMILES IDX 70 76 74 77 77 78 71 79 72 80 75 81 73 82 52 83 53 84 61 85
REMARK SMILES IDX 54 86 55 87 59 88 62 89 56 90 57 91 60 92 58 93
REMARK H PARENT 9 13 82 46 50 57
REMARK Flexibility Score: inf
ROOT
ATOM      1  O   UNL A   1      37.477  21.099  24.966  1.00  0.00    -0.460 OA
ENDROOT
BRANCH   1   2
ATOM      2  C   UNL A   1      36.289  21.669  25.329  1.00  0.00     0.330 C 
ATOM      3  O   UNL A   1      35.493  21.177  26.124  1.00  0.00    -0.250 OA
BRANCH   2   4
ATOM      4  C   UNL A   1      36.057  22.990  24.625  1.00  0.00     0.213 C 
ATOM      5  C   UNL A   1      36.546  23.014  23.174  1.00  0.00     0.046 C 
BRANCH   4   6
ATOM      6  N   UNL A   1      34.671  23.365  24.847  1.00  0.00    -0.258 N 
ATOM      7  C   UNL A   1      32.758  23.987  25.717  1.00  0.00     0.077 A 
ATOM      8  C   UNL A   1      32.591  23.324  24.486  1.00  0.00     0.149 A 
ATOM      9  C   UNL A   1      34.127  24.089  25.863  1.00  0.00     0.123 A 
ATOM     10  N   UNL A   1      33.746  22.910  23.972  1.00  0.00    -0.180 NA
BRANCH   7  11
ATOM     11  C   UNL A   1      31.775  24.462  26.655  1.00  0.00     0.254 C 
ATOM     12  N   UNL A   1      31.506  25.802  26.691  1.00  0.00    -0.344 N 
ATOM     13  H   UNL A   1      30.920  26.102  27.423  1.00  0.00     0.164 HD
ATOM     14  O   UNL A   1      31.144  23.697  27.390  1.00  0.00    -0.269 OA
BRANCH  12  15
ATOM     15  C   UNL A   1      31.976  26.848  25.783  1.00  0.00     0.130 C 
ATOM     16  C   UNL A   1      32.491  28.037  26.583  1.00  0.00     0.038 C 
BRANCH  15  17
ATOM     17  C   UNL A   1      30.872  27.210  24.829  1.00  0.00     0.084 A 
ATOM     18  N   UNL A   1      29.695  28.448  23.562  1.00  0.00    -0.273 N 
ATOM     19  C   UNL A   1      29.104  27.220  23.494  1.00  0.00     0.109 A 
ATOM     20  N   UNL A   1      30.777  28.464  24.363  1.00  0.00    -0.176 NA
ATOM     21  C   UNL A   1      29.841  26.392  24.308  1.00  0.00     0.047 A 
BRANCH  18  22
ATOM     22  C   UNL A   1      29.327  29.679  22.886  1.00  0.00     0.141 C 
ATOM     23  C   UNL A   1      27.838  29.893  22.667  1.00  0.00     0.029 C 
ENDBRANCH  18  22
ENDBRANCH  15  17
ENDBRANCH  12  15
ENDBRANCH   7  11
ENDBRANCH   4   6
ENDBRANCH   2   4
ENDBRANCH   1   2
BRANCH   1  24
ATOM     24  C   UNL A   1      37.512  19.661  24.948  1.00  0.00     0.274 C 
BRANCH  24  25
ATOM     25  C   UNL A   1      38.857  19.094  25.398  1.00  0.00     0.275 C 
BRANCH  25  26
ATOM     26  O   UNL A   1      39.824  20.121  25.615  1.00  0.00    -0.458 OA
BRANCH  26  27
ATOM     27  C   UNL A   1      41.059  19.671  25.900  1.00  0.00     0.338 C 
ATOM     28  O   UNL A   1      41.493  18.531  25.725  1.00  0.00    -0.246 OA
BRANCH  27  29
ATOM     29  C   UNL A   1      41.839  20.680  26.604  1.00  0.00     0.060 A 
ATOM     30  C   UNL A   1      41.677  20.760  27.994  1.00  0.00     0.016 A 
ATOM     31  C   UNL A   1      42.437  21.702  25.862  1.00  0.00     0.016 A 
ATOM     32  C   UNL A   1      41.937  21.957  28.622  1.00  0.00     0.010 A 
ATOM     33  C   UNL A   1      42.682  22.900  26.487  1.00  0.00     0.010 A 
ATOM     34  C   UNL A   1      42.352  23.035  27.839  1.00  0.00    -0.014 A 
BRANCH  34  35
ATOM     35  C   UNL A   1      42.455  24.340  28.462  1.00  0.00     0.031 A 
ATOM     36  C   UNL A   1      41.293  25.234  28.244  1.00  0.00     0.074 A 
ATOM     37  C   UNL A   1      43.452  24.595  29.333  1.00  0.00     0.049 A 
ATOM     38  N   UNL A   1      41.287  26.482  27.907  1.00  0.00    -0.248 NA
ATOM     39  C   UNL A   1      39.951  24.634  28.359  1.00  0.00     0.031 C 
ATOM     40  C   UNL A   1      44.459  23.649  29.830  1.00  0.00     0.029 A 
ATOM     41  N   UNL A   1      43.679  25.711  30.079  1.00  0.00    -0.354 N 
ATOM     42  C   UNL A   1      39.950  26.868  27.928  1.00  0.00     0.074 A 
ATOM     43  C   UNL A   1      39.166  25.673  28.087  1.00  0.00     0.031 C 
ATOM     44  C   UNL A   1      45.021  24.154  30.948  1.00  0.00     0.029 A 
ATOM     45  C   UNL A   1      44.489  25.486  31.182  1.00  0.00     0.049 A 
ATOM     46  H   UNL A   1      43.303  26.593  29.857  1.00  0.00     0.167 HD
ATOM     47  C   UNL A   1      39.584  28.169  28.051  1.00  0.00     0.037 A 
ATOM     48  C   UNL A   1      44.624  26.292  32.262  1.00  0.00     0.037 A 
ATOM     49  C   UNL A   1      40.624  29.061  27.621  1.00  0.00     0.049 A 
ATOM     50  C   UNL A   1      44.097  27.631  31.901  1.00  0.00     0.074 A 
ATOM     51  C   UNL A   1      41.299  29.253  26.431  1.00  0.00     0.029 A 
ATOM     52  N   UNL A   1      41.351  29.731  28.571  1.00  0.00    -0.354 N 
ATOM     53  N   UNL A   1      44.670  28.456  31.071  1.00  0.00    -0.248 NA
ATOM     54  C   UNL A   1      42.696  27.908  32.186  1.00  0.00     0.031 C 
ATOM     55  C   UNL A   1      42.622  29.624  26.804  1.00  0.00     0.029 A 
ATOM     56  C   UNL A   1      42.668  29.661  28.198  1.00  0.00     0.049 A 
ATOM     57  H   UNL A   1      40.993  30.178  29.372  1.00  0.00     0.167 HD
ATOM     58  C   UNL A   1      43.619  29.080  30.415  1.00  0.00     0.074 A 
ATOM     59  C   UNL A   1      42.442  28.799  31.225  1.00  0.00     0.031 C 
ATOM     60  C   UNL A   1      43.759  29.521  29.132  1.00  0.00     0.037 A 
BRANCH  47  61
ATOM     61  C   UNL A   1      38.415  28.611  28.889  1.00  0.00     0.064 A 
ATOM     62  C   UNL A   1      37.496  29.537  28.362  1.00  0.00     0.173 A 
ATOM     63  C   UNL A   1      38.330  28.389  30.283  1.00  0.00     0.173 A 
ATOM     64  F   UNL A   1      37.514  29.848  27.058  1.00  0.00    -0.203 F 
ATOM     65  C   UNL A   1      36.603  30.232  29.182  1.00  0.00     0.198 A 
ATOM     66  C   UNL A   1      37.399  29.041  31.087  1.00  0.00     0.198 A 
ATOM     67  F   UNL A   1      39.213  27.624  30.937  1.00  0.00    -0.203 F 
ATOM     68  F   UNL A   1      35.833  31.194  28.657  1.00  0.00    -0.200 F 
ATOM     69  C   UNL A   1      36.557  29.986  30.542  1.00  0.00     0.200 A 
ATOM     70  F   UNL A   1      37.385  28.803  32.406  1.00  0.00    -0.200 F 
ATOM     71  F   UNL A   1      35.743  30.693  31.336  1.00  0.00    -0.200 F 
ENDBRANCH  47  61
BRANCH  48  72
ATOM     72  C   UNL A   1      44.913  25.907  33.663  1.00  0.00     0.064 A 
ATOM     73  C   UNL A   1      46.067  26.371  34.314  1.00  0.00     0.173 A 
ATOM     74  C   UNL A   1      43.946  25.281  34.475  1.00  0.00     0.173 A 
ATOM     75  F   UNL A   1      47.015  27.023  33.624  1.00  0.00    -0.203 F 
ATOM     76  C   UNL A   1      46.237  26.229  35.695  1.00  0.00     0.198 A 
ATOM     77  C   UNL A   1      44.124  25.125  35.849  1.00  0.00     0.198 A 
ATOM     78  F   UNL A   1      42.767  24.891  33.970  1.00  0.00    -0.203 F 
ATOM     79  F   UNL A   1      47.324  26.740  36.290  1.00  0.00    -0.200 F 
ATOM     80  C   UNL A   1      45.263  25.610  36.462  1.00  0.00     0.200 A 
ATOM     81  F   UNL A   1      43.158  24.554  36.584  1.00  0.00    -0.200 F 
ATOM     82  F   UNL A   1      45.402  25.519  37.791  1.00  0.00    -0.200 F 
ENDBRANCH  48  72
BRANCH  60  83
ATOM     83  C   UNL A   1      45.149  29.604  28.572  1.00  0.00     0.064 A 
ATOM     84  C   UNL A   1      45.807  28.531  27.947  1.00  0.00     0.173 A 
ATOM     85  C   UNL A   1      45.789  30.851  28.557  1.00  0.00     0.173 A 
ATOM     86  F   UNL A   1      45.214  27.337  27.821  1.00  0.00    -0.203 F 
ATOM     87  C   UNL A   1      47.073  28.688  27.387  1.00  0.00     0.198 A 
ATOM     88  C   UNL A   1      47.037  31.015  27.961  1.00  0.00     0.198 A 
ATOM     89  F   UNL A   1      45.180  31.926  29.083  1.00  0.00    -0.203 F 
ATOM     90  F   UNL A   1      47.690  27.642  26.816  1.00  0.00    -0.200 F 
ATOM     91  C   UNL A   1      47.684  29.931  27.391  1.00  0.00     0.200 A 
ATOM     92  F   UNL A   1      47.601  32.230  27.919  1.00  0.00    -0.200 F 
ATOM     93  F   UNL A   1      48.885  30.091  26.819  1.00  0.00    -0.200 F 
ENDBRANCH  60  83
ENDBRANCH  34  35
ENDBRANCH  27  29
ENDBRANCH  26  27
ENDBRANCH  25  26
ENDBRANCH  24  25
ENDBRANCH   1  24
TORSDOF 16
ENDMDL
