MODEL 1
REMARK VINA RESULT:     -11.8      0.000      0.000
REMARK SMILES C[C@@H](Oc1ccc(I)cc1)C(=O)NCc1ccc(C(=O)OCCOC(=O)c2ccc(-c3c4nc(c(-c5c(F)c(F)c(F)c(F)c5F)c5ccc([nH]5)c(-c5c(F)c(F)c(F)c(F)c5F)c5nc(c(-c6c(F)c(F)c(F)c(F)c6F)c6ccc3[nH]6)C=C5)C=C4)cc2)cc1
REMARK SMILES IDX 21 1 19 2 20 3 18 4 15 5 16 6 91 7 17 8 90 9 14 10 13 11
REMARK SMILES IDX 11 12 12 13 2 15 1 16 3 17 4 18 5 19 10 20 6 21 9 22 7 23
REMARK SMILES IDX 8 24 22 25 23 26 24 27 25 28 26 29 27 30 28 31 89 32 29 33
REMARK SMILES IDX 88 34 30 35 31 36 32 37 82 38 33 39 87 40 81 41 83 42 34 43
REMARK SMILES IDX 86 44 80 45 79 46 35 48 67 49 47 50 66 51 48 52 51 53 65 54
REMARK SMILES IDX 84 55 49 56 50 57 64 59 85 60 52 61 36 62 37 63 45 64 38 65
REMARK SMILES IDX 39 66 43 67 46 68 40 69 41 70 44 71 42 72 68 73 69 74 77 75
REMARK SMILES IDX 70 76 71 77 75 78 78 79 72 80 73 81 76 82 74 83 53 84 54 85
REMARK SMILES IDX 62 86 55 87 56 88 60 89 63 90 57 91 58 92 61 93 59 94
REMARK H PARENT 13 14 83 47 51 58
REMARK Flexibility Score: inf
ROOT
ATOM      1  O   UNL A   1      35.863  23.413  24.148  1.00  0.00    -0.458 OA
ENDROOT
BRANCH   1   2
ATOM      2  C   UNL A   1      34.662  23.506  23.529  1.00  0.00     0.338 C 
ATOM      3  O   UNL A   1      34.003  22.577  23.084  1.00  0.00    -0.246 OA
BRANCH   2   4
ATOM      4  C   UNL A   1      34.162  24.901  23.525  1.00  0.00     0.060 A 
ATOM      5  C   UNL A   1      33.225  27.553  23.671  1.00  0.00    -0.029 A 
ATOM      6  C   UNL A   1      33.771  26.930  24.798  1.00  0.00     0.006 A 
ATOM      7  C   UNL A   1      33.169  26.834  22.463  1.00  0.00     0.006 A 
ATOM      8  C   UNL A   1      34.201  25.608  24.733  1.00  0.00     0.016 A 
ATOM      9  C   UNL A   1      33.642  25.518  22.385  1.00  0.00     0.016 A 
BRANCH   5  10
ATOM     10  C   UNL A   1      32.770  28.994  23.710  1.00  0.00     0.151 C 
BRANCH  10  11
ATOM     11  N   UNL A   1      31.983  29.368  22.547  1.00  0.00    -0.349 N 
ATOM     12  C   UNL A   1      30.637  29.298  22.327  1.00  0.00     0.261 C 
ATOM     13  O   UNL A   1      30.220  29.649  21.219  1.00  0.00    -0.271 OA
ATOM     14  H   UNL A   1      32.505  29.732  21.795  1.00  0.00     0.163 HD
BRANCH  12  15
ATOM     15  C   UNL A   1      29.677  28.719  23.381  1.00  0.00     0.258 C 
ATOM     16  C   UNL A   1      28.478  29.658  23.508  1.00  0.00     0.064 C 
BRANCH  15  17
ATOM     17  O   UNL A   1      29.330  27.390  22.986  1.00  0.00    -0.481 OA
BRANCH  17  18
ATOM     18  C   UNL A   1      29.747  26.402  23.825  1.00  0.00     0.120 A 
ATOM     19  C   UNL A   1      30.088  25.145  23.329  1.00  0.00     0.047 A 
ATOM     20  C   UNL A   1      30.021  26.738  25.149  1.00  0.00     0.047 A 
ATOM     21  C   UNL A   1      30.669  24.199  24.173  1.00  0.00     0.018 A 
ATOM     22  C   UNL A   1      30.615  25.797  25.993  1.00  0.00     0.018 A 
ATOM     23  C   UNL A   1      30.936  24.531  25.501  1.00  0.00     0.013 A 
ATOM     24  I   UNL A   1      31.864  23.144  26.739  1.00  0.00    -0.044 I 
ENDBRANCH  17  18
ENDBRANCH  15  17
ENDBRANCH  12  15
ENDBRANCH  10  11
ENDBRANCH   5  10
ENDBRANCH   2   4
ENDBRANCH   1   2
BRANCH   1  25
ATOM     25  C   UNL A   1      36.754  22.409  23.621  1.00  0.00     0.275 C 
BRANCH  25  26
ATOM     26  C   UNL A   1      36.900  21.224  24.575  1.00  0.00     0.275 C 
BRANCH  26  27
ATOM     27  O   UNL A   1      37.433  21.648  25.844  1.00  0.00    -0.458 OA
BRANCH  27  28
ATOM     28  C   UNL A   1      38.761  21.458  26.012  1.00  0.00     0.338 C 
ATOM     29  O   UNL A   1      39.423  20.483  25.701  1.00  0.00    -0.246 OA
BRANCH  28  30
ATOM     30  C   UNL A   1      39.360  22.647  26.635  1.00  0.00     0.060 A 
ATOM     31  C   UNL A   1      38.918  23.908  26.241  1.00  0.00     0.016 A 
ATOM     32  C   UNL A   1      40.459  22.521  27.480  1.00  0.00     0.016 A 
ATOM     33  C   UNL A   1      39.619  25.050  26.623  1.00  0.00     0.010 A 
ATOM     34  C   UNL A   1      41.114  23.674  27.930  1.00  0.00     0.010 A 
ATOM     35  C   UNL A   1      40.726  24.950  27.478  1.00  0.00    -0.014 A 
BRANCH  35  36
ATOM     36  C   UNL A   1      41.514  26.155  27.862  1.00  0.00     0.031 A 
ATOM     37  C   UNL A   1      40.883  27.223  28.717  1.00  0.00     0.074 A 
ATOM     38  C   UNL A   1      42.788  26.312  27.450  1.00  0.00     0.049 A 
ATOM     39  N   UNL A   1      41.287  28.444  28.958  1.00  0.00    -0.248 NA
ATOM     40  C   UNL A   1      39.618  26.868  29.380  1.00  0.00     0.031 C 
ATOM     41  C   UNL A   1      43.556  25.338  26.675  1.00  0.00     0.029 A 
ATOM     42  N   UNL A   1      43.660  27.362  27.618  1.00  0.00    -0.354 N 
ATOM     43  C   UNL A   1      40.295  29.024  29.741  1.00  0.00     0.074 A 
ATOM     44  C   UNL A   1      39.275  28.018  29.944  1.00  0.00     0.031 C 
ATOM     45  C   UNL A   1      44.788  25.824  26.453  1.00  0.00     0.029 A 
ATOM     46  C   UNL A   1      44.867  27.179  26.987  1.00  0.00     0.049 A 
ATOM     47  H   UNL A   1      43.441  28.166  28.142  1.00  0.00     0.167 HD
ATOM     48  C   UNL A   1      40.241  30.285  30.236  1.00  0.00     0.037 A 
ATOM     49  C   UNL A   1      45.900  28.024  26.808  1.00  0.00     0.037 A 
ATOM     50  C   UNL A   1      41.287  31.263  30.082  1.00  0.00     0.049 A 
ATOM     51  C   UNL A   1      45.808  29.427  27.341  1.00  0.00     0.074 A 
ATOM     52  C   UNL A   1      41.329  32.565  30.550  1.00  0.00     0.029 A 
ATOM     53  N   UNL A   1      42.488  31.035  29.426  1.00  0.00    -0.354 N 
ATOM     54  N   UNL A   1      44.834  29.994  28.010  1.00  0.00    -0.248 NA
ATOM     55  C   UNL A   1      46.950  30.313  27.075  1.00  0.00     0.031 C 
ATOM     56  C   UNL A   1      42.544  33.135  30.153  1.00  0.00     0.029 A 
ATOM     57  C   UNL A   1      43.276  32.175  29.474  1.00  0.00     0.049 A 
ATOM     58  H   UNL A   1      42.744  30.189  28.992  1.00  0.00     0.167 HD
ATOM     59  C   UNL A   1      45.250  31.294  28.260  1.00  0.00     0.074 A 
ATOM     60  C   UNL A   1      46.570  31.430  27.681  1.00  0.00     0.031 C 
ATOM     61  C   UNL A   1      44.594  32.287  28.908  1.00  0.00     0.037 A 
BRANCH  48  62
ATOM     62  C   UNL A   1      38.992  30.698  30.957  1.00  0.00     0.064 A 
ATOM     63  C   UNL A   1      38.871  30.610  32.350  1.00  0.00     0.173 A 
ATOM     64  C   UNL A   1      37.910  31.232  30.237  1.00  0.00     0.173 A 
ATOM     65  F   UNL A   1      39.870  30.094  33.082  1.00  0.00    -0.203 F 
ATOM     66  C   UNL A   1      37.707  31.020  32.996  1.00  0.00     0.198 A 
ATOM     67  C   UNL A   1      36.758  31.665  30.888  1.00  0.00     0.198 A 
ATOM     68  F   UNL A   1      37.976  31.344  28.902  1.00  0.00    -0.203 F 
ATOM     69  F   UNL A   1      37.597  30.887  34.325  1.00  0.00    -0.200 F 
ATOM     70  C   UNL A   1      36.655  31.553  32.265  1.00  0.00     0.200 A 
ATOM     71  F   UNL A   1      35.749  32.192  30.181  1.00  0.00    -0.200 F 
ATOM     72  F   UNL A   1      35.538  31.953  32.889  1.00  0.00    -0.200 F 
ENDBRANCH  48  62
BRANCH  49  73
ATOM     73  C   UNL A   1      47.094  27.575  26.045  1.00  0.00     0.064 A 
ATOM     74  C   UNL A   1      47.156  27.715  24.653  1.00  0.00     0.173 A 
ATOM     75  C   UNL A   1      48.202  27.008  26.695  1.00  0.00     0.173 A 
ATOM     76  F   UNL A   1      46.110  28.223  23.985  1.00  0.00    -0.203 F 
ATOM     77  C   UNL A   1      48.277  27.300  23.938  1.00  0.00     0.198 A 
ATOM     78  C   UNL A   1      49.334  26.622  25.982  1.00  0.00     0.198 A 
ATOM     79  F   UNL A   1      48.192  26.849  28.026  1.00  0.00    -0.203 F 
ATOM     80  F   UNL A   1      48.296  27.410  22.603  1.00  0.00    -0.200 F 
ATOM     81  C   UNL A   1      49.369  26.763  24.603  1.00  0.00     0.200 A 
ATOM     82  F   UNL A   1      50.392  26.116  26.632  1.00  0.00    -0.200 F 
ATOM     83  F   UNL A   1      50.452  26.376  23.916  1.00  0.00    -0.200 F 
ENDBRANCH  49  73
BRANCH  61  84
ATOM     84  C   UNL A   1      45.313  33.593  29.070  1.00  0.00     0.064 A 
ATOM     85  C   UNL A   1      45.173  34.629  28.135  1.00  0.00     0.173 A 
ATOM     86  C   UNL A   1      46.114  33.823  30.197  1.00  0.00     0.173 A 
ATOM     87  F   UNL A   1      44.430  34.448  27.034  1.00  0.00    -0.203 F 
ATOM     88  C   UNL A   1      45.827  35.845  28.316  1.00  0.00     0.198 A 
ATOM     89  C   UNL A   1      46.748  35.048  30.386  1.00  0.00     0.198 A 
ATOM     90  F   UNL A   1      46.274  32.864  31.120  1.00  0.00    -0.203 F 
ATOM     91  F   UNL A   1      45.711  36.809  27.393  1.00  0.00    -0.200 F 
ATOM     92  C   UNL A   1      46.608  36.055  29.443  1.00  0.00     0.200 A 
ATOM     93  F   UNL A   1      47.494  35.254  31.480  1.00  0.00    -0.200 F 
ATOM     94  F   UNL A   1      47.231  37.228  29.618  1.00  0.00    -0.200 F 
ENDBRANCH  61  84
ENDBRANCH  35  36
ENDBRANCH  28  30
ENDBRANCH  27  28
ENDBRANCH  26  27
ENDBRANCH  25  26
ENDBRANCH   1  25
TORSDOF 16
ENDMDL
MODEL 2
REMARK VINA RESULT:     -11.8      4.806      8.821
REMARK SMILES C[C@@H](Oc1ccc(I)cc1)C(=O)NCc1ccc(C(=O)OCCOC(=O)c2ccc(-c3c4nc(c(-c5c(F)c(F)c(F)c(F)c5F)c5ccc([nH]5)c(-c5c(F)c(F)c(F)c(F)c5F)c5nc(c(-c6c(F)c(F)c(F)c(F)c6F)c6ccc3[nH]6)C=C5)C=C4)cc2)cc1
REMARK SMILES IDX 21 1 19 2 20 3 18 4 15 5 16 6 91 7 17 8 90 9 14 10 13 11
REMARK SMILES IDX 11 12 12 13 2 15 1 16 3 17 4 18 5 19 10 20 6 21 9 22 7 23
REMARK SMILES IDX 8 24 22 25 23 26 24 27 25 28 26 29 27 30 28 31 89 32 29 33
REMARK SMILES IDX 88 34 30 35 31 36 32 37 82 38 33 39 87 40 81 41 83 42 34 43
REMARK SMILES IDX 86 44 80 45 79 46 35 48 67 49 47 50 66 51 48 52 51 53 65 54
REMARK SMILES IDX 84 55 49 56 50 57 64 59 85 60 52 61 36 62 37 63 45 64 38 65
REMARK SMILES IDX 39 66 43 67 46 68 40 69 41 70 44 71 42 72 68 73 69 74 77 75
REMARK SMILES IDX 70 76 71 77 75 78 78 79 72 80 73 81 76 82 74 83 53 84 54 85
REMARK SMILES IDX 62 86 55 87 56 88 60 89 63 90 57 91 58 92 61 93 59 94
REMARK H PARENT 13 14 83 47 51 58
REMARK Flexibility Score: inf
ROOT
ATOM      1  O   UNL A   1      41.010  20.649  25.987  1.00  0.00    -0.458 OA
ENDROOT
BRANCH   1   2
ATOM      2  C   UNL A   1      40.197  21.341  26.820  1.00  0.00     0.338 C 
ATOM      3  O   UNL A   1      40.397  21.567  28.005  1.00  0.00    -0.246 OA
BRANCH   2   4
ATOM      4  C   UNL A   1      39.031  21.901  26.096  1.00  0.00     0.060 A 
ATOM      5  C   UNL A   1      36.821  23.086  24.812  1.00  0.00    -0.029 A 
ATOM      6  C   UNL A   1      37.577  23.812  25.739  1.00  0.00     0.006 A 
ATOM      7  C   UNL A   1      37.197  21.761  24.525  1.00  0.00     0.006 A 
ATOM      8  C   UNL A   1      38.647  23.213  26.398  1.00  0.00     0.016 A 
ATOM      9  C   UNL A   1      38.300  21.172  25.155  1.00  0.00     0.016 A 
BRANCH   5  10
ATOM     10  C   UNL A   1      35.669  23.719  24.068  1.00  0.00     0.151 C 
BRANCH  10  11
ATOM     11  N   UNL A   1      34.966  24.715  24.860  1.00  0.00    -0.349 N 
ATOM     12  C   UNL A   1      33.912  24.585  25.717  1.00  0.00     0.261 C 
ATOM     13  O   UNL A   1      33.472  25.612  26.241  1.00  0.00    -0.271 OA
ATOM     14  H   UNL A   1      35.307  25.634  24.762  1.00  0.00     0.163 HD
BRANCH  12  15
ATOM     15  C   UNL A   1      33.232  23.225  25.958  1.00  0.00     0.258 C 
ATOM     16  C   UNL A   1      32.143  23.412  27.013  1.00  0.00     0.064 C 
BRANCH  15  17
ATOM     17  O   UNL A   1      32.746  22.741  24.705  1.00  0.00    -0.481 OA
BRANCH  17  18
ATOM     18  C   UNL A   1      33.062  21.449  24.414  1.00  0.00     0.120 A 
ATOM     19  C   UNL A   1      33.999  20.758  25.180  1.00  0.00     0.047 A 
ATOM     20  C   UNL A   1      32.284  20.777  23.474  1.00  0.00     0.047 A 
ATOM     21  C   UNL A   1      34.192  19.392  24.976  1.00  0.00     0.018 A 
ATOM     22  C   UNL A   1      32.465  19.407  23.277  1.00  0.00     0.018 A 
ATOM     23  C   UNL A   1      33.419  18.720  24.029  1.00  0.00     0.013 A 
ATOM     24  I   UNL A   1      33.659  16.672  23.775  1.00  0.00    -0.044 I 
ENDBRANCH  17  18
ENDBRANCH  15  17
ENDBRANCH  12  15
ENDBRANCH  10  11
ENDBRANCH   5  10
ENDBRANCH   2   4
ENDBRANCH   1   2
BRANCH   1  25
ATOM     25  C   UNL A   1      42.393  20.583  26.389  1.00  0.00     0.275 C 
BRANCH  25  26
ATOM     26  C   UNL A   1      43.293  21.391  25.455  1.00  0.00     0.275 C 
BRANCH  26  27
ATOM     27  O   UNL A   1      42.626  22.585  25.005  1.00  0.00    -0.458 OA
BRANCH  27  28
ATOM     28  C   UNL A   1      43.381  23.707  24.992  1.00  0.00     0.338 C 
ATOM     29  O   UNL A   1      44.392  23.922  24.348  1.00  0.00    -0.246 OA
BRANCH  28  30
ATOM     30  C   UNL A   1      42.795  24.712  25.890  1.00  0.00     0.060 A 
ATOM     31  C   UNL A   1      43.155  26.048  25.731  1.00  0.00     0.016 A 
ATOM     32  C   UNL A   1      42.024  24.319  26.981  1.00  0.00     0.016 A 
ATOM     33  C   UNL A   1      42.816  26.990  26.701  1.00  0.00     0.010 A 
ATOM     34  C   UNL A   1      41.614  25.280  27.913  1.00  0.00     0.010 A 
ATOM     35  C   UNL A   1      42.036  26.619  27.805  1.00  0.00    -0.014 A 
BRANCH  35  36
ATOM     36  C   UNL A   1      41.701  27.601  28.876  1.00  0.00     0.031 A 
ATOM     37  C   UNL A   1      42.559  27.685  30.111  1.00  0.00     0.074 A 
ATOM     38  C   UNL A   1      40.633  28.416  28.762  1.00  0.00     0.049 A 
ATOM     39  N   UNL A   1      42.318  28.274  31.255  1.00  0.00    -0.248 NA
ATOM     40  C   UNL A   1      43.860  27.001  30.052  1.00  0.00     0.031 C 
ATOM     41  C   UNL A   1      39.748  28.499  27.600  1.00  0.00     0.029 A 
ATOM     42  N   UNL A   1      40.105  29.327  29.646  1.00  0.00    -0.354 N 
ATOM     43  C   UNL A   1      43.402  27.975  32.071  1.00  0.00     0.074 A 
ATOM     44  C   UNL A   1      44.308  27.161  31.290  1.00  0.00     0.031 C 
ATOM     45  C   UNL A   1      38.802  29.422  27.832  1.00  0.00     0.029 A 
ATOM     46  C   UNL A   1      38.955  29.928  29.191  1.00  0.00     0.049 A 
ATOM     47  H   UNL A   1      40.511  29.530  30.518  1.00  0.00     0.167 HD
ATOM     48  C   UNL A   1      43.614  28.341  33.360  1.00  0.00     0.037 A 
ATOM     49  C   UNL A   1      38.090  30.751  29.815  1.00  0.00     0.037 A 
ATOM     50  C   UNL A   1      42.739  29.202  34.113  1.00  0.00     0.049 A 
ATOM     51  C   UNL A   1      38.329  31.122  31.252  1.00  0.00     0.074 A 
ATOM     52  C   UNL A   1      42.869  29.634  35.422  1.00  0.00     0.029 A 
ATOM     53  N   UNL A   1      41.581  29.779  33.614  1.00  0.00    -0.354 N 
ATOM     54  N   UNL A   1      39.313  30.770  32.043  1.00  0.00    -0.248 NA
ATOM     55  C   UNL A   1      37.326  31.987  31.889  1.00  0.00     0.031 C 
ATOM     56  C   UNL A   1      41.774  30.452  35.724  1.00  0.00     0.029 A 
ATOM     57  C   UNL A   1      40.984  30.561  34.591  1.00  0.00     0.049 A 
ATOM     58  H   UNL A   1      41.234  29.653  32.701  1.00  0.00     0.167 HD
ATOM     59  C   UNL A   1      39.059  31.382  33.262  1.00  0.00     0.074 A 
ATOM     60  C   UNL A   1      37.834  32.138  33.104  1.00  0.00     0.031 C 
ATOM     61  C   UNL A   1      39.775  31.320  34.411  1.00  0.00     0.037 A 
BRANCH  48  62
ATOM     62  C   UNL A   1      44.819  27.780  34.055  1.00  0.00     0.064 A 
ATOM     63  C   UNL A   1      46.047  28.456  34.082  1.00  0.00     0.173 A 
ATOM     64  C   UNL A   1      44.728  26.558  34.743  1.00  0.00     0.173 A 
ATOM     65  F   UNL A   1      46.190  29.619  33.428  1.00  0.00    -0.203 F 
ATOM     66  C   UNL A   1      47.144  27.922  34.752  1.00  0.00     0.198 A 
ATOM     67  C   UNL A   1      45.819  26.040  35.434  1.00  0.00     0.198 A 
ATOM     68  F   UNL A   1      43.575  25.874  34.753  1.00  0.00    -0.203 F 
ATOM     69  F   UNL A   1      48.320  28.564  34.729  1.00  0.00    -0.200 F 
ATOM     70  C   UNL A   1      47.028  26.718  35.433  1.00  0.00     0.200 A 
ATOM     71  F   UNL A   1      45.700  24.884  36.102  1.00  0.00    -0.200 F 
ATOM     72  F   UNL A   1      48.083  26.209  36.083  1.00  0.00    -0.200 F 
ENDBRANCH  48  62
BRANCH  49  73
ATOM     73  C   UNL A   1      36.887  31.239  29.091  1.00  0.00     0.064 A 
ATOM     74  C   UNL A   1      35.803  30.390  28.837  1.00  0.00     0.173 A 
ATOM     75  C   UNL A   1      36.794  32.569  28.650  1.00  0.00     0.173 A 
ATOM     76  F   UNL A   1      35.859  29.103  29.213  1.00  0.00    -0.203 F 
ATOM     77  C   UNL A   1      34.672  30.849  28.164  1.00  0.00     0.198 A 
ATOM     78  C   UNL A   1      35.650  33.033  28.004  1.00  0.00     0.198 A 
ATOM     79  F   UNL A   1      37.806  33.421  28.865  1.00  0.00    -0.203 F 
ATOM     80  F   UNL A   1      33.665  30.006  27.899  1.00  0.00    -0.200 F 
ATOM     81  C   UNL A   1      34.593  32.172  27.756  1.00  0.00     0.200 A 
ATOM     82  F   UNL A   1      35.574  34.317  27.625  1.00  0.00    -0.200 F 
ATOM     83  F   UNL A   1      33.501  32.615  27.120  1.00  0.00    -0.200 F 
ENDBRANCH  49  73
BRANCH  61  84
ATOM     84  C   UNL A   1      39.280  32.128  35.573  1.00  0.00     0.064 A 
ATOM     85  C   UNL A   1      38.432  31.576  36.544  1.00  0.00     0.173 A 
ATOM     86  C   UNL A   1      39.697  33.457  35.739  1.00  0.00     0.173 A 
ATOM     87  F   UNL A   1      37.995  30.315  36.419  1.00  0.00    -0.203 F 
ATOM     88  C   UNL A   1      38.005  32.334  37.631  1.00  0.00     0.198 A 
ATOM     89  C   UNL A   1      39.287  34.204  36.838  1.00  0.00     0.198 A 
ATOM     90  F   UNL A   1      40.512  34.026  34.838  1.00  0.00    -0.203 F 
ATOM     91  F   UNL A   1      37.165  31.801  38.528  1.00  0.00    -0.200 F 
ATOM     92  C   UNL A   1      38.437  33.644  37.780  1.00  0.00     0.200 A 
ATOM     93  F   UNL A   1      39.712  35.466  36.987  1.00  0.00    -0.200 F 
ATOM     94  F   UNL A   1      38.029  34.369  38.831  1.00  0.00    -0.200 F 
ENDBRANCH  61  84
ENDBRANCH  35  36
ENDBRANCH  28  30
ENDBRANCH  27  28
ENDBRANCH  26  27
ENDBRANCH  25  26
ENDBRANCH   1  25
TORSDOF 16
ENDMDL
MODEL 3
REMARK VINA RESULT:     -11.7      1.084      2.195
REMARK SMILES C[C@@H](Oc1ccc(I)cc1)C(=O)NCc1ccc(C(=O)OCCOC(=O)c2ccc(-c3c4nc(c(-c5c(F)c(F)c(F)c(F)c5F)c5ccc([nH]5)c(-c5c(F)c(F)c(F)c(F)c5F)c5nc(c(-c6c(F)c(F)c(F)c(F)c6F)c6ccc3[nH]6)C=C5)C=C4)cc2)cc1
REMARK SMILES IDX 21 1 19 2 20 3 18 4 15 5 16 6 91 7 17 8 90 9 14 10 13 11
REMARK SMILES IDX 11 12 12 13 2 15 1 16 3 17 4 18 5 19 10 20 6 21 9 22 7 23
REMARK SMILES IDX 8 24 22 25 23 26 24 27 25 28 26 29 27 30 28 31 89 32 29 33
REMARK SMILES IDX 88 34 30 35 31 36 32 37 82 38 33 39 87 40 81 41 83 42 34 43
REMARK SMILES IDX 86 44 80 45 79 46 35 48 67 49 47 50 66 51 48 52 51 53 65 54
REMARK SMILES IDX 84 55 49 56 50 57 64 59 85 60 52 61 36 62 37 63 45 64 38 65
REMARK SMILES IDX 39 66 43 67 46 68 40 69 41 70 44 71 42 72 68 73 69 74 77 75
REMARK SMILES IDX 70 76 71 77 75 78 78 79 72 80 73 81 76 82 74 83 53 84 54 85
REMARK SMILES IDX 62 86 55 87 56 88 60 89 63 90 57 91 58 92 61 93 59 94
REMARK H PARENT 13 14 83 47 51 58
REMARK Flexibility Score: inf
ROOT
ATOM      1  O   UNL A   1      36.047  22.966  25.354  1.00  0.00    -0.458 OA
ENDROOT
BRANCH   1   2
ATOM      2  C   UNL A   1      34.953  22.645  26.086  1.00  0.00     0.338 C 
ATOM      3  O   UNL A   1      34.771  21.602  26.697  1.00  0.00    -0.246 OA
BRANCH   2   4
ATOM      4  C   UNL A   1      33.996  23.776  26.152  1.00  0.00     0.060 A 
ATOM      5  C   UNL A   1      32.070  25.824  26.318  1.00  0.00    -0.029 A 
ATOM      6  C   UNL A   1      31.789  24.544  26.807  1.00  0.00     0.006 A 
ATOM      7  C   UNL A   1      33.337  26.069  25.757  1.00  0.00     0.006 A 
ATOM      8  C   UNL A   1      32.730  23.524  26.691  1.00  0.00     0.016 A 
ATOM      9  C   UNL A   1      34.300  25.055  25.681  1.00  0.00     0.016 A 
BRANCH   5  10
ATOM     10  C   UNL A   1      31.075  26.953  26.448  1.00  0.00     0.151 C 
BRANCH  10  11
ATOM     11  N   UNL A   1      31.438  28.119  25.660  1.00  0.00    -0.349 N 
ATOM     12  C   UNL A   1      31.128  28.450  24.372  1.00  0.00     0.261 C 
ATOM     13  O   UNL A   1      31.604  29.497  23.922  1.00  0.00    -0.271 OA
ATOM     14  H   UNL A   1      31.997  28.778  26.132  1.00  0.00     0.163 HD
BRANCH  12  15
ATOM     15  C   UNL A   1      30.295  27.516  23.477  1.00  0.00     0.258 C 
ATOM     16  C   UNL A   1      29.112  28.309  22.924  1.00  0.00     0.064 C 
BRANCH  15  17
ATOM     17  O   UNL A   1      31.154  26.981  22.469  1.00  0.00    -0.481 OA
BRANCH  17  18
ATOM     18  C   UNL A   1      31.409  25.646  22.565  1.00  0.00     0.120 A 
ATOM     19  C   UNL A   1      32.654  25.134  22.206  1.00  0.00     0.047 A 
ATOM     20  C   UNL A   1      30.476  24.845  23.220  1.00  0.00     0.047 A 
ATOM     21  C   UNL A   1      32.956  23.797  22.464  1.00  0.00     0.018 A 
ATOM     22  C   UNL A   1      30.781  23.510  23.492  1.00  0.00     0.018 A 
ATOM     23  C   UNL A   1      32.020  22.991  23.113  1.00  0.00     0.013 A 
ATOM     24  I   UNL A   1      32.496  21.018  23.558  1.00  0.00    -0.044 I 
ENDBRANCH  17  18
ENDBRANCH  15  17
ENDBRANCH  12  15
ENDBRANCH  10  11
ENDBRANCH   5  10
ENDBRANCH   2   4
ENDBRANCH   1   2
BRANCH   1  25
ATOM     25  C   UNL A   1      36.394  22.024  24.319  1.00  0.00     0.275 C 
BRANCH  25  26
ATOM     26  C   UNL A   1      37.554  21.122  24.740  1.00  0.00     0.275 C 
BRANCH  26  27
ATOM     27  O   UNL A   1      37.993  21.438  26.075  1.00  0.00    -0.458 OA
BRANCH  27  28
ATOM     28  C   UNL A   1      39.319  21.305  26.300  1.00  0.00     0.338 C 
ATOM     29  O   UNL A   1      40.024  20.337  26.074  1.00  0.00    -0.246 OA
BRANCH  28  30
ATOM     30  C   UNL A   1      39.856  22.551  26.867  1.00  0.00     0.060 A 
ATOM     31  C   UNL A   1      39.368  23.768  26.400  1.00  0.00     0.016 A 
ATOM     32  C   UNL A   1      40.946  22.518  27.733  1.00  0.00     0.016 A 
ATOM     33  C   UNL A   1      40.013  24.959  26.730  1.00  0.00     0.010 A 
ATOM     34  C   UNL A   1      41.543  23.721  28.130  1.00  0.00     0.010 A 
ATOM     35  C   UNL A   1      41.108  24.953  27.605  1.00  0.00    -0.014 A 
BRANCH  35  36
ATOM     36  C   UNL A   1      41.838  26.210  27.935  1.00  0.00     0.031 A 
ATOM     37  C   UNL A   1      41.162  27.274  28.760  1.00  0.00     0.074 A 
ATOM     38  C   UNL A   1      43.096  26.417  27.500  1.00  0.00     0.049 A 
ATOM     39  N   UNL A   1      41.505  28.522  28.952  1.00  0.00    -0.248 NA
ATOM     40  C   UNL A   1      39.925  26.880  29.452  1.00  0.00     0.031 C 
ATOM     41  C   UNL A   1      43.905  25.456  26.750  1.00  0.00     0.029 A 
ATOM     42  N   UNL A   1      43.915  27.515  27.620  1.00  0.00    -0.354 N 
ATOM     43  C   UNL A   1      40.494  29.079  29.727  1.00  0.00     0.074 A 
ATOM     44  C   UNL A   1      39.529  28.030  29.980  1.00  0.00     0.031 C 
ATOM     45  C   UNL A   1      45.108  25.996  26.495  1.00  0.00     0.029 A 
ATOM     46  C   UNL A   1      45.122  27.372  26.980  1.00  0.00     0.049 A 
ATOM     47  H   UNL A   1      43.661  28.326  28.117  1.00  0.00     0.167 HD
ATOM     48  C   UNL A   1      40.381  30.353  30.177  1.00  0.00     0.037 A 
ATOM     49  C   UNL A   1      46.109  28.262  26.757  1.00  0.00     0.037 A 
ATOM     50  C   UNL A   1      41.373  31.377  29.975  1.00  0.00     0.049 A 
ATOM     51  C   UNL A   1      45.951  29.676  27.241  1.00  0.00     0.074 A 
ATOM     52  C   UNL A   1      41.353  32.695  30.395  1.00  0.00     0.029 A 
ATOM     53  N   UNL A   1      42.576  31.187  29.312  1.00  0.00    -0.354 N 
ATOM     54  N   UNL A   1      44.956  30.216  27.902  1.00  0.00    -0.248 NA
ATOM     55  C   UNL A   1      47.042  30.609  26.928  1.00  0.00     0.031 C 
ATOM     56  C   UNL A   1      42.532  33.311  29.962  1.00  0.00     0.029 A 
ATOM     57  C   UNL A   1      43.305  32.366  29.308  1.00  0.00     0.049 A 
ATOM     58  H   UNL A   1      42.870  30.340  28.904  1.00  0.00     0.167 HD
ATOM     59  C   UNL A   1      45.307  31.544  28.100  1.00  0.00     0.074 A 
ATOM     60  C   UNL A   1      46.612  31.726  27.499  1.00  0.00     0.031 C 
ATOM     61  C   UNL A   1      44.609  32.525  28.721  1.00  0.00     0.037 A 
BRANCH  48  62
ATOM     62  C   UNL A   1      39.120  30.727  30.900  1.00  0.00     0.064 A 
ATOM     63  C   UNL A   1      39.012  30.660  32.295  1.00  0.00     0.173 A 
ATOM     64  C   UNL A   1      38.012  31.203  30.178  1.00  0.00     0.173 A 
ATOM     65  F   UNL A   1      40.036  30.198  33.029  1.00  0.00    -0.203 F 
ATOM     66  C   UNL A   1      37.836  31.033  32.942  1.00  0.00     0.198 A 
ATOM     67  C   UNL A   1      36.847  31.600  30.829  1.00  0.00     0.198 A 
ATOM     68  F   UNL A   1      38.065  31.293  28.841  1.00  0.00    -0.203 F 
ATOM     69  F   UNL A   1      37.741  30.920  34.274  1.00  0.00    -0.200 F 
ATOM     70  C   UNL A   1      36.758  31.510  32.209  1.00  0.00     0.200 A 
ATOM     71  F   UNL A   1      35.813  32.072  30.120  1.00  0.00    -0.200 F 
ATOM     72  F   UNL A   1      35.630  31.874  32.834  1.00  0.00    -0.200 F 
ENDBRANCH  48  62
BRANCH  49  73
ATOM     73  C   UNL A   1      47.316  27.847  25.995  1.00  0.00     0.064 A 
ATOM     74  C   UNL A   1      48.494  27.476  26.654  1.00  0.00     0.173 A 
ATOM     75  C   UNL A   1      47.310  27.802  24.592  1.00  0.00     0.173 A 
ATOM     76  F   UNL A   1      48.557  27.531  27.994  1.00  0.00    -0.203 F 
ATOM     77  C   UNL A   1      49.624  27.080  25.941  1.00  0.00     0.198 A 
ATOM     78  C   UNL A   1      48.431  27.378  23.881  1.00  0.00     0.198 A 
ATOM     79  F   UNL A   1      46.209  28.152  23.912  1.00  0.00    -0.203 F 
ATOM     80  F   UNL A   1      50.750  26.767  26.595  1.00  0.00    -0.200 F 
ATOM     81  C   UNL A   1      49.589  27.023  24.556  1.00  0.00     0.200 A 
ATOM     82  F   UNL A   1      48.387  27.311  22.543  1.00  0.00    -0.200 F 
ATOM     83  F   UNL A   1      50.672  26.631  23.872  1.00  0.00    -0.200 F 
ENDBRANCH  49  73
BRANCH  61  84
ATOM     84  C   UNL A   1      45.261  33.871  28.826  1.00  0.00     0.064 A 
ATOM     85  C   UNL A   1      46.114  34.193  29.891  1.00  0.00     0.173 A 
ATOM     86  C   UNL A   1      45.064  34.832  27.824  1.00  0.00     0.173 A 
ATOM     87  F   UNL A   1      46.321  33.311  30.880  1.00  0.00    -0.203 F 
ATOM     88  C   UNL A   1      46.732  35.439  29.958  1.00  0.00     0.198 A 
ATOM     89  C   UNL A   1      45.701  36.068  27.882  1.00  0.00     0.198 A 
ATOM     90  F   UNL A   1      44.259  34.569  26.784  1.00  0.00    -0.203 F 
ATOM     91  F   UNL A   1      47.515  35.741  31.003  1.00  0.00    -0.200 F 
ATOM     92  C   UNL A   1      46.531  36.372  28.951  1.00  0.00     0.200 A 
ATOM     93  F   UNL A   1      45.513  36.965  26.905  1.00  0.00    -0.200 F 
ATOM     94  F   UNL A   1      47.132  37.567  29.015  1.00  0.00    -0.200 F 
ENDBRANCH  61  84
ENDBRANCH  35  36
ENDBRANCH  28  30
ENDBRANCH  27  28
ENDBRANCH  26  27
ENDBRANCH  25  26
ENDBRANCH   1  25
TORSDOF 16
ENDMDL
