MODEL 1
REMARK VINA RESULT:     -12.2      0.000      0.000
REMARK SMILES O=C(OCCOC(=O)c1ccnc(-n2cnnn2)c1)c1ccc(-c2c3nc(c(-c4c(F)c(F)c(F)c(F)c4F)c4ccc([nH]4)c(-c4c(F)c(F)c(F)c(F)c4F)c4nc(c(-c5c(F)c(F)c(F)c(F)c5F)c5ccc2[nH]5)C=C4)C=C3)cc1
REMARK SMILES IDX 4 1 3 2 2 3 1 4 20 5 21 6 82 7 22 8 81 9 23 10 24 11 25 12
REMARK SMILES IDX 75 13 26 14 80 15 74 16 76 17 27 18 79 19 73 20 72 21 28 23
REMARK SMILES IDX 60 24 40 25 59 26 41 27 44 28 58 29 77 30 42 31 43 32 57 34
REMARK SMILES IDX 78 35 45 36 29 37 30 38 38 39 31 40 32 41 36 42 39 43 33 44
REMARK SMILES IDX 34 45 37 46 35 47 61 48 62 49 70 50 63 51 64 52 68 53 71 54
REMARK SMILES IDX 65 55 66 56 69 57 67 58 46 59 47 60 55 61 48 62 49 63 53 64
REMARK SMILES IDX 56 65 50 66 51 67 54 68 52 69 5 70 6 71 7 72 8 73 9 74 10 75
REMARK SMILES IDX 19 76 11 77 13 78 12 79 14 80 15 81 18 82 16 83 17 84
REMARK H PARENT 76 22 44 33
REMARK Flexibility Score: inf
ROOT
ATOM      1  C   UNL A   1      34.331  34.262  28.065  1.00  0.00     0.275 C 
ENDROOT
BRANCH   1   2
ATOM      2  O   UNL A   1      35.343  33.290  27.732  1.00  0.00    -0.458 OA
BRANCH   2   3
ATOM      3  C   UNL A   1      35.045  31.980  27.829  1.00  0.00     0.338 C 
ATOM      4  O   UNL A   1      33.969  31.475  27.562  1.00  0.00    -0.246 OA
BRANCH   3   5
ATOM      5  C   UNL A   1      36.241  31.183  28.173  1.00  0.00     0.060 A 
ATOM      6  C   UNL A   1      36.327  29.814  27.906  1.00  0.00     0.016 A 
ATOM      7  C   UNL A   1      37.325  31.858  28.744  1.00  0.00     0.016 A 
ATOM      8  C   UNL A   1      37.483  29.118  28.239  1.00  0.00     0.010 A 
ATOM      9  C   UNL A   1      38.479  31.159  29.074  1.00  0.00     0.010 A 
ATOM     10  C   UNL A   1      38.559  29.786  28.838  1.00  0.00    -0.014 A 
BRANCH  10  11
ATOM     11  C   UNL A   1      39.778  29.029  29.126  1.00  0.00     0.031 A 
ATOM     12  C   UNL A   1      40.106  28.839  30.570  1.00  0.00     0.074 A 
ATOM     13  C   UNL A   1      40.542  28.414  28.200  1.00  0.00     0.049 A 
ATOM     14  N   UNL A   1      41.081  29.365  31.237  1.00  0.00    -0.248 NA
ATOM     15  C   UNL A   1      39.197  28.029  31.389  1.00  0.00     0.031 C 
ATOM     16  C   UNL A   1      40.271  28.212  26.776  1.00  0.00     0.029 A 
ATOM     17  N   UNL A   1      41.726  27.758  28.382  1.00  0.00    -0.354 N 
ATOM     18  C   UNL A   1      41.022  28.816  32.518  1.00  0.00     0.074 A 
ATOM     19  C   UNL A   1      39.766  28.115  32.592  1.00  0.00     0.031 C 
ATOM     20  C   UNL A   1      41.147  27.314  26.274  1.00  0.00     0.029 A 
ATOM     21  C   UNL A   1      42.141  27.011  27.288  1.00  0.00     0.049 A 
ATOM     22  H   UNL A   1      42.242  27.810  29.219  1.00  0.00     0.167 HD
ATOM     23  C   UNL A   1      42.113  28.812  33.339  1.00  0.00     0.037 A 
ATOM     24  C   UNL A   1      43.221  26.196  27.219  1.00  0.00     0.037 A 
ATOM     25  C   UNL A   1      43.105  29.757  32.889  1.00  0.00     0.049 A 
ATOM     26  C   UNL A   1      44.165  26.608  28.283  1.00  0.00     0.074 A 
ATOM     27  C   UNL A   1      43.117  31.118  32.650  1.00  0.00     0.029 A 
ATOM     28  N   UNL A   1      44.233  29.274  32.274  1.00  0.00    -0.354 N 
ATOM     29  N   UNL A   1      44.842  27.721  28.266  1.00  0.00    -0.248 NA
ATOM     30  C   UNL A   1      44.065  25.958  29.580  1.00  0.00     0.031 C 
ATOM     31  C   UNL A   1      43.927  31.277  31.485  1.00  0.00     0.029 A 
ATOM     32  C   UNL A   1      44.413  30.016  31.138  1.00  0.00     0.049 A 
ATOM     33  H   UNL A   1      44.804  28.536  32.589  1.00  0.00     0.167 HD
ATOM     34  C   UNL A   1      44.856  28.138  29.585  1.00  0.00     0.074 A 
ATOM     35  C   UNL A   1      44.471  26.962  30.360  1.00  0.00     0.031 C 
ATOM     36  C   UNL A   1      44.904  29.465  29.899  1.00  0.00     0.037 A 
BRANCH  23  37
ATOM     37  C   UNL A   1      42.458  27.719  34.331  1.00  0.00     0.064 A 
ATOM     38  C   UNL A   1      43.030  26.518  33.857  1.00  0.00     0.173 A 
ATOM     39  C   UNL A   1      41.964  27.668  35.653  1.00  0.00     0.173 A 
ATOM     40  F   UNL A   1      43.532  26.444  32.614  1.00  0.00    -0.203 F 
ATOM     41  C   UNL A   1      43.003  25.337  34.603  1.00  0.00     0.198 A 
ATOM     42  C   UNL A   1      41.990  26.500  36.415  1.00  0.00     0.198 A 
ATOM     43  F   UNL A   1      41.337  28.703  36.220  1.00  0.00    -0.203 F 
ATOM     44  F   UNL A   1      43.423  24.191  34.047  1.00  0.00    -0.200 F 
ATOM     45  C   UNL A   1      42.472  25.326  35.878  1.00  0.00     0.200 A 
ATOM     46  F   UNL A   1      41.460  26.505  37.646  1.00  0.00    -0.200 F 
ATOM     47  F   UNL A   1      42.377  24.181  36.566  1.00  0.00    -0.200 F 
ENDBRANCH  23  37
BRANCH  24  48
ATOM     48  C   UNL A   1      43.421  24.958  26.435  1.00  0.00     0.064 A 
ATOM     49  C   UNL A   1      44.390  24.892  25.419  1.00  0.00     0.173 A 
ATOM     50  C   UNL A   1      42.877  23.734  26.868  1.00  0.00     0.173 A 
ATOM     51  F   UNL A   1      44.981  26.011  24.975  1.00  0.00    -0.203 F 
ATOM     52  C   UNL A   1      44.820  23.669  24.898  1.00  0.00     0.198 A 
ATOM     53  C   UNL A   1      43.304  22.515  26.341  1.00  0.00     0.198 A 
ATOM     54  F   UNL A   1      41.994  23.696  27.876  1.00  0.00    -0.203 F 
ATOM     55  F   UNL A   1      45.798  23.641  23.981  1.00  0.00    -0.200 F 
ATOM     56  C   UNL A   1      44.288  22.481  25.370  1.00  0.00     0.200 A 
ATOM     57  F   UNL A   1      42.805  21.370  26.828  1.00  0.00    -0.200 F 
ATOM     58  F   UNL A   1      44.751  21.307  24.920  1.00  0.00    -0.200 F 
ENDBRANCH  24  48
BRANCH  36  59
ATOM     59  C   UNL A   1      45.263  30.438  28.812  1.00  0.00     0.064 A 
ATOM     60  C   UNL A   1      44.350  30.967  27.883  1.00  0.00     0.173 A 
ATOM     61  C   UNL A   1      46.569  30.948  28.792  1.00  0.00     0.173 A 
ATOM     62  F   UNL A   1      43.057  30.619  27.904  1.00  0.00    -0.203 F 
ATOM     63  C   UNL A   1      44.748  31.917  26.942  1.00  0.00     0.198 A 
ATOM     64  C   UNL A   1      46.951  31.927  27.881  1.00  0.00     0.198 A 
ATOM     65  F   UNL A   1      47.472  30.524  29.692  1.00  0.00    -0.203 F 
ATOM     66  F   UNL A   1      43.864  32.390  26.051  1.00  0.00    -0.200 F 
ATOM     67  C   UNL A   1      46.045  32.401  26.947  1.00  0.00     0.200 A 
ATOM     68  F   UNL A   1      48.193  32.431  27.926  1.00  0.00    -0.200 F 
ATOM     69  F   UNL A   1      46.416  33.343  26.069  1.00  0.00    -0.200 F 
ENDBRANCH  36  59
ENDBRANCH  10  11
ENDBRANCH   3   5
ENDBRANCH   2   3
ENDBRANCH   1   2
BRANCH   1  70
ATOM     70  C   UNL A   1      33.908  34.389  29.530  1.00  0.00     0.275 C 
BRANCH  70  71
ATOM     71  O   UNL A   1      35.056  34.302  30.397  1.00  0.00    -0.458 OA
BRANCH  71  72
ATOM     72  C   UNL A   1      35.009  33.301  31.311  1.00  0.00     0.338 C 
ATOM     73  O   UNL A   1      34.092  32.547  31.558  1.00  0.00    -0.246 OA
BRANCH  72  74
ATOM     74  C   UNL A   1      36.276  33.276  32.056  1.00  0.00     0.065 A 
ATOM     75  C   UNL A   1      37.230  34.237  31.737  1.00  0.00     0.036 A 
ATOM     76  C   UNL A   1      36.445  32.418  33.147  1.00  0.00     0.065 A 
ATOM     77  C   UNL A   1      38.328  34.336  32.563  1.00  0.00     0.114 A 
ATOM     78  C   UNL A   1      37.582  32.607  33.927  1.00  0.00     0.157 A 
ATOM     79  N   UNL A   1      38.510  33.561  33.651  1.00  0.00    -0.237 NA
BRANCH  78  80
ATOM     80  N   UNL A   1      37.809  31.799  35.067  1.00  0.00    -0.182 N 
ATOM     81  C   UNL A   1      38.589  30.681  35.182  1.00  0.00     0.254 A 
ATOM     82  N   UNL A   1      37.335  32.104  36.294  1.00  0.00    -0.039 NA
ATOM     83  N   UNL A   1      38.554  30.247  36.420  1.00  0.00    -0.117 NA
ATOM     84  N   UNL A   1      37.743  31.125  37.092  1.00  0.00    -0.024 NA
ENDBRANCH  78  80
ENDBRANCH  72  74
ENDBRANCH  71  72
ENDBRANCH  70  71
ENDBRANCH   1  70
TORSDOF 12
ENDMDL
MODEL 2
REMARK VINA RESULT:     -12.0      4.012     10.682
REMARK SMILES O=C(OCCOC(=O)c1ccnc(-n2cnnn2)c1)c1ccc(-c2c3nc(c(-c4c(F)c(F)c(F)c(F)c4F)c4ccc([nH]4)c(-c4c(F)c(F)c(F)c(F)c4F)c4nc(c(-c5c(F)c(F)c(F)c(F)c5F)c5ccc2[nH]5)C=C4)C=C3)cc1
REMARK SMILES IDX 4 1 3 2 2 3 1 4 20 5 21 6 82 7 22 8 81 9 23 10 24 11 25 12
REMARK SMILES IDX 75 13 26 14 80 15 74 16 76 17 27 18 79 19 73 20 72 21 28 23
REMARK SMILES IDX 60 24 40 25 59 26 41 27 44 28 58 29 77 30 42 31 43 32 57 34
REMARK SMILES IDX 78 35 45 36 29 37 30 38 38 39 31 40 32 41 36 42 39 43 33 44
REMARK SMILES IDX 34 45 37 46 35 47 61 48 62 49 70 50 63 51 64 52 68 53 71 54
REMARK SMILES IDX 65 55 66 56 69 57 67 58 46 59 47 60 55 61 48 62 49 63 53 64
REMARK SMILES IDX 56 65 50 66 51 67 54 68 52 69 5 70 6 71 7 72 8 73 9 74 10 75
REMARK SMILES IDX 19 76 11 77 13 78 12 79 14 80 15 81 18 82 16 83 17 84
REMARK H PARENT 76 22 44 33
REMARK Flexibility Score: inf
ROOT
ATOM      1  C   UNL A   1      41.516  20.175  26.971  1.00  0.00     0.275 C 
ENDROOT
BRANCH   1   2
ATOM      2  O   UNL A   1      40.851  21.286  27.606  1.00  0.00    -0.458 OA
BRANCH   2   3
ATOM      3  C   UNL A   1      40.085  22.101  26.856  1.00  0.00     0.338 C 
ATOM      4  O   UNL A   1      39.297  21.745  25.997  1.00  0.00    -0.246 OA
BRANCH   3   5
ATOM      5  C   UNL A   1      40.209  23.507  27.296  1.00  0.00     0.060 A 
ATOM      6  C   UNL A   1      39.203  24.451  27.067  1.00  0.00     0.016 A 
ATOM      7  C   UNL A   1      41.362  23.865  28.001  1.00  0.00     0.016 A 
ATOM      8  C   UNL A   1      39.368  25.756  27.516  1.00  0.00     0.010 A 
ATOM      9  C   UNL A   1      41.523  25.170  28.448  1.00  0.00     0.010 A 
ATOM     10  C   UNL A   1      40.536  26.124  28.197  1.00  0.00    -0.014 A 
BRANCH  10  11
ATOM     11  C   UNL A   1      40.651  27.494  28.699  1.00  0.00     0.031 A 
ATOM     12  C   UNL A   1      41.760  28.311  28.126  1.00  0.00     0.074 A 
ATOM     13  C   UNL A   1      39.775  28.084  29.538  1.00  0.00     0.049 A 
ATOM     14  N   UNL A   1      42.832  28.722  28.722  1.00  0.00    -0.248 NA
ATOM     15  C   UNL A   1      41.710  28.650  26.699  1.00  0.00     0.031 C 
ATOM     16  C   UNL A   1      38.474  27.594  29.998  1.00  0.00     0.029 A 
ATOM     17  N   UNL A   1      39.854  29.323  30.106  1.00  0.00    -0.354 N 
ATOM     18  C   UNL A   1      43.511  29.522  27.804  1.00  0.00     0.074 A 
ATOM     19  C   UNL A   1      42.849  29.326  26.540  1.00  0.00     0.031 C 
ATOM     20  C   UNL A   1      37.800  28.601  30.596  1.00  0.00     0.029 A 
ATOM     21  C   UNL A   1      38.682  29.749  30.717  1.00  0.00     0.049 A 
ATOM     22  H   UNL A   1      40.673  29.869  30.085  1.00  0.00     0.167 HD
ATOM     23  C   UNL A   1      44.435  30.441  28.211  1.00  0.00     0.037 A 
ATOM     24  C   UNL A   1      38.447  30.960  31.277  1.00  0.00     0.037 A 
ATOM     25  C   UNL A   1      44.872  30.177  29.560  1.00  0.00     0.049 A 
ATOM     26  C   UNL A   1      39.757  31.569  31.600  1.00  0.00     0.074 A 
ATOM     27  C   UNL A   1      45.456  29.102  30.202  1.00  0.00     0.029 A 
ATOM     28  N   UNL A   1      44.409  30.988  30.566  1.00  0.00    -0.354 N 
ATOM     29  N   UNL A   1      40.547  31.141  32.544  1.00  0.00    -0.248 NA
ATOM     30  C   UNL A   1      40.382  32.425  30.604  1.00  0.00     0.031 C 
ATOM     31  C   UNL A   1      44.841  29.068  31.490  1.00  0.00     0.029 A 
ATOM     32  C   UNL A   1      43.982  30.165  31.573  1.00  0.00     0.049 A 
ATOM     33  H   UNL A   1      44.386  31.972  30.564  1.00  0.00     0.167 HD
ATOM     34  C   UNL A   1      41.821  31.286  32.022  1.00  0.00     0.074 A 
ATOM     35  C   UNL A   1      41.665  32.187  30.884  1.00  0.00     0.031 C 
ATOM     36  C   UNL A   1      42.828  30.443  32.391  1.00  0.00     0.037 A 
BRANCH  23  37
ATOM     37  C   UNL A   1      44.685  31.783  27.550  1.00  0.00     0.064 A 
ATOM     38  C   UNL A   1      45.913  32.003  26.889  1.00  0.00     0.173 A 
ATOM     39  C   UNL A   1      43.925  32.943  27.808  1.00  0.00     0.173 A 
ATOM     40  F   UNL A   1      46.724  30.975  26.591  1.00  0.00    -0.203 F 
ATOM     41  C   UNL A   1      46.391  33.288  26.616  1.00  0.00     0.198 A 
ATOM     42  C   UNL A   1      44.381  34.222  27.484  1.00  0.00     0.198 A 
ATOM     43  F   UNL A   1      42.772  32.905  28.483  1.00  0.00    -0.203 F 
ATOM     44  F   UNL A   1      47.628  33.447  26.126  1.00  0.00    -0.200 F 
ATOM     45  C   UNL A   1      45.629  34.398  26.925  1.00  0.00     0.200 A 
ATOM     46  F   UNL A   1      43.632  35.288  27.802  1.00  0.00    -0.200 F 
ATOM     47  F   UNL A   1      46.113  35.632  26.735  1.00  0.00    -0.200 F 
ENDBRANCH  23  37
BRANCH  24  48
ATOM     48  C   UNL A   1      37.185  31.725  31.377  1.00  0.00     0.064 A 
ATOM     49  C   UNL A   1      36.561  31.935  32.618  1.00  0.00     0.173 A 
ATOM     50  C   UNL A   1      36.733  32.515  30.304  1.00  0.00     0.173 A 
ATOM     51  F   UNL A   1      36.957  31.246  33.699  1.00  0.00    -0.203 F 
ATOM     52  C   UNL A   1      35.572  32.907  32.785  1.00  0.00     0.198 A 
ATOM     53  C   UNL A   1      35.741  33.482  30.471  1.00  0.00     0.198 A 
ATOM     54  F   UNL A   1      37.313  32.429  29.098  1.00  0.00    -0.203 F 
ATOM     55  F   UNL A   1      35.050  33.128  34.000  1.00  0.00    -0.200 F 
ATOM     56  C   UNL A   1      35.174  33.691  31.714  1.00  0.00     0.200 A 
ATOM     57  F   UNL A   1      35.387  34.255  29.435  1.00  0.00    -0.200 F 
ATOM     58  F   UNL A   1      34.277  34.671  31.890  1.00  0.00    -0.200 F 
ENDBRANCH  24  48
BRANCH  36  59
ATOM     59  C   UNL A   1      42.617  29.571  33.596  1.00  0.00     0.064 A 
ATOM     60  C   UNL A   1      41.959  28.329  33.577  1.00  0.00     0.173 A 
ATOM     61  C   UNL A   1      43.219  29.962  34.802  1.00  0.00     0.173 A 
ATOM     62  F   UNL A   1      41.454  27.828  32.442  1.00  0.00    -0.203 F 
ATOM     63  C   UNL A   1      41.861  27.548  34.727  1.00  0.00     0.198 A 
ATOM     64  C   UNL A   1      43.156  29.159  35.936  1.00  0.00     0.198 A 
ATOM     65  F   UNL A   1      43.910  31.111  34.868  1.00  0.00    -0.203 F 
ATOM     66  F   UNL A   1      41.208  26.376  34.689  1.00  0.00    -0.200 F 
ATOM     67  C   UNL A   1      42.464  27.960  35.903  1.00  0.00     0.200 A 
ATOM     68  F   UNL A   1      43.787  29.538  37.056  1.00  0.00    -0.200 F 
ATOM     69  F   UNL A   1      42.404  27.190  36.998  1.00  0.00    -0.200 F 
ENDBRANCH  36  59
ENDBRANCH  10  11
ENDBRANCH   3   5
ENDBRANCH   2   3
ENDBRANCH   1   2
BRANCH   1  70
ATOM     70  C   UNL A   1      42.610  20.481  25.947  1.00  0.00     0.275 C 
BRANCH  70  71
ATOM     71  O   UNL A   1      43.399  21.610  26.369  1.00  0.00    -0.458 OA
BRANCH  71  72
ATOM     72  C   UNL A   1      43.610  22.551  25.414  1.00  0.00     0.338 C 
ATOM     73  O   UNL A   1      43.190  22.578  24.277  1.00  0.00    -0.246 OA
BRANCH  72  74
ATOM     74  C   UNL A   1      44.517  23.576  25.949  1.00  0.00     0.065 A 
ATOM     75  C   UNL A   1      45.145  23.313  27.162  1.00  0.00     0.036 A 
ATOM     76  C   UNL A   1      44.852  24.699  25.186  1.00  0.00     0.065 A 
ATOM     77  C   UNL A   1      46.138  24.180  27.561  1.00  0.00     0.114 A 
ATOM     78  C   UNL A   1      45.878  25.507  25.670  1.00  0.00     0.157 A 
ATOM     79  N   UNL A   1      46.525  25.249  26.837  1.00  0.00    -0.237 NA
BRANCH  78  80
ATOM     80  N   UNL A   1      46.296  26.644  24.939  1.00  0.00    -0.182 N 
ATOM     81  C   UNL A   1      46.029  27.964  25.182  1.00  0.00     0.254 A 
ATOM     82  N   UNL A   1      47.153  26.578  23.897  1.00  0.00    -0.039 NA
ATOM     83  N   UNL A   1      46.634  28.706  24.285  1.00  0.00    -0.117 NA
ATOM     84  N   UNL A   1      47.302  27.827  23.472  1.00  0.00    -0.024 NA
ENDBRANCH  78  80
ENDBRANCH  72  74
ENDBRANCH  71  72
ENDBRANCH  70  71
ENDBRANCH   1  70
TORSDOF 12
ENDMDL
MODEL 3
REMARK VINA RESULT:     -12.0      1.156      1.664
REMARK SMILES O=C(OCCOC(=O)c1ccnc(-n2cnnn2)c1)c1ccc(-c2c3nc(c(-c4c(F)c(F)c(F)c(F)c4F)c4ccc([nH]4)c(-c4c(F)c(F)c(F)c(F)c4F)c4nc(c(-c5c(F)c(F)c(F)c(F)c5F)c5ccc2[nH]5)C=C4)C=C3)cc1
REMARK SMILES IDX 4 1 3 2 2 3 1 4 20 5 21 6 82 7 22 8 81 9 23 10 24 11 25 12
REMARK SMILES IDX 75 13 26 14 80 15 74 16 76 17 27 18 79 19 73 20 72 21 28 23
REMARK SMILES IDX 60 24 40 25 59 26 41 27 44 28 58 29 77 30 42 31 43 32 57 34
REMARK SMILES IDX 78 35 45 36 29 37 30 38 38 39 31 40 32 41 36 42 39 43 33 44
REMARK SMILES IDX 34 45 37 46 35 47 61 48 62 49 70 50 63 51 64 52 68 53 71 54
REMARK SMILES IDX 65 55 66 56 69 57 67 58 46 59 47 60 55 61 48 62 49 63 53 64
REMARK SMILES IDX 56 65 50 66 51 67 54 68 52 69 5 70 6 71 7 72 8 73 9 74 10 75
REMARK SMILES IDX 19 76 11 77 13 78 12 79 14 80 15 81 18 82 16 83 17 84
REMARK H PARENT 76 22 44 33
REMARK Flexibility Score: inf
ROOT
ATOM      1  C   UNL A   1      34.713  34.291  28.182  1.00  0.00     0.275 C 
ENDROOT
BRANCH   1   2
ATOM      2  O   UNL A   1      35.243  33.150  27.477  1.00  0.00    -0.458 OA
BRANCH   2   3
ATOM      3  C   UNL A   1      35.015  31.918  27.969  1.00  0.00     0.338 C 
ATOM      4  O   UNL A   1      33.922  31.388  28.082  1.00  0.00    -0.246 OA
BRANCH   3   5
ATOM      5  C   UNL A   1      36.282  31.206  28.238  1.00  0.00     0.060 A 
ATOM      6  C   UNL A   1      37.372  31.830  28.852  1.00  0.00     0.016 A 
ATOM      7  C   UNL A   1      36.347  29.851  27.898  1.00  0.00     0.016 A 
ATOM      8  C   UNL A   1      38.534  31.107  29.093  1.00  0.00     0.010 A 
ATOM      9  C   UNL A   1      37.510  29.131  28.142  1.00  0.00     0.010 A 
ATOM     10  C   UNL A   1      38.612  29.756  28.726  1.00  0.00    -0.014 A 
BRANCH  10  11
ATOM     11  C   UNL A   1      39.833  29.015  29.043  1.00  0.00     0.031 A 
ATOM     12  C   UNL A   1      40.131  28.833  30.494  1.00  0.00     0.074 A 
ATOM     13  C   UNL A   1      40.624  28.407  28.136  1.00  0.00     0.049 A 
ATOM     14  N   UNL A   1      41.085  29.372  31.181  1.00  0.00    -0.248 NA
ATOM     15  C   UNL A   1      39.214  28.014  31.296  1.00  0.00     0.031 C 
ATOM     16  C   UNL A   1      40.387  28.198  26.707  1.00  0.00     0.029 A 
ATOM     17  N   UNL A   1      41.812  27.766  28.346  1.00  0.00    -0.354 N 
ATOM     18  C   UNL A   1      41.005  28.826  32.462  1.00  0.00     0.074 A 
ATOM     19  C   UNL A   1      39.756  28.110  32.511  1.00  0.00     0.031 C 
ATOM     20  C   UNL A   1      41.285  27.310  26.227  1.00  0.00     0.029 A 
ATOM     21  C   UNL A   1      42.260  27.022  27.263  1.00  0.00     0.049 A 
ATOM     22  H   UNL A   1      42.309  27.827  29.194  1.00  0.00     0.167 HD
ATOM     23  C   UNL A   1      42.077  28.838  33.307  1.00  0.00     0.037 A 
ATOM     24  C   UNL A   1      43.351  26.220  27.220  1.00  0.00     0.037 A 
ATOM     25  C   UNL A   1      43.068  29.794  32.876  1.00  0.00     0.049 A 
ATOM     26  C   UNL A   1      44.267  26.646  28.303  1.00  0.00     0.074 A 
ATOM     27  C   UNL A   1      43.068  31.154  32.634  1.00  0.00     0.029 A 
ATOM     28  N   UNL A   1      44.215  29.323  32.287  1.00  0.00    -0.354 N 
ATOM     29  N   UNL A   1      44.931  27.768  28.298  1.00  0.00    -0.248 NA
ATOM     30  C   UNL A   1      44.147  25.999  29.599  1.00  0.00     0.031 C 
ATOM     31  C   UNL A   1      43.901  31.320  31.486  1.00  0.00     0.029 A 
ATOM     32  C   UNL A   1      44.410  30.064  31.153  1.00  0.00     0.049 A 
ATOM     33  H   UNL A   1      44.787  28.593  32.616  1.00  0.00     0.167 HD
ATOM     34  C   UNL A   1      44.911  28.188  29.616  1.00  0.00     0.074 A 
ATOM     35  C   UNL A   1      44.523  27.009  30.385  1.00  0.00     0.031 C 
ATOM     36  C   UNL A   1      44.935  29.516  29.927  1.00  0.00     0.037 A 
BRANCH  23  37
ATOM     37  C   UNL A   1      42.414  27.751  34.310  1.00  0.00     0.064 A 
ATOM     38  C   UNL A   1      43.014  26.558  33.852  1.00  0.00     0.173 A 
ATOM     39  C   UNL A   1      41.890  27.696  35.619  1.00  0.00     0.173 A 
ATOM     40  F   UNL A   1      43.546  26.488  32.621  1.00  0.00    -0.203 F 
ATOM     41  C   UNL A   1      42.986  25.378  34.599  1.00  0.00     0.198 A 
ATOM     42  C   UNL A   1      41.914  26.530  36.384  1.00  0.00     0.198 A 
ATOM     43  F   UNL A   1      41.234  28.724  36.168  1.00  0.00    -0.203 F 
ATOM     44  F   UNL A   1      43.435  24.237  34.057  1.00  0.00    -0.200 F 
ATOM     45  C   UNL A   1      42.425  25.362  35.861  1.00  0.00     0.200 A 
ATOM     46  F   UNL A   1      41.354  26.530  37.602  1.00  0.00    -0.200 F 
ATOM     47  F   UNL A   1      42.330  24.217  36.550  1.00  0.00    -0.200 F 
ENDBRANCH  23  37
BRANCH  24  48
ATOM     48  C   UNL A   1      43.584  24.983  26.444  1.00  0.00     0.064 A 
ATOM     49  C   UNL A   1      44.578  24.925  25.453  1.00  0.00     0.173 A 
ATOM     50  C   UNL A   1      43.042  23.754  26.866  1.00  0.00     0.173 A 
ATOM     51  F   UNL A   1      45.168  26.049  25.020  1.00  0.00    -0.203 F 
ATOM     52  C   UNL A   1      45.033  23.705  24.945  1.00  0.00     0.198 A 
ATOM     53  C   UNL A   1      43.495  22.538  26.352  1.00  0.00     0.198 A 
ATOM     54  F   UNL A   1      42.135  23.708  27.852  1.00  0.00    -0.203 F 
ATOM     55  F   UNL A   1      46.034  23.686  24.052  1.00  0.00    -0.200 F 
ATOM     56  C   UNL A   1      44.503  22.513  25.406  1.00  0.00     0.200 A 
ATOM     57  F   UNL A   1      42.996  21.389  26.830  1.00  0.00    -0.200 F 
ATOM     58  F   UNL A   1      44.989  21.343  24.971  1.00  0.00    -0.200 F 
ENDBRANCH  24  48
BRANCH  36  59
ATOM     59  C   UNL A   1      45.305  30.491  28.845  1.00  0.00     0.064 A 
ATOM     60  C   UNL A   1      44.403  31.020  27.906  1.00  0.00     0.173 A 
ATOM     61  C   UNL A   1      46.612  31.002  28.841  1.00  0.00     0.173 A 
ATOM     62  F   UNL A   1      43.110  30.671  27.911  1.00  0.00    -0.203 F 
ATOM     63  C   UNL A   1      44.811  31.971  26.971  1.00  0.00     0.198 A 
ATOM     64  C   UNL A   1      47.003  31.983  27.936  1.00  0.00     0.198 A 
ATOM     65  F   UNL A   1      47.504  30.578  29.751  1.00  0.00    -0.203 F 
ATOM     66  F   UNL A   1      43.937  32.444  26.070  1.00  0.00    -0.200 F 
ATOM     67  C   UNL A   1      46.107  32.457  26.992  1.00  0.00     0.200 A 
ATOM     68  F   UNL A   1      48.243  32.488  27.996  1.00  0.00    -0.200 F 
ATOM     69  F   UNL A   1      46.488  33.400  26.120  1.00  0.00    -0.200 F 
ENDBRANCH  36  59
ENDBRANCH  10  11
ENDBRANCH   3   5
ENDBRANCH   2   3
ENDBRANCH   1   2
BRANCH   1  70
ATOM     70  C   UNL A   1      33.194  34.413  28.318  1.00  0.00     0.275 C 
BRANCH  70  71
ATOM     71  O   UNL A   1      32.824  34.640  29.692  1.00  0.00    -0.458 OA
BRANCH  71  72
ATOM     72  C   UNL A   1      32.994  35.914  30.127  1.00  0.00     0.338 C 
ATOM     73  O   UNL A   1      32.688  36.947  29.572  1.00  0.00    -0.246 OA
BRANCH  72  74
ATOM     74  C   UNL A   1      33.691  35.886  31.420  1.00  0.00     0.065 A 
ATOM     75  C   UNL A   1      33.425  36.913  32.320  1.00  0.00     0.036 A 
ATOM     76  C   UNL A   1      34.470  34.783  31.787  1.00  0.00     0.065 A 
ATOM     77  C   UNL A   1      33.924  36.781  33.596  1.00  0.00     0.114 A 
ATOM     78  C   UNL A   1      34.916  34.737  33.104  1.00  0.00     0.157 A 
ATOM     79  N   UNL A   1      34.639  35.715  34.007  1.00  0.00    -0.237 NA
BRANCH  78  80
ATOM     80  N   UNL A   1      35.683  33.638  33.560  1.00  0.00    -0.182 N 
ATOM     81  C   UNL A   1      36.119  32.548  32.857  1.00  0.00     0.254 A 
ATOM     82  N   UNL A   1      36.204  33.567  34.805  1.00  0.00    -0.039 NA
ATOM     83  N   UNL A   1      36.830  31.775  33.644  1.00  0.00    -0.117 NA
ATOM     84  N   UNL A   1      36.846  32.407  34.861  1.00  0.00    -0.024 NA
ENDBRANCH  78  80
ENDBRANCH  72  74
ENDBRANCH  71  72
ENDBRANCH  70  71
ENDBRANCH   1  70
TORSDOF 12
ENDMDL
