MODEL 1
REMARK VINA RESULT:     -14.5      0.000      0.000
REMARK SMILES Cc1cc(C(=O)OCCOC(=O)c2ccc(-c3c4nc(c(-c5c(F)c(F)c(F)c(F)c5F)c5ccc([nH]5)c(-c5c(F)c(F)c(F)c(F)c5F)c5nc(c(-c6c(F)c(F)c(F)c(F)c6F)c6ccc3[nH]6)C=C5)C=C4)cc2)cc(S(=O)(=O)NNC(=O)c2c[nH]c3ccccc23)c1C
REMARK SMILES IDX 8 1 7 2 5 3 6 4 4 5 1 6 2 7 3 8 94 9 77 10 95 11 76 12 78 13
REMARK SMILES IDX 79 14 80 15 81 16 82 18 83 19 84 21 85 22 86 23 93 24 87 25
REMARK SMILES IDX 88 26 92 27 89 29 91 30 90 31 9 32 10 33 11 34 12 35 13 36
REMARK SMILES IDX 14 37 75 38 15 39 74 40 16 41 17 42 18 43 68 44 19 45 73 46
REMARK SMILES IDX 67 47 69 48 20 49 72 50 66 51 65 52 21 54 53 55 33 56 52 57
REMARK SMILES IDX 34 58 37 59 51 60 70 61 35 62 36 63 50 65 71 66 38 67 22 68
REMARK SMILES IDX 23 69 31 70 24 71 25 72 29 73 32 74 26 75 27 76 30 77 28 78
REMARK SMILES IDX 54 79 55 80 63 81 56 82 57 83 61 84 64 85 58 86 59 87 62 88
REMARK SMILES IDX 60 89 39 90 40 91 48 92 41 93 42 94 46 95 49 96 43 97 44 98
REMARK SMILES IDX 47 99 45 100
REMARK H PARENT 81 17 82 20 87 28 69 53 37 64
REMARK Flexibility Score: inf
ROOT
ATOM      1  C   UNL A   1      43.901  20.346  25.237  1.00  0.00     0.275 C 
ENDROOT
BRANCH   1   2
ATOM      2  O   UNL A   1      42.694  21.125  25.444  1.00  0.00    -0.458 OA
BRANCH   2   3
ATOM      3  C   UNL A   1      42.008  20.963  26.612  1.00  0.00     0.338 C 
ATOM      4  O   UNL A   1      42.425  20.422  27.622  1.00  0.00    -0.246 OA
BRANCH   3   5
ATOM      5  C   UNL A   1      40.638  21.572  26.534  1.00  0.00     0.061 A 
ATOM      6  C   UNL A   1      39.415  25.026  27.410  1.00  0.00     0.044 C 
ATOM      7  C   UNL A   1      39.370  23.598  26.904  1.00  0.00    -0.046 A 
ATOM      8  C   UNL A   1      40.536  22.854  27.069  1.00  0.00     0.019 A 
ATOM      9  C   UNL A   1      38.252  23.011  26.226  1.00  0.00    -0.028 A 
ATOM     10  C   UNL A   1      38.306  21.647  25.732  1.00  0.00     0.088 A 
ATOM     11  C   UNL A   1      37.039  23.883  25.991  1.00  0.00     0.046 C 
ATOM     12  C   UNL A   1      39.526  20.966  25.855  1.00  0.00     0.037 A 
BRANCH  10  13
ATOM     13  S   UNL A   1      36.751  20.910  24.997  1.00  0.00     0.257 S 
ATOM     14  O   UNL A   1      36.420  21.820  23.914  1.00  0.00    -0.205 OA
ATOM     15  O   UNL A   1      37.078  19.523  24.737  1.00  0.00    -0.205 OA
BRANCH  13  16
ATOM     16  N   UNL A   1      35.182  20.813  26.002  1.00  0.00    -0.123 NA
ATOM     17  H   UNL A   1      35.248  21.456  26.792  1.00  0.00     0.167 HD
BRANCH  16  18
ATOM     18  N   UNL A   1      34.014  21.179  25.174  1.00  0.00    -0.273 N 
ATOM     19  C   UNL A   1      33.013  21.891  24.540  1.00  0.00     0.268 C 
ATOM     20  H   UNL A   1      33.789  20.281  24.836  1.00  0.00     0.186 HD
ATOM     21  O   UNL A   1      32.502  20.820  24.063  1.00  0.00    -0.268 OA
BRANCH  19  22
ATOM     22  C   UNL A   1      32.062  23.402  24.173  1.00  0.00     0.066 A 
ATOM     23  C   UNL A   1      33.570  23.766  23.137  1.00  0.00     0.097 A 
ATOM     24  C   UNL A   1      31.817  25.177  25.325  1.00  0.00     0.012 A 
ATOM     25  N   UNL A   1      34.426  25.304  23.767  1.00  0.00    -0.360 N 
ATOM     26  C   UNL A   1      33.361  26.223  25.028  1.00  0.00     0.046 A 
ATOM     27  C   UNL A   1      30.926  25.926  26.150  1.00  0.00     0.011 A 
ATOM     28  H   UNL A   1      35.319  25.600  23.476  1.00  0.00     0.166 HD
ATOM     29  C   UNL A   1      33.653  27.405  25.684  1.00  0.00     0.027 A 
ATOM     30  C   UNL A   1      31.332  27.247  26.592  1.00  0.00     0.001 A 
ATOM     31  C   UNL A   1      32.589  27.916  26.406  1.00  0.00     0.002 A 
ENDBRANCH  19  22
ENDBRANCH  16  18
ENDBRANCH  13  16
ENDBRANCH  10  13
ENDBRANCH   3   5
ENDBRANCH   2   3
ENDBRANCH   1   2
BRANCH   1  32
ATOM     32  C   UNL A   1      45.165  21.176  25.497  1.00  0.00     0.275 C 
BRANCH  32  33
ATOM     33  O   UNL A   1      44.909  22.555  25.215  1.00  0.00    -0.458 OA
BRANCH  33  34
ATOM     34  C   UNL A   1      45.667  23.404  25.935  1.00  0.00     0.338 C 
ATOM     35  O   UNL A   1      46.859  23.346  26.179  1.00  0.00    -0.246 OA
BRANCH  34  36
ATOM     36  C   UNL A   1      44.859  24.578  26.225  1.00  0.00     0.060 A 
ATOM     37  C   UNL A   1      45.541  25.685  26.700  1.00  0.00     0.016 A 
ATOM     38  C   UNL A   1      43.475  24.537  26.224  1.00  0.00     0.016 A 
ATOM     39  C   UNL A   1      44.875  26.660  27.392  1.00  0.00     0.010 A 
ATOM     40  C   UNL A   1      42.782  25.613  26.769  1.00  0.00     0.010 A 
ATOM     41  C   UNL A   1      43.486  26.625  27.440  1.00  0.00    -0.014 A 
BRANCH  41  42
ATOM     42  C   UNL A   1      42.816  27.492  28.415  1.00  0.00     0.031 A 
ATOM     43  C   UNL A   1      41.677  28.301  27.843  1.00  0.00     0.074 A 
ATOM     44  C   UNL A   1      42.999  27.315  29.764  1.00  0.00     0.049 A 
ATOM     45  N   UNL A   1      40.842  28.825  28.651  1.00  0.00    -0.248 NA
ATOM     46  C   UNL A   1      41.256  28.421  26.448  1.00  0.00     0.031 C 
ATOM     47  C   UNL A   1      43.873  26.275  30.333  1.00  0.00     0.029 A 
ATOM     48  N   UNL A   1      42.445  27.894  30.912  1.00  0.00    -0.354 N 
ATOM     49  C   UNL A   1      39.476  29.366  27.931  1.00  0.00     0.074 A 
ATOM     50  C   UNL A   1      40.042  29.005  26.457  1.00  0.00     0.031 C 
ATOM     51  C   UNL A   1      43.738  26.233  31.665  1.00  0.00     0.029 A 
ATOM     52  C   UNL A   1      42.918  27.355  32.105  1.00  0.00     0.049 A 
ATOM     53  H   UNL A   1      41.779  28.618  30.878  1.00  0.00     0.167 HD
ATOM     54  C   UNL A   1      38.100  30.379  28.872  1.00  0.00     0.037 A 
ATOM     55  C   UNL A   1      42.815  27.696  33.416  1.00  0.00     0.037 A 
ATOM     56  C   UNL A   1      37.960  30.811  30.558  1.00  0.00     0.049 A 
ATOM     57  C   UNL A   1      41.984  28.876  33.851  1.00  0.00     0.074 A 
ATOM     58  C   UNL A   1      37.127  31.776  31.132  1.00  0.00     0.029 A 
ATOM     59  N   UNL A   1      38.823  30.468  31.644  1.00  0.00    -0.354 N 
ATOM     60  N   UNL A   1      41.036  29.509  33.209  1.00  0.00    -0.248 NA
ATOM     61  C   UNL A   1      42.235  29.395  35.209  1.00  0.00     0.031 C 
ATOM     62  C   UNL A   1      37.732  32.264  32.312  1.00  0.00     0.029 A 
ATOM     63  C   UNL A   1      38.752  31.410  32.673  1.00  0.00     0.049 A 
ATOM     64  H   UNL A   1      39.396  29.668  31.665  1.00  0.00     0.167 HD
ATOM     65  C   UNL A   1      40.572  30.495  34.076  1.00  0.00     0.074 A 
ATOM     66  C   UNL A   1      41.326  30.354  35.306  1.00  0.00     0.031 C 
ATOM     67  C   UNL A   1      39.586  31.407  33.867  1.00  0.00     0.037 A 
BRANCH  54  68
ATOM     68  C   UNL A   1      36.778  31.452  28.289  1.00  0.00     0.064 A 
ATOM     69  C   UNL A   1      36.769  32.856  28.447  1.00  0.00     0.173 A 
ATOM     70  C   UNL A   1      35.529  30.853  27.969  1.00  0.00     0.173 A 
ATOM     71  F   UNL A   1      37.900  33.549  28.631  1.00  0.00    -0.203 F 
ATOM     72  C   UNL A   1      35.560  33.534  28.626  1.00  0.00     0.198 A 
ATOM     73  C   UNL A   1      34.333  31.551  28.103  1.00  0.00     0.198 A 
ATOM     74  F   UNL A   1      35.445  29.563  27.613  1.00  0.00    -0.203 F 
ATOM     75  F   UNL A   1      35.576  34.809  29.041  1.00  0.00    -0.200 F 
ATOM     76  C   UNL A   1      34.350  32.871  28.507  1.00  0.00     0.200 A 
ATOM     77  F   UNL A   1      33.165  30.913  27.940  1.00  0.00    -0.200 F 
ATOM     78  F   UNL A   1      33.204  33.494  28.817  1.00  0.00    -0.200 F 
ENDBRANCH  54  68
BRANCH  55  79
ATOM     79  C   UNL A   1      43.650  26.983  34.456  1.00  0.00     0.064 A 
ATOM     80  C   UNL A   1      43.130  25.968  35.278  1.00  0.00     0.173 A 
ATOM     81  C   UNL A   1      44.984  27.366  34.698  1.00  0.00     0.173 A 
ATOM     82  F   UNL A   1      41.849  25.593  35.149  1.00  0.00    -0.203 F 
ATOM     83  C   UNL A   1      43.904  25.369  36.278  1.00  0.00     0.198 A 
ATOM     84  C   UNL A   1      45.770  26.736  35.664  1.00  0.00     0.198 A 
ATOM     85  F   UNL A   1      45.536  28.362  33.988  1.00  0.00    -0.203 F 
ATOM     86  F   UNL A   1      43.361  24.445  37.084  1.00  0.00    -0.200 F 
ATOM     87  C   UNL A   1      45.227  25.743  36.460  1.00  0.00     0.200 A 
ATOM     88  F   UNL A   1      47.049  27.101  35.826  1.00  0.00    -0.200 F 
ATOM     89  F   UNL A   1      45.970  25.162  37.412  1.00  0.00    -0.200 F 
ENDBRANCH  55  79
BRANCH  67  90
ATOM     90  C   UNL A   1      39.294  32.394  34.989  1.00  0.00     0.064 A 
ATOM     91  C   UNL A   1      39.903  33.663  35.088  1.00  0.00     0.173 A 
ATOM     92  C   UNL A   1      38.387  32.052  36.007  1.00  0.00     0.173 A 
ATOM     93  F   UNL A   1      40.796  34.063  34.170  1.00  0.00    -0.203 F 
ATOM     94  C   UNL A   1      39.649  34.513  36.169  1.00  0.00     0.198 A 
ATOM     95  C   UNL A   1      38.096  32.925  37.055  1.00  0.00     0.198 A 
ATOM     96  F   UNL A   1      37.782  30.855  35.999  1.00  0.00    -0.203 F 
ATOM     97  F   UNL A   1      40.310  35.675  36.279  1.00  0.00    -0.200 F 
ATOM     98  C   UNL A   1      38.737  34.148  37.145  1.00  0.00     0.200 A 
ATOM     99  F   UNL A   1      37.200  32.570  37.987  1.00  0.00    -0.200 F 
ATOM    100  F   UNL A   1      38.489  34.965  38.179  1.00  0.00    -0.200 F 
ENDBRANCH  67  90
ENDBRANCH  41  42
ENDBRANCH  34  36
ENDBRANCH  33  34
ENDBRANCH  32  33
ENDBRANCH   1  32
TORSDOF 15
ENDMDL
MODEL 2
REMARK VINA RESULT:     -14.1      3.830      9.130
REMARK SMILES Cc1cc(C(=O)OCCOC(=O)c2ccc(-c3c4nc(c(-c5c(F)c(F)c(F)c(F)c5F)c5ccc([nH]5)c(-c5c(F)c(F)c(F)c(F)c5F)c5nc(c(-c6c(F)c(F)c(F)c(F)c6F)c6ccc3[nH]6)C=C5)C=C4)cc2)cc(S(=O)(=O)NNC(=O)c2c[nH]c3ccccc23)c1C
REMARK SMILES IDX 8 1 7 2 5 3 6 4 4 5 1 6 2 7 3 8 94 9 77 10 95 11 76 12 78 13
REMARK SMILES IDX 79 14 80 15 81 16 82 18 83 19 84 21 85 22 86 23 93 24 87 25
REMARK SMILES IDX 88 26 92 27 89 29 91 30 90 31 9 32 10 33 11 34 12 35 13 36
REMARK SMILES IDX 14 37 75 38 15 39 74 40 16 41 17 42 18 43 68 44 19 45 73 46
REMARK SMILES IDX 67 47 69 48 20 49 72 50 66 51 65 52 21 54 53 55 33 56 52 57
REMARK SMILES IDX 34 58 37 59 51 60 70 61 35 62 36 63 50 65 71 66 38 67 22 68
REMARK SMILES IDX 23 69 31 70 24 71 25 72 29 73 32 74 26 75 27 76 30 77 28 78
REMARK SMILES IDX 54 79 55 80 63 81 56 82 57 83 61 84 64 85 58 86 59 87 62 88
REMARK SMILES IDX 60 89 39 90 40 91 48 92 41 93 42 94 46 95 49 96 43 97 44 98
REMARK SMILES IDX 47 99 45 100
REMARK H PARENT 81 17 82 20 87 28 69 53 37 64
REMARK Flexibility Score: inf
ROOT
ATOM      1  C   UNL A   1      33.869  31.438  27.675  1.00  0.00     0.275 C 
ENDROOT
BRANCH   1   2
ATOM      2  O   UNL A   1      33.124  30.244  27.318  1.00  0.00    -0.458 OA
BRANCH   2   3
ATOM      3  C   UNL A   1      33.789  29.221  26.708  1.00  0.00     0.338 C 
ATOM      4  O   UNL A   1      34.874  28.773  27.035  1.00  0.00    -0.246 OA
BRANCH   3   5
ATOM      5  C   UNL A   1      32.999  28.658  25.563  1.00  0.00     0.061 A 
ATOM      6  C   UNL A   1      29.876  29.907  23.865  1.00  0.00     0.044 C 
ATOM      7  C   UNL A   1      31.076  29.024  24.141  1.00  0.00    -0.046 A 
ATOM      8  C   UNL A   1      31.812  29.333  25.282  1.00  0.00     0.019 A 
ATOM      9  C   UNL A   1      31.520  27.964  23.285  1.00  0.00    -0.028 A 
ATOM     10  C   UNL A   1      32.709  27.193  23.600  1.00  0.00     0.088 A 
ATOM     11  C   UNL A   1      30.742  27.720  22.011  1.00  0.00     0.046 C 
ATOM     12  C   UNL A   1      33.457  27.591  24.717  1.00  0.00     0.037 A 
BRANCH  10  13
ATOM     13  S   UNL A   1      33.129  25.730  22.510  1.00  0.00     0.257 S 
ATOM     14  O   UNL A   1      33.607  26.344  21.283  1.00  0.00    -0.205 OA
ATOM     15  O   UNL A   1      33.994  24.895  23.318  1.00  0.00    -0.205 OA
BRANCH  13  16
ATOM     16  N   UNL A   1      31.793  24.560  21.939  1.00  0.00    -0.123 NA
ATOM     17  H   UNL A   1      31.776  24.540  20.919  1.00  0.00     0.167 HD
BRANCH  16  18
ATOM     18  N   UNL A   1      32.048  23.196  22.448  1.00  0.00    -0.273 N 
ATOM     19  C   UNL A   1      32.519  22.126  23.185  1.00  0.00     0.268 C 
ATOM     20  H   UNL A   1      31.482  22.697  21.814  1.00  0.00     0.186 HD
ATOM     21  O   UNL A   1      31.925  21.289  22.421  1.00  0.00    -0.268 OA
BRANCH  19  22
ATOM     22  C   UNL A   1      33.552  21.358  24.476  1.00  0.00     0.066 A 
ATOM     23  C   UNL A   1      32.799  22.723  25.500  1.00  0.00     0.097 A 
ATOM     24  C   UNL A   1      35.639  21.554  24.854  1.00  0.00     0.012 A 
ATOM     25  N   UNL A   1      34.134  23.880  26.111  1.00  0.00    -0.360 N 
ATOM     26  C   UNL A   1      35.858  23.168  25.810  1.00  0.00     0.046 A 
ATOM     27  C   UNL A   1      36.913  20.921  24.757  1.00  0.00     0.011 A 
ATOM     28  H   UNL A   1      33.961  24.750  26.538  1.00  0.00     0.166 HD
ATOM     29  C   UNL A   1      37.077  23.727  26.149  1.00  0.00     0.027 A 
ATOM     30  C   UNL A   1      38.065  21.577  25.348  1.00  0.00     0.001 A 
ATOM     31  C   UNL A   1      38.150  22.873  25.960  1.00  0.00     0.002 A 
ENDBRANCH  19  22
ENDBRANCH  16  18
ENDBRANCH  13  16
ENDBRANCH  10  13
ENDBRANCH   3   5
ENDBRANCH   2   3
ENDBRANCH   1   2
BRANCH   1  32
ATOM     32  C   UNL A   1      32.984  32.691  27.641  1.00  0.00     0.275 C 
BRANCH  32  33
ATOM     33  O   UNL A   1      33.780  33.857  27.874  1.00  0.00    -0.458 OA
BRANCH  33  34
ATOM     34  C   UNL A   1      33.648  34.363  29.114  1.00  0.00     0.338 C 
ATOM     35  O   UNL A   1      32.696  34.943  29.606  1.00  0.00    -0.246 OA
BRANCH  34  36
ATOM     36  C   UNL A   1      34.789  33.915  29.897  1.00  0.00     0.060 A 
ATOM     37  C   UNL A   1      36.037  34.187  29.366  1.00  0.00     0.016 A 
ATOM     38  C   UNL A   1      34.644  33.090  31.001  1.00  0.00     0.016 A 
ATOM     39  C   UNL A   1      37.129  33.467  29.769  1.00  0.00     0.010 A 
ATOM     40  C   UNL A   1      35.783  32.490  31.530  1.00  0.00     0.010 A 
ATOM     41  C   UNL A   1      37.006  32.603  30.851  1.00  0.00    -0.014 A 
BRANCH  41  42
ATOM     42  C   UNL A   1      38.087  31.637  31.078  1.00  0.00     0.031 A 
ATOM     43  C   UNL A   1      38.230  30.600  29.991  1.00  0.00     0.074 A 
ATOM     44  C   UNL A   1      39.064  31.876  32.013  1.00  0.00     0.049 A 
ATOM     45  N   UNL A   1      39.315  29.934  29.930  1.00  0.00    -0.248 NA
ATOM     46  C   UNL A   1      37.365  30.367  28.835  1.00  0.00     0.031 C 
ATOM     47  C   UNL A   1      39.103  33.085  32.854  1.00  0.00     0.029 A 
ATOM     48  N   UNL A   1      40.244  31.221  32.386  1.00  0.00    -0.354 N 
ATOM     49  C   UNL A   1      39.507  29.110  28.529  1.00  0.00     0.074 A 
ATOM     50  C   UNL A   1      38.038  29.549  28.005  1.00  0.00     0.031 C 
ATOM     51  C   UNL A   1      40.244  33.126  33.554  1.00  0.00     0.029 A 
ATOM     52  C   UNL A   1      40.963  31.870  33.385  1.00  0.00     0.049 A 
ATOM     53  H   UNL A   1      40.538  30.375  31.977  1.00  0.00     0.167 HD
ATOM     54  C   UNL A   1      40.969  27.857  28.217  1.00  0.00     0.037 A 
ATOM     55  C   UNL A   1      42.026  31.543  34.165  1.00  0.00     0.037 A 
ATOM     56  C   UNL A   1      42.341  27.442  29.212  1.00  0.00     0.049 A 
ATOM     57  C   UNL A   1      42.742  30.228  33.994  1.00  0.00     0.074 A 
ATOM     58  C   UNL A   1      43.192  26.339  29.088  1.00  0.00     0.029 A 
ATOM     59  N   UNL A   1      42.720  27.976  30.482  1.00  0.00    -0.354 N 
ATOM     60  N   UNL A   1      42.734  29.401  32.980  1.00  0.00    -0.248 NA
ATOM     61  C   UNL A   1      43.610  29.800  35.107  1.00  0.00     0.031 C 
ATOM     62  C   UNL A   1      43.710  26.009  30.360  1.00  0.00     0.029 A 
ATOM     63  C   UNL A   1      43.476  27.061  31.219  1.00  0.00     0.049 A 
ATOM     64  H   UNL A   1      42.479  28.877  30.798  1.00  0.00     0.167 HD
ATOM     65  C   UNL A   1      43.593  28.359  33.323  1.00  0.00     0.074 A 
ATOM     66  C   UNL A   1      44.129  28.677  34.631  1.00  0.00     0.031 C 
ATOM     67  C   UNL A   1      43.921  27.260  32.593  1.00  0.00     0.037 A 
BRANCH  54  68
ATOM     68  C   UNL A   1      41.185  26.525  27.027  1.00  0.00     0.064 A 
ATOM     69  C   UNL A   1      40.740  25.200  27.232  1.00  0.00     0.173 A 
ATOM     70  C   UNL A   1      42.141  26.708  25.991  1.00  0.00     0.173 A 
ATOM     71  F   UNL A   1      39.756  24.914  28.094  1.00  0.00    -0.203 F 
ATOM     72  C   UNL A   1      41.460  24.128  26.696  1.00  0.00     0.198 A 
ATOM     73  C   UNL A   1      42.817  25.630  25.428  1.00  0.00     0.198 A 
ATOM     74  F   UNL A   1      42.496  27.934  25.579  1.00  0.00    -0.203 F 
ATOM     75  F   UNL A   1      41.193  22.881  27.114  1.00  0.00    -0.200 F 
ATOM     76  C   UNL A   1      42.527  24.346  25.841  1.00  0.00     0.200 A 
ATOM     77  F   UNL A   1      43.819  25.848  24.564  1.00  0.00    -0.200 F 
ATOM     78  F   UNL A   1      43.296  23.323  25.443  1.00  0.00    -0.200 F 
ENDBRANCH  54  68
BRANCH  55  79
ATOM     79  C   UNL A   1      42.426  32.434  35.320  1.00  0.00     0.064 A 
ATOM     80  C   UNL A   1      41.713  32.466  36.531  1.00  0.00     0.173 A 
ATOM     81  C   UNL A   1      43.501  33.336  35.198  1.00  0.00     0.173 A 
ATOM     82  F   UNL A   1      40.638  31.680  36.698  1.00  0.00    -0.203 F 
ATOM     83  C   UNL A   1      42.062  33.347  37.561  1.00  0.00     0.198 A 
ATOM     84  C   UNL A   1      43.878  34.181  36.244  1.00  0.00     0.198 A 
ATOM     85  F   UNL A   1      44.198  33.400  34.054  1.00  0.00    -0.203 F 
ATOM     86  F   UNL A   1      41.327  33.394  38.682  1.00  0.00    -0.200 F 
ATOM     87  C   UNL A   1      43.153  34.193  37.422  1.00  0.00     0.200 A 
ATOM     88  F   UNL A   1      44.936  34.989  36.100  1.00  0.00    -0.200 F 
ATOM     89  F   UNL A   1      43.492  35.028  38.413  1.00  0.00    -0.200 F 
ENDBRANCH  55  79
BRANCH  67  90
ATOM     90  C   UNL A   1      44.878  26.259  33.224  1.00  0.00     0.064 A 
ATOM     91  C   UNL A   1      46.269  26.255  32.988  1.00  0.00     0.173 A 
ATOM     92  C   UNL A   1      44.385  25.259  34.079  1.00  0.00     0.173 A 
ATOM     93  F   UNL A   1      46.823  27.163  32.169  1.00  0.00    -0.203 F 
ATOM     94  C   UNL A   1      47.102  25.279  33.542  1.00  0.00     0.198 A 
ATOM     95  C   UNL A   1      45.227  24.319  34.674  1.00  0.00     0.198 A 
ATOM     96  F   UNL A   1      43.071  25.178  34.338  1.00  0.00    -0.203 F 
ATOM     97  F   UNL A   1      48.406  25.252  33.228  1.00  0.00    -0.200 F 
ATOM     98  C   UNL A   1      46.582  24.318  34.393  1.00  0.00     0.200 A 
ATOM     99  F   UNL A   1      44.717  23.403  35.509  1.00  0.00    -0.200 F 
ATOM    100  F   UNL A   1      47.381  23.385  34.930  1.00  0.00    -0.200 F 
ENDBRANCH  67  90
ENDBRANCH  41  42
ENDBRANCH  34  36
ENDBRANCH  33  34
ENDBRANCH  32  33
ENDBRANCH   1  32
TORSDOF 15
ENDMDL
MODEL 3
REMARK VINA RESULT:     -13.9      0.784      1.770
REMARK SMILES Cc1cc(C(=O)OCCOC(=O)c2ccc(-c3c4nc(c(-c5c(F)c(F)c(F)c(F)c5F)c5ccc([nH]5)c(-c5c(F)c(F)c(F)c(F)c5F)c5nc(c(-c6c(F)c(F)c(F)c(F)c6F)c6ccc3[nH]6)C=C5)C=C4)cc2)cc(S(=O)(=O)NNC(=O)c2c[nH]c3ccccc23)c1C
REMARK SMILES IDX 8 1 7 2 5 3 6 4 4 5 1 6 2 7 3 8 94 9 77 10 95 11 76 12 78 13
REMARK SMILES IDX 79 14 80 15 81 16 82 18 83 19 84 21 85 22 86 23 93 24 87 25
REMARK SMILES IDX 88 26 92 27 89 29 91 30 90 31 9 32 10 33 11 34 12 35 13 36
REMARK SMILES IDX 14 37 75 38 15 39 74 40 16 41 17 42 18 43 68 44 19 45 73 46
REMARK SMILES IDX 67 47 69 48 20 49 72 50 66 51 65 52 21 54 53 55 33 56 52 57
REMARK SMILES IDX 34 58 37 59 51 60 70 61 35 62 36 63 50 65 71 66 38 67 22 68
REMARK SMILES IDX 23 69 31 70 24 71 25 72 29 73 32 74 26 75 27 76 30 77 28 78
REMARK SMILES IDX 54 79 55 80 63 81 56 82 57 83 61 84 64 85 58 86 59 87 62 88
REMARK SMILES IDX 60 89 39 90 40 91 48 92 41 93 42 94 46 95 49 96 43 97 44 98
REMARK SMILES IDX 47 99 45 100
REMARK H PARENT 81 17 82 20 87 28 69 53 37 64
REMARK Flexibility Score: inf
ROOT
ATOM      1  C   UNL A   1      44.397  20.107  25.269  1.00  0.00     0.275 C 
ENDROOT
BRANCH   1   2
ATOM      2  O   UNL A   1      43.355  20.526  26.190  1.00  0.00    -0.458 OA
BRANCH   2   3
ATOM      3  C   UNL A   1      42.112  19.983  26.056  1.00  0.00     0.338 C 
ATOM      4  O   UNL A   1      41.860  18.827  25.761  1.00  0.00    -0.246 OA
BRANCH   3   5
ATOM      5  C   UNL A   1      41.037  20.989  26.352  1.00  0.00     0.061 A 
ATOM      6  C   UNL A   1      41.167  24.271  28.197  1.00  0.00     0.044 C 
ATOM      7  C   UNL A   1      40.587  23.127  27.389  1.00  0.00    -0.046 A 
ATOM      8  C   UNL A   1      41.431  22.039  27.179  1.00  0.00     0.019 A 
ATOM      9  C   UNL A   1      39.285  23.132  26.792  1.00  0.00    -0.028 A 
ATOM     10  C   UNL A   1      38.822  22.012  25.993  1.00  0.00     0.088 A 
ATOM     11  C   UNL A   1      38.436  24.371  26.971  1.00  0.00     0.046 C 
ATOM     12  C   UNL A   1      39.734  20.975  25.748  1.00  0.00     0.037 A 
BRANCH  10  13
ATOM     13  S   UNL A   1      37.054  22.034  25.379  1.00  0.00     0.257 S 
ATOM     14  O   UNL A   1      36.347  22.786  26.400  1.00  0.00    -0.205 OA
ATOM     15  O   UNL A   1      37.135  22.513  24.014  1.00  0.00    -0.205 OA
BRANCH  13  16
ATOM     16  N   UNL A   1      36.082  20.448  25.232  1.00  0.00    -0.123 NA
ATOM     17  H   UNL A   1      36.227  19.885  26.071  1.00  0.00     0.167 HD
BRANCH  16  18
ATOM     18  N   UNL A   1      34.641  20.736  25.083  1.00  0.00    -0.273 N 
ATOM     19  C   UNL A   1      33.437  21.367  24.830  1.00  0.00     0.268 C 
ATOM     20  H   UNL A   1      34.289  19.858  25.357  1.00  0.00     0.186 HD
ATOM     21  O   UNL A   1      32.775  20.349  25.233  1.00  0.00    -0.268 OA
BRANCH  19  22
ATOM     22  C   UNL A   1      32.405  22.803  24.388  1.00  0.00     0.066 A 
ATOM     23  C   UNL A   1      33.877  23.176  23.305  1.00  0.00     0.097 A 
ATOM     24  C   UNL A   1      32.087  24.633  25.434  1.00  0.00     0.012 A 
ATOM     25  N   UNL A   1      34.663  24.792  23.822  1.00  0.00    -0.360 N 
ATOM     26  C   UNL A   1      33.571  25.734  25.044  1.00  0.00     0.046 A 
ATOM     27  C   UNL A   1      31.172  25.387  26.226  1.00  0.00     0.011 A 
ATOM     28  H   UNL A   1      35.536  25.112  23.498  1.00  0.00     0.166 HD
ATOM     29  C   UNL A   1      33.813  26.967  25.620  1.00  0.00     0.027 A 
ATOM     30  C   UNL A   1      31.517  26.751  26.579  1.00  0.00     0.001 A 
ATOM     31  C   UNL A   1      32.736  27.469  26.329  1.00  0.00     0.002 A 
ENDBRANCH  19  22
ENDBRANCH  16  18
ENDBRANCH  13  16
ENDBRANCH  10  13
ENDBRANCH   3   5
ENDBRANCH   2   3
ENDBRANCH   1   2
BRANCH   1  32
ATOM     32  C   UNL A   1      45.483  21.180  25.113  1.00  0.00     0.275 C 
BRANCH  32  33
ATOM     33  O   UNL A   1      45.001  22.436  25.600  1.00  0.00    -0.458 OA
BRANCH  33  34
ATOM     34  C   UNL A   1      45.725  23.491  25.183  1.00  0.00     0.338 C 
ATOM     35  O   UNL A   1      46.705  23.509  24.460  1.00  0.00    -0.246 OA
BRANCH  34  36
ATOM     36  C   UNL A   1      45.013  24.698  25.574  1.00  0.00     0.060 A 
ATOM     37  C   UNL A   1      45.748  25.643  26.267  1.00  0.00     0.016 A 
ATOM     38  C   UNL A   1      43.638  24.814  25.445  1.00  0.00     0.016 A 
ATOM     39  C   UNL A   1      45.114  26.582  27.035  1.00  0.00     0.010 A 
ATOM     40  C   UNL A   1      43.003  25.876  26.081  1.00  0.00     0.010 A 
ATOM     41  C   UNL A   1      43.731  26.698  26.955  1.00  0.00    -0.014 A 
BRANCH  41  42
ATOM     42  C   UNL A   1      43.053  27.492  27.985  1.00  0.00     0.031 A 
ATOM     43  C   UNL A   1      41.885  28.300  27.474  1.00  0.00     0.074 A 
ATOM     44  C   UNL A   1      43.261  27.246  29.320  1.00  0.00     0.049 A 
ATOM     45  N   UNL A   1      41.049  28.756  28.322  1.00  0.00    -0.248 NA
ATOM     46  C   UNL A   1      41.441  28.486  26.094  1.00  0.00     0.031 C 
ATOM     47  C   UNL A   1      44.170  26.199  29.819  1.00  0.00     0.029 A 
ATOM     48  N   UNL A   1      42.709  27.745  30.506  1.00  0.00    -0.354 N 
ATOM     49  C   UNL A   1      39.659  29.299  27.651  1.00  0.00     0.074 A 
ATOM     50  C   UNL A   1      40.212  29.035  26.152  1.00  0.00     0.031 C 
ATOM     51  C   UNL A   1      44.055  26.080  31.148  1.00  0.00     0.029 A 
ATOM     52  C   UNL A   1      43.213  27.154  31.661  1.00  0.00     0.049 A 
ATOM     53  H   UNL A   1      42.024  28.452  30.521  1.00  0.00     0.167 HD
ATOM     54  C   UNL A   1      38.271  30.222  28.665  1.00  0.00     0.037 A 
ATOM     55  C   UNL A   1      43.121  27.419  32.990  1.00  0.00     0.037 A 
ATOM     56  C   UNL A   1      38.145  30.555  30.374  1.00  0.00     0.049 A 
ATOM     57  C   UNL A   1      42.266  28.550  33.501  1.00  0.00     0.074 A 
ATOM     58  C   UNL A   1      37.296  31.465  31.012  1.00  0.00     0.029 A 
ATOM     59  N   UNL A   1      39.032  30.177  31.428  1.00  0.00    -0.354 N 
ATOM     60  N   UNL A   1      41.293  29.192  32.907  1.00  0.00    -0.248 NA
ATOM     61  C   UNL A   1      42.523  29.000  34.881  1.00  0.00     0.031 C 
ATOM     62  C   UNL A   1      37.905  31.903  32.209  1.00  0.00     0.029 A 
ATOM     63  C   UNL A   1      38.952  31.058  32.508  1.00  0.00     0.049 A 
ATOM     64  H   UNL A   1      39.626  29.392  31.396  1.00  0.00     0.167 HD
ATOM     65  C   UNL A   1      40.816  30.116  33.834  1.00  0.00     0.074 A 
ATOM     66  C   UNL A   1      41.592  29.928  35.044  1.00  0.00     0.031 C 
ATOM     67  C   UNL A   1      39.804  31.011  33.690  1.00  0.00     0.037 A 
BRANCH  54  68
ATOM     68  C   UNL A   1      36.913  31.289  28.161  1.00  0.00     0.064 A 
ATOM     69  C   UNL A   1      36.890  32.688  28.356  1.00  0.00     0.173 A 
ATOM     70  C   UNL A   1      35.662  30.680  27.871  1.00  0.00     0.173 A 
ATOM     71  F   UNL A   1      38.017  33.394  28.516  1.00  0.00    -0.203 F 
ATOM     72  C   UNL A   1      35.680  33.343  28.598  1.00  0.00     0.198 A 
ATOM     73  C   UNL A   1      34.462  31.357  28.068  1.00  0.00     0.198 A 
ATOM     74  F   UNL A   1      35.583  29.399  27.485  1.00  0.00    -0.203 F 
ATOM     75  F   UNL A   1      35.693  34.608  29.046  1.00  0.00    -0.200 F 
ATOM     76  C   UNL A   1      34.476  32.665  28.506  1.00  0.00     0.200 A 
ATOM     77  F   UNL A   1      33.298  30.706  27.932  1.00  0.00    -0.200 F 
ATOM     78  F   UNL A   1      33.333  33.263  28.874  1.00  0.00    -0.200 F 
ENDBRANCH  54  68
BRANCH  55  79
ATOM     79  C   UNL A   1      43.990  26.672  33.977  1.00  0.00     0.064 A 
ATOM     80  C   UNL A   1      45.359  26.946  34.138  1.00  0.00     0.173 A 
ATOM     81  C   UNL A   1      43.469  25.603  34.733  1.00  0.00     0.173 A 
ATOM     82  F   UNL A   1      45.940  27.908  33.405  1.00  0.00    -0.203 F 
ATOM     83  C   UNL A   1      46.156  26.196  35.010  1.00  0.00     0.198 A 
ATOM     84  C   UNL A   1      44.255  24.886  35.638  1.00  0.00     0.198 A 
ATOM     85  F   UNL A   1      42.182  25.248  34.597  1.00  0.00    -0.203 F 
ATOM     86  F   UNL A   1      47.472  26.445  35.097  1.00  0.00    -0.200 F 
ATOM     87  C   UNL A   1      45.601  25.177  35.770  1.00  0.00     0.200 A 
ATOM     88  F   UNL A   1      43.705  23.909  36.370  1.00  0.00    -0.200 F 
ATOM     89  F   UNL A   1      46.363  24.467  36.612  1.00  0.00    -0.200 F 
ENDBRANCH  55  79
BRANCH  67  90
ATOM     90  C   UNL A   1      39.503  31.926  34.868  1.00  0.00     0.064 A 
ATOM     91  C   UNL A   1      38.664  31.562  35.942  1.00  0.00     0.173 A 
ATOM     92  C   UNL A   1      40.060  33.216  34.917  1.00  0.00     0.173 A 
ATOM     93  F   UNL A   1      38.075  30.357  35.968  1.00  0.00    -0.203 F 
ATOM     94  C   UNL A   1      38.368  32.458  36.975  1.00  0.00     0.198 A 
ATOM     95  C   UNL A   1      39.805  34.087  35.976  1.00  0.00     0.198 A 
ATOM     96  F   UNL A   1      40.851  33.648  33.924  1.00  0.00    -0.203 F 
ATOM     97  F   UNL A   1      37.497  32.111  37.935  1.00  0.00    -0.200 F 
ATOM     98  C   UNL A   1      38.947  33.715  36.996  1.00  0.00     0.200 A 
ATOM     99  F   UNL A   1      40.383  35.296  35.997  1.00  0.00    -0.200 F 
ATOM    100  F   UNL A   1      38.668  34.572  37.989  1.00  0.00    -0.200 F 
ENDBRANCH  67  90
ENDBRANCH  41  42
ENDBRANCH  34  36
ENDBRANCH  33  34
ENDBRANCH  32  33
ENDBRANCH   1  32
TORSDOF 15
ENDMDL
