MODEL 1
REMARK VINA RESULT:     -12.3      0.000      0.000
REMARK SMILES CCN(C(=O)Cc1c(C(=O)OCCOC(=O)c2ccc(-c3c4nc(c(-c5c(F)c(F)c(F)c(F)c5F)c5ccc([nH]5)c(-c5c(F)c(F)c(F)c(F)c5F)c5nc(c(-c6c(F)c(F)c(F)c(F)c6F)c6ccc3[nH]6)C=C5)C=C4)cc2)[nH]c2ccccc12)c1cccc(C)c1
REMARK SMILES IDX 12 1 11 2 9 3 10 4 8 5 7 6 86 7 80 8 81 9 85 10 82 12 84 13
REMARK SMILES IDX 83 14 6 15 4 16 5 17 3 18 2 19 1 20 87 21 88 22 93 23 89 24
REMARK SMILES IDX 91 25 90 26 92 27 13 28 14 29 15 30 16 31 17 32 18 33 79 34
REMARK SMILES IDX 19 35 78 36 20 37 21 38 22 39 72 40 23 41 77 42 71 43 73 44
REMARK SMILES IDX 24 45 76 46 70 47 69 48 25 50 57 51 37 52 56 53 38 54 41 55
REMARK SMILES IDX 55 56 74 57 39 58 40 59 54 61 75 62 42 63 26 64 27 65 35 66
REMARK SMILES IDX 28 67 29 68 33 69 36 70 30 71 31 72 34 73 32 74 58 75 59 76
REMARK SMILES IDX 67 77 60 78 61 79 65 80 68 81 62 82 63 83 66 84 64 85 43 86
REMARK SMILES IDX 44 87 52 88 45 89 46 90 50 91 53 92 47 93 48 94 51 95 49 96
REMARK H PARENT 80 11 73 49 41 60
REMARK Flexibility Score: inf
ROOT
ATOM      1  C   UNL A   1      31.757  27.933  26.800  1.00  0.00     0.275 C 
ENDROOT
BRANCH   1   2
ATOM      2  O   UNL A   1      32.753  26.985  26.329  1.00  0.00    -0.457 OA
BRANCH   2   3
ATOM      3  C   UNL A   1      32.427  25.658  26.452  1.00  0.00     0.355 C 
ATOM      4  O   UNL A   1      31.318  25.238  26.710  1.00  0.00    -0.244 OA
BRANCH   3   5
ATOM      5  C   UNL A   1      33.565  24.819  26.096  1.00  0.00     0.129 A 
ATOM      6  C   UNL A   1      34.337  24.837  24.926  1.00  0.00     0.002 A 
ATOM      7  C   UNL A   1      35.063  23.614  24.888  1.00  0.00     0.004 A 
ATOM      8  N   UNL A   1      34.088  23.818  26.883  1.00  0.00    -0.349 N 
ATOM      9  C   UNL A   1      34.937  23.023  26.143  1.00  0.00     0.046 A 
ATOM     10  C   UNL A   1      35.800  22.950  23.888  1.00  0.00     0.010 A 
ATOM     11  H   UNL A   1      33.885  23.687  27.838  1.00  0.00     0.167 HD
ATOM     12  C   UNL A   1      35.584  21.827  26.473  1.00  0.00     0.027 A 
ATOM     13  C   UNL A   1      36.395  21.720  24.181  1.00  0.00     0.001 A 
ATOM     14  C   UNL A   1      36.307  21.181  25.462  1.00  0.00     0.002 A 
BRANCH   6  15
ATOM     15  C   UNL A   1      34.288  25.849  23.826  1.00  0.00     0.139 C 
BRANCH  15  16
ATOM     16  C   UNL A   1      33.253  25.699  22.684  1.00  0.00     0.231 C 
ATOM     17  O   UNL A   1      33.649  25.879  21.526  1.00  0.00    -0.274 OA
BRANCH  16  18
ATOM     18  N   UNL A   1      31.957  25.223  22.970  1.00  0.00    -0.312 N 
BRANCH  18  19
ATOM     19  C   UNL A   1      31.667  23.800  23.116  1.00  0.00     0.122 C 
ATOM     20  C   UNL A   1      32.572  22.888  22.306  1.00  0.00     0.028 C 
ENDBRANCH  18  19
BRANCH  18  21
ATOM     21  C   UNL A   1      30.781  26.062  22.934  1.00  0.00     0.044 A 
ATOM     22  C   UNL A   1      29.624  25.741  23.643  1.00  0.00     0.026 A 
ATOM     23  C   UNL A   1      30.858  27.348  22.372  1.00  0.00     0.029 A 
ATOM     24  C   UNL A   1      28.641  26.710  23.883  1.00  0.00     0.002 A 
ATOM     25  C   UNL A   1      29.914  28.342  22.647  1.00  0.00    -0.049 A 
ATOM     26  C   UNL A   1      28.797  28.013  23.409  1.00  0.00     0.003 A 
ATOM     27  C   UNL A   1      30.138  29.734  22.135  1.00  0.00     0.044 C 
ENDBRANCH  18  21
ENDBRANCH  16  18
ENDBRANCH  15  16
ENDBRANCH   6  15
ENDBRANCH   3   5
ENDBRANCH   2   3
ENDBRANCH   1   2
BRANCH   1  28
ATOM     28  C   UNL A   1      31.625  29.184  25.906  1.00  0.00     0.275 C 
BRANCH  28  29
ATOM     29  O   UNL A   1      32.874  29.893  25.877  1.00  0.00    -0.458 OA
BRANCH  29  30
ATOM     30  C   UNL A   1      33.031  30.962  26.706  1.00  0.00     0.338 C 
ATOM     31  O   UNL A   1      32.228  31.862  26.873  1.00  0.00    -0.246 OA
BRANCH  30  32
ATOM     32  C   UNL A   1      34.325  30.813  27.447  1.00  0.00     0.060 A 
ATOM     33  C   UNL A   1      34.658  29.580  28.001  1.00  0.00     0.016 A 
ATOM     34  C   UNL A   1      35.195  31.888  27.663  1.00  0.00     0.016 A 
ATOM     35  C   UNL A   1      35.734  29.452  28.876  1.00  0.00     0.010 A 
ATOM     36  C   UNL A   1      36.370  31.719  28.435  1.00  0.00     0.010 A 
ATOM     37  C   UNL A   1      36.653  30.491  29.052  1.00  0.00    -0.014 A 
BRANCH  37  38
ATOM     38  C   UNL A   1      37.949  30.186  29.732  1.00  0.00     0.031 A 
ATOM     39  C   UNL A   1      39.005  29.302  29.128  1.00  0.00     0.074 A 
ATOM     40  C   UNL A   1      38.197  30.764  30.927  1.00  0.00     0.049 A 
ATOM     41  N   UNL A   1      40.059  28.768  29.700  1.00  0.00    -0.248 NA
ATOM     42  C   UNL A   1      38.880  28.985  27.702  1.00  0.00     0.031 C 
ATOM     43  C   UNL A   1      37.313  31.717  31.606  1.00  0.00     0.029 A 
ATOM     44  N   UNL A   1      39.265  30.650  31.783  1.00  0.00    -0.354 N 
ATOM     45  C   UNL A   1      40.693  28.017  28.717  1.00  0.00     0.074 A 
ATOM     46  C   UNL A   1      39.914  28.175  27.507  1.00  0.00     0.031 C 
ATOM     47  C   UNL A   1      37.889  32.133  32.737  1.00  0.00     0.029 A 
ATOM     48  C   UNL A   1      39.103  31.362  32.947  1.00  0.00     0.049 A 
ATOM     49  H   UNL A   1      40.066  30.112  31.583  1.00  0.00     0.167 HD
ATOM     50  C   UNL A   1      41.817  27.265  28.827  1.00  0.00     0.037 A 
ATOM     51  C   UNL A   1      39.784  31.336  34.106  1.00  0.00     0.037 A 
ATOM     52  C   UNL A   1      42.623  27.167  30.024  1.00  0.00     0.049 A 
ATOM     53  C   UNL A   1      40.950  30.413  34.245  1.00  0.00     0.074 A 
ATOM     54  C   UNL A   1      43.785  26.440  30.226  1.00  0.00     0.029 A 
ATOM     55  N   UNL A   1      42.359  27.829  31.213  1.00  0.00    -0.354 N 
ATOM     56  N   UNL A   1      41.472  29.609  33.355  1.00  0.00    -0.248 NA
ATOM     57  C   UNL A   1      41.603  30.373  35.558  1.00  0.00     0.031 C 
ATOM     58  C   UNL A   1      44.198  26.626  31.550  1.00  0.00     0.029 A 
ATOM     59  C   UNL A   1      43.322  27.507  32.160  1.00  0.00     0.049 A 
ATOM     60  H   UNL A   1      41.601  28.438  31.364  1.00  0.00     0.167 HD
ATOM     61  C   UNL A   1      42.515  28.962  33.996  1.00  0.00     0.074 A 
ATOM     62  C   UNL A   1      42.566  29.486  35.346  1.00  0.00     0.031 C 
ATOM     63  C   UNL A   1      43.352  28.015  33.507  1.00  0.00     0.037 A 
BRANCH  50  64
ATOM     64  C   UNL A   1      42.242  26.439  27.647  1.00  0.00     0.064 A 
ATOM     65  C   UNL A   1      43.248  26.855  26.764  1.00  0.00     0.173 A 
ATOM     66  C   UNL A   1      41.704  25.153  27.467  1.00  0.00     0.173 A 
ATOM     67  F   UNL A   1      43.797  28.071  26.891  1.00  0.00    -0.203 F 
ATOM     68  C   UNL A   1      43.693  26.019  25.739  1.00  0.00     0.198 A 
ATOM     69  C   UNL A   1      42.169  24.312  26.458  1.00  0.00     0.198 A 
ATOM     70  F   UNL A   1      40.751  24.698  28.294  1.00  0.00    -0.203 F 
ATOM     71  F   UNL A   1      44.646  26.441  24.896  1.00  0.00    -0.200 F 
ATOM     72  C   UNL A   1      43.161  24.745  25.595  1.00  0.00     0.200 A 
ATOM     73  F   UNL A   1      41.667  23.075  26.336  1.00  0.00    -0.200 F 
ATOM     74  F   UNL A   1      43.610  23.935  24.627  1.00  0.00    -0.200 F 
ENDBRANCH  50  64
BRANCH  51  75
ATOM     75  C   UNL A   1      39.280  32.138  35.250  1.00  0.00     0.064 A 
ATOM     76  C   UNL A   1      38.493  31.560  36.252  1.00  0.00     0.173 A 
ATOM     77  C   UNL A   1      39.641  33.488  35.393  1.00  0.00     0.173 A 
ATOM     78  F   UNL A   1      38.102  30.282  36.144  1.00  0.00    -0.203 F 
ATOM     79  C   UNL A   1      38.096  32.301  37.364  1.00  0.00     0.198 A 
ATOM     80  C   UNL A   1      39.275  34.215  36.521  1.00  0.00     0.198 A 
ATOM     81  F   UNL A   1      40.396  34.085  34.459  1.00  0.00    -0.203 F 
ATOM     82  F   UNL A   1      37.326  31.735  38.301  1.00  0.00    -0.200 F 
ATOM     83  C   UNL A   1      38.501  33.621  37.504  1.00  0.00     0.200 A 
ATOM     84  F   UNL A   1      39.690  35.481  36.663  1.00  0.00    -0.200 F 
ATOM     85  F   UNL A   1      38.145  34.322  38.590  1.00  0.00    -0.200 F 
ENDBRANCH  51  75
BRANCH  63  86
ATOM     86  C   UNL A   1      44.405  27.506  34.442  1.00  0.00     0.064 A 
ATOM     87  C   UNL A   1      44.196  26.358  35.221  1.00  0.00     0.173 A 
ATOM     88  C   UNL A   1      45.626  28.181  34.577  1.00  0.00     0.173 A 
ATOM     89  F   UNL A   1      43.034  25.692  35.144  1.00  0.00    -0.203 F 
ATOM     90  C   UNL A   1      45.162  25.922  36.124  1.00  0.00     0.198 A 
ATOM     91  C   UNL A   1      46.600  27.729  35.462  1.00  0.00     0.198 A 
ATOM     92  F   UNL A   1      45.870  29.285  33.854  1.00  0.00    -0.203 F 
ATOM     93  F   UNL A   1      44.920  24.858  36.900  1.00  0.00    -0.200 F 
ATOM     94  C   UNL A   1      46.363  26.606  36.241  1.00  0.00     0.200 A 
ATOM     95  F   UNL A   1      47.762  28.387  35.572  1.00  0.00    -0.200 F 
ATOM     96  F   UNL A   1      47.288  26.192  37.118  1.00  0.00    -0.200 F 
ENDBRANCH  63  86
ENDBRANCH  37  38
ENDBRANCH  30  32
ENDBRANCH  29  30
ENDBRANCH  28  29
ENDBRANCH   1  28
TORSDOF 16
ENDMDL
MODEL 2
REMARK VINA RESULT:     -12.3      3.992      9.348
REMARK SMILES CCN(C(=O)Cc1c(C(=O)OCCOC(=O)c2ccc(-c3c4nc(c(-c5c(F)c(F)c(F)c(F)c5F)c5ccc([nH]5)c(-c5c(F)c(F)c(F)c(F)c5F)c5nc(c(-c6c(F)c(F)c(F)c(F)c6F)c6ccc3[nH]6)C=C5)C=C4)cc2)[nH]c2ccccc12)c1cccc(C)c1
REMARK SMILES IDX 12 1 11 2 9 3 10 4 8 5 7 6 86 7 80 8 81 9 85 10 82 12 84 13
REMARK SMILES IDX 83 14 6 15 4 16 5 17 3 18 2 19 1 20 87 21 88 22 93 23 89 24
REMARK SMILES IDX 91 25 90 26 92 27 13 28 14 29 15 30 16 31 17 32 18 33 79 34
REMARK SMILES IDX 19 35 78 36 20 37 21 38 22 39 72 40 23 41 77 42 71 43 73 44
REMARK SMILES IDX 24 45 76 46 70 47 69 48 25 50 57 51 37 52 56 53 38 54 41 55
REMARK SMILES IDX 55 56 74 57 39 58 40 59 54 61 75 62 42 63 26 64 27 65 35 66
REMARK SMILES IDX 28 67 29 68 33 69 36 70 30 71 31 72 34 73 32 74 58 75 59 76
REMARK SMILES IDX 67 77 60 78 61 79 65 80 68 81 62 82 63 83 66 84 64 85 43 86
REMARK SMILES IDX 44 87 52 88 45 89 46 90 50 91 53 92 47 93 48 94 51 95 49 96
REMARK H PARENT 80 11 73 49 41 60
REMARK Flexibility Score: inf
ROOT
ATOM      1  C   UNL A   1      34.924  22.541  23.616  1.00  0.00     0.275 C 
ENDROOT
BRANCH   1   2
ATOM      2  O   UNL A   1      34.696  23.728  22.810  1.00  0.00    -0.457 OA
BRANCH   2   3
ATOM      3  C   UNL A   1      33.535  23.745  22.079  1.00  0.00     0.355 C 
ATOM      4  O   UNL A   1      33.279  22.987  21.167  1.00  0.00    -0.244 OA
BRANCH   3   5
ATOM      5  C   UNL A   1      32.595  24.712  22.637  1.00  0.00     0.129 A 
ATOM      6  C   UNL A   1      31.504  24.484  23.486  1.00  0.00     0.002 A 
ATOM      7  C   UNL A   1      30.693  25.653  23.443  1.00  0.00     0.004 A 
ATOM      8  N   UNL A   1      32.622  26.067  22.403  1.00  0.00    -0.349 N 
ATOM      9  C   UNL A   1      31.438  26.646  22.810  1.00  0.00     0.046 A 
ATOM     10  C   UNL A   1      29.384  25.946  23.871  1.00  0.00     0.010 A 
ATOM     11  H   UNL A   1      33.377  26.556  22.002  1.00  0.00     0.167 HD
ATOM     12  C   UNL A   1      30.961  27.951  22.653  1.00  0.00     0.027 A 
ATOM     13  C   UNL A   1      28.866  27.227  23.660  1.00  0.00     0.001 A 
ATOM     14  C   UNL A   1      29.654  28.219  23.081  1.00  0.00     0.002 A 
BRANCH   6  15
ATOM     15  C   UNL A   1      31.142  23.205  24.172  1.00  0.00     0.139 C 
BRANCH  15  16
ATOM     16  C   UNL A   1      31.140  23.132  25.719  1.00  0.00     0.231 C 
ATOM     17  O   UNL A   1      30.159  22.610  26.265  1.00  0.00    -0.274 OA
BRANCH  16  18
ATOM     18  N   UNL A   1      32.290  23.509  26.441  1.00  0.00    -0.312 N 
BRANCH  18  19
ATOM     19  C   UNL A   1      32.883  22.649  27.460  1.00  0.00     0.122 C 
ATOM     20  C   UNL A   1      33.651  21.460  26.910  1.00  0.00     0.028 C 
ENDBRANCH  18  19
BRANCH  18  21
ATOM     21  C   UNL A   1      32.853  24.839  26.393  1.00  0.00     0.044 A 
ATOM     22  C   UNL A   1      34.096  25.094  25.815  1.00  0.00     0.026 A 
ATOM     23  C   UNL A   1      32.052  25.948  26.717  1.00  0.00     0.029 A 
ATOM     24  C   UNL A   1      34.466  26.399  25.463  1.00  0.00     0.002 A 
ATOM     25  C   UNL A   1      32.381  27.249  26.325  1.00  0.00    -0.049 A 
ATOM     26  C   UNL A   1      33.602  27.469  25.693  1.00  0.00     0.003 A 
ATOM     27  C   UNL A   1      31.409  28.363  26.573  1.00  0.00     0.044 C 
ENDBRANCH  18  21
ENDBRANCH  16  18
ENDBRANCH  15  16
ENDBRANCH   6  15
ENDBRANCH   3   5
ENDBRANCH   2   3
ENDBRANCH   1   2
BRANCH   1  28
ATOM     28  C   UNL A   1      36.419  22.222  23.834  1.00  0.00     0.275 C 
BRANCH  28  29
ATOM     29  O   UNL A   1      36.694  22.128  25.240  1.00  0.00    -0.458 OA
BRANCH  29  30
ATOM     30  C   UNL A   1      37.884  21.594  25.633  1.00  0.00     0.338 C 
ATOM     31  O   UNL A   1      38.218  20.428  25.515  1.00  0.00    -0.246 OA
BRANCH  30  32
ATOM     32  C   UNL A   1      38.756  22.691  26.163  1.00  0.00     0.060 A 
ATOM     33  C   UNL A   1      38.467  24.012  25.837  1.00  0.00     0.016 A 
ATOM     34  C   UNL A   1      39.900  22.437  26.930  1.00  0.00     0.016 A 
ATOM     35  C   UNL A   1      39.365  25.037  26.122  1.00  0.00     0.010 A 
ATOM     36  C   UNL A   1      40.737  23.501  27.345  1.00  0.00     0.010 A 
ATOM     37  C   UNL A   1      40.476  24.819  26.943  1.00  0.00    -0.014 A 
BRANCH  37  38
ATOM     38  C   UNL A   1      41.208  26.008  27.480  1.00  0.00     0.031 A 
ATOM     39  C   UNL A   1      40.566  27.035  28.370  1.00  0.00     0.074 A 
ATOM     40  C   UNL A   1      42.518  26.142  27.179  1.00  0.00     0.049 A 
ATOM     41  N   UNL A   1      41.007  28.223  28.711  1.00  0.00    -0.248 NA
ATOM     42  C   UNL A   1      39.274  26.687  28.972  1.00  0.00     0.031 C 
ATOM     43  C   UNL A   1      43.311  25.185  26.401  1.00  0.00     0.029 A 
ATOM     44  N   UNL A   1      43.423  27.125  27.498  1.00  0.00    -0.354 N 
ATOM     45  C   UNL A   1      40.028  28.781  29.524  1.00  0.00     0.074 A 
ATOM     46  C   UNL A   1      38.974  27.795  29.640  1.00  0.00     0.031 C 
ATOM     47  C   UNL A   1      44.579  25.598  26.343  1.00  0.00     0.029 A 
ATOM     48  C   UNL A   1      44.660  26.922  26.938  1.00  0.00     0.049 A 
ATOM     49  H   UNL A   1      43.206  27.898  28.070  1.00  0.00     0.167 HD
ATOM     50  C   UNL A   1      40.018  30.004  30.110  1.00  0.00     0.037 A 
ATOM     51  C   UNL A   1      45.723  27.736  26.813  1.00  0.00     0.037 A 
ATOM     52  C   UNL A   1      41.105  30.954  30.041  1.00  0.00     0.049 A 
ATOM     53  C   UNL A   1      45.648  29.122  27.365  1.00  0.00     0.074 A 
ATOM     54  C   UNL A   1      41.191  32.214  30.613  1.00  0.00     0.029 A 
ATOM     55  N   UNL A   1      42.301  30.743  29.372  1.00  0.00    -0.354 N 
ATOM     56  N   UNL A   1      44.672  29.692  28.025  1.00  0.00    -0.248 NA
ATOM     57  C   UNL A   1      46.809  29.988  27.129  1.00  0.00     0.031 C 
ATOM     58  C   UNL A   1      42.418  32.781  30.252  1.00  0.00     0.029 A 
ATOM     59  C   UNL A   1      43.119  31.857  29.497  1.00  0.00     0.049 A 
ATOM     60  H   UNL A   1      42.537  29.922  28.882  1.00  0.00     0.167 HD
ATOM     61  C   UNL A   1      45.096  30.984  28.284  1.00  0.00     0.074 A 
ATOM     62  C   UNL A   1      46.429  31.107  27.730  1.00  0.00     0.031 C 
ATOM     63  C   UNL A   1      44.434  31.979  28.923  1.00  0.00     0.037 A 
BRANCH  50  64
ATOM     64  C   UNL A   1      38.783  30.432  30.851  1.00  0.00     0.064 A 
ATOM     65  C   UNL A   1      38.681  30.359  32.247  1.00  0.00     0.173 A 
ATOM     66  C   UNL A   1      37.723  31.031  30.148  1.00  0.00     0.173 A 
ATOM     67  F   UNL A   1      39.665  29.799  32.966  1.00  0.00    -0.203 F 
ATOM     68  C   UNL A   1      37.563  30.861  32.911  1.00  0.00     0.198 A 
ATOM     69  C   UNL A   1      36.618  31.553  30.817  1.00  0.00     0.198 A 
ATOM     70  F   UNL A   1      37.775  31.141  28.812  1.00  0.00    -0.203 F 
ATOM     71  F   UNL A   1      37.479  30.770  34.246  1.00  0.00    -0.200 F 
ATOM     72  C   UNL A   1      36.538  31.467  32.197  1.00  0.00     0.200 A 
ATOM     73  F   UNL A   1      35.641  32.157  30.125  1.00  0.00    -0.200 F 
ATOM     74  F   UNL A   1      35.477  31.973  32.841  1.00  0.00    -0.200 F 
ENDBRANCH  50  64
BRANCH  51  75
ATOM     75  C   UNL A   1      46.893  27.270  26.025  1.00  0.00     0.064 A 
ATOM     76  C   UNL A   1      47.015  27.563  24.663  1.00  0.00     0.173 A 
ATOM     77  C   UNL A   1      47.947  26.580  26.648  1.00  0.00     0.173 A 
ATOM     78  F   UNL A   1      46.023  28.196  24.022  1.00  0.00    -0.203 F 
ATOM     79  C   UNL A   1      48.157  27.194  23.953  1.00  0.00     0.198 A 
ATOM     80  C   UNL A   1      49.101  26.246  25.946  1.00  0.00     0.198 A 
ATOM     81  F   UNL A   1      47.876  26.278  27.952  1.00  0.00    -0.203 F 
ATOM     82  F   UNL A   1      48.245  27.466  22.645  1.00  0.00    -0.200 F 
ATOM     83  C   UNL A   1      49.203  26.551  24.599  1.00  0.00     0.200 A 
ATOM     84  F   UNL A   1      50.118  25.647  26.581  1.00  0.00    -0.200 F 
ATOM     85  F   UNL A   1      50.313  26.225  23.921  1.00  0.00    -0.200 F 
ENDBRANCH  51  75
BRANCH  63  86
ATOM     86  C   UNL A   1      45.162  33.281  29.067  1.00  0.00     0.064 A 
ATOM     87  C   UNL A   1      45.024  34.303  28.117  1.00  0.00     0.173 A 
ATOM     88  C   UNL A   1      46.019  33.501  30.154  1.00  0.00     0.173 A 
ATOM     89  F   UNL A   1      44.233  34.129  27.048  1.00  0.00    -0.203 F 
ATOM     90  C   UNL A   1      45.744  35.489  28.235  1.00  0.00     0.198 A 
ATOM     91  C   UNL A   1      46.718  34.698  30.283  1.00  0.00     0.198 A 
ATOM     92  F   UNL A   1      46.185  32.551  31.087  1.00  0.00    -0.203 F 
ATOM     93  F   UNL A   1      45.642  36.430  27.287  1.00  0.00    -0.200 F 
ATOM     94  C   UNL A   1      46.587  35.686  29.318  1.00  0.00     0.200 A 
ATOM     95  F   UNL A   1      47.530  34.889  31.331  1.00  0.00    -0.200 F 
ATOM     96  F   UNL A   1      47.287  36.824  29.426  1.00  0.00    -0.200 F 
ENDBRANCH  63  86
ENDBRANCH  37  38
ENDBRANCH  30  32
ENDBRANCH  29  30
ENDBRANCH  28  29
ENDBRANCH   1  28
TORSDOF 16
ENDMDL
MODEL 3
REMARK VINA RESULT:     -12.3      1.015      4.072
REMARK SMILES CCN(C(=O)Cc1c(C(=O)OCCOC(=O)c2ccc(-c3c4nc(c(-c5c(F)c(F)c(F)c(F)c5F)c5ccc([nH]5)c(-c5c(F)c(F)c(F)c(F)c5F)c5nc(c(-c6c(F)c(F)c(F)c(F)c6F)c6ccc3[nH]6)C=C5)C=C4)cc2)[nH]c2ccccc12)c1cccc(C)c1
REMARK SMILES IDX 12 1 11 2 9 3 10 4 8 5 7 6 86 7 80 8 81 9 85 10 82 12 84 13
REMARK SMILES IDX 83 14 6 15 4 16 5 17 3 18 2 19 1 20 87 21 88 22 93 23 89 24
REMARK SMILES IDX 91 25 90 26 92 27 13 28 14 29 15 30 16 31 17 32 18 33 79 34
REMARK SMILES IDX 19 35 78 36 20 37 21 38 22 39 72 40 23 41 77 42 71 43 73 44
REMARK SMILES IDX 24 45 76 46 70 47 69 48 25 50 57 51 37 52 56 53 38 54 41 55
REMARK SMILES IDX 55 56 74 57 39 58 40 59 54 61 75 62 42 63 26 64 27 65 35 66
REMARK SMILES IDX 28 67 29 68 33 69 36 70 30 71 31 72 34 73 32 74 58 75 59 76
REMARK SMILES IDX 67 77 60 78 61 79 65 80 68 81 62 82 63 83 66 84 64 85 43 86
REMARK SMILES IDX 44 87 52 88 45 89 46 90 50 91 53 92 47 93 48 94 51 95 49 96
REMARK H PARENT 80 11 73 49 41 60
REMARK Flexibility Score: inf
ROOT
ATOM      1  C   UNL A   1      33.638  27.860  24.355  1.00  0.00     0.275 C 
ENDROOT
BRANCH   1   2
ATOM      2  O   UNL A   1      33.716  27.693  22.914  1.00  0.00    -0.457 OA
BRANCH   2   3
ATOM      3  C   UNL A   1      32.613  27.141  22.312  1.00  0.00     0.355 C 
ATOM      4  O   UNL A   1      32.602  26.079  21.724  1.00  0.00    -0.244 OA
BRANCH   3   5
ATOM      5  C   UNL A   1      31.426  27.941  22.593  1.00  0.00     0.129 A 
ATOM      6  C   UNL A   1      30.227  27.547  23.203  1.00  0.00     0.002 A 
ATOM      7  C   UNL A   1      29.263  28.553  22.912  1.00  0.00     0.004 A 
ATOM      8  N   UNL A   1      31.277  29.273  22.283  1.00  0.00    -0.349 N 
ATOM      9  C   UNL A   1      29.953  29.644  22.390  1.00  0.00     0.046 A 
ATOM     10  C   UNL A   1      27.862  28.622  23.032  1.00  0.00     0.010 A 
ATOM     11  H   UNL A   1      32.011  29.876  22.021  1.00  0.00     0.167 HD
ATOM     12  C   UNL A   1      29.312  30.840  22.051  1.00  0.00     0.027 A 
ATOM     13  C   UNL A   1      27.198  29.784  22.632  1.00  0.00     0.001 A 
ATOM     14  C   UNL A   1      27.917  30.884  22.172  1.00  0.00     0.002 A 
BRANCH   6  15
ATOM     15  C   UNL A   1      29.941  26.243  23.877  1.00  0.00     0.139 C 
BRANCH  15  16
ATOM     16  C   UNL A   1      30.835  25.767  25.050  1.00  0.00     0.231 C 
ATOM     17  O   UNL A   1      30.886  26.484  26.057  1.00  0.00    -0.274 OA
BRANCH  16  18
ATOM     18  N   UNL A   1      31.430  24.490  25.005  1.00  0.00    -0.312 N 
BRANCH  18  19
ATOM     19  C   UNL A   1      30.933  23.433  24.130  1.00  0.00     0.122 C 
ATOM     20  C   UNL A   1      31.954  22.907  23.137  1.00  0.00     0.028 C 
ENDBRANCH  18  19
BRANCH  18  21
ATOM     21  C   UNL A   1      32.428  24.050  25.951  1.00  0.00     0.044 A 
ATOM     22  C   UNL A   1      32.110  23.223  27.028  1.00  0.00     0.026 A 
ATOM     23  C   UNL A   1      33.791  24.251  25.674  1.00  0.00     0.029 A 
ATOM     24  C   UNL A   1      33.114  22.530  27.718  1.00  0.00     0.002 A 
ATOM     25  C   UNL A   1      34.801  23.528  26.314  1.00  0.00    -0.049 A 
ATOM     26  C   UNL A   1      34.452  22.661  27.347  1.00  0.00     0.003 A 
ATOM     27  C   UNL A   1      36.223  23.686  25.863  1.00  0.00     0.044 C 
ENDBRANCH  18  21
ENDBRANCH  16  18
ENDBRANCH  15  16
ENDBRANCH   6  15
ENDBRANCH   3   5
ENDBRANCH   2   3
ENDBRANCH   1   2
BRANCH   1  28
ATOM     28  C   UNL A   1      33.687  29.335  24.809  1.00  0.00     0.275 C 
BRANCH  28  29
ATOM     29  O   UNL A   1      33.056  29.469  26.092  1.00  0.00    -0.458 OA
BRANCH  29  30
ATOM     30  C   UNL A   1      33.236  30.628  26.784  1.00  0.00     0.338 C 
ATOM     31  O   UNL A   1      32.447  31.554  26.844  1.00  0.00    -0.246 OA
BRANCH  30  32
ATOM     32  C   UNL A   1      34.532  30.549  27.531  1.00  0.00     0.060 A 
ATOM     33  C   UNL A   1      34.868  29.374  28.195  1.00  0.00     0.016 A 
ATOM     34  C   UNL A   1      35.402  31.640  27.642  1.00  0.00     0.016 A 
ATOM     35  C   UNL A   1      35.947  29.328  29.075  1.00  0.00     0.010 A 
ATOM     36  C   UNL A   1      36.580  31.544  28.422  1.00  0.00     0.010 A 
ATOM     37  C   UNL A   1      36.866  30.379  29.150  1.00  0.00    -0.014 A 
BRANCH  37  38
ATOM     38  C   UNL A   1      38.165  30.140  29.851  1.00  0.00     0.031 A 
ATOM     39  C   UNL A   1      39.266  29.294  29.273  1.00  0.00     0.074 A 
ATOM     40  C   UNL A   1      38.371  30.744  31.041  1.00  0.00     0.049 A 
ATOM     41  N   UNL A   1      40.334  28.814  29.866  1.00  0.00    -0.248 NA
ATOM     42  C   UNL A   1      39.173  28.953  27.850  1.00  0.00     0.031 C 
ATOM     43  C   UNL A   1      37.438  31.668  31.695  1.00  0.00     0.029 A 
ATOM     44  N   UNL A   1      39.432  30.688  31.912  1.00  0.00    -0.354 N 
ATOM     45  C   UNL A   1      41.013  28.077  28.902  1.00  0.00     0.074 A 
ATOM     46  C   UNL A   1      40.244  28.185  27.680  1.00  0.00     0.031 C 
ATOM     47  C   UNL A   1      37.981  32.123  32.827  1.00  0.00     0.029 A 
ATOM     48  C   UNL A   1      39.224  31.407  33.063  1.00  0.00     0.049 A 
ATOM     49  H   UNL A   1      40.258  30.182  31.730  1.00  0.00     0.167 HD
ATOM     50  C   UNL A   1      42.166  27.376  29.037  1.00  0.00     0.037 A 
ATOM     51  C   UNL A   1      39.890  31.426  34.232  1.00  0.00     0.037 A 
ATOM     52  C   UNL A   1      42.959  27.330  30.245  1.00  0.00     0.049 A 
ATOM     53  C   UNL A   1      41.093  30.557  34.398  1.00  0.00     0.074 A 
ATOM     54  C   UNL A   1      44.149  26.656  30.472  1.00  0.00     0.029 A 
ATOM     55  N   UNL A   1      42.651  27.995  31.422  1.00  0.00    -0.354 N 
ATOM     56  N   UNL A   1      41.660  29.763  33.526  1.00  0.00    -0.248 NA
ATOM     57  C   UNL A   1      41.729  30.562  35.720  1.00  0.00     0.031 C 
ATOM     58  C   UNL A   1      44.536  26.877  31.799  1.00  0.00     0.029 A 
ATOM     59  C   UNL A   1      43.614  27.728  32.385  1.00  0.00     0.049 A 
ATOM     60  H   UNL A   1      41.866  28.573  31.554  1.00  0.00     0.167 HD
ATOM     61  C   UNL A   1      42.722  29.171  34.190  1.00  0.00     0.074 A 
ATOM     62  C   UNL A   1      42.732  29.715  35.533  1.00  0.00     0.031 C 
ATOM     63  C   UNL A   1      43.605  28.255  33.725  1.00  0.00     0.037 A 
BRANCH  50  64
ATOM     64  C   UNL A   1      42.642  26.553  27.874  1.00  0.00     0.064 A 
ATOM     65  C   UNL A   1      42.150  25.268  27.613  1.00  0.00     0.173 A 
ATOM     66  C   UNL A   1      43.531  27.115  26.941  1.00  0.00     0.173 A 
ATOM     67  F   UNL A   1      41.298  24.685  28.469  1.00  0.00    -0.203 F 
ATOM     68  C   UNL A   1      42.534  24.572  26.467  1.00  0.00     0.198 A 
ATOM     69  C   UNL A   1      43.893  26.427  25.785  1.00  0.00     0.198 A 
ATOM     70  F   UNL A   1      44.020  28.349  27.133  1.00  0.00    -0.203 F 
ATOM     71  F   UNL A   1      42.062  23.337  26.242  1.00  0.00    -0.200 F 
ATOM     72  C   UNL A   1      43.397  25.156  25.550  1.00  0.00     0.200 A 
ATOM     73  F   UNL A   1      44.710  27.004  24.892  1.00  0.00    -0.200 F 
ATOM     74  F   UNL A   1      43.743  24.496  24.436  1.00  0.00    -0.200 F 
ENDBRANCH  50  64
BRANCH  51  75
ATOM     75  C   UNL A   1      39.336  32.221  35.358  1.00  0.00     0.064 A 
ATOM     76  C   UNL A   1      38.503  31.638  36.318  1.00  0.00     0.173 A 
ATOM     77  C   UNL A   1      39.694  33.569  35.527  1.00  0.00     0.173 A 
ATOM     78  F   UNL A   1      38.115  30.363  36.184  1.00  0.00    -0.203 F 
ATOM     79  C   UNL A   1      38.059  32.372  37.417  1.00  0.00     0.198 A 
ATOM     80  C   UNL A   1      39.280  34.289  36.643  1.00  0.00     0.198 A 
ATOM     81  F   UNL A   1      40.492  34.171  34.633  1.00  0.00    -0.203 F 
ATOM     82  F   UNL A   1      37.246  31.801  38.314  1.00  0.00    -0.200 F 
ATOM     83  C   UNL A   1      38.460  33.690  37.585  1.00  0.00     0.200 A 
ATOM     84  F   UNL A   1      39.691  35.553  36.813  1.00  0.00    -0.200 F 
ATOM     85  F   UNL A   1      38.057  34.384  38.659  1.00  0.00    -0.200 F 
ENDBRANCH  51  75
BRANCH  63  86
ATOM     86  C   UNL A   1      44.666  27.804  34.681  1.00  0.00     0.064 A 
ATOM     87  C   UNL A   1      45.883  28.492  34.798  1.00  0.00     0.173 A 
ATOM     88  C   UNL A   1      44.475  26.663  35.472  1.00  0.00     0.173 A 
ATOM     89  F   UNL A   1      46.121  29.576  34.044  1.00  0.00    -0.203 F 
ATOM     90  C   UNL A   1      46.882  28.035  35.652  1.00  0.00     0.198 A 
ATOM     91  C   UNL A   1      45.466  26.223  36.344  1.00  0.00     0.198 A 
ATOM     92  F   UNL A   1      43.328  25.970  35.393  1.00  0.00    -0.203 F 
ATOM     93  F   UNL A   1      48.059  28.673  35.707  1.00  0.00    -0.200 F 
ATOM     94  C   UNL A   1      46.672  26.903  36.426  1.00  0.00     0.200 A 
ATOM     95  F   UNL A   1      45.261  25.131  37.094  1.00  0.00    -0.200 F 
ATOM     96  F   UNL A   1      47.638  26.458  37.241  1.00  0.00    -0.200 F 
ENDBRANCH  63  86
ENDBRANCH  37  38
ENDBRANCH  30  32
ENDBRANCH  29  30
ENDBRANCH  28  29
ENDBRANCH   1  28
TORSDOF 16
ENDMDL
