MODEL 1
REMARK VINA RESULT:     -11.6      0.000      0.000
REMARK SMILES COc1ccc(OC)c(/C=N/[NH+]=C2/NC(=O)[C@@H](CC(=O)OCCOC(=O)c3ccc(-c4c5nc(c(-c6c(F)c(F)c(F)c(F)c6F)c6ccc([nH]6)c(-c6c(F)c(F)c(F)c(F)c6F)c6nc(c(-c7c(F)c(F)c(F)c(F)c7F)c7ccc4[nH]7)C=C6)C=C5)cc3)S2)c1
REMARK SMILES IDX 22 1 21 2 19 3 20 4 18 5 17 6 12 7 13 8 14 10 90 11 15 12
REMARK SMILES IDX 16 14 11 15 10 16 9 17 3 18 4 19 91 20 5 21 6 22 2 23 1 24
REMARK SMILES IDX 7 25 8 26 23 27 24 28 25 29 26 30 27 31 28 32 89 33 29 34
REMARK SMILES IDX 88 35 30 36 31 37 32 38 82 39 33 40 87 41 81 42 83 43 34 44
REMARK SMILES IDX 86 45 80 46 79 47 35 49 67 50 47 51 66 52 48 53 51 54 65 55
REMARK SMILES IDX 84 56 49 57 50 58 64 60 85 61 52 62 36 63 37 64 45 65 38 66
REMARK SMILES IDX 39 67 43 68 46 69 40 70 41 71 44 72 42 73 68 74 69 75 77 76
REMARK SMILES IDX 70 77 71 78 75 79 78 80 72 81 73 82 76 83 74 84 53 85 54 86
REMARK SMILES IDX 62 87 55 88 56 89 60 90 63 91 57 92 58 93 61 94 59 95
REMARK H PARENT 12 9 14 13 83 48 51 59
REMARK Flexibility Score: inf
ROOT
ATOM      1  C   UNL A   1      38.492  20.882  25.400  1.00  0.00     0.274 C 
ENDROOT
BRANCH   1   2
ATOM      2  O   UNL A   1      37.086  20.670  25.138  1.00  0.00    -0.462 OA
BRANCH   2   3
ATOM      3  C   UNL A   1      36.300  21.774  25.155  1.00  0.00     0.307 C 
ATOM      4  O   UNL A   1      36.662  22.874  25.563  1.00  0.00    -0.252 OA
BRANCH   3   5
ATOM      5  C   UNL A   1      34.864  21.516  24.754  1.00  0.00     0.150 C 
BRANCH   5   6
ATOM      6  C   UNL A   1      33.748  21.737  25.763  1.00  0.00     0.184 C 
ATOM      7  N   UNL A   1      30.396  23.615  25.319  1.00  0.00    -0.142 N 
ATOM      8  C   UNL A   1      31.469  22.923  25.505  1.00  0.00     0.337 C 
ATOM      9  H   UNL A   1      29.534  23.185  25.113  1.00  0.00     0.343 HD
ATOM     10  N   UNL A   1      31.403  21.573  25.413  1.00  0.00    -0.202 N 
ATOM     11  S   UNL A   1      33.093  23.436  25.858  1.00  0.00    -0.020 SA
ATOM     12  C   UNL A   1      32.549  20.849  25.532  1.00  0.00     0.322 C 
ATOM     13  H   UNL A   1      30.540  21.122  25.265  1.00  0.00     0.316 HD
ATOM     14  O   UNL A   1      32.597  19.627  25.454  1.00  0.00    -0.246 OA
BRANCH   7  15
ATOM     15  N   UNL A   1      30.514  25.003  25.424  1.00  0.00    -0.093 NA
ATOM     16  C   UNL A   1      30.416  25.545  24.250  1.00  0.00     0.170 C 
BRANCH  16  17
ATOM     17  C   UNL A   1      30.310  26.994  24.049  1.00  0.00     0.042 A 
ATOM     18  C   UNL A   1      28.998  28.807  23.126  1.00  0.00     0.119 A 
ATOM     19  C   UNL A   1      29.942  29.724  23.571  1.00  0.00     0.050 A 
ATOM     20  C   UNL A   1      29.181  27.444  23.350  1.00  0.00     0.060 A 
ATOM     21  C   UNL A   1      31.054  29.273  24.285  1.00  0.00     0.051 A 
ATOM     22  C   UNL A   1      31.241  27.909  24.555  1.00  0.00     0.128 A 
BRANCH  18  23
ATOM     23  O   UNL A   1      27.953  29.257  22.368  1.00  0.00    -0.497 OA
ATOM     24  C   UNL A   1      27.653  30.620  22.668  1.00  0.00     0.278 C 
ENDBRANCH  18  23
BRANCH  22  25
ATOM     25  O   UNL A   1      32.366  27.661  25.292  1.00  0.00    -0.496 OA
ATOM     26  C   UNL A   1      33.609  27.582  24.604  1.00  0.00     0.278 C 
ENDBRANCH  22  25
ENDBRANCH  16  17
ENDBRANCH   7  15
ENDBRANCH   5   6
ENDBRANCH   3   5
ENDBRANCH   2   3
ENDBRANCH   1   2
BRANCH   1  27
ATOM     27  C   UNL A   1      39.310  19.588  25.465  1.00  0.00     0.275 C 
BRANCH  27  28
ATOM     28  O   UNL A   1      40.263  19.600  26.545  1.00  0.00    -0.458 OA
BRANCH  28  29
ATOM     29  C   UNL A   1      41.538  19.708  26.118  1.00  0.00     0.338 C 
ATOM     30  O   UNL A   1      42.169  18.854  25.524  1.00  0.00    -0.246 OA
BRANCH  29  31
ATOM     31  C   UNL A   1      42.129  21.012  26.429  1.00  0.00     0.060 A 
ATOM     32  C   UNL A   1      42.317  21.361  27.772  1.00  0.00     0.016 A 
ATOM     33  C   UNL A   1      42.285  21.957  25.416  1.00  0.00     0.016 A 
ATOM     34  C   UNL A   1      42.644  22.671  28.110  1.00  0.00     0.010 A 
ATOM     35  C   UNL A   1      42.594  23.272  25.758  1.00  0.00     0.010 A 
ATOM     36  C   UNL A   1      42.762  23.637  27.105  1.00  0.00    -0.014 A 
BRANCH  36  37
ATOM     37  C   UNL A   1      43.153  25.018  27.442  1.00  0.00     0.031 A 
ATOM     38  C   UNL A   1      42.172  25.989  28.020  1.00  0.00     0.074 A 
ATOM     39  C   UNL A   1      44.410  25.396  27.155  1.00  0.00     0.049 A 
ATOM     40  N   UNL A   1      42.340  27.257  28.300  1.00  0.00    -0.248 NA
ATOM     41  C   UNL A   1      40.829  25.474  28.321  1.00  0.00     0.031 C 
ATOM     42  C   UNL A   1      45.435  24.519  26.589  1.00  0.00     0.029 A 
ATOM     43  N   UNL A   1      45.023  26.614  27.260  1.00  0.00    -0.354 N 
ATOM     44  C   UNL A   1      41.128  27.692  28.819  1.00  0.00     0.074 A 
ATOM     45  C   UNL A   1      40.225  26.559  28.792  1.00  0.00     0.031 C 
ATOM     46  C   UNL A   1      46.537  25.243  26.342  1.00  0.00     0.029 A 
ATOM     47  C   UNL A   1      46.285  26.629  26.725  1.00  0.00     0.049 A 
ATOM     48  H   UNL A   1      44.602  27.400  27.678  1.00  0.00     0.167 HD
ATOM     49  C   UNL A   1      40.812  28.926  29.280  1.00  0.00     0.037 A 
ATOM     50  C   UNL A   1      47.135  27.653  26.537  1.00  0.00     0.037 A 
ATOM     51  C   UNL A   1      41.716  30.049  29.283  1.00  0.00     0.049 A 
ATOM     52  C   UNL A   1      46.749  29.017  27.018  1.00  0.00     0.074 A 
ATOM     53  C   UNL A   1      41.511  31.326  29.774  1.00  0.00     0.029 A 
ATOM     54  N   UNL A   1      42.997  30.029  28.747  1.00  0.00    -0.354 N 
ATOM     55  N   UNL A   1      45.625  29.410  27.565  1.00  0.00    -0.248 NA
ATOM     56  C   UNL A   1      47.755  30.077  26.877  1.00  0.00     0.031 C 
ATOM     57  C   UNL A   1      42.654  32.091  29.501  1.00  0.00     0.029 A 
ATOM     58  C   UNL A   1      43.585  31.279  28.873  1.00  0.00     0.049 A 
ATOM     59  H   UNL A   1      43.426  29.242  28.339  1.00  0.00     0.167 HD
ATOM     60  C   UNL A   1      45.787  30.756  27.848  1.00  0.00     0.074 A 
ATOM     61  C   UNL A   1      47.127  31.112  27.419  1.00  0.00     0.031 C 
ATOM     62  C   UNL A   1      44.910  31.618  28.419  1.00  0.00     0.037 A 
BRANCH  49  63
ATOM     63  C   UNL A   1      39.427  29.135  29.818  1.00  0.00     0.064 A 
ATOM     64  C   UNL A   1      39.105  28.821  31.146  1.00  0.00     0.173 A 
ATOM     65  C   UNL A   1      38.430  29.711  29.018  1.00  0.00     0.173 A 
ATOM     66  F   UNL A   1      40.024  28.266  31.952  1.00  0.00    -0.203 F 
ATOM     67  C   UNL A   1      37.829  29.066  31.651  1.00  0.00     0.198 A 
ATOM     68  C   UNL A   1      37.161  29.972  29.531  1.00  0.00     0.198 A 
ATOM     69  F   UNL A   1      38.691  30.038  27.743  1.00  0.00    -0.203 F 
ATOM     70  F   UNL A   1      37.537  28.741  32.918  1.00  0.00    -0.200 F 
ATOM     71  C   UNL A   1      36.861  29.647  30.845  1.00  0.00     0.200 A 
ATOM     72  F   UNL A   1      36.230  30.543  28.755  1.00  0.00    -0.200 F 
ATOM     73  F   UNL A   1      35.639  29.893  31.335  1.00  0.00    -0.200 F 
ENDBRANCH  49  63
BRANCH  50  74
ATOM     74  C   UNL A   1      48.425  27.392  25.861  1.00  0.00     0.064 A 
ATOM     75  C   UNL A   1      49.557  27.012  26.590  1.00  0.00     0.173 A 
ATOM     76  C   UNL A   1      48.521  27.432  24.462  1.00  0.00     0.173 A 
ATOM     77  F   UNL A   1      49.508  26.972  27.929  1.00  0.00    -0.203 F 
ATOM     78  C   UNL A   1      50.743  26.674  25.942  1.00  0.00     0.198 A 
ATOM     79  C   UNL A   1      49.702  27.077  23.815  1.00  0.00     0.198 A 
ATOM     80  F   UNL A   1      47.457  27.780  23.724  1.00  0.00    -0.203 F 
ATOM     81  F   UNL A   1      51.817  26.319  26.660  1.00  0.00    -0.200 F 
ATOM     82  C   UNL A   1      50.811  26.698  24.557  1.00  0.00     0.200 A 
ATOM     83  F   UNL A   1      49.760  27.085  22.477  1.00  0.00    -0.200 F 
ATOM     84  F   UNL A   1      51.947  26.351  23.935  1.00  0.00    -0.200 F 
ENDBRANCH  50  74
BRANCH  62  85
ATOM     85  C   UNL A   1      45.380  33.025  28.611  1.00  0.00     0.064 A 
ATOM     86  C   UNL A   1      45.132  34.014  27.647  1.00  0.00     0.173 A 
ATOM     87  C   UNL A   1      46.078  33.392  29.769  1.00  0.00     0.173 A 
ATOM     88  F   UNL A   1      44.484  33.703  26.514  1.00  0.00    -0.203 F 
ATOM     89  C   UNL A   1      45.586  35.317  27.828  1.00  0.00     0.198 A 
ATOM     90  C   UNL A   1      46.514  34.700  29.956  1.00  0.00     0.198 A 
ATOM     91  F   UNL A   1      46.339  32.481  30.719  1.00  0.00    -0.203 F 
ATOM     92  F   UNL A   1      45.377  36.236  26.875  1.00  0.00    -0.200 F 
ATOM     93  C   UNL A   1      46.274  35.659  28.983  1.00  0.00     0.200 A 
ATOM     94  F   UNL A   1      47.175  35.033  31.074  1.00  0.00    -0.200 F 
ATOM     95  F   UNL A   1      46.715  36.913  29.153  1.00  0.00    -0.200 F 
ENDBRANCH  62  85
ENDBRANCH  36  37
ENDBRANCH  29  31
ENDBRANCH  28  29
ENDBRANCH  27  28
ENDBRANCH   1  27
TORSDOF 16
ENDMDL
MODEL 2
REMARK VINA RESULT:     -11.6      5.081     11.054
REMARK SMILES COc1ccc(OC)c(/C=N/[NH+]=C2/NC(=O)[C@@H](CC(=O)OCCOC(=O)c3ccc(-c4c5nc(c(-c6c(F)c(F)c(F)c(F)c6F)c6ccc([nH]6)c(-c6c(F)c(F)c(F)c(F)c6F)c6nc(c(-c7c(F)c(F)c(F)c(F)c7F)c7ccc4[nH]7)C=C6)C=C5)cc3)S2)c1
REMARK SMILES IDX 22 1 21 2 19 3 20 4 18 5 17 6 12 7 13 8 14 10 90 11 15 12
REMARK SMILES IDX 16 14 11 15 10 16 9 17 3 18 4 19 91 20 5 21 6 22 2 23 1 24
REMARK SMILES IDX 7 25 8 26 23 27 24 28 25 29 26 30 27 31 28 32 89 33 29 34
REMARK SMILES IDX 88 35 30 36 31 37 32 38 82 39 33 40 87 41 81 42 83 43 34 44
REMARK SMILES IDX 86 45 80 46 79 47 35 49 67 50 47 51 66 52 48 53 51 54 65 55
REMARK SMILES IDX 84 56 49 57 50 58 64 60 85 61 52 62 36 63 37 64 45 65 38 66
REMARK SMILES IDX 39 67 43 68 46 69 40 70 41 71 44 72 42 73 68 74 69 75 77 76
REMARK SMILES IDX 70 77 71 78 75 79 78 80 72 81 73 82 76 83 74 84 53 85 54 86
REMARK SMILES IDX 62 87 55 88 56 89 60 90 63 91 57 92 58 93 61 94 59 95
REMARK H PARENT 12 9 14 13 83 48 51 59
REMARK Flexibility Score: inf
ROOT
ATOM      1  C   UNL A   1      32.314  31.710  27.311  1.00  0.00     0.274 C 
ENDROOT
BRANCH   1   2
ATOM      2  O   UNL A   1      31.778  31.137  26.097  1.00  0.00    -0.462 OA
BRANCH   2   3
ATOM      3  C   UNL A   1      32.283  29.935  25.729  1.00  0.00     0.307 C 
ATOM      4  O   UNL A   1      33.396  29.527  26.045  1.00  0.00    -0.252 OA
BRANCH   3   5
ATOM      5  C   UNL A   1      31.408  29.168  24.760  1.00  0.00     0.150 C 
BRANCH   5   6
ATOM      6  C   UNL A   1      32.005  28.630  23.469  1.00  0.00     0.184 C 
ATOM      7  N   UNL A   1      31.935  25.026  22.067  1.00  0.00    -0.142 N 
ATOM      8  C   UNL A   1      31.935  26.256  22.455  1.00  0.00     0.337 C 
ATOM      9  H   UNL A   1      31.292  24.696  21.398  1.00  0.00     0.343 HD
ATOM     10  N   UNL A   1      31.026  27.111  21.925  1.00  0.00    -0.202 N 
ATOM     11  S   UNL A   1      32.938  27.071  23.619  1.00  0.00    -0.020 SA
ATOM     12  C   UNL A   1      30.975  28.388  22.392  1.00  0.00     0.322 C 
ATOM     13  H   UNL A   1      30.414  26.813  21.214  1.00  0.00     0.316 HD
ATOM     14  O   UNL A   1      30.186  29.233  21.986  1.00  0.00    -0.246 OA
BRANCH   7  15
ATOM     15  N   UNL A   1      32.890  24.184  22.642  1.00  0.00    -0.093 NA
ATOM     16  C   UNL A   1      32.304  23.266  23.345  1.00  0.00     0.170 C 
BRANCH  16  17
ATOM     17  C   UNL A   1      33.022  22.121  23.917  1.00  0.00     0.042 A 
ATOM     18  C   UNL A   1      32.883  19.814  24.636  1.00  0.00     0.119 A 
ATOM     19  C   UNL A   1      34.224  19.840  24.997  1.00  0.00     0.050 A 
ATOM     20  C   UNL A   1      32.274  20.951  24.109  1.00  0.00     0.060 A 
ATOM     21  C   UNL A   1      34.971  21.001  24.785  1.00  0.00     0.051 A 
ATOM     22  C   UNL A   1      34.388  22.147  24.221  1.00  0.00     0.128 A 
BRANCH  18  23
ATOM     23  O   UNL A   1      32.150  18.694  24.916  1.00  0.00    -0.497 OA
ATOM     24  C   UNL A   1      32.973  17.528  24.906  1.00  0.00     0.278 C 
ENDBRANCH  18  23
BRANCH  22  25
ATOM     25  O   UNL A   1      35.279  23.172  24.059  1.00  0.00    -0.496 OA
ATOM     26  C   UNL A   1      36.406  22.949  23.220  1.00  0.00     0.278 C 
ENDBRANCH  22  25
ENDBRANCH  16  17
ENDBRANCH   7  15
ENDBRANCH   5   6
ENDBRANCH   3   5
ENDBRANCH   2   3
ENDBRANCH   1   2
BRANCH   1  27
ATOM     27  C   UNL A   1      32.495  33.230  27.249  1.00  0.00     0.275 C 
BRANCH  27  28
ATOM     28  O   UNL A   1      32.318  33.853  28.536  1.00  0.00    -0.458 OA
BRANCH  28  29
ATOM     29  C   UNL A   1      33.223  34.825  28.776  1.00  0.00     0.338 C 
ATOM     30  O   UNL A   1      33.114  35.998  28.470  1.00  0.00    -0.246 OA
BRANCH  29  31
ATOM     31  C   UNL A   1      34.404  34.331  29.488  1.00  0.00     0.060 A 
ATOM     32  C   UNL A   1      35.670  34.577  28.943  1.00  0.00     0.016 A 
ATOM     33  C   UNL A   1      34.245  33.450  30.557  1.00  0.00     0.016 A 
ATOM     34  C   UNL A   1      36.787  33.923  29.453  1.00  0.00     0.010 A 
ATOM     35  C   UNL A   1      35.363  32.782  31.056  1.00  0.00     0.010 A 
ATOM     36  C   UNL A   1      36.633  33.006  30.498  1.00  0.00    -0.014 A 
BRANCH  36  37
ATOM     37  C   UNL A   1      37.812  32.338  31.083  1.00  0.00     0.031 A 
ATOM     38  C   UNL A   1      38.482  31.192  30.393  1.00  0.00     0.074 A 
ATOM     39  C   UNL A   1      38.230  32.757  32.289  1.00  0.00     0.049 A 
ATOM     40  N   UNL A   1      39.479  30.452  30.810  1.00  0.00    -0.248 NA
ATOM     41  C   UNL A   1      37.968  30.823  29.067  1.00  0.00     0.031 C 
ATOM     42  C   UNL A   1      37.637  33.867  33.036  1.00  0.00     0.029 A 
ATOM     43  N   UNL A   1      39.213  32.279  33.110  1.00  0.00    -0.354 N 
ATOM     44  C   UNL A   1      39.720  29.537  29.795  1.00  0.00     0.074 A 
ATOM     45  C   UNL A   1      38.748  29.796  28.753  1.00  0.00     0.031 C 
ATOM     46  C   UNL A   1      38.233  33.949  34.235  1.00  0.00     0.029 A 
ATOM     47  C   UNL A   1      39.237  32.894  34.335  1.00  0.00     0.049 A 
ATOM     48  H   UNL A   1      39.841  31.567  32.848  1.00  0.00     0.167 HD
ATOM     49  C   UNL A   1      40.673  28.575  29.746  1.00  0.00     0.037 A 
ATOM     50  C   UNL A   1      39.968  32.618  35.428  1.00  0.00     0.037 A 
ATOM     51  C   UNL A   1      41.621  28.317  30.801  1.00  0.00     0.049 A 
ATOM     52  C   UNL A   1      40.989  31.525  35.366  1.00  0.00     0.074 A 
ATOM     53  C   UNL A   1      42.659  27.402  30.830  1.00  0.00     0.029 A 
ATOM     54  N   UNL A   1      41.631  28.969  32.028  1.00  0.00    -0.354 N 
ATOM     55  N   UNL A   1      41.255  30.702  34.381  1.00  0.00    -0.248 NA
ATOM     56  C   UNL A   1      41.827  31.333  36.556  1.00  0.00     0.031 C 
ATOM     57  C   UNL A   1      43.272  27.472  32.088  1.00  0.00     0.029 A 
ATOM     58  C   UNL A   1      42.640  28.457  32.830  1.00  0.00     0.049 A 
ATOM     59  H   UNL A   1      41.013  29.688  32.289  1.00  0.00     0.167 HD
ATOM     60  C   UNL A   1      42.297  29.904  34.821  1.00  0.00     0.074 A 
ATOM     61  C   UNL A   1      42.623  30.348  36.163  1.00  0.00     0.031 C 
ATOM     62  C   UNL A   1      42.933  28.898  34.170  1.00  0.00     0.037 A 
BRANCH  49  63
ATOM     63  C   UNL A   1      40.740  27.723  28.514  1.00  0.00     0.064 A 
ATOM     64  C   UNL A   1      40.010  26.529  28.413  1.00  0.00     0.173 A 
ATOM     65  C   UNL A   1      41.489  28.132  27.401  1.00  0.00     0.173 A 
ATOM     66  F   UNL A   1      39.279  26.093  29.450  1.00  0.00    -0.203 F 
ATOM     67  C   UNL A   1      40.038  25.770  27.245  1.00  0.00     0.198 A 
ATOM     68  C   UNL A   1      41.500  27.380  26.229  1.00  0.00     0.198 A 
ATOM     69  F   UNL A   1      42.196  29.271  27.445  1.00  0.00    -0.203 F 
ATOM     70  F   UNL A   1      39.349  24.622  27.175  1.00  0.00    -0.200 F 
ATOM     71  C   UNL A   1      40.777  26.199  26.153  1.00  0.00     0.200 A 
ATOM     72  F   UNL A   1      42.205  27.802  25.171  1.00  0.00    -0.200 F 
ATOM     73  F   UNL A   1      40.794  25.474  25.026  1.00  0.00    -0.200 F 
ENDBRANCH  49  63
BRANCH  50  74
ATOM     74  C   UNL A   1      39.737  33.410  36.656  1.00  0.00     0.064 A 
ATOM     75  C   UNL A   1      40.392  34.629  36.864  1.00  0.00     0.173 A 
ATOM     76  C   UNL A   1      38.785  33.001  37.603  1.00  0.00     0.173 A 
ATOM     77  F   UNL A   1      41.316  35.048  35.987  1.00  0.00    -0.203 F 
ATOM     78  C   UNL A   1      40.101  35.417  37.974  1.00  0.00     0.198 A 
ATOM     79  C   UNL A   1      38.482  33.799  38.704  1.00  0.00     0.198 A 
ATOM     80  F   UNL A   1      38.126  31.846  37.438  1.00  0.00    -0.203 F 
ATOM     81  F   UNL A   1      40.745  36.577  38.156  1.00  0.00    -0.200 F 
ATOM     82  C   UNL A   1      39.140  35.007  38.887  1.00  0.00     0.200 A 
ATOM     83  F   UNL A   1      37.542  33.408  39.575  1.00  0.00    -0.200 F 
ATOM     84  F   UNL A   1      38.845  35.777  39.943  1.00  0.00    -0.200 F 
ENDBRANCH  50  74
BRANCH  62  85
ATOM     85  C   UNL A   1      44.044  28.219  34.907  1.00  0.00     0.064 A 
ATOM     86  C   UNL A   1      43.814  27.064  35.670  1.00  0.00     0.173 A 
ATOM     87  C   UNL A   1      45.352  28.719  34.845  1.00  0.00     0.173 A 
ATOM     88  F   UNL A   1      42.574  26.561  35.773  1.00  0.00    -0.203 F 
ATOM     89  C   UNL A   1      44.851  26.449  36.363  1.00  0.00     0.198 A 
ATOM     90  C   UNL A   1      46.391  28.090  35.524  1.00  0.00     0.198 A 
ATOM     91  F   UNL A   1      45.621  29.821  34.128  1.00  0.00    -0.203 F 
ATOM     92  F   UNL A   1      44.601  25.372  37.122  1.00  0.00    -0.200 F 
ATOM     93  C   UNL A   1      46.138  26.960  36.287  1.00  0.00     0.200 A 
ATOM     94  F   UNL A   1      47.636  28.581  35.447  1.00  0.00    -0.200 F 
ATOM     95  F   UNL A   1      47.135  26.368  36.960  1.00  0.00    -0.200 F 
ENDBRANCH  62  85
ENDBRANCH  36  37
ENDBRANCH  29  31
ENDBRANCH  28  29
ENDBRANCH  27  28
ENDBRANCH   1  27
TORSDOF 16
ENDMDL
MODEL 3
REMARK VINA RESULT:     -11.6      5.070     11.184
REMARK SMILES COc1ccc(OC)c(/C=N/[NH+]=C2/NC(=O)[C@@H](CC(=O)OCCOC(=O)c3ccc(-c4c5nc(c(-c6c(F)c(F)c(F)c(F)c6F)c6ccc([nH]6)c(-c6c(F)c(F)c(F)c(F)c6F)c6nc(c(-c7c(F)c(F)c(F)c(F)c7F)c7ccc4[nH]7)C=C6)C=C5)cc3)S2)c1
REMARK SMILES IDX 22 1 21 2 19 3 20 4 18 5 17 6 12 7 13 8 14 10 90 11 15 12
REMARK SMILES IDX 16 14 11 15 10 16 9 17 3 18 4 19 91 20 5 21 6 22 2 23 1 24
REMARK SMILES IDX 7 25 8 26 23 27 24 28 25 29 26 30 27 31 28 32 89 33 29 34
REMARK SMILES IDX 88 35 30 36 31 37 32 38 82 39 33 40 87 41 81 42 83 43 34 44
REMARK SMILES IDX 86 45 80 46 79 47 35 49 67 50 47 51 66 52 48 53 51 54 65 55
REMARK SMILES IDX 84 56 49 57 50 58 64 60 85 61 52 62 36 63 37 64 45 65 38 66
REMARK SMILES IDX 39 67 43 68 46 69 40 70 41 71 44 72 42 73 68 74 69 75 77 76
REMARK SMILES IDX 70 77 71 78 75 79 78 80 72 81 73 82 76 83 74 84 53 85 54 86
REMARK SMILES IDX 62 87 55 88 56 89 60 90 63 91 57 92 58 93 61 94 59 95
REMARK H PARENT 12 9 14 13 83 48 51 59
REMARK Flexibility Score: inf
ROOT
ATOM      1  C   UNL A   1      31.954  31.832  26.805  1.00  0.00     0.274 C 
ENDROOT
BRANCH   1   2
ATOM      2  O   UNL A   1      32.652  30.650  26.353  1.00  0.00    -0.462 OA
BRANCH   2   3
ATOM      3  C   UNL A   1      31.951  29.491  26.385  1.00  0.00     0.307 C 
ATOM      4  O   UNL A   1      31.923  28.727  27.346  1.00  0.00    -0.252 OA
BRANCH   3   5
ATOM      5  C   UNL A   1      31.299  29.127  25.070  1.00  0.00     0.150 C 
BRANCH   5   6
ATOM      6  C   UNL A   1      32.162  28.885  23.841  1.00  0.00     0.184 C 
ATOM      7  N   UNL A   1      33.009  25.551  22.072  1.00  0.00    -0.142 N 
ATOM      8  C   UNL A   1      32.709  26.697  22.583  1.00  0.00     0.337 C 
ATOM      9  H   UNL A   1      32.543  25.203  21.278  1.00  0.00     0.343 HD
ATOM     10  N   UNL A   1      31.729  27.436  22.008  1.00  0.00    -0.202 N 
ATOM     11  S   UNL A   1      33.360  27.516  23.973  1.00  0.00    -0.020 SA
ATOM     12  C   UNL A   1      31.360  28.608  22.593  1.00  0.00     0.322 C 
ATOM     13  H   UNL A   1      31.292  27.130  21.181  1.00  0.00     0.316 HD
ATOM     14  O   UNL A   1      30.480  29.341  22.158  1.00  0.00    -0.246 OA
BRANCH   7  15
ATOM     15  N   UNL A   1      34.025  24.827  22.700  1.00  0.00    -0.093 NA
ATOM     16  C   UNL A   1      33.511  23.945  23.500  1.00  0.00     0.170 C 
BRANCH  16  17
ATOM     17  C   UNL A   1      34.310  22.906  24.159  1.00  0.00     0.042 A 
ATOM     18  C   UNL A   1      36.392  22.372  25.271  1.00  0.00     0.119 A 
ATOM     19  C   UNL A   1      35.972  21.058  25.439  1.00  0.00     0.050 A 
ATOM     20  C   UNL A   1      35.574  23.295  24.623  1.00  0.00     0.060 A 
ATOM     21  C   UNL A   1      34.703  20.681  24.994  1.00  0.00     0.051 A 
ATOM     22  C   UNL A   1      33.847  21.602  24.371  1.00  0.00     0.128 A 
BRANCH  18  23
ATOM     23  O   UNL A   1      37.662  22.706  25.649  1.00  0.00    -0.497 OA
ATOM     24  C   UNL A   1      38.515  21.562  25.647  1.00  0.00     0.278 C 
ENDBRANCH  18  23
BRANCH  22  25
ATOM     25  O   UNL A   1      32.637  21.061  24.033  1.00  0.00    -0.496 OA
ATOM     26  C   UNL A   1      32.540  19.644  23.957  1.00  0.00     0.278 C 
ENDBRANCH  22  25
ENDBRANCH  16  17
ENDBRANCH   7  15
ENDBRANCH   5   6
ENDBRANCH   3   5
ENDBRANCH   2   3
ENDBRANCH   1   2
BRANCH   1  27
ATOM     27  C   UNL A   1      32.876  32.910  27.384  1.00  0.00     0.275 C 
BRANCH  27  28
ATOM     28  O   UNL A   1      32.154  33.876  28.173  1.00  0.00    -0.458 OA
BRANCH  28  29
ATOM     29  C   UNL A   1      32.934  34.892  28.599  1.00  0.00     0.338 C 
ATOM     30  O   UNL A   1      32.716  36.078  28.440  1.00  0.00    -0.246 OA
BRANCH  29  31
ATOM     31  C   UNL A   1      34.121  34.426  29.321  1.00  0.00     0.060 A 
ATOM     32  C   UNL A   1      35.378  34.593  28.727  1.00  0.00     0.016 A 
ATOM     33  C   UNL A   1      33.968  33.640  30.463  1.00  0.00     0.016 A 
ATOM     34  C   UNL A   1      36.491  33.952  29.263  1.00  0.00     0.010 A 
ATOM     35  C   UNL A   1      35.081  32.985  30.987  1.00  0.00     0.010 A 
ATOM     36  C   UNL A   1      36.342  33.128  30.383  1.00  0.00    -0.014 A 
BRANCH  36  37
ATOM     37  C   UNL A   1      37.519  32.479  30.992  1.00  0.00     0.031 A 
ATOM     38  C   UNL A   1      38.214  31.336  30.323  1.00  0.00     0.074 A 
ATOM     39  C   UNL A   1      37.911  32.912  32.202  1.00  0.00     0.049 A 
ATOM     40  N   UNL A   1      39.213  30.611  30.762  1.00  0.00    -0.248 NA
ATOM     41  C   UNL A   1      37.727  30.952  28.991  1.00  0.00     0.031 C 
ATOM     42  C   UNL A   1      37.292  34.019  32.931  1.00  0.00     0.029 A 
ATOM     43  N   UNL A   1      38.886  32.452  33.043  1.00  0.00    -0.354 N 
ATOM     44  C   UNL A   1      39.481  29.691  29.758  1.00  0.00     0.074 A 
ATOM     45  C   UNL A   1      38.524  29.931  28.697  1.00  0.00     0.031 C 
ATOM     46  C   UNL A   1      37.867  34.117  34.139  1.00  0.00     0.029 A 
ATOM     47  C   UNL A   1      38.882  33.075  34.264  1.00  0.00     0.049 A 
ATOM     48  H   UNL A   1      39.527  31.745  32.797  1.00  0.00     0.167 HD
ATOM     49  C   UNL A   1      40.446  28.741  29.732  1.00  0.00     0.037 A 
ATOM     50  C   UNL A   1      39.598  32.816  35.371  1.00  0.00     0.037 A 
ATOM     51  C   UNL A   1      41.379  28.502  30.805  1.00  0.00     0.049 A 
ATOM     52  C   UNL A   1      40.633  31.734  35.334  1.00  0.00     0.074 A 
ATOM     53  C   UNL A   1      42.427  27.600  30.858  1.00  0.00     0.029 A 
ATOM     54  N   UNL A   1      41.361  29.162  32.027  1.00  0.00    -0.354 N 
ATOM     55  N   UNL A   1      40.924  30.908  34.360  1.00  0.00    -0.248 NA
ATOM     56  C   UNL A   1      41.452  31.562  36.540  1.00  0.00     0.031 C 
ATOM     57  C   UNL A   1      43.019  27.686  32.125  1.00  0.00     0.029 A 
ATOM     58  C   UNL A   1      42.363  28.669  32.849  1.00  0.00     0.049 A 
ATOM     59  H   UNL A   1      40.730  29.876  32.272  1.00  0.00     0.167 HD
ATOM     60  C   UNL A   1      41.969  30.125  34.824  1.00  0.00     0.074 A 
ATOM     61  C   UNL A   1      42.266  30.583  36.168  1.00  0.00     0.031 C 
ATOM     62  C   UNL A   1      42.627  29.123  34.191  1.00  0.00     0.037 A 
BRANCH  49  63
ATOM     63  C   UNL A   1      40.544  27.881  28.508  1.00  0.00     0.064 A 
ATOM     64  C   UNL A   1      41.306  28.274  27.398  1.00  0.00     0.173 A 
ATOM     65  C   UNL A   1      39.922  26.624  28.466  1.00  0.00     0.173 A 
ATOM     66  F   UNL A   1      41.919  29.468  27.388  1.00  0.00    -0.203 F 
ATOM     67  C   UNL A   1      41.432  27.444  26.285  1.00  0.00     0.198 A 
ATOM     68  C   UNL A   1      40.066  25.789  27.360  1.00  0.00     0.198 A 
ATOM     69  F   UNL A   1      39.190  26.198  29.507  1.00  0.00    -0.203 F 
ATOM     70  F   UNL A   1      42.149  27.848  25.227  1.00  0.00    -0.200 F 
ATOM     71  C   UNL A   1      40.817  26.201  26.270  1.00  0.00     0.200 A 
ATOM     72  F   UNL A   1      39.481  24.584  27.352  1.00  0.00    -0.200 F 
ATOM     73  F   UNL A   1      40.950  25.400  25.205  1.00  0.00    -0.200 F 
ENDBRANCH  49  63
BRANCH  50  74
ATOM     74  C   UNL A   1      39.336  33.614  36.590  1.00  0.00     0.064 A 
ATOM     75  C   UNL A   1      38.528  33.117  37.618  1.00  0.00     0.173 A 
ATOM     76  C   UNL A   1      39.966  34.853  36.784  1.00  0.00     0.173 A 
ATOM     77  F   UNL A   1      37.900  31.942  37.465  1.00  0.00    -0.203 F 
ATOM     78  C   UNL A   1      38.361  33.829  38.803  1.00  0.00     0.198 A 
ATOM     79  C   UNL A   1      39.813  35.555  37.977  1.00  0.00     0.198 A 
ATOM     80  F   UNL A   1      40.759  35.361  35.829  1.00  0.00    -0.203 F 
ATOM     81  F   UNL A   1      37.577  33.337  39.771  1.00  0.00    -0.200 F 
ATOM     82  C   UNL A   1      39.011  35.041  38.985  1.00  0.00     0.200 A 
ATOM     83  F   UNL A   1      40.455  36.717  38.156  1.00  0.00    -0.200 F 
ATOM     84  F   UNL A   1      38.868  35.713  40.135  1.00  0.00    -0.200 F 
ENDBRANCH  50  74
BRANCH  62  85
ATOM     85  C   UNL A   1      43.734  28.462  34.951  1.00  0.00     0.064 A 
ATOM     86  C   UNL A   1      45.044  28.962  34.912  1.00  0.00     0.173 A 
ATOM     87  C   UNL A   1      43.484  27.325  35.732  1.00  0.00     0.173 A 
ATOM     88  F   UNL A   1      45.333  30.036  34.162  1.00  0.00    -0.203 F 
ATOM     89  C   UNL A   1      46.069  28.332  35.610  1.00  0.00     0.198 A 
ATOM     90  C   UNL A   1      44.507  26.709  36.445  1.00  0.00     0.198 A 
ATOM     91  F   UNL A   1      42.247  26.811  35.800  1.00  0.00    -0.203 F 
ATOM     92  F   UNL A   1      47.323  28.799  35.524  1.00  0.00    -0.200 F 
ATOM     93  C   UNL A   1      45.799  27.209  36.378  1.00  0.00     0.200 A 
ATOM     94  F   UNL A   1      44.246  25.626  37.191  1.00  0.00    -0.200 F 
ATOM     95  F   UNL A   1      46.790  26.600  37.046  1.00  0.00    -0.200 F 
ENDBRANCH  62  85
ENDBRANCH  36  37
ENDBRANCH  29  31
ENDBRANCH  28  29
ENDBRANCH  27  28
ENDBRANCH   1  27
TORSDOF 16
ENDMDL
