MODEL 1
REMARK VINA RESULT:     -12.6      0.000      0.000
REMARK SMILES COc1ccc(CCc2nnc(NC(=O)[C@@H]3[C@@H](C(=O)OCCOC(=O)c4ccc(-c5c6nc(c(-c7c(F)c(F)c(F)c(F)c7F)c7ccc([nH]7)c(-c7c(F)c(F)c(F)c(F)c7F)c7nc(c(-c8c(F)c(F)c(F)c(F)c8F)c8ccc5[nH]8)C=C7)C=C6)cc4)C3(C)C)s2)cc1
REMARK SMILES IDX 18 1 19 2 17 3 16 4 89 5 90 6 91 7 14 8 13 9 15 11 12 12
REMARK SMILES IDX 9 13 10 14 92 15 11 16 8 17 7 18 6 19 3 20 4 21 94 22 5 23
REMARK SMILES IDX 93 24 2 25 1 26 20 27 21 28 22 29 23 30 24 31 25 32 26 33
REMARK SMILES IDX 27 34 88 35 28 36 87 37 29 38 30 39 31 40 81 41 32 42 86 43
REMARK SMILES IDX 80 44 82 45 33 46 85 47 79 48 78 49 34 51 66 52 46 53 65 54
REMARK SMILES IDX 47 55 50 56 64 57 83 58 48 59 49 60 63 62 84 63 51 64 35 65
REMARK SMILES IDX 36 66 44 67 37 68 38 69 42 70 45 71 39 72 40 73 43 74 41 75
REMARK SMILES IDX 67 76 68 77 76 78 69 79 70 80 74 81 77 82 71 83 72 84 75 85
REMARK SMILES IDX 73 86 52 87 53 88 61 89 54 90 55 91 59 92 62 93 56 94 57 95
REMARK SMILES IDX 60 96 58 97
REMARK H PARENT 13 10 82 50 50 61
REMARK Flexibility Score: inf
ROOT
ATOM      1  C   UNL A   1      31.500  28.560  23.277  1.00  0.00     0.310 C 
ATOM      2  O   UNL A   1      32.444  29.119  22.739  1.00  0.00    -0.252 OA
ENDROOT
BRANCH   1   3
ATOM      3  C   UNL A   1      31.416  27.088  23.214  1.00  0.00     0.118 C 
ATOM      4  C   UNL A   1      31.262  26.308  24.516  1.00  0.00     0.100 C 
ATOM      5  C   UNL A   1      32.375  25.981  23.532  1.00  0.00    -0.009 C 
ATOM      6  C   UNL A   1      33.786  26.292  23.966  1.00  0.00     0.013 C 
ATOM      7  C   UNL A   1      32.280  24.728  22.693  1.00  0.00     0.013 C 
BRANCH   4   8
ATOM      8  C   UNL A   1      29.890  25.735  24.613  1.00  0.00     0.230 C 
ATOM      9  N   UNL A   1      29.658  24.827  25.619  1.00  0.00    -0.300 N 
ATOM     10  H   UNL A   1      28.734  24.714  25.941  1.00  0.00     0.172 HD
ATOM     11  O   UNL A   1      28.970  26.184  23.939  1.00  0.00    -0.274 OA
BRANCH   9  12
ATOM     12  C   UNL A   1      30.640  24.073  26.198  1.00  0.00     0.212 A 
ATOM     13  C   UNL A   1      32.460  22.596  26.424  1.00  0.00     0.119 A 
ATOM     14  N   UNL A   1      32.429  23.494  27.387  1.00  0.00    -0.142 NA
ATOM     15  S   UNL A   1      31.051  22.615  25.418  1.00  0.00    -0.080 S 
ATOM     16  N   UNL A   1      31.367  24.352  27.251  1.00  0.00    -0.120 NA
BRANCH  13  17
ATOM     17  C   UNL A   1      33.620  21.682  26.207  1.00  0.00     0.074 C 
BRANCH  17  18
ATOM     18  C   UNL A   1      33.812  21.164  24.777  1.00  0.00     0.043 C 
BRANCH  18  19
ATOM     19  C   UNL A   1      33.742  19.670  24.516  1.00  0.00    -0.047 A 
ATOM     20  C   UNL A   1      33.641  16.852  24.397  1.00  0.00     0.118 A 
ATOM     21  C   UNL A   1      32.485  17.598  24.224  1.00  0.00     0.046 A 
ATOM     22  C   UNL A   1      34.862  17.501  24.559  1.00  0.00     0.046 A 
ATOM     23  C   UNL A   1      32.536  18.991  24.290  1.00  0.00     0.007 A 
ATOM     24  C   UNL A   1      34.910  18.898  24.626  1.00  0.00     0.007 A 
BRANCH  20  25
ATOM     25  O   UNL A   1      33.506  15.493  24.362  1.00  0.00    -0.497 OA
ATOM     26  C   UNL A   1      32.669  15.007  25.409  1.00  0.00     0.278 C 
ENDBRANCH  20  25
ENDBRANCH  18  19
ENDBRANCH  17  18
ENDBRANCH  13  17
ENDBRANCH   9  12
ENDBRANCH   4   8
ENDBRANCH   1   3
BRANCH   1  27
ATOM     27  O   UNL A   1      30.566  29.153  24.058  1.00  0.00    -0.462 OA
BRANCH  27  28
ATOM     28  C   UNL A   1      31.040  30.278  24.817  1.00  0.00     0.274 C 
BRANCH  28  29
ATOM     29  C   UNL A   1      31.794  29.799  26.058  1.00  0.00     0.275 C 
BRANCH  29  30
ATOM     30  O   UNL A   1      33.144  30.303  26.081  1.00  0.00    -0.458 OA
BRANCH  30  31
ATOM     31  C   UNL A   1      33.379  31.287  26.981  1.00  0.00     0.338 C 
ATOM     32  O   UNL A   1      32.672  32.242  27.251  1.00  0.00    -0.246 OA
BRANCH  31  33
ATOM     33  C   UNL A   1      34.636  31.006  27.687  1.00  0.00     0.060 A 
ATOM     34  C   UNL A   1      34.874  29.706  28.131  1.00  0.00     0.016 A 
ATOM     35  C   UNL A   1      35.530  32.029  27.993  1.00  0.00     0.016 A 
ATOM     36  C   UNL A   1      35.994  29.413  28.897  1.00  0.00     0.010 A 
ATOM     37  C   UNL A   1      36.683  31.729  28.727  1.00  0.00     0.010 A 
ATOM     38  C   UNL A   1      36.920  30.421  29.186  1.00  0.00    -0.014 A 
BRANCH  38  39
ATOM     39  C   UNL A   1      38.141  30.095  29.959  1.00  0.00     0.031 A 
ATOM     40  C   UNL A   1      39.185  29.192  29.377  1.00  0.00     0.074 A 
ATOM     41  C   UNL A   1      38.307  30.625  31.185  1.00  0.00     0.049 A 
ATOM     42  N   UNL A   1      40.251  28.687  29.943  1.00  0.00    -0.248 NA
ATOM     43  C   UNL A   1      39.004  28.801  27.971  1.00  0.00     0.031 C 
ATOM     44  C   UNL A   1      37.391  31.569  31.826  1.00  0.00     0.029 A 
ATOM     45  N   UNL A   1      39.303  30.444  32.110  1.00  0.00    -0.354 N 
ATOM     46  C   UNL A   1      40.852  27.894  28.976  1.00  0.00     0.074 A 
ATOM     47  C   UNL A   1      40.027  27.978  27.789  1.00  0.00     0.031 C 
ATOM     48  C   UNL A   1      37.874  31.896  33.034  1.00  0.00     0.029 A 
ATOM     49  C   UNL A   1      39.092  31.131  33.280  1.00  0.00     0.049 A 
ATOM     50  H   UNL A   1      40.092  29.877  31.951  1.00  0.00     0.167 HD
ATOM     51  C   UNL A   1      41.986  27.161  29.079  1.00  0.00     0.037 A 
ATOM     52  C   UNL A   1      39.780  31.111  34.436  1.00  0.00     0.037 A 
ATOM     53  C   UNL A   1      42.809  27.108  30.259  1.00  0.00     0.049 A 
ATOM     54  C   UNL A   1      40.976  30.211  34.558  1.00  0.00     0.074 A 
ATOM     55  C   UNL A   1      44.006  26.438  30.449  1.00  0.00     0.029 A 
ATOM     56  N   UNL A   1      42.514  27.746  31.456  1.00  0.00    -0.354 N 
ATOM     57  N   UNL A   1      41.534  29.453  33.647  1.00  0.00    -0.248 NA
ATOM     58  C   UNL A   1      41.618  30.141  35.877  1.00  0.00     0.031 C 
ATOM     59  C   UNL A   1      44.407  26.629  31.777  1.00  0.00     0.029 A 
ATOM     60  C   UNL A   1      43.482  27.451  32.403  1.00  0.00     0.049 A 
ATOM     61  H   UNL A   1      41.732  28.324  31.609  1.00  0.00     0.167 HD
ATOM     62  C   UNL A   1      42.595  28.818  34.276  1.00  0.00     0.074 A 
ATOM     63  C   UNL A   1      42.613  29.295  35.644  1.00  0.00     0.031 C 
ATOM     64  C   UNL A   1      43.472  27.920  33.766  1.00  0.00     0.037 A 
BRANCH  51  65
ATOM     65  C   UNL A   1      42.374  26.322  27.898  1.00  0.00     0.064 A 
ATOM     66  C   UNL A   1      41.812  25.059  27.664  1.00  0.00     0.173 A 
ATOM     67  C   UNL A   1      43.320  26.800  26.978  1.00  0.00     0.173 A 
ATOM     68  F   UNL A   1      40.912  24.552  28.521  1.00  0.00    -0.203 F 
ATOM     69  C   UNL A   1      42.205  24.293  26.569  1.00  0.00     0.198 A 
ATOM     70  C   UNL A   1      43.692  26.042  25.871  1.00  0.00     0.198 A 
ATOM     71  F   UNL A   1      43.886  28.004  27.153  1.00  0.00    -0.203 F 
ATOM     72  F   UNL A   1      41.692  23.067  26.393  1.00  0.00    -0.200 F 
ATOM     73  C   UNL A   1      43.141  24.785  25.673  1.00  0.00     0.200 A 
ATOM     74  F   UNL A   1      44.591  26.524  25.001  1.00  0.00    -0.200 F 
ATOM     75  F   UNL A   1      43.520  24.045  24.622  1.00  0.00    -0.200 F 
ENDBRANCH  51  65
BRANCH  52  76
ATOM     76  C   UNL A   1      39.325  31.947  35.576  1.00  0.00     0.064 A 
ATOM     77  C   UNL A   1      38.380  31.462  36.488  1.00  0.00     0.173 A 
ATOM     78  C   UNL A   1      39.848  33.231  35.794  1.00  0.00     0.173 A 
ATOM     79  F   UNL A   1      37.834  30.251  36.306  1.00  0.00    -0.203 F 
ATOM     80  C   UNL A   1      37.979  32.228  37.580  1.00  0.00     0.198 A 
ATOM     81  C   UNL A   1      39.465  33.985  36.899  1.00  0.00     0.198 A 
ATOM     82  F   UNL A   1      40.753  33.740  34.945  1.00  0.00    -0.203 F 
ATOM     83  F   UNL A   1      37.057  31.750  38.428  1.00  0.00    -0.200 F 
ATOM     84  C   UNL A   1      38.528  33.484  37.791  1.00  0.00     0.200 A 
ATOM     85  F   UNL A   1      40.008  35.192  37.107  1.00  0.00    -0.200 F 
ATOM     86  F   UNL A   1      38.155  34.212  38.851  1.00  0.00    -0.200 F 
ENDBRANCH  52  76
BRANCH  64  87
ATOM     87  C   UNL A   1      44.522  27.391  34.695  1.00  0.00     0.064 A 
ATOM     88  C   UNL A   1      44.338  26.188  35.391  1.00  0.00     0.173 A 
ATOM     89  C   UNL A   1      45.737  28.071  34.863  1.00  0.00     0.173 A 
ATOM     90  F   UNL A   1      43.184  25.512  35.278  1.00  0.00    -0.203 F 
ATOM     91  C   UNL A   1      45.329  25.691  36.234  1.00  0.00     0.198 A 
ATOM     92  C   UNL A   1      46.735  27.560  35.688  1.00  0.00     0.198 A 
ATOM     93  F   UNL A   1      45.960  29.226  34.218  1.00  0.00    -0.203 F 
ATOM     94  F   UNL A   1      45.118  24.558  36.919  1.00  0.00    -0.200 F 
ATOM     95  C   UNL A   1      46.529  26.373  36.376  1.00  0.00     0.200 A 
ATOM     96  F   UNL A   1      47.897  28.215  35.818  1.00  0.00    -0.200 F 
ATOM     97  F   UNL A   1      47.484  25.890  37.182  1.00  0.00    -0.200 F 
ENDBRANCH  64  87
ENDBRANCH  38  39
ENDBRANCH  31  33
ENDBRANCH  30  31
ENDBRANCH  29  30
ENDBRANCH  28  29
ENDBRANCH  27  28
ENDBRANCH   1  27
TORSDOF 17
ENDMDL
MODEL 2
REMARK VINA RESULT:     -12.0      2.513      7.450
REMARK SMILES COc1ccc(CCc2nnc(NC(=O)[C@@H]3[C@@H](C(=O)OCCOC(=O)c4ccc(-c5c6nc(c(-c7c(F)c(F)c(F)c(F)c7F)c7ccc([nH]7)c(-c7c(F)c(F)c(F)c(F)c7F)c7nc(c(-c8c(F)c(F)c(F)c(F)c8F)c8ccc5[nH]8)C=C7)C=C6)cc4)C3(C)C)s2)cc1
REMARK SMILES IDX 18 1 19 2 17 3 16 4 89 5 90 6 91 7 14 8 13 9 15 11 12 12
REMARK SMILES IDX 9 13 10 14 92 15 11 16 8 17 7 18 6 19 3 20 4 21 94 22 5 23
REMARK SMILES IDX 93 24 2 25 1 26 20 27 21 28 22 29 23 30 24 31 25 32 26 33
REMARK SMILES IDX 27 34 88 35 28 36 87 37 29 38 30 39 31 40 81 41 32 42 86 43
REMARK SMILES IDX 80 44 82 45 33 46 85 47 79 48 78 49 34 51 66 52 46 53 65 54
REMARK SMILES IDX 47 55 50 56 64 57 83 58 48 59 49 60 63 62 84 63 51 64 35 65
REMARK SMILES IDX 36 66 44 67 37 68 38 69 42 70 45 71 39 72 40 73 43 74 41 75
REMARK SMILES IDX 67 76 68 77 76 78 69 79 70 80 74 81 77 82 71 83 72 84 75 85
REMARK SMILES IDX 73 86 52 87 53 88 61 89 54 90 55 91 59 92 62 93 56 94 57 95
REMARK SMILES IDX 60 96 58 97
REMARK H PARENT 13 10 82 50 50 61
REMARK Flexibility Score: inf
ROOT
ATOM      1  C   UNL A   1      32.474  28.615  24.020  1.00  0.00     0.310 C 
ATOM      2  O   UNL A   1      33.448  29.231  23.612  1.00  0.00    -0.252 OA
ENDROOT
BRANCH   1   3
ATOM      3  C   UNL A   1      32.389  27.165  23.757  1.00  0.00     0.118 C 
ATOM      4  C   UNL A   1      31.831  26.256  24.848  1.00  0.00     0.100 C 
ATOM      5  C   UNL A   1      33.187  25.981  24.215  1.00  0.00    -0.009 C 
ATOM      6  C   UNL A   1      34.401  26.169  25.090  1.00  0.00     0.013 C 
ATOM      7  C   UNL A   1      33.333  24.834  23.242  1.00  0.00     0.013 C 
BRANCH   4   8
ATOM      8  C   UNL A   1      30.486  25.749  24.456  1.00  0.00     0.230 C 
ATOM      9  N   UNL A   1      29.941  24.750  25.228  1.00  0.00    -0.300 N 
ATOM     10  H   UNL A   1      28.961  24.652  25.239  1.00  0.00     0.172 HD
ATOM     11  O   UNL A   1      29.825  26.317  23.593  1.00  0.00    -0.274 OA
BRANCH   9  12
ATOM     12  C   UNL A   1      30.686  23.888  25.983  1.00  0.00     0.212 A 
ATOM     13  C   UNL A   1      32.357  22.342  26.585  1.00  0.00     0.119 A 
ATOM     14  N   UNL A   1      31.974  23.079  27.607  1.00  0.00    -0.142 NA
ATOM     15  S   UNL A   1      31.377  22.558  25.173  1.00  0.00    -0.080 S 
ATOM     16  N   UNL A   1      31.001  23.978  27.251  1.00  0.00    -0.120 NA
BRANCH  13  17
ATOM     17  C   UNL A   1      33.544  21.439  26.638  1.00  0.00     0.074 C 
BRANCH  17  18
ATOM     18  C   UNL A   1      34.020  20.871  25.296  1.00  0.00     0.043 C 
BRANCH  18  19
ATOM     19  C   UNL A   1      33.811  19.395  25.002  1.00  0.00    -0.047 A 
ATOM     20  C   UNL A   1      33.608  16.590  24.771  1.00  0.00     0.118 A 
ATOM     21  C   UNL A   1      32.506  17.337  25.159  1.00  0.00     0.046 A 
ATOM     22  C   UNL A   1      34.794  17.234  24.429  1.00  0.00     0.046 A 
ATOM     23  C   UNL A   1      32.612  18.724  25.279  1.00  0.00     0.007 A 
ATOM     24  C   UNL A   1      34.895  18.625  24.551  1.00  0.00     0.007 A 
BRANCH  20  25
ATOM     25  O   UNL A   1      33.442  15.235  24.718  1.00  0.00    -0.497 OA
ATOM     26  C   UNL A   1      32.517  14.766  25.697  1.00  0.00     0.278 C 
ENDBRANCH  20  25
ENDBRANCH  18  19
ENDBRANCH  17  18
ENDBRANCH  13  17
ENDBRANCH   9  12
ENDBRANCH   4   8
ENDBRANCH   1   3
BRANCH   1  27
ATOM     27  O   UNL A   1      31.501  29.108  24.821  1.00  0.00    -0.462 OA
BRANCH  27  28
ATOM     28  C   UNL A   1      31.945  30.084  25.780  1.00  0.00     0.274 C 
BRANCH  28  29
ATOM     29  C   UNL A   1      32.561  29.388  26.994  1.00  0.00     0.275 C 
BRANCH  29  30
ATOM     30  O   UNL A   1      34.000  29.466  26.971  1.00  0.00    -0.458 OA
BRANCH  30  31
ATOM     31  C   UNL A   1      34.534  30.516  27.640  1.00  0.00     0.338 C 
ATOM     32  O   UNL A   1      34.034  31.607  27.845  1.00  0.00    -0.246 OA
BRANCH  31  33
ATOM     33  C   UNL A   1      35.843  30.128  28.181  1.00  0.00     0.060 A 
ATOM     34  C   UNL A   1      36.967  30.265  27.369  1.00  0.00     0.016 A 
ATOM     35  C   UNL A   1      35.952  29.546  29.442  1.00  0.00     0.016 A 
ATOM     36  C   UNL A   1      38.208  29.810  27.794  1.00  0.00     0.010 A 
ATOM     37  C   UNL A   1      37.209  29.127  29.893  1.00  0.00     0.010 A 
ATOM     38  C   UNL A   1      38.343  29.254  29.070  1.00  0.00    -0.014 A 
BRANCH  38  39
ATOM     39  C   UNL A   1      39.677  28.818  29.543  1.00  0.00     0.031 A 
ATOM     40  C   UNL A   1      40.446  29.659  30.517  1.00  0.00     0.074 A 
ATOM     41  C   UNL A   1      40.189  27.656  29.096  1.00  0.00     0.049 A 
ATOM     42  N   UNL A   1      41.674  29.515  30.944  1.00  0.00    -0.248 NA
ATOM     43  C   UNL A   1      39.739  30.817  31.083  1.00  0.00     0.031 C 
ATOM     44  C   UNL A   1      39.506  26.724  28.199  1.00  0.00     0.029 A 
ATOM     45  N   UNL A   1      41.403  27.064  29.332  1.00  0.00    -0.354 N 
ATOM     46  C   UNL A   1      41.901  30.581  31.804  1.00  0.00     0.074 A 
ATOM     47  C   UNL A   1      40.685  31.368  31.832  1.00  0.00     0.031 C 
ATOM     48  C   UNL A   1      40.303  25.669  27.973  1.00  0.00     0.029 A 
ATOM     49  C   UNL A   1      41.578  25.887  28.649  1.00  0.00     0.049 A 
ATOM     50  H   UNL A   1      42.083  27.445  29.934  1.00  0.00     0.167 HD
ATOM     51  C   UNL A   1      43.026  30.872  32.500  1.00  0.00     0.037 A 
ATOM     52  C   UNL A   1      42.661  25.095  28.542  1.00  0.00     0.037 A 
ATOM     53  C   UNL A   1      44.218  30.066  32.482  1.00  0.00     0.049 A 
ATOM     54  C   UNL A   1      43.928  25.495  29.242  1.00  0.00     0.074 A 
ATOM     55  C   UNL A   1      45.393  30.244  33.191  1.00  0.00     0.029 A 
ATOM     56  N   UNL A   1      44.390  28.928  31.705  1.00  0.00    -0.354 N 
ATOM     57  N   UNL A   1      44.144  26.509  30.043  1.00  0.00    -0.248 NA
ATOM     58  C   UNL A   1      45.110  24.658  28.997  1.00  0.00     0.031 C 
ATOM     59  C   UNL A   1      46.293  29.244  32.803  1.00  0.00     0.029 A 
ATOM     60  C   UNL A   1      45.666  28.419  31.883  1.00  0.00     0.049 A 
ATOM     61  H   UNL A   1      43.704  28.540  31.114  1.00  0.00     0.167 HD
ATOM     62  C   UNL A   1      45.481  26.434  30.404  1.00  0.00     0.074 A 
ATOM     63  C   UNL A   1      46.024  25.261  29.748  1.00  0.00     0.031 C 
ATOM     64  C   UNL A   1      46.194  27.262  31.205  1.00  0.00     0.037 A 
BRANCH  51  65
ATOM     65  C   UNL A   1      43.032  32.141  33.300  1.00  0.00     0.064 A 
ATOM     66  C   UNL A   1      43.469  33.359  32.762  1.00  0.00     0.173 A 
ATOM     67  C   UNL A   1      42.579  32.134  34.628  1.00  0.00     0.173 A 
ATOM     68  F   UNL A   1      43.923  33.415  31.501  1.00  0.00    -0.203 F 
ATOM     69  C   UNL A   1      43.483  34.518  33.534  1.00  0.00     0.198 A 
ATOM     70  C   UNL A   1      42.571  33.300  35.389  1.00  0.00     0.198 A 
ATOM     71  F   UNL A   1      42.146  30.996  35.191  1.00  0.00    -0.203 F 
ATOM     72  F   UNL A   1      43.953  35.662  33.016  1.00  0.00    -0.200 F 
ATOM     73  C   UNL A   1      43.031  34.489  34.845  1.00  0.00     0.200 A 
ATOM     74  F   UNL A   1      42.125  33.271  36.653  1.00  0.00    -0.200 F 
ATOM     75  F   UNL A   1      43.048  35.604  35.587  1.00  0.00    -0.200 F 
ENDBRANCH  51  65
BRANCH  52  76
ATOM     76  C   UNL A   1      42.594  23.866  27.711  1.00  0.00     0.064 A 
ATOM     77  C   UNL A   1      42.181  22.649  28.265  1.00  0.00     0.173 A 
ATOM     78  C   UNL A   1      42.908  23.892  26.344  1.00  0.00     0.173 A 
ATOM     79  F   UNL A   1      41.894  22.571  29.572  1.00  0.00    -0.203 F 
ATOM     80  C   UNL A   1      42.079  21.502  27.481  1.00  0.00     0.198 A 
ATOM     81  C   UNL A   1      42.782  22.752  25.556  1.00  0.00     0.198 A 
ATOM     82  F   UNL A   1      43.311  25.035  25.769  1.00  0.00    -0.203 F 
ATOM     83  F   UNL A   1      41.702  20.343  28.038  1.00  0.00    -0.200 F 
ATOM     84  C   UNL A   1      42.370  21.556  26.124  1.00  0.00     0.200 A 
ATOM     85  F   UNL A   1      43.051  22.812  24.244  1.00  0.00    -0.200 F 
ATOM     86  F   UNL A   1      42.255  20.457  25.368  1.00  0.00    -0.200 F 
ENDBRANCH  52  76
BRANCH  64  87
ATOM     87  C   UNL A   1      47.641  26.931  31.410  1.00  0.00     0.064 A 
ATOM     88  C   UNL A   1      48.046  26.009  32.386  1.00  0.00     0.173 A 
ATOM     89  C   UNL A   1      48.629  27.510  30.601  1.00  0.00     0.173 A 
ATOM     90  F   UNL A   1      47.138  25.444  33.197  1.00  0.00    -0.203 F 
ATOM     91  C   UNL A   1      49.390  25.689  32.553  1.00  0.00     0.198 A 
ATOM     92  C   UNL A   1      49.970  27.170  30.755  1.00  0.00     0.198 A 
ATOM     93  F   UNL A   1      48.292  28.398  29.653  1.00  0.00    -0.203 F 
ATOM     94  F   UNL A   1      49.758  24.833  33.517  1.00  0.00    -0.200 F 
ATOM     95  C   UNL A   1      50.350  26.263  31.733  1.00  0.00     0.200 A 
ATOM     96  F   UNL A   1      50.896  27.719  29.956  1.00  0.00    -0.200 F 
ATOM     97  F   UNL A   1      51.643  25.948  31.891  1.00  0.00    -0.200 F 
ENDBRANCH  64  87
ENDBRANCH  38  39
ENDBRANCH  31  33
ENDBRANCH  30  31
ENDBRANCH  29  30
ENDBRANCH  28  29
ENDBRANCH  27  28
ENDBRANCH   1  27
TORSDOF 17
ENDMDL
MODEL 3
REMARK VINA RESULT:     -12.0      1.737      2.787
REMARK SMILES COc1ccc(CCc2nnc(NC(=O)[C@@H]3[C@@H](C(=O)OCCOC(=O)c4ccc(-c5c6nc(c(-c7c(F)c(F)c(F)c(F)c7F)c7ccc([nH]7)c(-c7c(F)c(F)c(F)c(F)c7F)c7nc(c(-c8c(F)c(F)c(F)c(F)c8F)c8ccc5[nH]8)C=C7)C=C6)cc4)C3(C)C)s2)cc1
REMARK SMILES IDX 18 1 19 2 17 3 16 4 89 5 90 6 91 7 14 8 13 9 15 11 12 12
REMARK SMILES IDX 9 13 10 14 92 15 11 16 8 17 7 18 6 19 3 20 4 21 94 22 5 23
REMARK SMILES IDX 93 24 2 25 1 26 20 27 21 28 22 29 23 30 24 31 25 32 26 33
REMARK SMILES IDX 27 34 88 35 28 36 87 37 29 38 30 39 31 40 81 41 32 42 86 43
REMARK SMILES IDX 80 44 82 45 33 46 85 47 79 48 78 49 34 51 66 52 46 53 65 54
REMARK SMILES IDX 47 55 50 56 64 57 83 58 48 59 49 60 63 62 84 63 51 64 35 65
REMARK SMILES IDX 36 66 44 67 37 68 38 69 42 70 45 71 39 72 40 73 43 74 41 75
REMARK SMILES IDX 67 76 68 77 76 78 69 79 70 80 74 81 77 82 71 83 72 84 75 85
REMARK SMILES IDX 73 86 52 87 53 88 61 89 54 90 55 91 59 92 62 93 56 94 57 95
REMARK SMILES IDX 60 96 58 97
REMARK H PARENT 13 10 82 50 50 61
REMARK Flexibility Score: inf
ROOT
ATOM      1  C   UNL A   1      31.232  29.703  25.042  1.00  0.00     0.310 C 
ATOM      2  O   UNL A   1      30.413  30.138  24.246  1.00  0.00    -0.252 OA
ENDROOT
BRANCH   1   3
ATOM      3  C   UNL A   1      31.349  28.242  25.214  1.00  0.00     0.118 C 
ATOM      4  C   UNL A   1      32.514  27.519  24.546  1.00  0.00     0.100 C 
ATOM      5  C   UNL A   1      31.078  27.069  24.320  1.00  0.00    -0.009 C 
ATOM      6  C   UNL A   1      30.506  27.276  22.939  1.00  0.00     0.013 C 
ATOM      7  C   UNL A   1      30.584  25.802  24.979  1.00  0.00     0.013 C 
BRANCH   4   8
ATOM      8  C   UNL A   1      33.494  27.065  25.572  1.00  0.00     0.230 C 
ATOM      9  N   UNL A   1      34.376  26.076  25.206  1.00  0.00    -0.300 N 
ATOM     10  H   UNL A   1      35.232  26.012  25.688  1.00  0.00     0.172 HD
ATOM     11  O   UNL A   1      33.622  27.669  26.632  1.00  0.00    -0.274 OA
BRANCH   9  12
ATOM     12  C   UNL A   1      34.129  25.177  24.207  1.00  0.00     0.212 A 
ATOM     13  C   UNL A   1      33.240  23.321  23.061  1.00  0.00     0.119 A 
ATOM     14  N   UNL A   1      33.524  24.317  22.246  1.00  0.00    -0.142 NA
ATOM     15  S   UNL A   1      33.806  23.572  24.678  1.00  0.00    -0.080 S 
ATOM     16  N   UNL A   1      34.042  25.395  22.917  1.00  0.00    -0.120 NA
BRANCH  13  17
ATOM     17  C   UNL A   1      32.471  22.117  22.631  1.00  0.00     0.074 C 
BRANCH  17  18
ATOM     18  C   UNL A   1      32.153  21.093  23.727  1.00  0.00     0.043 C 
BRANCH  18  19
ATOM     19  C   UNL A   1      32.877  19.757  23.723  1.00  0.00    -0.047 A 
ATOM     20  C   UNL A   1      34.079  17.226  24.053  1.00  0.00     0.118 A 
ATOM     21  C   UNL A   1      32.977  17.370  23.224  1.00  0.00     0.046 A 
ATOM     22  C   UNL A   1      34.632  18.346  24.667  1.00  0.00     0.046 A 
ATOM     23  C   UNL A   1      32.380  18.622  23.068  1.00  0.00     0.007 A 
ATOM     24  C   UNL A   1      34.031  19.600  24.508  1.00  0.00     0.007 A 
BRANCH  20  25
ATOM     25  O   UNL A   1      34.582  15.963  24.190  1.00  0.00    -0.497 OA
ATOM     26  C   UNL A   1      35.375  15.823  25.367  1.00  0.00     0.278 C 
ENDBRANCH  20  25
ENDBRANCH  18  19
ENDBRANCH  17  18
ENDBRANCH  13  17
ENDBRANCH   9  12
ENDBRANCH   4   8
ENDBRANCH   1   3
BRANCH   1  27
ATOM     27  O   UNL A   1      32.158  30.433  25.707  1.00  0.00    -0.462 OA
BRANCH  27  28
ATOM     28  C   UNL A   1      31.623  31.489  26.524  1.00  0.00     0.274 C 
BRANCH  28  29
ATOM     29  C   UNL A   1      32.724  32.088  27.400  1.00  0.00     0.275 C 
BRANCH  29  30
ATOM     30  O   UNL A   1      32.810  33.517  27.233  1.00  0.00    -0.458 OA
BRANCH  30  31
ATOM     31  C   UNL A   1      33.145  34.210  28.347  1.00  0.00     0.338 C 
ATOM     32  O   UNL A   1      32.549  35.140  28.860  1.00  0.00    -0.246 OA
BRANCH  31  33
ATOM     33  C   UNL A   1      34.354  33.620  28.937  1.00  0.00     0.060 A 
ATOM     34  C   UNL A   1      34.207  32.667  29.943  1.00  0.00     0.016 A 
ATOM     35  C   UNL A   1      35.621  34.068  28.571  1.00  0.00     0.016 A 
ATOM     36  C   UNL A   1      35.316  32.161  30.607  1.00  0.00     0.010 A 
ATOM     37  C   UNL A   1      36.744  33.528  29.206  1.00  0.00     0.010 A 
ATOM     38  C   UNL A   1      36.598  32.574  30.231  1.00  0.00    -0.014 A 
BRANCH  38  39
ATOM     39  C   UNL A   1      37.783  31.994  30.904  1.00  0.00     0.031 A 
ATOM     40  C   UNL A   1      38.603  30.944  30.218  1.00  0.00     0.074 A 
ATOM     41  C   UNL A   1      38.120  32.425  32.134  1.00  0.00     0.049 A 
ATOM     42  N   UNL A   1      39.589  30.226  30.690  1.00  0.00    -0.248 NA
ATOM     43  C   UNL A   1      38.266  30.661  28.815  1.00  0.00     0.031 C 
ATOM     44  C   UNL A   1      37.437  33.487  32.871  1.00  0.00     0.029 A 
ATOM     45  N   UNL A   1      39.120  32.019  32.980  1.00  0.00    -0.354 N 
ATOM     46  C   UNL A   1      39.971  29.383  29.656  1.00  0.00     0.074 A 
ATOM     47  C   UNL A   1      39.105  29.674  28.532  1.00  0.00     0.031 C 
ATOM     48  C   UNL A   1      38.047  33.663  34.053  1.00  0.00     0.029 A 
ATOM     49  C   UNL A   1      39.114  32.676  34.185  1.00  0.00     0.049 A 
ATOM     50  H   UNL A   1      39.779  31.326  32.746  1.00  0.00     0.167 HD
ATOM     51  C   UNL A   1      40.954  28.451  29.653  1.00  0.00     0.037 A 
ATOM     52  C   UNL A   1      39.856  32.475  35.289  1.00  0.00     0.037 A 
ATOM     53  C   UNL A   1      41.825  28.191  30.769  1.00  0.00     0.049 A 
ATOM     54  C   UNL A   1      40.869  31.366  35.295  1.00  0.00     0.074 A 
ATOM     55  C   UNL A   1      42.885  27.306  30.851  1.00  0.00     0.029 A 
ATOM     56  N   UNL A   1      41.728  28.814  32.007  1.00  0.00    -0.354 N 
ATOM     57  N   UNL A   1      41.220  30.564  34.320  1.00  0.00    -0.248 NA
ATOM     58  C   UNL A   1      41.567  31.116  36.563  1.00  0.00     0.031 C 
ATOM     59  C   UNL A   1      43.396  27.356  32.154  1.00  0.00     0.029 A 
ATOM     60  C   UNL A   1      42.681  28.301  32.872  1.00  0.00     0.049 A 
ATOM     61  H   UNL A   1      41.078  29.518  32.234  1.00  0.00     0.167 HD
ATOM     62  C   UNL A   1      42.180  29.716  34.850  1.00  0.00     0.074 A 
ATOM     63  C   UNL A   1      42.372  30.115  36.231  1.00  0.00     0.031 C 
ATOM     64  C   UNL A   1      42.842  28.698  34.249  1.00  0.00     0.037 A 
BRANCH  51  65
ATOM     65  C   UNL A   1      41.105  27.613  28.418  1.00  0.00     0.064 A 
ATOM     66  C   UNL A   1      41.940  27.992  27.358  1.00  0.00     0.173 A 
ATOM     67  C   UNL A   1      40.407  26.401  28.303  1.00  0.00     0.173 A 
ATOM     68  F   UNL A   1      42.620  29.148  27.415  1.00  0.00    -0.203 F 
ATOM     69  C   UNL A   1      42.047  27.205  26.214  1.00  0.00     0.198 A 
ATOM     70  C   UNL A   1      40.535  25.605  27.168  1.00  0.00     0.198 A 
ATOM     71  F   UNL A   1      39.597  25.990  29.290  1.00  0.00    -0.203 F 
ATOM     72  F   UNL A   1      42.812  27.612  25.190  1.00  0.00    -0.200 F 
ATOM     73  C   UNL A   1      41.347  26.011  26.121  1.00  0.00     0.200 A 
ATOM     74  F   UNL A   1      39.864  24.446  27.085  1.00  0.00    -0.200 F 
ATOM     75  F   UNL A   1      41.448  25.256  25.019  1.00  0.00    -0.200 F 
ENDBRANCH  51  65
BRANCH  52  76
ATOM     76  C   UNL A   1      39.636  33.324  36.487  1.00  0.00     0.064 A 
ATOM     77  C   UNL A   1      40.342  34.521  36.657  1.00  0.00     0.173 A 
ATOM     78  C   UNL A   1      38.694  32.974  37.467  1.00  0.00     0.173 A 
ATOM     79  F   UNL A   1      41.270  34.883  35.759  1.00  0.00    -0.203 F 
ATOM     80  C   UNL A   1      40.112  35.340  37.759  1.00  0.00     0.198 A 
ATOM     81  C   UNL A   1      38.446  33.806  38.555  1.00  0.00     0.198 A 
ATOM     82  F   UNL A   1      37.994  31.836  37.350  1.00  0.00    -0.203 F 
ATOM     83  F   UNL A   1      40.816  36.470  37.911  1.00  0.00    -0.200 F 
ATOM     84  C   UNL A   1      39.156  34.988  38.703  1.00  0.00     0.200 A 
ATOM     85  F   UNL A   1      37.513  33.469  39.457  1.00  0.00    -0.200 F 
ATOM     86  F   UNL A   1      38.923  35.785  39.753  1.00  0.00    -0.200 F 
ENDBRANCH  52  76
BRANCH  64  87
ATOM     87  C   UNL A   1      43.831  27.941  35.083  1.00  0.00     0.064 A 
ATOM     88  C   UNL A   1      43.471  26.760  35.747  1.00  0.00     0.173 A 
ATOM     89  C   UNL A   1      45.160  28.378  35.189  1.00  0.00     0.173 A 
ATOM     90  F   UNL A   1      42.206  26.314  35.691  1.00  0.00    -0.203 F 
ATOM     91  C   UNL A   1      44.402  26.051  36.500  1.00  0.00     0.198 A 
ATOM     92  C   UNL A   1      46.094  27.654  35.924  1.00  0.00     0.198 A 
ATOM     93  F   UNL A   1      45.554  29.502  34.572  1.00  0.00    -0.203 F 
ATOM     94  F   UNL A   1      44.026  24.944  37.157  1.00  0.00    -0.200 F 
ATOM     95  C   UNL A   1      45.714  26.493  36.581  1.00  0.00     0.200 A 
ATOM     96  F   UNL A   1      47.364  28.078  35.995  1.00  0.00    -0.200 F 
ATOM     97  F   UNL A   1      46.611  25.805  37.301  1.00  0.00    -0.200 F 
ENDBRANCH  64  87
ENDBRANCH  38  39
ENDBRANCH  31  33
ENDBRANCH  30  31
ENDBRANCH  29  30
ENDBRANCH  28  29
ENDBRANCH  27  28
ENDBRANCH   1  27
TORSDOF 17
ENDMDL
