MODEL 1
REMARK VINA RESULT:     -10.9      0.000      0.000
REMARK SMILES CC(C)(C(=O)OCCOC(=O)c1ccc(-c2c3nc(c(-c4c(F)c(F)c(F)c(F)c4F)c4ccc([nH]4)c(-c4c(F)c(F)c(F)c(F)c4F)c4nc(c(-c5c(F)c(F)c(F)c(F)c5F)c5ccc2[nH]5)C=C4)C=C3)cc1)n1cccc1
REMARK SMILES IDX 8 1 7 2 6 3 4 4 5 5 2 6 1 7 3 8 75 9 76 10 79 11 77 12 78 13
REMARK SMILES IDX 9 14 10 15 11 16 12 17 13 18 74 19 14 20 73 21 15 22 16 23
REMARK SMILES IDX 17 24 67 25 18 26 72 27 66 28 68 29 19 30 71 31 65 32 64 33
REMARK SMILES IDX 20 35 52 36 32 37 51 38 33 39 36 40 50 41 69 42 34 43 35 44
REMARK SMILES IDX 49 46 70 47 37 48 21 49 22 50 30 51 23 52 24 53 28 54 31 55
REMARK SMILES IDX 25 56 26 57 29 58 27 59 53 60 54 61 62 62 55 63 56 64 60 65
REMARK SMILES IDX 63 66 57 67 58 68 61 69 59 70 38 71 39 72 47 73 40 74 41 75
REMARK SMILES IDX 45 76 48 77 42 78 43 79 46 80 44 81
REMARK H PARENT 68 34 36 45
REMARK Flexibility Score: inf
ROOT
ATOM      1  C   UNL A   1      32.917  33.635  28.001  1.00  0.00     0.275 C 
ENDROOT
BRANCH   1   2
ATOM      2  C   UNL A   1      33.653  34.342  29.134  1.00  0.00     0.274 C 
BRANCH   2   3
ATOM      3  O   UNL A   1      32.713  34.964  30.035  1.00  0.00    -0.460 OA
BRANCH   3   4
ATOM      4  C   UNL A   1      33.008  36.224  30.466  1.00  0.00     0.331 C 
ATOM      5  O   UNL A   1      33.247  37.160  29.710  1.00  0.00    -0.249 OA
BRANCH   4   6
ATOM      6  C   UNL A   1      33.094  36.312  32.002  1.00  0.00     0.136 C 
ATOM      7  C   UNL A   1      33.528  37.717  32.479  1.00  0.00     0.047 C 
ATOM      8  C   UNL A   1      31.664  36.078  32.536  1.00  0.00     0.047 C 
BRANCH   6   9
ATOM      9  N   UNL A   1      34.021  35.270  32.510  1.00  0.00    -0.338 N 
ATOM     10  C   UNL A   1      35.399  35.328  32.505  1.00  0.00     0.087 A 
ATOM     11  C   UNL A   1      33.653  34.060  33.060  1.00  0.00     0.087 A 
ATOM     12  C   UNL A   1      35.892  34.189  33.103  1.00  0.00     0.019 A 
ATOM     13  C   UNL A   1      34.787  33.386  33.453  1.00  0.00     0.019 A 
ENDBRANCH   6   9
ENDBRANCH   4   6
ENDBRANCH   3   4
ENDBRANCH   2   3
ENDBRANCH   1   2
BRANCH   1  14
ATOM     14  O   UNL A   1      33.861  32.928  27.181  1.00  0.00    -0.458 OA
BRANCH  14  15
ATOM     15  C   UNL A   1      33.866  31.583  27.313  1.00  0.00     0.338 C 
ATOM     16  O   UNL A   1      32.979  30.798  27.028  1.00  0.00    -0.246 OA
BRANCH  15  17
ATOM     17  C   UNL A   1      35.159  31.168  27.876  1.00  0.00     0.060 A 
ATOM     18  C   UNL A   1      35.306  29.876  28.378  1.00  0.00     0.016 A 
ATOM     19  C   UNL A   1      36.190  32.097  28.001  1.00  0.00     0.016 A 
ATOM     20  C   UNL A   1      36.459  29.530  29.078  1.00  0.00     0.010 A 
ATOM     21  C   UNL A   1      37.379  31.720  28.631  1.00  0.00     0.010 A 
ATOM     22  C   UNL A   1      37.514  30.442  29.203  1.00  0.00    -0.014 A 
BRANCH  22  23
ATOM     23  C   UNL A   1      38.742  30.090  29.964  1.00  0.00     0.031 A 
ATOM     24  C   UNL A   1      39.761  29.172  29.350  1.00  0.00     0.074 A 
ATOM     25  C   UNL A   1      38.945  30.568  31.206  1.00  0.00     0.049 A 
ATOM     26  N   UNL A   1      40.737  28.514  29.923  1.00  0.00    -0.248 NA
ATOM     27  C   UNL A   1      39.656  28.953  27.900  1.00  0.00     0.031 C 
ATOM     28  C   UNL A   1      38.079  31.516  31.903  1.00  0.00     0.029 A 
ATOM     29  N   UNL A   1      39.947  30.305  32.109  1.00  0.00    -0.354 N 
ATOM     30  C   UNL A   1      41.306  27.741  28.921  1.00  0.00     0.074 A 
ATOM     31  C   UNL A   1      40.588  28.032  27.699  1.00  0.00     0.031 C 
ATOM     32  C   UNL A   1      38.590  31.769  33.116  1.00  0.00     0.029 A 
ATOM     33  C   UNL A   1      39.769  30.931  33.316  1.00  0.00     0.049 A 
ATOM     34  H   UNL A   1      40.717  29.725  31.908  1.00  0.00     0.167 HD
ATOM     35  C   UNL A   1      42.325  26.854  29.025  1.00  0.00     0.037 A 
ATOM     36  C   UNL A   1      40.439  30.802  34.477  1.00  0.00     0.037 A 
ATOM     37  C   UNL A   1      43.084  26.627  30.226  1.00  0.00     0.049 A 
ATOM     38  C   UNL A   1      41.573  29.825  34.571  1.00  0.00     0.074 A 
ATOM     39  C   UNL A   1      44.151  25.767  30.427  1.00  0.00     0.029 A 
ATOM     40  N   UNL A   1      42.868  27.285  31.428  1.00  0.00    -0.354 N 
ATOM     41  N   UNL A   1      42.047  29.023  33.649  1.00  0.00    -0.248 NA
ATOM     42  C   UNL A   1      42.248  29.713  35.871  1.00  0.00     0.031 C 
ATOM     43  C   UNL A   1      44.566  25.892  31.758  1.00  0.00     0.029 A 
ATOM     44  C   UNL A   1      43.778  26.848  32.377  1.00  0.00     0.049 A 
ATOM     45  H   UNL A   1      42.171  27.962  31.584  1.00  0.00     0.167 HD
ATOM     46  C   UNL A   1      43.067  28.305  34.256  1.00  0.00     0.074 A 
ATOM     47  C   UNL A   1      43.159  28.783  35.621  1.00  0.00     0.031 C 
ATOM     48  C   UNL A   1      43.848  27.330  33.732  1.00  0.00     0.037 A 
BRANCH  35  49
ATOM     49  C   UNL A   1      42.643  26.024  27.818  1.00  0.00     0.064 A 
ATOM     50  C   UNL A   1      43.655  26.376  26.915  1.00  0.00     0.173 A 
ATOM     51  C   UNL A   1      41.928  24.839  27.579  1.00  0.00     0.173 A 
ATOM     52  F   UNL A   1      44.354  27.506  27.091  1.00  0.00    -0.203 F 
ATOM     53  C   UNL A   1      43.926  25.582  25.802  1.00  0.00     0.198 A 
ATOM     54  C   UNL A   1      42.216  24.037  26.479  1.00  0.00     0.198 A 
ATOM     55  F   UNL A   1      40.952  24.459  28.417  1.00  0.00    -0.203 F 
ATOM     56  F   UNL A   1      44.869  25.957  24.928  1.00  0.00    -0.200 F 
ATOM     57  C   UNL A   1      43.210  24.412  25.589  1.00  0.00     0.200 A 
ATOM     58  F   UNL A   1      41.530  22.904  26.279  1.00  0.00    -0.200 F 
ATOM     59  F   UNL A   1      43.474  23.649  24.518  1.00  0.00    -0.200 F 
ENDBRANCH  35  49
BRANCH  36  60
ATOM     60  C   UNL A   1      39.994  31.586  35.656  1.00  0.00     0.064 A 
ATOM     61  C   UNL A   1      40.650  32.765  36.026  1.00  0.00     0.173 A 
ATOM     62  C   UNL A   1      38.865  31.201  36.396  1.00  0.00     0.173 A 
ATOM     63  F   UNL A   1      41.747  33.158  35.364  1.00  0.00    -0.203 F 
ATOM     64  C   UNL A   1      40.188  33.539  37.089  1.00  0.00     0.198 A 
ATOM     65  C   UNL A   1      38.390  31.987  37.442  1.00  0.00     0.198 A 
ATOM     66  F   UNL A   1      38.205  30.078  36.077  1.00  0.00    -0.203 F 
ATOM     67  F   UNL A   1      40.841  34.656  37.437  1.00  0.00    -0.200 F 
ATOM     68  C   UNL A   1      39.051  33.155  37.788  1.00  0.00     0.200 A 
ATOM     69  F   UNL A   1      37.285  31.619  38.104  1.00  0.00    -0.200 F 
ATOM     70  F   UNL A   1      38.595  33.911  38.795  1.00  0.00    -0.200 F 
ENDBRANCH  36  60
BRANCH  48  71
ATOM     71  C   UNL A   1      44.874  26.719  34.635  1.00  0.00     0.064 A 
ATOM     72  C   UNL A   1      44.588  25.567  35.381  1.00  0.00     0.173 A 
ATOM     73  C   UNL A   1      46.164  27.261  34.718  1.00  0.00     0.173 A 
ATOM     74  F   UNL A   1      43.363  25.024  35.343  1.00  0.00    -0.203 F 
ATOM     75  C   UNL A   1      45.560  24.985  36.191  1.00  0.00     0.198 A 
ATOM     76  C   UNL A   1      47.137  26.666  35.515  1.00  0.00     0.198 A 
ATOM     77  F   UNL A   1      46.481  28.361  34.019  1.00  0.00    -0.203 F 
ATOM     78  F   UNL A   1      45.262  23.899  36.917  1.00  0.00    -0.200 F 
ATOM     79  C   UNL A   1      46.834  25.530  36.252  1.00  0.00     0.200 A 
ATOM     80  F   UNL A   1      48.369  27.191  35.570  1.00  0.00    -0.200 F 
ATOM     81  F   UNL A   1      47.770  24.966  37.028  1.00  0.00    -0.200 F 
ENDBRANCH  48  71
ENDBRANCH  22  23
ENDBRANCH  15  17
ENDBRANCH  14  15
ENDBRANCH   1  14
TORSDOF 12
ENDMDL
MODEL 2
REMARK VINA RESULT:     -10.7      0.197      2.120
REMARK SMILES CC(C)(C(=O)OCCOC(=O)c1ccc(-c2c3nc(c(-c4c(F)c(F)c(F)c(F)c4F)c4ccc([nH]4)c(-c4c(F)c(F)c(F)c(F)c4F)c4nc(c(-c5c(F)c(F)c(F)c(F)c5F)c5ccc2[nH]5)C=C4)C=C3)cc1)n1cccc1
REMARK SMILES IDX 8 1 7 2 6 3 4 4 5 5 2 6 1 7 3 8 75 9 76 10 79 11 77 12 78 13
REMARK SMILES IDX 9 14 10 15 11 16 12 17 13 18 74 19 14 20 73 21 15 22 16 23
REMARK SMILES IDX 17 24 67 25 18 26 72 27 66 28 68 29 19 30 71 31 65 32 64 33
REMARK SMILES IDX 20 35 52 36 32 37 51 38 33 39 36 40 50 41 69 42 34 43 35 44
REMARK SMILES IDX 49 46 70 47 37 48 21 49 22 50 30 51 23 52 24 53 28 54 31 55
REMARK SMILES IDX 25 56 26 57 29 58 27 59 53 60 54 61 62 62 55 63 56 64 60 65
REMARK SMILES IDX 63 66 57 67 58 68 61 69 59 70 38 71 39 72 47 73 40 74 41 75
REMARK SMILES IDX 45 76 48 77 42 78 43 79 46 80 44 81
REMARK H PARENT 68 34 36 45
REMARK Flexibility Score: inf
ROOT
ATOM      1  C   UNL A   1      32.987  33.818  28.005  1.00  0.00     0.275 C 
ENDROOT
BRANCH   1   2
ATOM      2  C   UNL A   1      33.654  34.307  29.287  1.00  0.00     0.274 C 
BRANCH   2   3
ATOM      3  O   UNL A   1      32.689  34.955  30.141  1.00  0.00    -0.460 OA
BRANCH   3   4
ATOM      4  C   UNL A   1      32.986  36.216  30.568  1.00  0.00     0.331 C 
ATOM      5  O   UNL A   1      33.220  37.150  29.810  1.00  0.00    -0.249 OA
BRANCH   4   6
ATOM      6  C   UNL A   1      33.084  36.305  32.104  1.00  0.00     0.136 C 
ATOM      7  C   UNL A   1      33.528  37.708  32.576  1.00  0.00     0.047 C 
ATOM      8  C   UNL A   1      31.657  36.078  32.648  1.00  0.00     0.047 C 
BRANCH   6   9
ATOM      9  N   UNL A   1      34.010  35.259  32.606  1.00  0.00    -0.338 N 
ATOM     10  C   UNL A   1      33.653  34.056  33.177  1.00  0.00     0.087 A 
ATOM     11  C   UNL A   1      35.388  35.328  32.596  1.00  0.00     0.087 A 
ATOM     12  C   UNL A   1      34.798  33.347  33.469  1.00  0.00     0.019 A 
ATOM     13  C   UNL A   1      35.895  34.153  33.103  1.00  0.00     0.019 A 
ENDBRANCH   6   9
ENDBRANCH   4   6
ENDBRANCH   3   4
ENDBRANCH   2   3
ENDBRANCH   1   2
BRANCH   1  14
ATOM     14  O   UNL A   1      33.931  33.059  27.231  1.00  0.00    -0.458 OA
BRANCH  14  15
ATOM     15  C   UNL A   1      33.901  31.720  27.413  1.00  0.00     0.338 C 
ATOM     16  O   UNL A   1      32.990  30.949  27.168  1.00  0.00    -0.246 OA
BRANCH  15  17
ATOM     17  C   UNL A   1      35.189  31.290  27.975  1.00  0.00     0.060 A 
ATOM     18  C   UNL A   1      35.310  30.012  28.517  1.00  0.00     0.016 A 
ATOM     19  C   UNL A   1      36.244  32.197  28.059  1.00  0.00     0.016 A 
ATOM     20  C   UNL A   1      36.462  29.660  29.215  1.00  0.00     0.010 A 
ATOM     21  C   UNL A   1      37.431  31.811  28.688  1.00  0.00     0.010 A 
ATOM     22  C   UNL A   1      37.541  30.548  29.300  1.00  0.00    -0.014 A 
BRANCH  22  23
ATOM     23  C   UNL A   1      38.768  30.189  30.058  1.00  0.00     0.031 A 
ATOM     24  C   UNL A   1      39.774  29.254  29.449  1.00  0.00     0.074 A 
ATOM     25  C   UNL A   1      38.983  30.678  31.294  1.00  0.00     0.049 A 
ATOM     26  N   UNL A   1      40.745  28.590  30.023  1.00  0.00    -0.248 NA
ATOM     27  C   UNL A   1      39.659  29.022  28.001  1.00  0.00     0.031 C 
ATOM     28  C   UNL A   1      38.131  31.642  31.986  1.00  0.00     0.029 A 
ATOM     29  N   UNL A   1      39.986  30.412  32.195  1.00  0.00    -0.354 N 
ATOM     30  C   UNL A   1      41.301  27.801  29.027  1.00  0.00     0.074 A 
ATOM     31  C   UNL A   1      40.580  28.088  27.805  1.00  0.00     0.031 C 
ATOM     32  C   UNL A   1      38.651  31.901  33.194  1.00  0.00     0.029 A 
ATOM     33  C   UNL A   1      39.821  31.052  33.397  1.00  0.00     0.049 A 
ATOM     34  H   UNL A   1      40.749  29.821  31.997  1.00  0.00     0.167 HD
ATOM     35  C   UNL A   1      42.310  26.904  29.135  1.00  0.00     0.037 A 
ATOM     36  C   UNL A   1      40.495  30.927  34.556  1.00  0.00     0.037 A 
ATOM     37  C   UNL A   1      43.072  26.680  30.334  1.00  0.00     0.049 A 
ATOM     38  C   UNL A   1      41.618  29.937  34.654  1.00  0.00     0.074 A 
ATOM     39  C   UNL A   1      44.129  25.810  30.539  1.00  0.00     0.029 A 
ATOM     40  N   UNL A   1      42.869  27.352  31.531  1.00  0.00    -0.354 N 
ATOM     41  N   UNL A   1      42.078  29.121  33.738  1.00  0.00    -0.248 NA
ATOM     42  C   UNL A   1      42.298  29.830  35.952  1.00  0.00     0.031 C 
ATOM     43  C   UNL A   1      44.553  25.943  31.867  1.00  0.00     0.029 A 
ATOM     44  C   UNL A   1      43.778  26.914  32.479  1.00  0.00     0.049 A 
ATOM     45  H   UNL A   1      42.180  28.039  31.683  1.00  0.00     0.167 HD
ATOM     46  C   UNL A   1      43.093  28.397  34.348  1.00  0.00     0.074 A 
ATOM     47  C   UNL A   1      43.198  28.888  35.707  1.00  0.00     0.031 C 
ATOM     48  C   UNL A   1      43.861  27.408  33.829  1.00  0.00     0.037 A 
BRANCH  35  49
ATOM     49  C   UNL A   1      42.612  26.058  27.934  1.00  0.00     0.064 A 
ATOM     50  C   UNL A   1      41.942  24.855  27.680  1.00  0.00     0.173 A 
ATOM     51  C   UNL A   1      43.581  26.482  27.010  1.00  0.00     0.173 A 
ATOM     52  F   UNL A   1      41.020  24.400  28.541  1.00  0.00    -0.203 F 
ATOM     53  C   UNL A   1      42.246  24.092  26.554  1.00  0.00     0.198 A 
ATOM     54  C   UNL A   1      43.867  25.729  25.875  1.00  0.00     0.198 A 
ATOM     55  F   UNL A   1      44.248  27.629  27.208  1.00  0.00    -0.203 F 
ATOM     56  F   UNL A   1      41.624  22.924  26.349  1.00  0.00    -0.200 F 
ATOM     57  C   UNL A   1      43.204  24.533  25.651  1.00  0.00     0.200 A 
ATOM     58  F   UNL A   1      44.787  26.160  25.001  1.00  0.00    -0.200 F 
ATOM     59  F   UNL A   1      43.494  23.798  24.568  1.00  0.00    -0.200 F 
ENDBRANCH  35  49
BRANCH  36  60
ATOM     60  C   UNL A   1      40.064  31.727  35.729  1.00  0.00     0.064 A 
ATOM     61  C   UNL A   1      38.921  31.379  36.458  1.00  0.00     0.173 A 
ATOM     62  C   UNL A   1      40.824  32.819  36.178  1.00  0.00     0.173 A 
ATOM     63  F   UNL A   1      38.152  30.359  36.052  1.00  0.00    -0.203 F 
ATOM     64  C   UNL A   1      38.558  32.088  37.601  1.00  0.00     0.198 A 
ATOM     65  C   UNL A   1      40.473  33.510  37.334  1.00  0.00     0.198 A 
ATOM     66  F   UNL A   1      41.927  33.188  35.511  1.00  0.00    -0.203 F 
ATOM     67  F   UNL A   1      37.451  31.747  38.275  1.00  0.00    -0.200 F 
ATOM     68  C   UNL A   1      39.341  33.145  38.045  1.00  0.00     0.200 A 
ATOM     69  F   UNL A   1      41.240  34.521  37.765  1.00  0.00    -0.200 F 
ATOM     70  F   UNL A   1      39.003  33.811  39.157  1.00  0.00    -0.200 F 
ENDBRANCH  36  60
BRANCH  48  71
ATOM     71  C   UNL A   1      44.883  26.794  34.734  1.00  0.00     0.064 A 
ATOM     72  C   UNL A   1      46.167  27.343  34.855  1.00  0.00     0.173 A 
ATOM     73  C   UNL A   1      44.561  25.679  35.520  1.00  0.00     0.173 A 
ATOM     74  F   UNL A   1      46.522  28.401  34.111  1.00  0.00    -0.203 F 
ATOM     75  C   UNL A   1      47.100  26.787  35.726  1.00  0.00     0.198 A 
ATOM     76  C   UNL A   1      45.491  25.136  36.401  1.00  0.00     0.198 A 
ATOM     77  F   UNL A   1      43.343  25.123  35.436  1.00  0.00    -0.203 F 
ATOM     78  F   UNL A   1      48.331  27.309  35.809  1.00  0.00    -0.200 F 
ATOM     79  C   UNL A   1      46.759  25.689  36.502  1.00  0.00     0.200 A 
ATOM     80  F   UNL A   1      45.160  24.078  37.155  1.00  0.00    -0.200 F 
ATOM     81  F   UNL A   1      47.657  25.158  37.344  1.00  0.00    -0.200 F 
ENDBRANCH  48  71
ENDBRANCH  22  23
ENDBRANCH  15  17
ENDBRANCH  14  15
ENDBRANCH   1  14
TORSDOF 12
ENDMDL
MODEL 3
REMARK VINA RESULT:     -10.6      5.732     10.032
REMARK SMILES CC(C)(C(=O)OCCOC(=O)c1ccc(-c2c3nc(c(-c4c(F)c(F)c(F)c(F)c4F)c4ccc([nH]4)c(-c4c(F)c(F)c(F)c(F)c4F)c4nc(c(-c5c(F)c(F)c(F)c(F)c5F)c5ccc2[nH]5)C=C4)C=C3)cc1)n1cccc1
REMARK SMILES IDX 8 1 7 2 6 3 4 4 5 5 2 6 1 7 3 8 75 9 76 10 79 11 77 12 78 13
REMARK SMILES IDX 9 14 10 15 11 16 12 17 13 18 74 19 14 20 73 21 15 22 16 23
REMARK SMILES IDX 17 24 67 25 18 26 72 27 66 28 68 29 19 30 71 31 65 32 64 33
REMARK SMILES IDX 20 35 52 36 32 37 51 38 33 39 36 40 50 41 69 42 34 43 35 44
REMARK SMILES IDX 49 46 70 47 37 48 21 49 22 50 30 51 23 52 24 53 28 54 31 55
REMARK SMILES IDX 25 56 26 57 29 58 27 59 53 60 54 61 62 62 55 63 56 64 60 65
REMARK SMILES IDX 63 66 57 67 58 68 61 69 59 70 38 71 39 72 47 73 40 74 41 75
REMARK SMILES IDX 45 76 48 77 42 78 43 79 46 80 44 81
REMARK H PARENT 68 34 36 45
REMARK Flexibility Score: inf
ROOT
ATOM      1  C   UNL A   1      41.169  19.776  26.121  1.00  0.00     0.275 C 
ENDROOT
BRANCH   1   2
ATOM      2  C   UNL A   1      42.628  20.019  26.493  1.00  0.00     0.274 C 
BRANCH   2   3
ATOM      3  O   UNL A   1      43.384  20.419  25.331  1.00  0.00    -0.460 OA
BRANCH   3   4
ATOM      4  C   UNL A   1      43.593  21.756  25.156  1.00  0.00     0.331 C 
ATOM      5  O   UNL A   1      42.691  22.561  24.951  1.00  0.00    -0.249 OA
BRANCH   4   6
ATOM      6  C   UNL A   1      45.090  22.118  25.152  1.00  0.00     0.136 C 
ATOM      7  C   UNL A   1      45.990  20.866  25.050  1.00  0.00     0.047 C 
ATOM      8  C   UNL A   1      45.337  22.953  23.876  1.00  0.00     0.047 C 
BRANCH   6   9
ATOM      9  N   UNL A   1      45.416  22.907  26.367  1.00  0.00    -0.338 N 
ATOM     10  C   UNL A   1      46.522  23.710  26.548  1.00  0.00     0.087 A 
ATOM     11  C   UNL A   1      44.666  22.956  27.523  1.00  0.00     0.087 A 
ATOM     12  C   UNL A   1      46.438  24.306  27.788  1.00  0.00     0.019 A 
ATOM     13  C   UNL A   1      45.264  23.827  28.405  1.00  0.00     0.019 A 
ENDBRANCH   6   9
ENDBRANCH   4   6
ENDBRANCH   3   4
ENDBRANCH   2   3
ENDBRANCH   1   2
BRANCH   1  14
ATOM     14  O   UNL A   1      40.315  20.468  27.047  1.00  0.00    -0.458 OA
BRANCH  14  15
ATOM     15  C   UNL A   1      39.430  21.332  26.501  1.00  0.00     0.338 C 
ATOM     16  O   UNL A   1      38.444  21.074  25.832  1.00  0.00    -0.246 OA
BRANCH  15  17
ATOM     17  C   UNL A   1      39.835  22.703  26.841  1.00  0.00     0.060 A 
ATOM     18  C   UNL A   1      39.294  23.775  26.134  1.00  0.00     0.016 A 
ATOM     19  C   UNL A   1      40.833  22.914  27.791  1.00  0.00     0.016 A 
ATOM     20  C   UNL A   1      39.804  25.057  26.319  1.00  0.00     0.010 A 
ATOM     21  C   UNL A   1      41.284  24.214  28.034  1.00  0.00     0.010 A 
ATOM     22  C   UNL A   1      40.796  25.296  27.278  1.00  0.00    -0.014 A 
BRANCH  22  23
ATOM     23  C   UNL A   1      41.360  26.657  27.471  1.00  0.00     0.031 A 
ATOM     24  C   UNL A   1      42.731  26.978  26.947  1.00  0.00     0.074 A 
ATOM     25  C   UNL A   1      40.665  27.606  28.128  1.00  0.00     0.049 A 
ATOM     26  N   UNL A   1      43.521  27.978  27.244  1.00  0.00    -0.248 NA
ATOM     27  C   UNL A   1      43.294  26.034  25.970  1.00  0.00     0.031 C 
ATOM     28  C   UNL A   1      39.302  27.462  28.635  1.00  0.00     0.029 A 
ATOM     29  N   UNL A   1      41.024  28.881  28.492  1.00  0.00    -0.354 N 
ATOM     30  C   UNL A   1      44.703  27.739  26.557  1.00  0.00     0.074 A 
ATOM     31  C   UNL A   1      44.518  26.517  25.805  1.00  0.00     0.031 C 
ATOM     32  C   UNL A   1      38.931  28.604  29.230  1.00  0.00     0.029 A 
ATOM     33  C   UNL A   1      40.062  29.527  29.228  1.00  0.00     0.049 A 
ATOM     34  H   UNL A   1      41.885  29.291  28.250  1.00  0.00     0.167 HD
ATOM     35  C   UNL A   1      45.843  28.470  26.575  1.00  0.00     0.037 A 
ATOM     36  C   UNL A   1      40.103  30.703  29.883  1.00  0.00     0.037 A 
ATOM     37  C   UNL A   1      45.993  29.724  27.264  1.00  0.00     0.049 A 
ATOM     38  C   UNL A   1      41.370  31.506  29.881  1.00  0.00     0.074 A 
ATOM     39  C   UNL A   1      47.100  30.554  27.323  1.00  0.00     0.029 A 
ATOM     40  N   UNL A   1      44.990  30.342  27.998  1.00  0.00    -0.354 N 
ATOM     41  N   UNL A   1      42.518  31.231  29.311  1.00  0.00    -0.248 NA
ATOM     42  C   UNL A   1      41.359  32.767  30.633  1.00  0.00     0.031 C 
ATOM     43  C   UNL A   1      46.772  31.664  28.110  1.00  0.00     0.029 A 
ATOM     44  C   UNL A   1      45.454  31.540  28.517  1.00  0.00     0.049 A 
ATOM     45  H   UNL A   1      44.084  29.982  28.130  1.00  0.00     0.167 HD
ATOM     46  C   UNL A   1      43.368  32.276  29.642  1.00  0.00     0.074 A 
ATOM     47  C   UNL A   1      42.596  33.205  30.443  1.00  0.00     0.031 C 
ATOM     48  C   UNL A   1      44.673  32.445  29.319  1.00  0.00     0.037 A 
BRANCH  35  49
ATOM     49  C   UNL A   1      47.037  27.903  25.867  1.00  0.00     0.064 A 
ATOM     50  C   UNL A   1      47.193  27.990  24.478  1.00  0.00     0.173 A 
ATOM     51  C   UNL A   1      48.054  27.280  26.608  1.00  0.00     0.173 A 
ATOM     52  F   UNL A   1      46.241  28.561  23.726  1.00  0.00    -0.203 F 
ATOM     53  C   UNL A   1      48.315  27.452  23.851  1.00  0.00     0.198 A 
ATOM     54  C   UNL A   1      49.185  26.764  25.981  1.00  0.00     0.198 A 
ATOM     55  F   UNL A   1      47.952  27.175  27.941  1.00  0.00    -0.203 F 
ATOM     56  F   UNL A   1      48.426  27.508  22.517  1.00  0.00    -0.200 F 
ATOM     57  C   UNL A   1      49.311  26.845  24.603  1.00  0.00     0.200 A 
ATOM     58  F   UNL A   1      50.148  26.186  26.710  1.00  0.00    -0.200 F 
ATOM     59  F   UNL A   1      50.391  26.330  23.997  1.00  0.00    -0.200 F 
ENDBRANCH  35  49
BRANCH  36  60
ATOM     60  C   UNL A   1      38.909  31.144  30.646  1.00  0.00     0.064 A 
ATOM     61  C   UNL A   1      37.889  31.876  30.028  1.00  0.00     0.173 A 
ATOM     62  C   UNL A   1      38.739  30.787  31.992  1.00  0.00     0.173 A 
ATOM     63  F   UNL A   1      38.020  32.260  28.750  1.00  0.00    -0.203 F 
ATOM     64  C   UNL A   1      36.736  32.227  30.726  1.00  0.00     0.198 A 
ATOM     65  C   UNL A   1      37.577  31.117  32.681  1.00  0.00     0.198 A 
ATOM     66  F   UNL A   1      39.691  30.085  32.625  1.00  0.00    -0.203 F 
ATOM     67  F   UNL A   1      35.778  32.942  30.118  1.00  0.00    -0.200 F 
ATOM     68  C   UNL A   1      36.575  31.837  32.048  1.00  0.00     0.200 A 
ATOM     69  F   UNL A   1      37.421  30.726  33.954  1.00  0.00    -0.200 F 
ATOM     70  F   UNL A   1      35.456  32.156  32.711  1.00  0.00    -0.200 F 
ENDBRANCH  36  60
BRANCH  48  71
ATOM     71  C   UNL A   1      45.347  33.681  29.829  1.00  0.00     0.064 A 
ATOM     72  C   UNL A   1      46.028  33.682  31.054  1.00  0.00     0.173 A 
ATOM     73  C   UNL A   1      45.352  34.857  29.065  1.00  0.00     0.173 A 
ATOM     74  F   UNL A   1      46.036  32.584  31.824  1.00  0.00    -0.203 F 
ATOM     75  C   UNL A   1      46.682  34.826  31.503  1.00  0.00     0.198 A 
ATOM     76  C   UNL A   1      46.021  35.992  29.510  1.00  0.00     0.198 A 
ATOM     77  F   UNL A   1      44.714  34.898  27.886  1.00  0.00    -0.203 F 
ATOM     78  F   UNL A   1      47.306  34.817  32.689  1.00  0.00    -0.200 F 
ATOM     79  C   UNL A   1      46.684  35.977  30.729  1.00  0.00     0.200 A 
ATOM     80  F   UNL A   1      46.027  37.103  28.760  1.00  0.00    -0.200 F 
ATOM     81  F   UNL A   1      47.319  37.075  31.160  1.00  0.00    -0.200 F 
ENDBRANCH  48  71
ENDBRANCH  22  23
ENDBRANCH  15  17
ENDBRANCH  14  15
ENDBRANCH   1  14
TORSDOF 12
ENDMDL
