MODEL 1
REMARK VINA RESULT:     -12.3      0.000      0.000
REMARK SMILES Cn1c(=O)c2c(nc(Nc3cccc(Cl)c3Cl)n2CC(=O)OCCOC(=O)c2ccc(-c3c4nc(c(-c5c(F)c(F)c(F)c(F)c5F)c5ccc([nH]5)c(-c5c(F)c(F)c(F)c(F)c5F)c5nc(c(-c6c(F)c(F)c(F)c(F)c6F)c6ccc3[nH]6)C=C5)C=C4)cc2)n(C)c1=O
REMARK SMILES IDX 23 1 22 2 20 3 21 4 19 5 18 6 1 7 2 8 3 9 93 10 4 11 5 12
REMARK SMILES IDX 91 13 94 14 6 15 92 16 7 17 8 18 9 19 10 21 11 22 16 23
REMARK SMILES IDX 12 24 14 25 17 26 13 27 15 28 24 29 25 30 26 31 27 32 28 33
REMARK SMILES IDX 29 34 90 35 30 36 89 37 31 38 32 39 33 40 83 41 34 42 88 43
REMARK SMILES IDX 82 44 84 45 35 46 87 47 81 48 80 49 36 51 68 52 48 53 67 54
REMARK SMILES IDX 49 55 52 56 66 57 85 58 50 59 51 60 65 62 86 63 53 64 37 65
REMARK SMILES IDX 38 66 46 67 39 68 40 69 44 70 47 71 41 72 42 73 45 74 43 75
REMARK SMILES IDX 69 76 70 77 78 78 71 79 72 80 76 81 79 82 73 83 74 84 77 85
REMARK SMILES IDX 75 86 54 87 55 88 63 89 56 90 57 91 61 92 64 93 58 94 59 95
REMARK SMILES IDX 62 96 60 97
REMARK H PARENT 9 20 84 50 52 61
REMARK Flexibility Score: inf
ROOT
ATOM      1  C   UNL A   1      39.543  33.627  33.837  1.00  0.00     0.274 C 
ENDROOT
BRANCH   1   2
ATOM      2  O   UNL A   1      38.363  33.120  33.162  1.00  0.00    -0.461 OA
BRANCH   2   3
ATOM      3  C   UNL A   1      37.186  33.659  33.569  1.00  0.00     0.326 C 
ATOM      4  O   UNL A   1      37.107  34.750  34.137  1.00  0.00    -0.250 OA
BRANCH   3   5
ATOM      5  C   UNL A   1      35.936  32.880  33.251  1.00  0.00     0.248 C 
BRANCH   5   6
ATOM      6  N   UNL A   1      35.382  32.895  31.906  1.00  0.00    -0.293 N 
ATOM      7  C   UNL A   1      33.278  37.316  31.535  1.00  0.00     0.159 C 
ATOM      8  N   UNL A   1      33.541  35.973  31.059  1.00  0.00    -0.261 N 
ATOM      9  C   UNL A   1      33.929  35.024  32.001  1.00  0.00     0.282 A 
ATOM     10  C   UNL A   1      33.212  35.651  29.738  1.00  0.00     0.332 A 
ATOM     11  O   UNL A   1      33.660  35.100  33.198  1.00  0.00    -0.267 OA
ATOM     12  C   UNL A   1      34.545  33.883  31.419  1.00  0.00     0.154 A 
ATOM     13  N   UNL A   1      33.552  34.368  29.301  1.00  0.00    -0.279 N 
ATOM     14  O   UNL A   1      32.618  36.450  29.008  1.00  0.00    -0.247 OA
ATOM     15  C   UNL A   1      34.301  33.557  30.124  1.00  0.00     0.170 A 
ATOM     16  C   UNL A   1      33.118  33.903  28.000  1.00  0.00     0.157 C 
ATOM     17  N   UNL A   1      34.797  32.336  29.825  1.00  0.00    -0.194 NA
ATOM     18  C   UNL A   1      35.388  31.907  30.928  1.00  0.00     0.210 A 
BRANCH  18  19
ATOM     19  N   UNL A   1      35.906  30.661  30.973  1.00  0.00    -0.324 N 
ATOM     20  H   UNL A   1      35.570  30.133  31.733  1.00  0.00     0.170 HD
BRANCH  19  21
ATOM     21  C   UNL A   1      36.818  29.954  30.177  1.00  0.00     0.061 A 
ATOM     22  C   UNL A   1      36.701  30.146  28.788  1.00  0.00     0.028 A 
ATOM     23  C   UNL A   1      37.740  28.995  30.645  1.00  0.00     0.083 A 
ATOM     24  C   UNL A   1      37.542  29.492  27.891  1.00  0.00     0.004 A 
ATOM     25  C   UNL A   1      38.632  28.389  29.744  1.00  0.00     0.061 A 
ATOM     26  Cl  UNL A   1      37.739  28.536  32.325  1.00  0.00    -0.080 Cl
ATOM     27  C   UNL A   1      38.532  28.642  28.372  1.00  0.00     0.022 A 
ATOM     28  Cl  UNL A   1      39.898  27.328  30.259  1.00  0.00    -0.083 Cl
ENDBRANCH  19  21
ENDBRANCH  18  19
ENDBRANCH   5   6
ENDBRANCH   3   5
ENDBRANCH   2   3
ENDBRANCH   1   2
BRANCH   1  29
ATOM     29  C   UNL A   1      40.412  34.503  32.928  1.00  0.00     0.275 C 
BRANCH  29  30
ATOM     30  O   UNL A   1      40.349  34.137  31.542  1.00  0.00    -0.458 OA
BRANCH  30  31
ATOM     31  C   UNL A   1      41.570  34.117  30.964  1.00  0.00     0.338 C 
ATOM     32  O   UNL A   1      42.375  35.027  30.948  1.00  0.00    -0.246 OA
BRANCH  31  33
ATOM     33  C   UNL A   1      41.748  32.966  30.078  1.00  0.00     0.060 A 
ATOM     34  C   UNL A   1      40.838  31.927  30.249  1.00  0.00     0.016 A 
ATOM     35  C   UNL A   1      43.022  32.746  29.552  1.00  0.00     0.016 A 
ATOM     36  C   UNL A   1      41.300  30.633  30.165  1.00  0.00     0.010 A 
ATOM     37  C   UNL A   1      43.461  31.445  29.394  1.00  0.00     0.010 A 
ATOM     38  C   UNL A   1      42.636  30.400  29.805  1.00  0.00    -0.014 A 
BRANCH  38  39
ATOM     39  C   UNL A   1      43.060  29.009  29.703  1.00  0.00     0.031 A 
ATOM     40  C   UNL A   1      43.618  28.512  30.987  1.00  0.00     0.074 A 
ATOM     41  C   UNL A   1      42.884  28.229  28.617  1.00  0.00     0.049 A 
ATOM     42  N   UNL A   1      44.812  28.075  31.218  1.00  0.00    -0.248 NA
ATOM     43  C   UNL A   1      42.809  28.727  32.200  1.00  0.00     0.031 C 
ATOM     44  C   UNL A   1      42.152  28.533  27.386  1.00  0.00     0.029 A 
ATOM     45  N   UNL A   1      43.258  26.931  28.427  1.00  0.00    -0.354 N 
ATOM     46  C   UNL A   1      44.848  27.796  32.581  1.00  0.00     0.074 A 
ATOM     47  C   UNL A   1      43.670  28.382  33.155  1.00  0.00     0.031 C 
ATOM     48  C   UNL A   1      41.923  27.386  26.705  1.00  0.00     0.029 A 
ATOM     49  C   UNL A   1      42.609  26.295  27.373  1.00  0.00     0.049 A 
ATOM     50  H   UNL A   1      43.931  26.482  28.988  1.00  0.00     0.167 HD
ATOM     51  C   UNL A   1      45.710  26.866  33.072  1.00  0.00     0.037 A 
ATOM     52  C   UNL A   1      42.593  24.959  27.127  1.00  0.00     0.037 A 
ATOM     53  C   UNL A   1      46.833  26.695  32.185  1.00  0.00     0.049 A 
ATOM     54  C   UNL A   1      43.747  24.368  27.847  1.00  0.00     0.074 A 
ATOM     55  C   UNL A   1      47.852  27.508  31.730  1.00  0.00     0.029 A 
ATOM     56  N   UNL A   1      46.807  25.618  31.336  1.00  0.00    -0.354 N 
ATOM     57  N   UNL A   1      44.991  24.581  27.529  1.00  0.00    -0.248 NA
ATOM     58  C   UNL A   1      43.519  23.875  29.197  1.00  0.00     0.031 C 
ATOM     59  C   UNL A   1      48.085  27.101  30.383  1.00  0.00     0.029 A 
ATOM     60  C   UNL A   1      47.238  26.028  30.105  1.00  0.00     0.049 A 
ATOM     61  H   UNL A   1      46.525  24.705  31.574  1.00  0.00     0.167 HD
ATOM     62  C   UNL A   1      45.648  24.679  28.744  1.00  0.00     0.074 A 
ATOM     63  C   UNL A   1      44.716  24.136  29.727  1.00  0.00     0.031 C 
ATOM     64  C   UNL A   1      46.764  25.456  28.868  1.00  0.00     0.037 A 
BRANCH  51  65
ATOM     65  C   UNL A   1      45.289  25.808  34.073  1.00  0.00     0.064 A 
ATOM     66  C   UNL A   1      46.071  25.632  35.233  1.00  0.00     0.173 A 
ATOM     67  C   UNL A   1      44.376  24.762  33.801  1.00  0.00     0.173 A 
ATOM     68  F   UNL A   1      46.973  26.556  35.597  1.00  0.00    -0.203 F 
ATOM     69  C   UNL A   1      46.027  24.455  35.984  1.00  0.00     0.198 A 
ATOM     70  C   UNL A   1      44.302  23.610  34.581  1.00  0.00     0.198 A 
ATOM     71  F   UNL A   1      43.591  24.744  32.721  1.00  0.00    -0.203 F 
ATOM     72  F   UNL A   1      46.894  24.276  36.989  1.00  0.00    -0.200 F 
ATOM     73  C   UNL A   1      45.153  23.439  35.649  1.00  0.00     0.200 A 
ATOM     74  F   UNL A   1      43.457  22.632  34.227  1.00  0.00    -0.200 F 
ATOM     75  F   UNL A   1      45.161  22.280  36.320  1.00  0.00    -0.200 F 
ENDBRANCH  51  65
BRANCH  52  76
ATOM     76  C   UNL A   1      41.478  24.109  26.628  1.00  0.00     0.064 A 
ATOM     77  C   UNL A   1      41.716  22.786  26.212  1.00  0.00     0.173 A 
ATOM     78  C   UNL A   1      40.132  24.458  26.846  1.00  0.00     0.173 A 
ATOM     79  F   UNL A   1      42.972  22.353  26.020  1.00  0.00    -0.203 F 
ATOM     80  C   UNL A   1      40.678  21.859  26.070  1.00  0.00     0.198 A 
ATOM     81  C   UNL A   1      39.095  23.534  26.696  1.00  0.00     0.198 A 
ATOM     82  F   UNL A   1      39.801  25.672  27.307  1.00  0.00    -0.203 F 
ATOM     83  F   UNL A   1      40.954  20.586  25.749  1.00  0.00    -0.200 F 
ATOM     84  C   UNL A   1      39.369  22.229  26.327  1.00  0.00     0.200 A 
ATOM     85  F   UNL A   1      37.837  23.896  26.983  1.00  0.00    -0.200 F 
ATOM     86  F   UNL A   1      38.382  21.325  26.263  1.00  0.00    -0.200 F 
ENDBRANCH  52  76
BRANCH  64  87
ATOM     87  C   UNL A   1      47.426  25.934  27.607  1.00  0.00     0.064 A 
ATOM     88  C   UNL A   1      46.966  27.011  26.827  1.00  0.00     0.173 A 
ATOM     89  C   UNL A   1      48.660  25.368  27.261  1.00  0.00     0.173 A 
ATOM     90  F   UNL A   1      45.839  27.662  27.145  1.00  0.00    -0.203 F 
ATOM     91  C   UNL A   1      47.698  27.475  25.735  1.00  0.00     0.198 A 
ATOM     92  C   UNL A   1      49.407  25.858  26.195  1.00  0.00     0.198 A 
ATOM     93  F   UNL A   1      49.167  24.366  27.995  1.00  0.00    -0.203 F 
ATOM     94  F   UNL A   1      47.235  28.495  24.998  1.00  0.00    -0.200 F 
ATOM     95  C   UNL A   1      48.924  26.906  25.428  1.00  0.00     0.200 A 
ATOM     96  F   UNL A   1      50.612  25.334  25.931  1.00  0.00    -0.200 F 
ATOM     97  F   UNL A   1      49.651  27.381  24.407  1.00  0.00    -0.200 F 
ENDBRANCH  64  87
ENDBRANCH  38  39
ENDBRANCH  31  33
ENDBRANCH  30  31
ENDBRANCH  29  30
ENDBRANCH   1  29
TORSDOF 14
ENDMDL
MODEL 2
REMARK VINA RESULT:     -12.3      5.509      7.738
REMARK SMILES Cn1c(=O)c2c(nc(Nc3cccc(Cl)c3Cl)n2CC(=O)OCCOC(=O)c2ccc(-c3c4nc(c(-c5c(F)c(F)c(F)c(F)c5F)c5ccc([nH]5)c(-c5c(F)c(F)c(F)c(F)c5F)c5nc(c(-c6c(F)c(F)c(F)c(F)c6F)c6ccc3[nH]6)C=C5)C=C4)cc2)n(C)c1=O
REMARK SMILES IDX 23 1 22 2 20 3 21 4 19 5 18 6 1 7 2 8 3 9 93 10 4 11 5 12
REMARK SMILES IDX 91 13 94 14 6 15 92 16 7 17 8 18 9 19 10 21 11 22 16 23
REMARK SMILES IDX 12 24 14 25 17 26 13 27 15 28 24 29 25 30 26 31 27 32 28 33
REMARK SMILES IDX 29 34 90 35 30 36 89 37 31 38 32 39 33 40 83 41 34 42 88 43
REMARK SMILES IDX 82 44 84 45 35 46 87 47 81 48 80 49 36 51 68 52 48 53 67 54
REMARK SMILES IDX 49 55 52 56 66 57 85 58 50 59 51 60 65 62 86 63 53 64 37 65
REMARK SMILES IDX 38 66 46 67 39 68 40 69 44 70 47 71 41 72 42 73 45 74 43 75
REMARK SMILES IDX 69 76 70 77 78 78 71 79 72 80 76 81 79 82 73 83 74 84 77 85
REMARK SMILES IDX 75 86 54 87 55 88 63 89 56 90 57 91 61 92 64 93 58 94 59 95
REMARK SMILES IDX 62 96 60 97
REMARK H PARENT 9 20 84 50 52 61
REMARK Flexibility Score: inf
ROOT
ATOM      1  C   UNL A   1      32.341  29.700  26.681  1.00  0.00     0.274 C 
ENDROOT
BRANCH   1   2
ATOM      2  O   UNL A   1      32.552  28.456  27.397  1.00  0.00    -0.461 OA
BRANCH   2   3
ATOM      3  C   UNL A   1      32.145  27.337  26.747  1.00  0.00     0.326 C 
ATOM      4  O   UNL A   1      31.025  26.844  26.891  1.00  0.00    -0.250 OA
BRANCH   3   5
ATOM      5  C   UNL A   1      33.120  26.723  25.774  1.00  0.00     0.248 C 
BRANCH   5   6
ATOM      6  N   UNL A   1      32.685  25.684  24.854  1.00  0.00    -0.293 N 
ATOM      7  C   UNL A   1      34.958  21.641  26.464  1.00  0.00     0.159 C 
ATOM      8  N   UNL A   1      34.176  22.374  25.490  1.00  0.00    -0.261 N 
ATOM      9  C   UNL A   1      34.280  23.763  25.499  1.00  0.00     0.282 A 
ATOM     10  C   UNL A   1      33.517  21.662  24.482  1.00  0.00     0.332 A 
ATOM     11  O   UNL A   1      35.254  24.372  25.938  1.00  0.00    -0.267 OA
ATOM     12  C   UNL A   1      33.211  24.405  24.817  1.00  0.00     0.154 A 
ATOM     13  N   UNL A   1      32.714  22.404  23.611  1.00  0.00    -0.279 N 
ATOM     14  O   UNL A   1      33.668  20.444  24.348  1.00  0.00    -0.247 OA
ATOM     15  C   UNL A   1      32.504  23.740  23.868  1.00  0.00     0.170 A 
ATOM     16  C   UNL A   1      32.117  21.770  22.454  1.00  0.00     0.157 C 
ATOM     17  N   UNL A   1      31.686  24.577  23.192  1.00  0.00    -0.194 NA
ATOM     18  C   UNL A   1      31.852  25.768  23.743  1.00  0.00     0.210 A 
BRANCH  18  19
ATOM     19  N   UNL A   1      31.230  26.845  23.219  1.00  0.00    -0.324 N 
ATOM     20  H   UNL A   1      31.826  27.402  22.670  1.00  0.00     0.170 HD
BRANCH  19  21
ATOM     21  C   UNL A   1      29.922  27.345  23.287  1.00  0.00     0.061 A 
ATOM     22  C   UNL A   1      28.958  26.475  23.829  1.00  0.00     0.028 A 
ATOM     23  C   UNL A   1      29.489  28.576  22.752  1.00  0.00     0.083 A 
ATOM     24  C   UNL A   1      27.621  26.851  23.940  1.00  0.00     0.004 A 
ATOM     25  C   UNL A   1      28.154  28.979  22.928  1.00  0.00     0.061 A 
ATOM     26  Cl  UNL A   1      30.595  29.566  21.843  1.00  0.00    -0.080 Cl
ATOM     27  C   UNL A   1      27.227  28.118  23.523  1.00  0.00     0.022 A 
ATOM     28  Cl  UNL A   1      27.583  30.541  22.448  1.00  0.00    -0.083 Cl
ENDBRANCH  19  21
ENDBRANCH  18  19
ENDBRANCH   5   6
ENDBRANCH   3   5
ENDBRANCH   2   3
ENDBRANCH   1   2
BRANCH   1  29
ATOM     29  C   UNL A   1      33.169  30.856  27.251  1.00  0.00     0.275 C 
BRANCH  29  30
ATOM     30  O   UNL A   1      34.586  30.640  27.184  1.00  0.00    -0.458 OA
BRANCH  30  31
ATOM     31  C   UNL A   1      35.278  31.567  27.883  1.00  0.00     0.338 C 
ATOM     32  O   UNL A   1      35.317  32.760  27.656  1.00  0.00    -0.246 OA
BRANCH  31  33
ATOM     33  C   UNL A   1      36.241  30.964  28.803  1.00  0.00     0.060 A 
ATOM     34  C   UNL A   1      37.374  31.725  29.075  1.00  0.00     0.016 A 
ATOM     35  C   UNL A   1      36.250  29.572  28.911  1.00  0.00     0.016 A 
ATOM     36  C   UNL A   1      38.588  31.080  29.171  1.00  0.00     0.010 A 
ATOM     37  C   UNL A   1      37.459  28.925  29.084  1.00  0.00     0.010 A 
ATOM     38  C   UNL A   1      38.631  29.680  29.103  1.00  0.00    -0.014 A 
BRANCH  38  39
ATOM     39  C   UNL A   1      39.939  29.052  29.242  1.00  0.00     0.031 A 
ATOM     40  C   UNL A   1      40.340  28.933  30.668  1.00  0.00     0.074 A 
ATOM     41  C   UNL A   1      40.663  28.548  28.221  1.00  0.00     0.049 A 
ATOM     42  N   UNL A   1      41.364  29.461  31.251  1.00  0.00    -0.248 NA
ATOM     43  C   UNL A   1      39.364  28.326  31.592  1.00  0.00     0.031 C 
ATOM     44  C   UNL A   1      40.278  28.403  26.817  1.00  0.00     0.029 A 
ATOM     45  N   UNL A   1      41.893  27.960  28.255  1.00  0.00    -0.354 N 
ATOM     46  C   UNL A   1      41.253  29.104  32.592  1.00  0.00     0.074 A 
ATOM     47  C   UNL A   1      39.930  28.576  32.771  1.00  0.00     0.031 C 
ATOM     48  C   UNL A   1      41.134  27.554  26.202  1.00  0.00     0.029 A 
ATOM     49  C   UNL A   1      42.201  27.209  27.124  1.00  0.00     0.049 A 
ATOM     50  H   UNL A   1      42.512  28.059  29.015  1.00  0.00     0.167 HD
ATOM     51  C   UNL A   1      42.359  29.022  33.378  1.00  0.00     0.037 A 
ATOM     52  C   UNL A   1      43.224  26.323  27.001  1.00  0.00     0.037 A 
ATOM     53  C   UNL A   1      43.422  29.837  32.847  1.00  0.00     0.049 A 
ATOM     54  C   UNL A   1      44.213  26.648  28.056  1.00  0.00     0.074 A 
ATOM     55  C   UNL A   1      43.596  31.188  32.618  1.00  0.00     0.029 A 
ATOM     56  N   UNL A   1      44.399  29.205  32.121  1.00  0.00    -0.354 N 
ATOM     57  N   UNL A   1      44.934  27.733  28.070  1.00  0.00    -0.248 NA
ATOM     58  C   UNL A   1      44.092  25.958  29.331  1.00  0.00     0.031 C 
ATOM     59  C   UNL A   1      44.375  31.269  31.425  1.00  0.00     0.029 A 
ATOM     60  C   UNL A   1      44.682  29.968  31.022  1.00  0.00     0.049 A 
ATOM     61  H   UNL A   1      44.823  28.348  32.352  1.00  0.00     0.167 HD
ATOM     62  C   UNL A   1      44.982  28.100  29.405  1.00  0.00     0.074 A 
ATOM     63  C   UNL A   1      44.537  26.921  30.142  1.00  0.00     0.031 C 
ATOM     64  C   UNL A   1      45.101  29.413  29.758  1.00  0.00     0.037 A 
BRANCH  51  65
ATOM     65  C   UNL A   1      42.611  27.857  34.316  1.00  0.00     0.064 A 
ATOM     66  C   UNL A   1      43.077  26.644  33.769  1.00  0.00     0.173 A 
ATOM     67  C   UNL A   1      42.118  27.768  35.639  1.00  0.00     0.173 A 
ATOM     68  F   UNL A   1      43.570  26.600  32.522  1.00  0.00    -0.203 F 
ATOM     69  C   UNL A   1      42.946  25.428  34.445  1.00  0.00     0.198 A 
ATOM     70  C   UNL A   1      42.033  26.560  36.328  1.00  0.00     0.198 A 
ATOM     71  F   UNL A   1      41.597  28.810  36.293  1.00  0.00    -0.203 F 
ATOM     72  F   UNL A   1      43.267  24.286  33.824  1.00  0.00    -0.200 F 
ATOM     73  C   UNL A   1      42.410  25.386  35.718  1.00  0.00     0.200 A 
ATOM     74  F   UNL A   1      41.496  26.543  37.555  1.00  0.00    -0.200 F 
ATOM     75  F   UNL A   1      42.213  24.216  36.339  1.00  0.00    -0.200 F 
ENDBRANCH  51  65
BRANCH  52  76
ATOM     76  C   UNL A   1      43.252  25.014  26.295  1.00  0.00     0.064 A 
ATOM     77  C   UNL A   1      44.193  24.768  25.278  1.00  0.00     0.173 A 
ATOM     78  C   UNL A   1      42.585  23.886  26.809  1.00  0.00     0.173 A 
ATOM     79  F   UNL A   1      44.905  25.778  24.757  1.00  0.00    -0.203 F 
ATOM     80  C   UNL A   1      44.482  23.472  24.837  1.00  0.00     0.198 A 
ATOM     81  C   UNL A   1      42.869  22.592  26.363  1.00  0.00     0.198 A 
ATOM     82  F   UNL A   1      41.718  24.001  27.824  1.00  0.00    -0.203 F 
ATOM     83  F   UNL A   1      45.443  23.272  23.923  1.00  0.00    -0.200 F 
ATOM     84  C   UNL A   1      43.831  22.383  25.392  1.00  0.00     0.200 A 
ATOM     85  F   UNL A   1      42.257  21.545  26.934  1.00  0.00    -0.200 F 
ATOM     86  F   UNL A   1      44.158  21.136  25.025  1.00  0.00    -0.200 F 
ENDBRANCH  52  76
BRANCH  64  87
ATOM     87  C   UNL A   1      45.489  30.393  28.687  1.00  0.00     0.064 A 
ATOM     88  C   UNL A   1      44.579  31.025  27.821  1.00  0.00     0.173 A 
ATOM     89  C   UNL A   1      46.825  30.815  28.640  1.00  0.00     0.173 A 
ATOM     90  F   UNL A   1      43.271  30.740  27.866  1.00  0.00    -0.203 F 
ATOM     91  C   UNL A   1      44.998  32.013  26.932  1.00  0.00     0.198 A 
ATOM     92  C   UNL A   1      47.233  31.828  27.779  1.00  0.00     0.198 A 
ATOM     93  F   UNL A   1      47.728  30.276  29.474  1.00  0.00    -0.203 F 
ATOM     94  F   UNL A   1      44.115  32.595  26.106  1.00  0.00    -0.200 F 
ATOM     95  C   UNL A   1      46.323  32.422  26.920  1.00  0.00     0.200 A 
ATOM     96  F   UNL A   1      48.504  32.250  27.805  1.00  0.00    -0.200 F 
ATOM     97  F   UNL A   1      46.718  33.404  26.098  1.00  0.00    -0.200 F 
ENDBRANCH  64  87
ENDBRANCH  38  39
ENDBRANCH  31  33
ENDBRANCH  30  31
ENDBRANCH  29  30
ENDBRANCH   1  29
TORSDOF 14
ENDMDL
MODEL 3
REMARK VINA RESULT:     -12.2      5.718      9.850
REMARK SMILES Cn1c(=O)c2c(nc(Nc3cccc(Cl)c3Cl)n2CC(=O)OCCOC(=O)c2ccc(-c3c4nc(c(-c5c(F)c(F)c(F)c(F)c5F)c5ccc([nH]5)c(-c5c(F)c(F)c(F)c(F)c5F)c5nc(c(-c6c(F)c(F)c(F)c(F)c6F)c6ccc3[nH]6)C=C5)C=C4)cc2)n(C)c1=O
REMARK SMILES IDX 23 1 22 2 20 3 21 4 19 5 18 6 1 7 2 8 3 9 93 10 4 11 5 12
REMARK SMILES IDX 91 13 94 14 6 15 92 16 7 17 8 18 9 19 10 21 11 22 16 23
REMARK SMILES IDX 12 24 14 25 17 26 13 27 15 28 24 29 25 30 26 31 27 32 28 33
REMARK SMILES IDX 29 34 90 35 30 36 89 37 31 38 32 39 33 40 83 41 34 42 88 43
REMARK SMILES IDX 82 44 84 45 35 46 87 47 81 48 80 49 36 51 68 52 48 53 67 54
REMARK SMILES IDX 49 55 52 56 66 57 85 58 50 59 51 60 65 62 86 63 53 64 37 65
REMARK SMILES IDX 38 66 46 67 39 68 40 69 44 70 47 71 41 72 42 73 45 74 43 75
REMARK SMILES IDX 69 76 70 77 78 78 71 79 72 80 76 81 79 82 73 83 74 84 77 85
REMARK SMILES IDX 75 86 54 87 55 88 63 89 56 90 57 91 61 92 64 93 58 94 59 95
REMARK SMILES IDX 62 96 60 97
REMARK H PARENT 9 20 84 50 52 61
REMARK Flexibility Score: inf
ROOT
ATOM      1  C   UNL A   1      36.270  20.791  25.378  1.00  0.00     0.274 C 
ENDROOT
BRANCH   1   2
ATOM      2  O   UNL A   1      35.569  21.423  24.277  1.00  0.00    -0.461 OA
BRANCH   2   3
ATOM      3  C   UNL A   1      35.419  22.768  24.381  1.00  0.00     0.326 C 
ATOM      4  O   UNL A   1      35.945  23.566  23.603  1.00  0.00    -0.250 OA
BRANCH   3   5
ATOM      5  C   UNL A   1      34.522  23.268  25.484  1.00  0.00     0.248 C 
BRANCH   5   6
ATOM      6  N   UNL A   1      33.164  23.700  25.188  1.00  0.00    -0.293 N 
ATOM      7  C   UNL A   1      33.635  28.472  24.135  1.00  0.00     0.159 C 
ATOM      8  N   UNL A   1      32.848  27.291  24.422  1.00  0.00    -0.261 N 
ATOM      9  C   UNL A   1      33.470  26.260  25.121  1.00  0.00     0.282 A 
ATOM     10  C   UNL A   1      31.473  27.318  24.160  1.00  0.00     0.332 A 
ATOM     11  O   UNL A   1      34.436  26.424  25.863  1.00  0.00    -0.267 OA
ATOM     12  C   UNL A   1      32.788  25.018  25.005  1.00  0.00     0.154 A 
ATOM     13  N   UNL A   1      30.768  26.132  24.381  1.00  0.00    -0.279 N 
ATOM     14  O   UNL A   1      30.908  28.350  23.787  1.00  0.00    -0.247 OA
ATOM     15  C   UNL A   1      31.465  24.988  24.699  1.00  0.00     0.170 A 
ATOM     16  C   UNL A   1      29.324  26.113  24.277  1.00  0.00     0.157 C 
ATOM     17  N   UNL A   1      30.958  23.745  24.849  1.00  0.00    -0.194 NA
ATOM     18  C   UNL A   1      31.974  22.981  25.216  1.00  0.00     0.210 A 
BRANCH  18  19
ATOM     19  N   UNL A   1      31.763  21.687  25.535  1.00  0.00    -0.324 N 
ATOM     20  H   UNL A   1      31.194  21.575  26.329  1.00  0.00     0.170 HD
BRANCH  19  21
ATOM     21  C   UNL A   1      32.179  20.466  24.983  1.00  0.00     0.061 A 
ATOM     22  C   UNL A   1      32.743  19.544  25.883  1.00  0.00     0.028 A 
ATOM     23  C   UNL A   1      32.187  20.152  23.608  1.00  0.00     0.083 A 
ATOM     24  C   UNL A   1      33.204  18.301  25.456  1.00  0.00     0.004 A 
ATOM     25  C   UNL A   1      32.589  18.872  23.190  1.00  0.00     0.061 A 
ATOM     26  Cl  UNL A   1      31.743  21.360  22.437  1.00  0.00    -0.080 Cl
ATOM     27  C   UNL A   1      33.092  17.951  24.115  1.00  0.00     0.022 A 
ATOM     28  Cl  UNL A   1      32.474  18.352  21.544  1.00  0.00    -0.083 Cl
ENDBRANCH  19  21
ENDBRANCH  18  19
ENDBRANCH   5   6
ENDBRANCH   3   5
ENDBRANCH   2   3
ENDBRANCH   1   2
BRANCH   1  29
ATOM     29  C   UNL A   1      37.593  20.150  24.946  1.00  0.00     0.275 C 
BRANCH  29  30
ATOM     30  O   UNL A   1      38.754  20.874  25.379  1.00  0.00    -0.458 OA
BRANCH  30  31
ATOM     31  C   UNL A   1      39.796  20.056  25.642  1.00  0.00     0.338 C 
ATOM     32  O   UNL A   1      39.799  18.844  25.563  1.00  0.00    -0.246 OA
BRANCH  31  33
ATOM     33  C   UNL A   1      40.886  20.748  26.330  1.00  0.00     0.060 A 
ATOM     34  C   UNL A   1      40.804  20.774  27.719  1.00  0.00     0.016 A 
ATOM     35  C   UNL A   1      41.580  21.728  25.618  1.00  0.00     0.016 A 
ATOM     36  C   UNL A   1      41.167  21.929  28.375  1.00  0.00     0.010 A 
ATOM     37  C   UNL A   1      42.014  22.856  26.290  1.00  0.00     0.010 A 
ATOM     38  C   UNL A   1      41.707  22.996  27.642  1.00  0.00    -0.014 A 
BRANCH  38  39
ATOM     39  C   UNL A   1      42.101  24.181  28.394  1.00  0.00     0.031 A 
ATOM     40  C   UNL A   1      41.120  25.285  28.226  1.00  0.00     0.074 A 
ATOM     41  C   UNL A   1      43.166  24.251  29.218  1.00  0.00     0.049 A 
ATOM     42  N   UNL A   1      41.322  26.458  27.723  1.00  0.00    -0.248 NA
ATOM     43  C   UNL A   1      39.700  24.964  28.458  1.00  0.00     0.031 C 
ATOM     44  C   UNL A   1      44.065  23.174  29.636  1.00  0.00     0.029 A 
ATOM     45  N   UNL A   1      43.615  25.313  29.946  1.00  0.00    -0.354 N 
ATOM     46  C   UNL A   1      40.080  27.086  27.735  1.00  0.00     0.074 A 
ATOM     47  C   UNL A   1      39.105  26.070  28.018  1.00  0.00     0.031 C 
ATOM     48  C   UNL A   1      44.775  23.576  30.716  1.00  0.00     0.029 A 
ATOM     49  C   UNL A   1      44.486  24.974  30.977  1.00  0.00     0.049 A 
ATOM     50  H   UNL A   1      43.347  26.241  29.757  1.00  0.00     0.167 HD
ATOM     51  C   UNL A   1      39.993  28.442  27.781  1.00  0.00     0.037 A 
ATOM     52  C   UNL A   1      44.874  25.780  32.000  1.00  0.00     0.037 A 
ATOM     53  C   UNL A   1      41.197  29.046  27.268  1.00  0.00     0.049 A 
ATOM     54  C   UNL A   1      44.620  27.178  31.575  1.00  0.00     0.074 A 
ATOM     55  C   UNL A   1      41.842  29.056  26.048  1.00  0.00     0.029 A 
ATOM     56  N   UNL A   1      42.119  29.488  28.183  1.00  0.00    -0.354 N 
ATOM     57  N   UNL A   1      45.279  27.783  30.628  1.00  0.00    -0.248 NA
ATOM     58  C   UNL A   1      43.335  27.766  31.922  1.00  0.00     0.031 C 
ATOM     59  C   UNL A   1      43.235  29.073  26.359  1.00  0.00     0.029 A 
ATOM     60  C   UNL A   1      43.365  29.130  27.747  1.00  0.00     0.049 A 
ATOM     61  H   UNL A   1      41.918  29.979  29.012  1.00  0.00     0.167 HD
ATOM     62  C   UNL A   1      44.322  28.535  29.967  1.00  0.00     0.074 A 
ATOM     63  C   UNL A   1      43.172  28.567  30.866  1.00  0.00     0.031 C 
ATOM     64  C   UNL A   1      44.456  28.811  28.637  1.00  0.00     0.037 A 
BRANCH  51  65
ATOM     65  C   UNL A   1      39.046  29.170  28.715  1.00  0.00     0.064 A 
ATOM     66  C   UNL A   1      39.154  28.930  30.100  1.00  0.00     0.173 A 
ATOM     67  C   UNL A   1      37.855  29.816  28.309  1.00  0.00     0.173 A 
ATOM     68  F   UNL A   1      40.238  28.325  30.608  1.00  0.00    -0.203 F 
ATOM     69  C   UNL A   1      38.106  29.205  30.983  1.00  0.00     0.198 A 
ATOM     70  C   UNL A   1      36.832  30.131  29.201  1.00  0.00     0.198 A 
ATOM     71  F   UNL A   1      37.569  30.078  27.031  1.00  0.00    -0.203 F 
ATOM     72  F   UNL A   1      38.200  28.824  32.263  1.00  0.00    -0.200 F 
ATOM     73  C   UNL A   1      36.940  29.791  30.530  1.00  0.00     0.200 A 
ATOM     74  F   UNL A   1      35.705  30.687  28.735  1.00  0.00    -0.200 F 
ATOM     75  F   UNL A   1      35.906  29.986  31.357  1.00  0.00    -0.200 F 
ENDBRANCH  51  65
BRANCH  52  76
ATOM     76  C   UNL A   1      45.103  25.439  33.430  1.00  0.00     0.064 A 
ATOM     77  C   UNL A   1      44.018  25.206  34.295  1.00  0.00     0.173 A 
ATOM     78  C   UNL A   1      46.367  25.026  33.894  1.00  0.00     0.173 A 
ATOM     79  F   UNL A   1      42.772  25.530  33.918  1.00  0.00    -0.203 F 
ATOM     80  C   UNL A   1      44.180  24.558  35.524  1.00  0.00     0.198 A 
ATOM     81  C   UNL A   1      46.529  24.386  35.126  1.00  0.00     0.198 A 
ATOM     82  F   UNL A   1      47.456  25.141  33.123  1.00  0.00    -0.203 F 
ATOM     83  F   UNL A   1      43.109  24.283  36.284  1.00  0.00    -0.200 F 
ATOM     84  C   UNL A   1      45.433  24.135  35.932  1.00  0.00     0.200 A 
ATOM     85  F   UNL A   1      47.742  23.949  35.492  1.00  0.00    -0.200 F 
ATOM     86  F   UNL A   1      45.581  23.449  37.074  1.00  0.00    -0.200 F 
ENDBRANCH  52  76
BRANCH  64  87
ATOM     87  C   UNL A   1      45.792  28.555  28.000  1.00  0.00     0.064 A 
ATOM     88  C   UNL A   1      46.184  27.324  27.446  1.00  0.00     0.173 A 
ATOM     89  C   UNL A   1      46.649  29.648  27.816  1.00  0.00     0.173 A 
ATOM     90  F   UNL A   1      45.382  26.253  27.503  1.00  0.00    -0.203 F 
ATOM     91  C   UNL A   1      47.394  27.193  26.765  1.00  0.00     0.198 A 
ATOM     92  C   UNL A   1      47.837  29.524  27.104  1.00  0.00     0.198 A 
ATOM     93  F   UNL A   1      46.305  30.857  28.289  1.00  0.00    -0.203 F 
ATOM     94  F   UNL A   1      47.754  26.006  26.254  1.00  0.00    -0.200 F 
ATOM     95  C   UNL A   1      48.214  28.296  26.585  1.00  0.00     0.200 A 
ATOM     96  F   UNL A   1      48.602  30.604  26.893  1.00  0.00    -0.200 F 
ATOM     97  F   UNL A   1      49.354  28.183  25.891  1.00  0.00    -0.200 F 
ENDBRANCH  64  87
ENDBRANCH  38  39
ENDBRANCH  31  33
ENDBRANCH  30  31
ENDBRANCH  29  30
ENDBRANCH   1  29
TORSDOF 14
ENDMDL
