MODEL 1
REMARK VINA RESULT:     -10.4      0.000      0.000
REMARK SMILES C=CCCC[C@]1(C(=O)OCCOC(=O)c2ccc(-c3c4nc(c(-c5c(F)c(F)c(F)c(F)c5F)c5ccc([nH]5)c(-c5c(F)c(F)c(F)c(F)c5F)c5nc(c(-c6c(F)c(F)c(F)c(F)c6F)c6ccc3[nH]6)C=C5)C=C4)cc2)CCCN(C(=O)OC(C)(C)C)C1
REMARK SMILES IDX 10 1 9 2 7 3 8 4 6 5 78 6 89 7 79 8 81 9 80 10 5 11 4 12
REMARK SMILES IDX 3 13 2 14 1 15 82 16 83 17 84 18 85 19 86 20 87 21 88 22
REMARK SMILES IDX 11 23 12 24 13 25 14 26 15 27 16 28 77 29 17 30 76 31 18 32
REMARK SMILES IDX 19 33 20 34 70 35 21 36 75 37 69 38 71 39 22 40 74 41 68 42
REMARK SMILES IDX 67 43 23 45 55 46 35 47 54 48 36 49 39 50 53 51 72 52 37 53
REMARK SMILES IDX 38 54 52 56 73 57 40 58 24 59 25 60 33 61 26 62 27 63 31 64
REMARK SMILES IDX 34 65 28 66 29 67 32 68 30 69 56 70 57 71 65 72 58 73 59 74
REMARK SMILES IDX 63 75 66 76 60 77 61 78 64 79 62 80 41 81 42 82 50 83 43 84
REMARK SMILES IDX 44 85 48 86 51 87 45 88 46 89 49 90 47 91
REMARK H PARENT 71 44 39 55
REMARK Flexibility Score: inf
ROOT
ATOM      1  C   UNL A   1      37.825  22.544  25.578  1.00  0.00     0.274 C 
ENDROOT
BRANCH   1   2
ATOM      2  O   UNL A   1      36.484  22.472  25.053  1.00  0.00    -0.462 OA
BRANCH   2   3
ATOM      3  C   UNL A   1      35.884  23.049  23.958  1.00  0.00     0.314 C 
ATOM      4  O   UNL A   1      36.288  23.032  22.807  1.00  0.00    -0.252 OA
BRANCH   3   5
ATOM      5  C   UNL A   1      34.661  23.783  24.566  1.00  0.00     0.086 C 
ATOM      6  C   UNL A   1      34.158  22.527  25.391  1.00  0.00     0.022 C 
ATOM      7  C   UNL A   1      34.564  24.913  25.650  1.00  0.00     0.141 C 
ATOM      8  C   UNL A   1      32.820  22.568  26.086  1.00  0.00     0.023 C 
ATOM      9  N   UNL A   1      33.107  24.951  26.097  1.00  0.00    -0.307 N 
ATOM     10  C   UNL A   1      32.702  23.826  26.913  1.00  0.00     0.123 C 
BRANCH   5  11
ATOM     11  C   UNL A   1      34.194  24.595  23.296  1.00  0.00     0.021 C 
BRANCH  11  12
ATOM     12  C   UNL A   1      32.982  24.290  22.434  1.00  0.00     0.005 C 
BRANCH  12  13
ATOM     13  C   UNL A   1      32.972  22.899  21.848  1.00  0.00     0.027 C 
BRANCH  13  14
ATOM     14  C   UNL A   1      31.991  21.988  22.536  1.00  0.00    -0.035 C 
ATOM     15  C   UNL A   1      32.227  20.695  22.786  1.00  0.00     0.004 C 
ENDBRANCH  13  14
ENDBRANCH  12  13
ENDBRANCH  11  12
ENDBRANCH   5  11
BRANCH   9  16
ATOM     16  C   UNL A   1      32.107  25.694  25.445  1.00  0.00     0.410 C 
ATOM     17  O   UNL A   1      30.993  25.251  25.191  1.00  0.00    -0.224 OA
BRANCH  16  18
ATOM     18  O   UNL A   1      32.502  26.983  25.208  1.00  0.00    -0.444 OA
BRANCH  18  19
ATOM     19  C   UNL A   1      32.537  28.123  26.134  1.00  0.00     0.106 C 
ATOM     20  C   UNL A   1      31.702  27.957  27.402  1.00  0.00     0.056 C 
ATOM     21  C   UNL A   1      33.981  28.508  26.503  1.00  0.00     0.056 C 
ATOM     22  C   UNL A   1      32.001  29.302  25.310  1.00  0.00     0.056 C 
ENDBRANCH  18  19
ENDBRANCH  16  18
ENDBRANCH   9  16
ENDBRANCH   3   5
ENDBRANCH   2   3
ENDBRANCH   1   2
BRANCH   1  23
ATOM     23  C   UNL A   1      38.474  21.156  25.372  1.00  0.00     0.275 C 
BRANCH  23  24
ATOM     24  O   UNL A   1      39.304  20.778  26.486  1.00  0.00    -0.458 OA
BRANCH  24  25
ATOM     25  C   UNL A   1      40.460  20.176  26.139  1.00  0.00     0.338 C 
ATOM     26  O   UNL A   1      40.582  19.039  25.714  1.00  0.00    -0.246 OA
BRANCH  25  27
ATOM     27  C   UNL A   1      41.591  21.024  26.558  1.00  0.00     0.060 A 
ATOM     28  C   UNL A   1      42.273  21.735  25.563  1.00  0.00     0.016 A 
ATOM     29  C   UNL A   1      41.938  21.177  27.904  1.00  0.00     0.016 A 
ATOM     30  C   UNL A   1      43.221  22.694  25.918  1.00  0.00     0.010 A 
ATOM     31  C   UNL A   1      42.864  22.157  28.266  1.00  0.00     0.010 A 
ATOM     32  C   UNL A   1      43.418  22.993  27.278  1.00  0.00    -0.014 A 
BRANCH  32  33
ATOM     33  C   UNL A   1      43.693  24.407  27.654  1.00  0.00     0.031 A 
ATOM     34  C   UNL A   1      42.636  25.402  27.997  1.00  0.00     0.074 A 
ATOM     35  C   UNL A   1      44.988  24.780  27.557  1.00  0.00     0.049 A 
ATOM     36  N   UNL A   1      42.775  26.682  28.241  1.00  0.00    -0.248 NA
ATOM     37  C   UNL A   1      41.251  24.922  28.067  1.00  0.00     0.031 C 
ATOM     38  C   UNL A   1      46.091  23.887  27.183  1.00  0.00     0.029 A 
ATOM     39  N   UNL A   1      45.600  25.994  27.726  1.00  0.00    -0.354 N 
ATOM     40  C   UNL A   1      41.501  27.167  28.495  1.00  0.00     0.074 A 
ATOM     41  C   UNL A   1      40.595  26.042  28.356  1.00  0.00     0.031 C 
ATOM     42  C   UNL A   1      47.235  24.574  27.147  1.00  0.00     0.029 A 
ATOM     43  C   UNL A   1      46.944  25.965  27.438  1.00  0.00     0.049 A 
ATOM     44  H   UNL A   1      45.126  26.803  28.023  1.00  0.00     0.167 HD
ATOM     45  C   UNL A   1      41.140  28.437  28.812  1.00  0.00     0.037 A 
ATOM     46  C   UNL A   1      47.851  26.951  27.372  1.00  0.00     0.037 A 
ATOM     47  C   UNL A   1      42.069  29.541  28.927  1.00  0.00     0.049 A 
ATOM     48  C   UNL A   1      47.414  28.341  27.695  1.00  0.00     0.074 A 
ATOM     49  C   UNL A   1      41.815  30.847  29.314  1.00  0.00     0.029 A 
ATOM     50  N   UNL A   1      43.426  29.478  28.631  1.00  0.00    -0.354 N 
ATOM     51  N   UNL A   1      46.219  28.771  28.016  1.00  0.00    -0.248 NA
ATOM     52  C   UNL A   1      48.447  29.380  27.658  1.00  0.00     0.031 C 
ATOM     53  C   UNL A   1      42.997  31.586  29.188  1.00  0.00     0.029 A 
ATOM     54  C   UNL A   1      44.008  30.729  28.784  1.00  0.00     0.049 A 
ATOM     55  H   UNL A   1      43.905  28.664  28.353  1.00  0.00     0.167 HD
ATOM     56  C   UNL A   1      46.353  30.131  28.229  1.00  0.00     0.074 A 
ATOM     57  C   UNL A   1      47.756  30.447  28.032  1.00  0.00     0.031 C 
ATOM     58  C   UNL A   1      45.399  31.036  28.555  1.00  0.00     0.037 A 
BRANCH  45  59
ATOM     59  C   UNL A   1      39.682  28.728  29.047  1.00  0.00     0.064 A 
ATOM     60  C   UNL A   1      39.094  28.590  30.313  1.00  0.00     0.173 A 
ATOM     61  C   UNL A   1      38.885  29.248  28.013  1.00  0.00     0.173 A 
ATOM     62  F   UNL A   1      39.808  28.104  31.340  1.00  0.00    -0.203 F 
ATOM     63  C   UNL A   1      37.763  28.943  30.530  1.00  0.00     0.198 A 
ATOM     64  C   UNL A   1      37.564  29.627  28.241  1.00  0.00     0.198 A 
ATOM     65  F   UNL A   1      39.397  29.420  26.785  1.00  0.00    -0.203 F 
ATOM     66  F   UNL A   1      37.216  28.777  31.743  1.00  0.00    -0.200 F 
ATOM     67  C   UNL A   1      37.002  29.470  29.498  1.00  0.00     0.200 A 
ATOM     68  F   UNL A   1      36.839  30.158  27.246  1.00  0.00    -0.200 F 
ATOM     69  F   UNL A   1      35.729  29.828  29.715  1.00  0.00    -0.200 F 
ENDBRANCH  45  59
BRANCH  46  70
ATOM     70  C   UNL A   1      49.248  26.626  26.990  1.00  0.00     0.064 A 
ATOM     71  C   UNL A   1      49.675  26.749  25.663  1.00  0.00     0.173 A 
ATOM     72  C   UNL A   1      50.200  26.260  27.955  1.00  0.00     0.173 A 
ATOM     73  F   UNL A   1      48.799  27.091  24.706  1.00  0.00    -0.203 F 
ATOM     74  C   UNL A   1      51.000  26.507  25.311  1.00  0.00     0.198 A 
ATOM     75  C   UNL A   1      51.532  26.051  27.608  1.00  0.00     0.198 A 
ATOM     76  F   UNL A   1      49.843  26.150  29.243  1.00  0.00    -0.203 F 
ATOM     77  F   UNL A   1      51.377  26.600  24.030  1.00  0.00    -0.200 F 
ATOM     78  C   UNL A   1      51.929  26.169  26.285  1.00  0.00     0.200 A 
ATOM     79  F   UNL A   1      52.430  25.752  28.555  1.00  0.00    -0.200 F 
ATOM     80  F   UNL A   1      53.208  25.955  25.947  1.00  0.00    -0.200 F 
ENDBRANCH  46  70
BRANCH  58  81
ATOM     81  C   UNL A   1      45.856  32.456  28.710  1.00  0.00     0.064 A 
ATOM     82  C   UNL A   1      46.320  32.944  29.942  1.00  0.00     0.173 A 
ATOM     83  C   UNL A   1      45.817  33.343  27.624  1.00  0.00     0.173 A 
ATOM     84  F   UNL A   1      46.350  32.143  31.017  1.00  0.00    -0.203 F 
ATOM     85  C   UNL A   1      46.697  34.277  30.087  1.00  0.00     0.198 A 
ATOM     86  C   UNL A   1      46.227  34.665  27.765  1.00  0.00     0.198 A 
ATOM     87  F   UNL A   1      45.379  32.927  26.426  1.00  0.00    -0.203 F 
ATOM     88  F   UNL A   1      47.075  34.736  31.288  1.00  0.00    -0.200 F 
ATOM     89  C   UNL A   1      46.657  35.134  28.998  1.00  0.00     0.200 A 
ATOM     90  F   UNL A   1      46.197  35.490  26.709  1.00  0.00    -0.200 F 
ATOM     91  F   UNL A   1      47.019  36.416  29.139  1.00  0.00    -0.200 F 
ENDBRANCH  58  81
ENDBRANCH  32  33
ENDBRANCH  25  27
ENDBRANCH  24  25
ENDBRANCH  23  24
ENDBRANCH   1  23
TORSDOF 18
ENDMDL
MODEL 2
REMARK VINA RESULT:     -10.4      5.534     10.607
REMARK SMILES C=CCCC[C@]1(C(=O)OCCOC(=O)c2ccc(-c3c4nc(c(-c5c(F)c(F)c(F)c(F)c5F)c5ccc([nH]5)c(-c5c(F)c(F)c(F)c(F)c5F)c5nc(c(-c6c(F)c(F)c(F)c(F)c6F)c6ccc3[nH]6)C=C5)C=C4)cc2)CCCN(C(=O)OC(C)(C)C)C1
REMARK SMILES IDX 10 1 9 2 7 3 8 4 6 5 78 6 89 7 79 8 81 9 80 10 5 11 4 12
REMARK SMILES IDX 3 13 2 14 1 15 82 16 83 17 84 18 85 19 86 20 87 21 88 22
REMARK SMILES IDX 11 23 12 24 13 25 14 26 15 27 16 28 77 29 17 30 76 31 18 32
REMARK SMILES IDX 19 33 20 34 70 35 21 36 75 37 69 38 71 39 22 40 74 41 68 42
REMARK SMILES IDX 67 43 23 45 55 46 35 47 54 48 36 49 39 50 53 51 72 52 37 53
REMARK SMILES IDX 38 54 52 56 73 57 40 58 24 59 25 60 33 61 26 62 27 63 31 64
REMARK SMILES IDX 34 65 28 66 29 67 32 68 30 69 56 70 57 71 65 72 58 73 59 74
REMARK SMILES IDX 63 75 66 76 60 77 61 78 64 79 62 80 41 81 42 82 50 83 43 84
REMARK SMILES IDX 44 85 48 86 51 87 45 88 46 89 49 90 47 91
REMARK H PARENT 71 44 39 55
REMARK Flexibility Score: inf
ROOT
ATOM      1  C   UNL A   1      34.510  30.231  27.650  1.00  0.00     0.274 C 
ENDROOT
BRANCH   1   2
ATOM      2  O   UNL A   1      33.959  28.918  27.420  1.00  0.00    -0.462 OA
BRANCH   2   3
ATOM      3  C   UNL A   1      32.692  28.487  27.101  1.00  0.00     0.314 C 
ATOM      4  O   UNL A   1      31.777  28.263  27.875  1.00  0.00    -0.252 OA
BRANCH   3   5
ATOM      5  C   UNL A   1      32.765  28.273  25.567  1.00  0.00     0.086 C 
ATOM      6  C   UNL A   1      31.195  28.340  25.355  1.00  0.00     0.022 C 
ATOM      7  C   UNL A   1      33.264  29.212  24.412  1.00  0.00     0.141 C 
ATOM      8  C   UNL A   1      30.600  27.995  24.013  1.00  0.00     0.023 C 
ATOM      9  N   UNL A   1      32.741  28.606  23.115  1.00  0.00    -0.307 N 
ATOM     10  C   UNL A   1      31.314  28.752  22.919  1.00  0.00     0.123 C 
BRANCH   5  11
ATOM     11  C   UNL A   1      33.893  27.171  25.516  1.00  0.00     0.021 C 
BRANCH  11  12
ATOM     12  C   UNL A   1      33.764  25.736  25.994  1.00  0.00     0.005 C 
BRANCH  12  13
ATOM     13  C   UNL A   1      34.691  24.766  25.301  1.00  0.00     0.027 C 
BRANCH  13  14
ATOM     14  C   UNL A   1      34.233  23.338  25.427  1.00  0.00    -0.035 C 
ATOM     15  C   UNL A   1      32.950  22.976  25.543  1.00  0.00     0.004 C 
ENDBRANCH  13  14
ENDBRANCH  12  13
ENDBRANCH  11  12
ENDBRANCH   5  11
BRANCH   9  16
ATOM     16  C   UNL A   1      33.412  27.603  22.392  1.00  0.00     0.410 C 
ATOM     17  O   UNL A   1      34.290  27.837  21.568  1.00  0.00    -0.224 OA
BRANCH  16  18
ATOM     18  O   UNL A   1      33.026  26.349  22.780  1.00  0.00    -0.444 OA
BRANCH  18  19
ATOM     19  C   UNL A   1      32.384  25.294  21.985  1.00  0.00     0.106 C 
ATOM     20  C   UNL A   1      31.922  25.718  20.592  1.00  0.00     0.056 C 
ATOM     21  C   UNL A   1      33.272  24.041  21.884  1.00  0.00     0.056 C 
ATOM     22  C   UNL A   1      31.172  24.866  22.825  1.00  0.00     0.056 C 
ENDBRANCH  18  19
ENDBRANCH  16  18
ENDBRANCH   9  16
ENDBRANCH   3   5
ENDBRANCH   2   3
ENDBRANCH   1   2
BRANCH   1  23
ATOM     23  C   UNL A   1      33.342  31.240  27.571  1.00  0.00     0.275 C 
BRANCH  23  24
ATOM     24  O   UNL A   1      33.792  32.562  27.219  1.00  0.00    -0.458 OA
BRANCH  24  25
ATOM     25  C   UNL A   1      33.451  33.519  28.105  1.00  0.00     0.338 C 
ATOM     26  O   UNL A   1      32.471  34.244  28.043  1.00  0.00    -0.246 OA
BRANCH  25  27
ATOM     27  C   UNL A   1      34.560  33.715  29.056  1.00  0.00     0.060 A 
ATOM     28  C   UNL A   1      34.363  33.297  30.378  1.00  0.00     0.016 A 
ATOM     29  C   UNL A   1      35.794  34.235  28.652  1.00  0.00     0.016 A 
ATOM     30  C   UNL A   1      35.435  33.280  31.270  1.00  0.00     0.010 A 
ATOM     31  C   UNL A   1      36.877  34.191  29.533  1.00  0.00     0.010 A 
ATOM     32  C   UNL A   1      36.721  33.606  30.804  1.00  0.00    -0.014 A 
BRANCH  32  33
ATOM     33  C   UNL A   1      37.881  32.856  31.358  1.00  0.00     0.031 A 
ATOM     34  C   UNL A   1      38.476  31.645  30.721  1.00  0.00     0.074 A 
ATOM     35  C   UNL A   1      38.309  33.281  32.567  1.00  0.00     0.049 A 
ATOM     36  N   UNL A   1      39.425  30.869  31.183  1.00  0.00    -0.248 NA
ATOM     37  C   UNL A   1      37.945  31.237  29.416  1.00  0.00     0.031 C 
ATOM     38  C   UNL A   1      37.758  34.432  33.292  1.00  0.00     0.029 A 
ATOM     39  N   UNL A   1      39.268  32.796  33.415  1.00  0.00    -0.354 N 
ATOM     40  C   UNL A   1      39.611  29.878  30.231  1.00  0.00     0.074 A 
ATOM     41  C   UNL A   1      38.658  30.143  29.168  1.00  0.00     0.031 C 
ATOM     42  C   UNL A   1      38.377  34.563  34.467  1.00  0.00     0.029 A 
ATOM     43  C   UNL A   1      39.329  33.476  34.608  1.00  0.00     0.049 A 
ATOM     44  H   UNL A   1      39.854  32.037  33.194  1.00  0.00     0.167 HD
ATOM     45  C   UNL A   1      40.499  28.851  30.258  1.00  0.00     0.037 A 
ATOM     46  C   UNL A   1      40.040  33.241  35.721  1.00  0.00     0.037 A 
ATOM     47  C   UNL A   1      41.425  28.607  31.344  1.00  0.00     0.049 A 
ATOM     48  C   UNL A   1      40.983  32.085  35.729  1.00  0.00     0.074 A 
ATOM     49  C   UNL A   1      42.412  27.640  31.434  1.00  0.00     0.029 A 
ATOM     50  N   UNL A   1      41.463  29.318  32.537  1.00  0.00    -0.354 N 
ATOM     51  N   UNL A   1      41.209  31.204  34.786  1.00  0.00    -0.248 NA
ATOM     52  C   UNL A   1      41.776  31.892  36.946  1.00  0.00     0.031 C 
ATOM     53  C   UNL A   1      42.999  27.721  32.702  1.00  0.00     0.029 A 
ATOM     54  C   UNL A   1      42.424  28.781  33.384  1.00  0.00     0.049 A 
ATOM     55  H   UNL A   1      40.891  30.089  32.752  1.00  0.00     0.167 HD
ATOM     56  C   UNL A   1      42.178  30.355  35.288  1.00  0.00     0.074 A 
ATOM     57  C   UNL A   1      42.519  30.847  36.610  1.00  0.00     0.031 C 
ATOM     58  C   UNL A   1      42.731  29.262  34.709  1.00  0.00     0.037 A 
BRANCH  45  59
ATOM     59  C   UNL A   1      40.518  27.893  29.098  1.00  0.00     0.064 A 
ATOM     60  C   UNL A   1      39.681  26.767  29.053  1.00  0.00     0.173 A 
ATOM     61  C   UNL A   1      41.312  28.159  27.969  1.00  0.00     0.173 A 
ATOM     62  F   UNL A   1      38.896  26.467  30.099  1.00  0.00    -0.203 F 
ATOM     63  C   UNL A   1      39.652  25.937  27.934  1.00  0.00     0.198 A 
ATOM     64  C   UNL A   1      41.258  27.343  26.841  1.00  0.00     0.198 A 
ATOM     65  F   UNL A   1      42.118  29.230  27.946  1.00  0.00    -0.203 F 
ATOM     66  F   UNL A   1      38.864  24.853  27.925  1.00  0.00    -0.200 F 
ATOM     67  C   UNL A   1      40.433  26.230  26.826  1.00  0.00     0.200 A 
ATOM     68  F   UNL A   1      41.997  27.642  25.763  1.00  0.00    -0.200 F 
ATOM     69  F   UNL A   1      40.387  25.441  25.743  1.00  0.00    -0.200 F 
ENDBRANCH  45  59
BRANCH  46  70
ATOM     70  C   UNL A   1      39.870  34.137  36.892  1.00  0.00     0.064 A 
ATOM     71  C   UNL A   1      39.000  33.797  37.934  1.00  0.00     0.173 A 
ATOM     72  C   UNL A   1      40.631  35.310  37.027  1.00  0.00     0.173 A 
ATOM     73  F   UNL A   1      38.250  32.689  37.845  1.00  0.00    -0.203 F 
ATOM     74  C   UNL A   1      38.886  34.602  39.064  1.00  0.00     0.198 A 
ATOM     75  C   UNL A   1      40.541  36.096  38.173  1.00  0.00     0.198 A 
ATOM     76  F   UNL A   1      41.494  35.666  36.065  1.00  0.00    -0.203 F 
ATOM     77  F   UNL A   1      38.022  34.272  40.033  1.00  0.00    -0.200 F 
ATOM     78  C   UNL A   1      39.664  35.744  39.187  1.00  0.00     0.200 A 
ATOM     79  F   UNL A   1      41.314  37.182  38.299  1.00  0.00    -0.200 F 
ATOM     80  F   UNL A   1      39.567  36.508  40.284  1.00  0.00    -0.200 F 
ENDBRANCH  46  70
BRANCH  58  81
ATOM     81  C   UNL A   1      43.762  28.531  35.517  1.00  0.00     0.064 A 
ATOM     82  C   UNL A   1      45.132  28.797  35.368  1.00  0.00     0.173 A 
ATOM     83  C   UNL A   1      43.379  27.545  36.439  1.00  0.00     0.173 A 
ATOM     84  F   UNL A   1      45.549  29.710  34.479  1.00  0.00    -0.203 F 
ATOM     85  C   UNL A   1      46.082  28.078  36.089  1.00  0.00     0.198 A 
ATOM     86  C   UNL A   1      44.331  26.854  37.182  1.00  0.00     0.198 A 
ATOM     87  F   UNL A   1      42.082  27.251  36.617  1.00  0.00    -0.203 F 
ATOM     88  F   UNL A   1      47.386  28.304  35.882  1.00  0.00    -0.200 F 
ATOM     89  C   UNL A   1      45.681  27.113  37.000  1.00  0.00     0.200 A 
ATOM     90  F   UNL A   1      43.941  25.928  38.069  1.00  0.00    -0.200 F 
ATOM     91  F   UNL A   1      46.597  26.423  37.692  1.00  0.00    -0.200 F 
ENDBRANCH  58  81
ENDBRANCH  32  33
ENDBRANCH  25  27
ENDBRANCH  24  25
ENDBRANCH  23  24
ENDBRANCH   1  23
TORSDOF 18
ENDMDL
MODEL 3
REMARK VINA RESULT:     -10.3      5.269     10.423
REMARK SMILES C=CCCC[C@]1(C(=O)OCCOC(=O)c2ccc(-c3c4nc(c(-c5c(F)c(F)c(F)c(F)c5F)c5ccc([nH]5)c(-c5c(F)c(F)c(F)c(F)c5F)c5nc(c(-c6c(F)c(F)c(F)c(F)c6F)c6ccc3[nH]6)C=C5)C=C4)cc2)CCCN(C(=O)OC(C)(C)C)C1
REMARK SMILES IDX 10 1 9 2 7 3 8 4 6 5 78 6 89 7 79 8 81 9 80 10 5 11 4 12
REMARK SMILES IDX 3 13 2 14 1 15 82 16 83 17 84 18 85 19 86 20 87 21 88 22
REMARK SMILES IDX 11 23 12 24 13 25 14 26 15 27 16 28 77 29 17 30 76 31 18 32
REMARK SMILES IDX 19 33 20 34 70 35 21 36 75 37 69 38 71 39 22 40 74 41 68 42
REMARK SMILES IDX 67 43 23 45 55 46 35 47 54 48 36 49 39 50 53 51 72 52 37 53
REMARK SMILES IDX 38 54 52 56 73 57 40 58 24 59 25 60 33 61 26 62 27 63 31 64
REMARK SMILES IDX 34 65 28 66 29 67 32 68 30 69 56 70 57 71 65 72 58 73 59 74
REMARK SMILES IDX 63 75 66 76 60 77 61 78 64 79 62 80 41 81 42 82 50 83 43 84
REMARK SMILES IDX 44 85 48 86 51 87 45 88 46 89 49 90 47 91
REMARK H PARENT 71 44 39 55
REMARK Flexibility Score: inf
ROOT
ATOM      1  C   UNL A   1      33.699  29.688  26.493  1.00  0.00     0.274 C 
ENDROOT
BRANCH   1   2
ATOM      2  O   UNL A   1      32.653  28.758  26.143  1.00  0.00    -0.462 OA
BRANCH   2   3
ATOM      3  C   UNL A   1      31.875  28.619  25.018  1.00  0.00     0.314 C 
ATOM      4  O   UNL A   1      30.934  29.320  24.684  1.00  0.00    -0.252 OA
BRANCH   3   5
ATOM      5  C   UNL A   1      32.424  27.325  24.362  1.00  0.00     0.086 C 
ATOM      6  C   UNL A   1      31.659  27.542  22.991  1.00  0.00     0.022 C 
ATOM      7  C   UNL A   1      33.860  26.953  23.849  1.00  0.00     0.141 C 
ATOM      8  C   UNL A   1      31.651  26.451  21.951  1.00  0.00     0.023 C 
ATOM      9  N   UNL A   1      33.692  25.714  22.977  1.00  0.00    -0.307 N 
ATOM     10  C   UNL A   1      33.058  25.963  21.699  1.00  0.00     0.123 C 
BRANCH   5  11
ATOM     11  C   UNL A   1      32.326  26.351  25.600  1.00  0.00     0.021 C 
BRANCH  11  12
ATOM     12  C   UNL A   1      31.312  25.237  25.784  1.00  0.00     0.005 C 
BRANCH  12  13
ATOM     13  C   UNL A   1      31.788  24.104  26.661  1.00  0.00     0.027 C 
BRANCH  13  14
ATOM     14  C   UNL A   1      30.845  22.931  26.654  1.00  0.00    -0.035 C 
ATOM     15  C   UNL A   1      29.602  22.974  27.149  1.00  0.00     0.004 C 
ENDBRANCH  13  14
ENDBRANCH  12  13
ENDBRANCH  11  12
ENDBRANCH   5  11
BRANCH   9  16
ATOM     16  C   UNL A   1      33.690  24.399  23.476  1.00  0.00     0.410 C 
ATOM     17  O   UNL A   1      32.964  23.512  23.041  1.00  0.00    -0.224 OA
BRANCH  16  18
ATOM     18  O   UNL A   1      34.646  24.217  24.438  1.00  0.00    -0.444 OA
BRANCH  18  19
ATOM     19  C   UNL A   1      35.656  23.156  24.547  1.00  0.00     0.106 C 
ATOM     20  C   UNL A   1      35.137  21.812  25.054  1.00  0.00     0.056 C 
ATOM     21  C   UNL A   1      36.415  22.959  23.222  1.00  0.00     0.056 C 
ATOM     22  C   UNL A   1      36.695  23.715  25.530  1.00  0.00     0.056 C 
ENDBRANCH  18  19
ENDBRANCH  16  18
ENDBRANCH   9  16
ENDBRANCH   3   5
ENDBRANCH   2   3
ENDBRANCH   1   2
BRANCH   1  23
ATOM     23  C   UNL A   1      33.038  30.855  27.261  1.00  0.00     0.275 C 
BRANCH  23  24
ATOM     24  O   UNL A   1      33.703  32.108  27.015  1.00  0.00    -0.458 OA
BRANCH  24  25
ATOM     25  C   UNL A   1      33.345  33.102  27.854  1.00  0.00     0.338 C 
ATOM     26  O   UNL A   1      32.377  33.834  27.735  1.00  0.00    -0.246 OA
BRANCH  25  27
ATOM     27  C   UNL A   1      34.427  33.321  28.832  1.00  0.00     0.060 A 
ATOM     28  C   UNL A   1      34.255  32.796  30.119  1.00  0.00     0.016 A 
ATOM     29  C   UNL A   1      35.616  33.967  28.482  1.00  0.00     0.016 A 
ATOM     30  C   UNL A   1      35.317  32.805  31.023  1.00  0.00     0.010 A 
ATOM     31  C   UNL A   1      36.692  33.951  29.373  1.00  0.00     0.010 A 
ATOM     32  C   UNL A   1      36.575  33.267  30.597  1.00  0.00    -0.014 A 
BRANCH  32  33
ATOM     33  C   UNL A   1      37.789  32.578  31.115  1.00  0.00     0.031 A 
ATOM     34  C   UNL A   1      38.459  31.436  30.428  1.00  0.00     0.074 A 
ATOM     35  C   UNL A   1      38.198  32.986  32.335  1.00  0.00     0.049 A 
ATOM     36  N   UNL A   1      39.463  30.709  30.853  1.00  0.00    -0.248 NA
ATOM     37  C   UNL A   1      37.944  31.042  29.111  1.00  0.00     0.031 C 
ATOM     38  C   UNL A   1      37.578  34.068  33.108  1.00  0.00     0.029 A 
ATOM     39  N   UNL A   1      39.197  32.535  33.158  1.00  0.00    -0.354 N 
ATOM     40  C   UNL A   1      39.707  29.770  29.862  1.00  0.00     0.074 A 
ATOM     41  C   UNL A   1      38.728  30.009  28.817  1.00  0.00     0.031 C 
ATOM     42  C   UNL A   1      38.198  34.197  34.283  1.00  0.00     0.029 A 
ATOM     43  C   UNL A   1      39.222  33.173  34.375  1.00  0.00     0.049 A 
ATOM     44  H   UNL A   1      39.831  31.828  32.903  1.00  0.00     0.167 HD
ATOM     45  C   UNL A   1      40.663  28.806  29.844  1.00  0.00     0.037 A 
ATOM     46  C   UNL A   1      39.959  32.946  35.474  1.00  0.00     0.037 A 
ATOM     47  C   UNL A   1      41.614  28.585  30.913  1.00  0.00     0.049 A 
ATOM     48  C   UNL A   1      40.978  31.857  35.430  1.00  0.00     0.074 A 
ATOM     49  C   UNL A   1      42.666  27.685  30.959  1.00  0.00     0.029 A 
ATOM     50  N   UNL A   1      41.615  29.251  32.133  1.00  0.00    -0.354 N 
ATOM     51  N   UNL A   1      41.255  31.030  34.453  1.00  0.00    -0.248 NA
ATOM     52  C   UNL A   1      41.795  31.673  36.634  1.00  0.00     0.031 C 
ATOM     53  C   UNL A   1      43.258  27.758  32.225  1.00  0.00     0.029 A 
ATOM     54  C   UNL A   1      42.619  28.750  32.951  1.00  0.00     0.049 A 
ATOM     55  H   UNL A   1      40.993  29.973  32.380  1.00  0.00     0.167 HD
ATOM     56  C   UNL A   1      42.284  30.230  34.916  1.00  0.00     0.074 A 
ATOM     57  C   UNL A   1      42.603  30.695  36.253  1.00  0.00     0.031 C 
ATOM     58  C   UNL A   1      42.905  29.201  34.291  1.00  0.00     0.037 A 
BRANCH  45  59
ATOM     59  C   UNL A   1      40.736  27.896  28.648  1.00  0.00     0.064 A 
ATOM     60  C   UNL A   1      39.996  26.706  28.576  1.00  0.00     0.173 A 
ATOM     61  C   UNL A   1      41.479  28.269  27.515  1.00  0.00     0.173 A 
ATOM     62  F   UNL A   1      39.262  26.303  29.625  1.00  0.00    -0.203 F 
ATOM     63  C   UNL A   1      40.011  25.918  27.427  1.00  0.00     0.198 A 
ATOM     64  C   UNL A   1      41.469  27.493  26.358  1.00  0.00     0.198 A 
ATOM     65  F   UNL A   1      42.193  29.404  27.517  1.00  0.00    -0.203 F 
ATOM     66  F   UNL A   1      39.316  24.771  27.392  1.00  0.00    -0.200 F 
ATOM     67  C   UNL A   1      40.739  26.315  26.316  1.00  0.00     0.200 A 
ATOM     68  F   UNL A   1      42.155  27.892  25.278  1.00  0.00    -0.200 F 
ATOM     69  F   UNL A   1      40.736  25.566  25.205  1.00  0.00    -0.200 F 
ENDBRANCH  45  59
BRANCH  46  70
ATOM     70  C   UNL A   1      39.740  33.783  36.679  1.00  0.00     0.064 A 
ATOM     71  C   UNL A   1      40.318  35.052  36.785  1.00  0.00     0.173 A 
ATOM     72  C   UNL A   1      38.887  33.361  37.713  1.00  0.00     0.173 A 
ATOM     73  F   UNL A   1      41.143  35.494  35.824  1.00  0.00    -0.203 F 
ATOM     74  C   UNL A   1      40.063  35.867  37.885  1.00  0.00     0.198 A 
ATOM     75  C   UNL A   1      38.606  34.189  38.795  1.00  0.00     0.198 A 
ATOM     76  F   UNL A   1      38.293  32.160  37.646  1.00  0.00    -0.203 F 
ATOM     77  F   UNL A   1      40.654  37.065  37.978  1.00  0.00    -0.200 F 
ATOM     78  C   UNL A   1      39.200  35.439  38.883  1.00  0.00     0.200 A 
ATOM     79  F   UNL A   1      37.750  33.783  39.742  1.00  0.00    -0.200 F 
ATOM     80  F   UNL A   1      38.940  36.232  39.932  1.00  0.00    -0.200 F 
ENDBRANCH  46  70
BRANCH  58  81
ATOM     81  C   UNL A   1      43.991  28.512  35.063  1.00  0.00     0.064 A 
ATOM     82  C   UNL A   1      45.320  28.958  35.012  1.00  0.00     0.173 A 
ATOM     83  C   UNL A   1      43.703  27.388  35.852  1.00  0.00     0.173 A 
ATOM     84  F   UNL A   1      45.650  30.011  34.250  1.00  0.00    -0.203 F 
ATOM     85  C   UNL A   1      46.328  28.282  35.695  1.00  0.00     0.198 A 
ATOM     86  C   UNL A   1      44.708  26.736  36.561  1.00  0.00     0.198 A 
ATOM     87  F   UNL A   1      42.448  26.921  35.933  1.00  0.00    -0.203 F 
ATOM     88  F   UNL A   1      47.600  28.687  35.578  1.00  0.00    -0.200 F 
ATOM     89  C   UNL A   1      46.020  27.177  36.473  1.00  0.00     0.200 A 
ATOM     90  F   UNL A   1      44.408  25.674  37.320  1.00  0.00    -0.200 F 
ATOM     91  F   UNL A   1      46.991  26.527  37.130  1.00  0.00    -0.200 F 
ENDBRANCH  58  81
ENDBRANCH  32  33
ENDBRANCH  25  27
ENDBRANCH  24  25
ENDBRANCH  23  24
ENDBRANCH   1  23
TORSDOF 18
ENDMDL
