MODEL 1
REMARK VINA RESULT:     -12.7      0.000      0.000
REMARK SMILES O=C(COc1ccccc1/C=C1\C(=O)Nc2ccccc21)OCCOC(=O)c1ccc(-c2c3nc(c(-c4c(F)c(F)c(F)c(F)c4F)c4ccc([nH]4)c(-c4c(F)c(F)c(F)c(F)c4F)c4nc(c(-c5c(F)c(F)c(F)c(F)c5F)c5ccc2[nH]5)C=C4)C=C3)cc1
REMARK SMILES IDX 23 1 22 2 2 3 1 4 3 5 4 6 5 7 6 8 10 9 7 10 9 11 8 12 11 13
REMARK SMILES IDX 12 14 13 15 21 16 14 17 15 18 16 19 20 20 17 22 19 23 18 24
REMARK SMILES IDX 24 25 25 26 26 27 27 28 28 29 29 30 90 31 30 32 89 33 31 34
REMARK SMILES IDX 32 35 33 36 83 37 34 38 88 39 82 40 84 41 35 42 87 43 81 44
REMARK SMILES IDX 80 45 36 47 68 48 48 49 67 50 49 51 52 52 66 53 85 54 50 55
REMARK SMILES IDX 51 56 65 58 86 59 53 60 37 61 38 62 46 63 39 64 40 65 44 66
REMARK SMILES IDX 47 67 41 68 42 69 45 70 43 71 69 72 70 73 78 74 71 75 72 76
REMARK SMILES IDX 76 77 79 78 73 79 74 80 77 81 75 82 54 83 55 84 63 85 56 86
REMARK SMILES IDX 57 87 61 88 64 89 58 90 59 91 62 92 60 93
REMARK H PARENT 15 21 84 46 52 57
REMARK Flexibility Score: inf
ROOT
ATOM      1  C   UNL A   1      36.383  20.774  24.846  1.00  0.00     0.274 C 
ENDROOT
BRANCH   1   2
ATOM      2  O   UNL A   1      36.342  22.218  24.878  1.00  0.00    -0.460 OA
BRANCH   2   3
ATOM      3  C   UNL A   1      36.033  22.993  23.807  1.00  0.00     0.344 C 
ATOM      4  O   UNL A   1      36.668  22.884  22.760  1.00  0.00    -0.248 OA
BRANCH   3   5
ATOM      5  C   UNL A   1      34.873  23.962  23.926  1.00  0.00     0.352 C 
BRANCH   5   6
ATOM      6  O   UNL A   1      34.206  24.066  22.677  1.00  0.00    -0.481 OA
BRANCH   6   7
ATOM      7  C   UNL A   1      32.884  24.384  22.827  1.00  0.00     0.127 A 
ATOM      8  C   UNL A   1      32.556  25.746  22.794  1.00  0.00     0.047 A 
ATOM      9  C   UNL A   1      31.927  23.399  23.125  1.00  0.00     0.017 A 
ATOM     10  C   UNL A   1      31.260  26.149  23.090  1.00  0.00     0.004 A 
ATOM     11  C   UNL A   1      30.672  23.846  23.548  1.00  0.00     0.012 A 
ATOM     12  C   UNL A   1      30.328  25.203  23.500  1.00  0.00     0.001 A 
BRANCH   9  13
ATOM     13  C   UNL A   1      32.233  21.954  22.988  1.00  0.00     0.026 C 
ATOM     14  C   UNL A   1      32.447  21.068  23.981  1.00  0.00     0.050 C 
ATOM     15  C   UNL A   1      32.551  21.343  25.469  1.00  0.00     0.256 C 
ATOM     16  C   UNL A   1      32.671  19.614  23.827  1.00  0.00     0.011 A 
ATOM     17  O   UNL A   1      32.309  22.358  26.093  1.00  0.00    -0.269 OA
ATOM     18  N   UNL A   1      32.989  20.159  26.031  1.00  0.00    -0.321 N 
ATOM     19  C   UNL A   1      33.032  19.139  25.094  1.00  0.00     0.049 A 
ATOM     20  C   UNL A   1      32.510  18.714  22.787  1.00  0.00     0.011 A 
ATOM     21  H   UNL A   1      33.238  20.053  26.978  1.00  0.00     0.170 HD
ATOM     22  C   UNL A   1      33.306  17.812  25.361  1.00  0.00     0.027 A 
ATOM     23  C   UNL A   1      32.752  17.354  23.040  1.00  0.00     0.001 A 
ATOM     24  C   UNL A   1      33.160  16.909  24.312  1.00  0.00     0.002 A 
ENDBRANCH   9  13
ENDBRANCH   6   7
ENDBRANCH   5   6
ENDBRANCH   3   5
ENDBRANCH   2   3
ENDBRANCH   1   2
BRANCH   1  25
ATOM     25  C   UNL A   1      37.786  20.260  25.170  1.00  0.00     0.275 C 
BRANCH  25  26
ATOM     26  O   UNL A   1      38.654  21.362  25.495  1.00  0.00    -0.458 OA
BRANCH  26  27
ATOM     27  C   UNL A   1      39.581  21.118  26.460  1.00  0.00     0.338 C 
ATOM     28  O   UNL A   1      40.015  20.042  26.808  1.00  0.00    -0.246 OA
BRANCH  27  29
ATOM     29  C   UNL A   1      40.131  22.418  26.900  1.00  0.00     0.060 A 
ATOM     30  C   UNL A   1      39.605  23.593  26.349  1.00  0.00     0.016 A 
ATOM     31  C   UNL A   1      41.153  22.478  27.851  1.00  0.00     0.016 A 
ATOM     32  C   UNL A   1      40.107  24.835  26.741  1.00  0.00     0.010 A 
ATOM     33  C   UNL A   1      41.669  23.720  28.226  1.00  0.00     0.010 A 
ATOM     34  C   UNL A   1      41.166  24.902  27.655  1.00  0.00    -0.014 A 
BRANCH  34  35
ATOM     35  C   UNL A   1      41.878  26.182  27.883  1.00  0.00     0.031 A 
ATOM     36  C   UNL A   1      41.162  27.271  28.632  1.00  0.00     0.074 A 
ATOM     37  C   UNL A   1      43.125  26.384  27.426  1.00  0.00     0.049 A 
ATOM     38  N   UNL A   1      41.543  28.497  28.888  1.00  0.00    -0.248 NA
ATOM     39  C   UNL A   1      39.830  26.931  29.158  1.00  0.00     0.031 C 
ATOM     40  C   UNL A   1      43.938  25.397  26.720  1.00  0.00     0.029 A 
ATOM     41  N   UNL A   1      43.921  27.502  27.477  1.00  0.00    -0.354 N 
ATOM     42  C   UNL A   1      40.500  29.071  29.601  1.00  0.00     0.074 A 
ATOM     43  C   UNL A   1      39.456  28.076  29.708  1.00  0.00     0.031 C 
ATOM     44  C   UNL A   1      45.114  25.959  26.389  1.00  0.00     0.029 A 
ATOM     45  C   UNL A   1      45.123  27.353  26.831  1.00  0.00     0.049 A 
ATOM     46  H   UNL A   1      43.654  28.332  27.935  1.00  0.00     0.167 HD
ATOM     47  C   UNL A   1      40.425  30.316  30.130  1.00  0.00     0.037 A 
ATOM     48  C   UNL A   1      46.104  28.250  26.605  1.00  0.00     0.037 A 
ATOM     49  C   UNL A   1      41.460  31.308  30.016  1.00  0.00     0.049 A 
ATOM     50  C   UNL A   1      45.959  29.656  27.133  1.00  0.00     0.074 A 
ATOM     51  C   UNL A   1      41.481  32.594  30.529  1.00  0.00     0.029 A 
ATOM     52  N   UNL A   1      42.653  31.128  29.334  1.00  0.00    -0.354 N 
ATOM     53  N   UNL A   1      44.986  30.185  27.836  1.00  0.00    -0.248 NA
ATOM     54  C   UNL A   1      47.054  30.592  26.838  1.00  0.00     0.031 C 
ATOM     55  C   UNL A   1      42.662  33.212  30.107  1.00  0.00     0.029 A 
ATOM     56  C   UNL A   1      43.407  32.290  29.387  1.00  0.00     0.049 A 
ATOM     57  H   UNL A   1      42.925  30.299  28.879  1.00  0.00     0.167 HD
ATOM     58  C   UNL A   1      45.370  31.495  28.100  1.00  0.00     0.074 A 
ATOM     59  C   UNL A   1      46.667  31.681  27.489  1.00  0.00     0.031 C 
ATOM     60  C   UNL A   1      44.707  32.456  28.790  1.00  0.00     0.037 A 
BRANCH  47  61
ATOM     61  C   UNL A   1      39.165  30.683  30.856  1.00  0.00     0.064 A 
ATOM     62  C   UNL A   1      39.033  30.506  32.242  1.00  0.00     0.173 A 
ATOM     63  C   UNL A   1      38.086  31.251  30.162  1.00  0.00     0.173 A 
ATOM     64  F   UNL A   1      40.029  29.952  32.950  1.00  0.00    -0.203 F 
ATOM     65  C   UNL A   1      37.858  30.860  32.901  1.00  0.00     0.198 A 
ATOM     66  C   UNL A   1      36.926  31.633  30.828  1.00  0.00     0.198 A 
ATOM     67  F   UNL A   1      38.160  31.443  28.836  1.00  0.00    -0.203 F 
ATOM     68  F   UNL A   1      37.737  30.638  34.217  1.00  0.00    -0.200 F 
ATOM     69  C   UNL A   1      36.810  31.431  32.196  1.00  0.00     0.200 A 
ATOM     70  F   UNL A   1      35.918  32.196  30.148  1.00  0.00    -0.200 F 
ATOM     71  F   UNL A   1      35.684  31.780  32.833  1.00  0.00    -0.200 F 
ENDBRANCH  47  61
BRANCH  48  72
ATOM     72  C   UNL A   1      47.313  27.860  25.829  1.00  0.00     0.064 A 
ATOM     73  C   UNL A   1      47.296  27.830  24.427  1.00  0.00     0.173 A 
ATOM     74  C   UNL A   1      48.493  27.463  26.474  1.00  0.00     0.173 A 
ATOM     75  F   UNL A   1      46.181  28.171  23.764  1.00  0.00    -0.203 F 
ATOM     76  C   UNL A   1      48.402  27.392  23.702  1.00  0.00     0.198 A 
ATOM     77  C   UNL A   1      49.610  27.056  25.747  1.00  0.00     0.198 A 
ATOM     78  F   UNL A   1      48.562  27.467  27.814  1.00  0.00    -0.203 F 
ATOM     79  F   UNL A   1      48.337  27.313  22.366  1.00  0.00    -0.200 F 
ATOM     80  C   UNL A   1      49.560  27.010  24.362  1.00  0.00     0.200 A 
ATOM     81  F   UNL A   1      50.730  26.696  26.389  1.00  0.00    -0.200 F 
ATOM     82  F   UNL A   1      50.622  26.583  23.665  1.00  0.00    -0.200 F 
ENDBRANCH  48  72
BRANCH  60  83
ATOM     83  C   UNL A   1      45.392  33.783  28.972  1.00  0.00     0.064 A 
ATOM     84  C   UNL A   1      45.203  34.844  28.074  1.00  0.00     0.173 A 
ATOM     85  C   UNL A   1      46.206  34.010  30.093  1.00  0.00     0.173 A 
ATOM     86  F   UNL A   1      44.444  34.677  26.981  1.00  0.00    -0.203 F 
ATOM     87  C   UNL A   1      45.825  36.074  28.279  1.00  0.00     0.198 A 
ATOM     88  C   UNL A   1      46.799  35.250  30.311  1.00  0.00     0.198 A 
ATOM     89  F   UNL A   1      46.412  33.032  30.988  1.00  0.00    -0.203 F 
ATOM     90  F   UNL A   1      45.668  37.058  27.382  1.00  0.00    -0.200 F 
ATOM     91  C   UNL A   1      46.615  36.278  29.401  1.00  0.00     0.200 A 
ATOM     92  F   UNL A   1      47.545  35.451  31.406  1.00  0.00    -0.200 F 
ATOM     93  F   UNL A   1      47.201  37.466  29.601  1.00  0.00    -0.200 F 
ENDBRANCH  60  83
ENDBRANCH  34  35
ENDBRANCH  27  29
ENDBRANCH  26  27
ENDBRANCH  25  26
ENDBRANCH   1  25
TORSDOF 14
ENDMDL
MODEL 2
REMARK VINA RESULT:     -12.7      4.851      7.875
REMARK SMILES O=C(COc1ccccc1/C=C1\C(=O)Nc2ccccc21)OCCOC(=O)c1ccc(-c2c3nc(c(-c4c(F)c(F)c(F)c(F)c4F)c4ccc([nH]4)c(-c4c(F)c(F)c(F)c(F)c4F)c4nc(c(-c5c(F)c(F)c(F)c(F)c5F)c5ccc2[nH]5)C=C4)C=C3)cc1
REMARK SMILES IDX 23 1 22 2 2 3 1 4 3 5 4 6 5 7 6 8 10 9 7 10 9 11 8 12 11 13
REMARK SMILES IDX 12 14 13 15 21 16 14 17 15 18 16 19 20 20 17 22 19 23 18 24
REMARK SMILES IDX 24 25 25 26 26 27 27 28 28 29 29 30 90 31 30 32 89 33 31 34
REMARK SMILES IDX 32 35 33 36 83 37 34 38 88 39 82 40 84 41 35 42 87 43 81 44
REMARK SMILES IDX 80 45 36 47 68 48 48 49 67 50 49 51 52 52 66 53 85 54 50 55
REMARK SMILES IDX 51 56 65 58 86 59 53 60 37 61 38 62 46 63 39 64 40 65 44 66
REMARK SMILES IDX 47 67 41 68 42 69 45 70 43 71 69 72 70 73 78 74 71 75 72 76
REMARK SMILES IDX 76 77 79 78 73 79 74 80 77 81 75 82 54 83 55 84 63 85 56 86
REMARK SMILES IDX 57 87 61 88 64 89 58 90 59 91 62 92 60 93
REMARK H PARENT 15 21 84 46 52 57
REMARK Flexibility Score: inf
ROOT
ATOM      1  C   UNL A   1      31.727  30.067  25.719  1.00  0.00     0.274 C 
ENDROOT
BRANCH   1   2
ATOM      2  O   UNL A   1      32.500  29.052  26.398  1.00  0.00    -0.460 OA
BRANCH   2   3
ATOM      3  C   UNL A   1      31.957  27.975  27.020  1.00  0.00     0.344 C 
ATOM      4  O   UNL A   1      31.225  28.127  27.996  1.00  0.00    -0.248 OA
BRANCH   3   5
ATOM      5  C   UNL A   1      32.250  26.596  26.464  1.00  0.00     0.352 C 
BRANCH   5   6
ATOM      6  O   UNL A   1      31.122  25.753  26.656  1.00  0.00    -0.481 OA
BRANCH   6   7
ATOM      7  C   UNL A   1      31.077  24.742  25.736  1.00  0.00     0.127 A 
ATOM      8  C   UNL A   1      31.727  23.549  26.078  1.00  0.00     0.047 A 
ATOM      9  C   UNL A   1      30.512  24.939  24.464  1.00  0.00     0.017 A 
ATOM     10  C   UNL A   1      31.851  22.537  25.135  1.00  0.00     0.004 A 
ATOM     11  C   UNL A   1      30.771  23.959  23.501  1.00  0.00     0.012 A 
ATOM     12  C   UNL A   1      31.403  22.756  23.837  1.00  0.00     0.001 A 
BRANCH   9  13
ATOM     13  C   UNL A   1      29.674  26.125  24.162  1.00  0.00     0.026 C 
ATOM     14  C   UNL A   1      30.020  27.202  23.428  1.00  0.00     0.050 C 
ATOM     15  C   UNL A   1      31.377  27.527  22.833  1.00  0.00     0.256 C 
ATOM     16  C   UNL A   1      29.143  28.338  23.070  1.00  0.00     0.011 A 
ATOM     17  O   UNL A   1      32.376  26.840  22.746  1.00  0.00    -0.269 OA
ATOM     18  N   UNL A   1      31.271  28.824  22.368  1.00  0.00    -0.321 N 
ATOM     19  C   UNL A   1      29.971  29.295  22.471  1.00  0.00     0.049 A 
ATOM     20  C   UNL A   1      27.779  28.564  23.127  1.00  0.00     0.011 A 
ATOM     21  H   UNL A   1      32.023  29.347  22.008  1.00  0.00     0.170 HD
ATOM     22  C   UNL A   1      29.512  30.501  21.981  1.00  0.00     0.027 A 
ATOM     23  C   UNL A   1      27.281  29.770  22.607  1.00  0.00     0.001 A 
ATOM     24  C   UNL A   1      28.141  30.736  22.052  1.00  0.00     0.002 A 
ENDBRANCH   9  13
ENDBRANCH   6   7
ENDBRANCH   5   6
ENDBRANCH   3   5
ENDBRANCH   2   3
ENDBRANCH   1   2
BRANCH   1  25
ATOM     25  C   UNL A   1      31.776  31.392  26.482  1.00  0.00     0.275 C 
BRANCH  25  26
ATOM     26  O   UNL A   1      32.710  31.300  27.573  1.00  0.00    -0.458 OA
BRANCH  26  27
ATOM     27  C   UNL A   1      33.653  32.279  27.626  1.00  0.00     0.338 C 
ATOM     28  O   UNL A   1      33.492  33.466  27.447  1.00  0.00    -0.246 OA
BRANCH  27  29
ATOM     29  C   UNL A   1      34.903  31.678  28.136  1.00  0.00     0.060 A 
ATOM     30  C   UNL A   1      34.927  30.304  28.412  1.00  0.00     0.016 A 
ATOM     31  C   UNL A   1      36.044  32.459  28.335  1.00  0.00     0.016 A 
ATOM     32  C   UNL A   1      36.091  29.709  28.899  1.00  0.00     0.010 A 
ATOM     33  C   UNL A   1      37.202  31.866  28.843  1.00  0.00     0.010 A 
ATOM     34  C   UNL A   1      37.224  30.494  29.149  1.00  0.00    -0.014 A 
BRANCH  34  35
ATOM     35  C   UNL A   1      38.371  29.933  29.902  1.00  0.00     0.031 A 
ATOM     36  C   UNL A   1      38.607  30.417  31.306  1.00  0.00     0.074 A 
ATOM     37  C   UNL A   1      39.196  29.027  29.353  1.00  0.00     0.049 A 
ATOM     38  N   UNL A   1      39.581  30.136  32.133  1.00  0.00    -0.248 NA
ATOM     39  C   UNL A   1      37.607  31.354  31.847  1.00  0.00     0.031 C 
ATOM     40  C   UNL A   1      39.054  28.451  28.018  1.00  0.00     0.029 A 
ATOM     41  N   UNL A   1      40.334  28.442  29.853  1.00  0.00    -0.354 N 
ATOM     42  C   UNL A   1      39.313  30.859  33.287  1.00  0.00     0.074 A 
ATOM     43  C   UNL A   1      38.107  31.620  33.044  1.00  0.00     0.031 C 
ATOM     44  C   UNL A   1      40.077  27.606  27.797  1.00  0.00     0.029 A 
ATOM     45  C   UNL A   1      40.961  27.606  28.963  1.00  0.00     0.049 A 
ATOM     46  H   UNL A   1      40.668  28.606  30.765  1.00  0.00     0.167 HD
ATOM     47  C   UNL A   1      40.006  30.879  34.450  1.00  0.00     0.037 A 
ATOM     48  C   UNL A   1      42.127  26.938  29.072  1.00  0.00     0.037 A 
ATOM     49  C   UNL A   1      41.210  30.129  34.688  1.00  0.00     0.049 A 
ATOM     50  C   UNL A   1      42.924  27.042  30.350  1.00  0.00     0.074 A 
ATOM     51  C   UNL A   1      41.977  30.073  35.839  1.00  0.00     0.029 A 
ATOM     52  N   UNL A   1      41.827  29.312  33.754  1.00  0.00    -0.354 N 
ATOM     53  N   UNL A   1      42.649  27.700  31.450  1.00  0.00    -0.248 NA
ATOM     54  C   UNL A   1      44.196  26.306  30.401  1.00  0.00     0.031 C 
ATOM     55  C   UNL A   1      43.091  29.268  35.582  1.00  0.00     0.029 A 
ATOM     56  C   UNL A   1      42.984  28.769  34.293  1.00  0.00     0.049 A 
ATOM     57  H   UNL A   1      41.494  29.141  32.844  1.00  0.00     0.167 HD
ATOM     58  C   UNL A   1      43.687  27.424  32.333  1.00  0.00     0.074 A 
ATOM     59  C   UNL A   1      44.595  26.534  31.644  1.00  0.00     0.031 C 
ATOM     60  C   UNL A   1      43.870  27.867  33.602  1.00  0.00     0.037 A 
BRANCH  47  61
ATOM     61  C   UNL A   1      39.491  31.763  35.546  1.00  0.00     0.064 A 
ATOM     62  C   UNL A   1      38.537  31.313  36.472  1.00  0.00     0.173 A 
ATOM     63  C   UNL A   1      39.983  33.069  35.694  1.00  0.00     0.173 A 
ATOM     64  F   UNL A   1      38.023  30.079  36.365  1.00  0.00    -0.203 F 
ATOM     65  C   UNL A   1      38.077  32.146  37.488  1.00  0.00     0.198 A 
ATOM     66  C   UNL A   1      39.544  33.888  36.729  1.00  0.00     0.198 A 
ATOM     67  F   UNL A   1      40.897  33.548  34.836  1.00  0.00    -0.203 F 
ATOM     68  F   UNL A   1      37.130  31.711  38.331  1.00  0.00    -0.200 F 
ATOM     69  C   UNL A   1      38.586  33.429  37.621  1.00  0.00     0.200 A 
ATOM     70  F   UNL A   1      40.046  35.123  36.865  1.00  0.00    -0.200 F 
ATOM     71  F   UNL A   1      38.149  34.225  38.606  1.00  0.00    -0.200 F 
ENDBRANCH  47  61
BRANCH  48  72
ATOM     72  C   UNL A   1      42.630  26.116  27.938  1.00  0.00     0.064 A 
ATOM     73  C   UNL A   1      42.312  24.755  27.833  1.00  0.00     0.173 A 
ATOM     74  C   UNL A   1      43.477  26.663  26.963  1.00  0.00     0.173 A 
ATOM     75  F   UNL A   1      41.529  24.177  28.757  1.00  0.00    -0.203 F 
ATOM     76  C   UNL A   1      42.843  23.966  26.814  1.00  0.00     0.198 A 
ATOM     77  C   UNL A   1      43.983  25.880  25.927  1.00  0.00     0.198 A 
ATOM     78  F   UNL A   1      43.819  27.959  27.019  1.00  0.00    -0.203 F 
ATOM     79  F   UNL A   1      42.572  22.654  26.775  1.00  0.00    -0.200 F 
ATOM     80  C   UNL A   1      43.674  24.530  25.859  1.00  0.00     0.200 A 
ATOM     81  F   UNL A   1      44.779  26.432  25.001  1.00  0.00    -0.200 F 
ATOM     82  F   UNL A   1      44.190  23.771  24.884  1.00  0.00    -0.200 F 
ENDBRANCH  48  72
BRANCH  60  83
ATOM     83  C   UNL A   1      45.067  27.357  34.354  1.00  0.00     0.064 A 
ATOM     84  C   UNL A   1      46.285  28.053  34.371  1.00  0.00     0.173 A 
ATOM     85  C   UNL A   1      44.976  26.179  35.113  1.00  0.00     0.173 A 
ATOM     86  F   UNL A   1      46.430  29.178  33.654  1.00  0.00    -0.203 F 
ATOM     87  C   UNL A   1      47.373  27.576  35.099  1.00  0.00     0.198 A 
ATOM     88  C   UNL A   1      46.054  25.723  35.866  1.00  0.00     0.198 A 
ATOM     89  F   UNL A   1      43.831  25.480  35.140  1.00  0.00    -0.203 F 
ATOM     90  F   UNL A   1      48.540  28.233  35.063  1.00  0.00    -0.200 F 
ATOM     91  C   UNL A   1      47.254  26.417  35.853  1.00  0.00     0.200 A 
ATOM     92  F   UNL A   1      45.931  24.614  36.608  1.00  0.00    -0.200 F 
ATOM     93  F   UNL A   1      48.298  25.967  36.562  1.00  0.00    -0.200 F 
ENDBRANCH  60  83
ENDBRANCH  34  35
ENDBRANCH  27  29
ENDBRANCH  26  27
ENDBRANCH  25  26
ENDBRANCH   1  25
TORSDOF 14
ENDMDL
MODEL 3
REMARK VINA RESULT:     -12.7      4.775      7.800
REMARK SMILES O=C(COc1ccccc1/C=C1\C(=O)Nc2ccccc21)OCCOC(=O)c1ccc(-c2c3nc(c(-c4c(F)c(F)c(F)c(F)c4F)c4ccc([nH]4)c(-c4c(F)c(F)c(F)c(F)c4F)c4nc(c(-c5c(F)c(F)c(F)c(F)c5F)c5ccc2[nH]5)C=C4)C=C3)cc1
REMARK SMILES IDX 23 1 22 2 2 3 1 4 3 5 4 6 5 7 6 8 10 9 7 10 9 11 8 12 11 13
REMARK SMILES IDX 12 14 13 15 21 16 14 17 15 18 16 19 20 20 17 22 19 23 18 24
REMARK SMILES IDX 24 25 25 26 26 27 27 28 28 29 29 30 90 31 30 32 89 33 31 34
REMARK SMILES IDX 32 35 33 36 83 37 34 38 88 39 82 40 84 41 35 42 87 43 81 44
REMARK SMILES IDX 80 45 36 47 68 48 48 49 67 50 49 51 52 52 66 53 85 54 50 55
REMARK SMILES IDX 51 56 65 58 86 59 53 60 37 61 38 62 46 63 39 64 40 65 44 66
REMARK SMILES IDX 47 67 41 68 42 69 45 70 43 71 69 72 70 73 78 74 71 75 72 76
REMARK SMILES IDX 76 77 79 78 73 79 74 80 77 81 75 82 54 83 55 84 63 85 56 86
REMARK SMILES IDX 57 87 61 88 64 89 58 90 59 91 62 92 60 93
REMARK H PARENT 15 21 84 46 52 57
REMARK Flexibility Score: inf
ROOT
ATOM      1  C   UNL A   1      31.717  30.046  25.685  1.00  0.00     0.274 C 
ENDROOT
BRANCH   1   2
ATOM      2  O   UNL A   1      32.503  28.992  26.285  1.00  0.00    -0.460 OA
BRANCH   2   3
ATOM      3  C   UNL A   1      31.972  27.911  26.911  1.00  0.00     0.344 C 
ATOM      4  O   UNL A   1      31.220  28.060  27.872  1.00  0.00    -0.248 OA
BRANCH   3   5
ATOM      5  C   UNL A   1      32.303  26.532  26.377  1.00  0.00     0.352 C 
BRANCH   5   6
ATOM      6  O   UNL A   1      31.204  25.659  26.592  1.00  0.00    -0.481 OA
BRANCH   6   7
ATOM      7  C   UNL A   1      31.153  24.660  25.659  1.00  0.00     0.127 A 
ATOM      8  C   UNL A   1      31.803  23.462  25.983  1.00  0.00     0.047 A 
ATOM      9  C   UNL A   1      30.583  24.875  24.392  1.00  0.00     0.017 A 
ATOM     10  C   UNL A   1      31.920  22.462  25.025  1.00  0.00     0.004 A 
ATOM     11  C   UNL A   1      30.836  23.908  23.415  1.00  0.00     0.012 A 
ATOM     12  C   UNL A   1      31.468  22.699  23.732  1.00  0.00     0.001 A 
BRANCH   9  13
ATOM     13  C   UNL A   1      29.747  26.067  24.110  1.00  0.00     0.026 C 
ATOM     14  C   UNL A   1      30.077  27.134  23.355  1.00  0.00     0.050 C 
ATOM     15  C   UNL A   1      31.415  27.442  22.709  1.00  0.00     0.256 C 
ATOM     16  C   UNL A   1      29.199  28.276  23.019  1.00  0.00     0.011 A 
ATOM     17  O   UNL A   1      32.403  26.744  22.594  1.00  0.00    -0.269 OA
ATOM     18  N   UNL A   1      31.305  28.736  22.237  1.00  0.00    -0.321 N 
ATOM     19  C   UNL A   1      30.014  29.220  22.382  1.00  0.00     0.049 A 
ATOM     20  C   UNL A   1      27.839  28.515  23.121  1.00  0.00     0.011 A 
ATOM     21  H   UNL A   1      32.049  29.249  21.847  1.00  0.00     0.170 HD
ATOM     22  C   UNL A   1      29.549  30.427  21.898  1.00  0.00     0.027 A 
ATOM     23  C   UNL A   1      27.335  29.722  22.609  1.00  0.00     0.001 A 
ATOM     24  C   UNL A   1      28.184  30.675  22.015  1.00  0.00     0.002 A 
ENDBRANCH   9  13
ENDBRANCH   6   7
ENDBRANCH   5   6
ENDBRANCH   3   5
ENDBRANCH   2   3
ENDBRANCH   1   2
BRANCH   1  25
ATOM     25  C   UNL A   1      31.795  31.327  26.517  1.00  0.00     0.275 C 
BRANCH  25  26
ATOM     26  O   UNL A   1      32.782  31.183  27.555  1.00  0.00    -0.458 OA
BRANCH  26  27
ATOM     27  C   UNL A   1      33.691  32.191  27.647  1.00  0.00     0.338 C 
ATOM     28  O   UNL A   1      33.492  33.377  27.505  1.00  0.00    -0.246 OA
BRANCH  27  29
ATOM     29  C   UNL A   1      34.957  31.615  28.148  1.00  0.00     0.060 A 
ATOM     30  C   UNL A   1      35.008  30.244  28.433  1.00  0.00     0.016 A 
ATOM     31  C   UNL A   1      36.086  32.417  28.331  1.00  0.00     0.016 A 
ATOM     32  C   UNL A   1      36.187  29.673  28.912  1.00  0.00     0.010 A 
ATOM     33  C   UNL A   1      37.259  31.848  28.830  1.00  0.00     0.010 A 
ATOM     34  C   UNL A   1      37.308  30.479  29.146  1.00  0.00    -0.014 A 
BRANCH  34  35
ATOM     35  C   UNL A   1      38.473  29.944  29.891  1.00  0.00     0.031 A 
ATOM     36  C   UNL A   1      38.717  30.444  31.287  1.00  0.00     0.074 A 
ATOM     37  C   UNL A   1      39.307  29.045  29.340  1.00  0.00     0.049 A 
ATOM     38  N   UNL A   1      39.704  30.187  32.105  1.00  0.00    -0.248 NA
ATOM     39  C   UNL A   1      37.708  31.369  31.831  1.00  0.00     0.031 C 
ATOM     40  C   UNL A   1      39.159  28.456  28.012  1.00  0.00     0.029 A 
ATOM     41  N   UNL A   1      40.459  28.483  29.832  1.00  0.00    -0.354 N 
ATOM     42  C   UNL A   1      39.438  30.915  33.256  1.00  0.00     0.074 A 
ATOM     43  C   UNL A   1      38.217  31.654  33.020  1.00  0.00     0.031 C 
ATOM     44  C   UNL A   1      40.192  27.625  27.787  1.00  0.00     0.029 A 
ATOM     45  C   UNL A   1      41.089  27.650  28.943  1.00  0.00     0.049 A 
ATOM     46  H   UNL A   1      40.800  28.661  30.739  1.00  0.00     0.167 HD
ATOM     47  C   UNL A   1      40.143  30.957  34.411  1.00  0.00     0.037 A 
ATOM     48  C   UNL A   1      42.267  27.002  29.045  1.00  0.00     0.037 A 
ATOM     49  C   UNL A   1      41.362  30.229  34.642  1.00  0.00     0.049 A 
ATOM     50  C   UNL A   1      43.077  27.131  30.312  1.00  0.00     0.074 A 
ATOM     51  C   UNL A   1      42.142  30.196  35.784  1.00  0.00     0.029 A 
ATOM     52  N   UNL A   1      41.982  29.413  33.709  1.00  0.00    -0.354 N 
ATOM     53  N   UNL A   1      42.804  27.794  31.410  1.00  0.00    -0.248 NA
ATOM     54  C   UNL A   1      44.361  26.415  30.356  1.00  0.00     0.031 C 
ATOM     55  C   UNL A   1      43.266  29.406  35.522  1.00  0.00     0.029 A 
ATOM     56  C   UNL A   1      43.153  28.894  34.239  1.00  0.00     0.049 A 
ATOM     57  H   UNL A   1      41.641  29.228  32.803  1.00  0.00     0.167 HD
ATOM     58  C   UNL A   1      43.856  27.543  32.284  1.00  0.00     0.074 A 
ATOM     59  C   UNL A   1      44.770  26.660  31.592  1.00  0.00     0.031 C 
ATOM     60  C   UNL A   1      44.045  28.000  33.546  1.00  0.00     0.037 A 
BRANCH  47  61
ATOM     61  C   UNL A   1      39.626  31.843  35.505  1.00  0.00     0.064 A 
ATOM     62  C   UNL A   1      38.650  31.403  36.412  1.00  0.00     0.173 A 
ATOM     63  C   UNL A   1      40.138  33.139  35.669  1.00  0.00     0.173 A 
ATOM     64  F   UNL A   1      38.116  30.179  36.289  1.00  0.00    -0.203 F 
ATOM     65  C   UNL A   1      38.188  32.237  37.427  1.00  0.00     0.198 A 
ATOM     66  C   UNL A   1      39.697  33.958  36.703  1.00  0.00     0.198 A 
ATOM     67  F   UNL A   1      41.074  33.608  34.830  1.00  0.00    -0.203 F 
ATOM     68  F   UNL A   1      37.221  31.813  38.252  1.00  0.00    -0.200 F 
ATOM     69  C   UNL A   1      38.717  33.510  37.577  1.00  0.00     0.200 A 
ATOM     70  F   UNL A   1      40.218  35.183  36.855  1.00  0.00    -0.200 F 
ATOM     71  F   UNL A   1      38.279  34.308  38.560  1.00  0.00    -0.200 F 
ENDBRANCH  47  61
BRANCH  48  72
ATOM     72  C   UNL A   1      42.771  26.178  27.912  1.00  0.00     0.064 A 
ATOM     73  C   UNL A   1      43.608  26.729  26.932  1.00  0.00     0.173 A 
ATOM     74  C   UNL A   1      42.388  24.837  27.762  1.00  0.00     0.173 A 
ATOM     75  F   UNL A   1      43.979  28.015  27.014  1.00  0.00    -0.203 F 
ATOM     76  C   UNL A   1      44.020  25.980  25.831  1.00  0.00     0.198 A 
ATOM     77  C   UNL A   1      42.825  24.080  26.677  1.00  0.00     0.198 A 
ATOM     78  F   UNL A   1      41.583  24.261  28.668  1.00  0.00    -0.203 F 
ATOM     79  F   UNL A   1      44.767  26.551  24.876  1.00  0.00    -0.200 F 
ATOM     80  C   UNL A   1      43.632  24.655  25.706  1.00  0.00     0.200 A 
ATOM     81  F   UNL A   1      42.455  22.797  26.566  1.00  0.00    -0.200 F 
ATOM     82  F   UNL A   1      44.021  23.937  24.644  1.00  0.00    -0.200 F 
ENDBRANCH  48  72
BRANCH  60  83
ATOM     83  C   UNL A   1      45.260  27.516  34.289  1.00  0.00     0.064 A 
ATOM     84  C   UNL A   1      45.243  26.340  35.052  1.00  0.00     0.173 A 
ATOM     85  C   UNL A   1      46.474  28.215  34.189  1.00  0.00     0.173 A 
ATOM     86  F   UNL A   1      44.107  25.640  35.190  1.00  0.00    -0.203 F 
ATOM     87  C   UNL A   1      46.389  25.896  35.709  1.00  0.00     0.198 A 
ATOM     88  C   UNL A   1      47.624  27.751  34.819  1.00  0.00     0.198 A 
ATOM     89  F   UNL A   1      46.547  29.341  33.463  1.00  0.00    -0.203 F 
ATOM     90  F   UNL A   1      46.337  24.795  36.471  1.00  0.00    -0.200 F 
ATOM     91  C   UNL A   1      47.580  26.596  35.584  1.00  0.00     0.200 A 
ATOM     92  F   UNL A   1      48.778  28.418  34.682  1.00  0.00    -0.200 F 
ATOM     93  F   UNL A   1      48.683  26.160  36.206  1.00  0.00    -0.200 F 
ENDBRANCH  60  83
ENDBRANCH  34  35
ENDBRANCH  27  29
ENDBRANCH  26  27
ENDBRANCH  25  26
ENDBRANCH   1  25
TORSDOF 14
ENDMDL
