MODEL 1
REMARK VINA RESULT:     -13.5      0.000      0.000
REMARK SMILES Cc1nc(-c2ccccc2)sc1C(=O)N[C@@H](CC1=c2ccccc2=NC1)C(=O)OCCOC(=O)c1ccc(-c2c3nc(c(-c4c(F)c(F)c(F)c(F)c4F)c4ccc([nH]4)c(-c4c(F)c(F)c(F)c(F)c4F)c4nc(c(-c5c(F)c(F)c(F)c(F)c5F)c5ccc2[nH]5)C=C4)C=C3)cc1
REMARK SMILES IDX 30 1 29 2 27 3 28 4 16 5 15 6 13 7 14 8 12 10 1 11 2 12 3 13
REMARK SMILES IDX 4 14 11 15 5 16 6 17 10 18 7 19 9 20 8 21 17 22 18 23 19 24
REMARK SMILES IDX 26 25 20 26 24 27 25 28 21 29 23 30 22 31 31 32 32 33 33 34
REMARK SMILES IDX 34 35 35 36 36 37 97 38 37 39 96 40 38 41 39 42 40 43 90 44
REMARK SMILES IDX 41 45 95 46 89 47 91 48 42 49 94 50 88 51 87 52 43 54 75 55
REMARK SMILES IDX 55 56 74 57 56 58 59 59 73 60 92 61 57 62 58 63 72 65 93 66
REMARK SMILES IDX 60 67 44 68 45 69 53 70 46 71 47 72 51 73 54 74 48 75 49 76
REMARK SMILES IDX 52 77 50 78 76 79 77 80 85 81 78 82 79 83 83 84 86 85 80 86
REMARK SMILES IDX 81 87 84 88 82 89 61 90 62 91 70 92 63 93 64 94 68 95 71 96
REMARK SMILES IDX 65 97 66 98 69 99 67 100
REMARK H PARENT 15 9 91 53 59 64
REMARK Flexibility Score: inf
ROOT
ATOM      1  C   UNL A   1      31.466  29.084  25.927  1.00  0.00     0.274 C 
ENDROOT
BRANCH   1   2
ATOM      2  O   UNL A   1      31.791  27.941  26.743  1.00  0.00    -0.461 OA
BRANCH   2   3
ATOM      3  C   UNL A   1      32.914  27.262  26.391  1.00  0.00     0.329 C 
ATOM      4  O   UNL A   1      34.046  27.733  26.364  1.00  0.00    -0.250 OA
BRANCH   3   5
ATOM      5  C   UNL A   1      32.629  25.818  25.960  1.00  0.00     0.196 C 
BRANCH   5   6
ATOM      6  N   UNL A   1      31.523  25.151  26.635  1.00  0.00    -0.338 N 
ATOM      7  C   UNL A   1      31.165  23.836  26.794  1.00  0.00     0.264 C 
ATOM      8  O   UNL A   1      30.026  23.688  27.251  1.00  0.00    -0.268 OA
ATOM      9  H   UNL A   1      30.901  25.778  27.070  1.00  0.00     0.164 HD
BRANCH   7  10
ATOM     10  C   UNL A   1      32.042  22.699  26.516  1.00  0.00     0.115 A 
ATOM     11  C   UNL A   1      34.156  22.578  28.087  1.00  0.00     0.068 C 
ATOM     12  C   UNL A   1      33.213  22.139  27.029  1.00  0.00     0.062 A 
ATOM     13  N   UNL A   1      33.617  20.962  26.416  1.00  0.00    -0.241 NA
ATOM     14  C   UNL A   1      32.903  20.705  25.349  1.00  0.00     0.124 A 
ATOM     15  S   UNL A   1      31.589  21.759  25.105  1.00  0.00    -0.108 S 
BRANCH  14  16
ATOM     16  C   UNL A   1      33.178  19.585  24.454  1.00  0.00     0.010 A 
ATOM     17  C   UNL A   1      32.302  19.331  23.391  1.00  0.00     0.011 A 
ATOM     18  C   UNL A   1      34.231  18.692  24.693  1.00  0.00     0.011 A 
ATOM     19  C   UNL A   1      32.485  18.223  22.564  1.00  0.00     0.001 A 
ATOM     20  C   UNL A   1      34.402  17.570  23.876  1.00  0.00     0.001 A 
ATOM     21  C   UNL A   1      33.533  17.341  22.810  1.00  0.00     0.000 A 
ENDBRANCH  14  16
ENDBRANCH   7  10
ENDBRANCH   5   6
BRANCH   5  22
ATOM     22  C   UNL A   1      32.442  25.766  24.429  1.00  0.00     0.070 C 
BRANCH  22  23
ATOM     23  C   UNL A   1      33.343  24.793  23.733  1.00  0.00    -0.037 C 
ATOM     24  C   UNL A   1      34.515  24.317  24.145  1.00  0.00     0.001 A 
ATOM     25  C   UNL A   1      32.972  24.208  22.403  1.00  0.00     0.174 C 
ATOM     26  C   UNL A   1      35.349  24.518  25.285  1.00  0.00     0.010 A 
ATOM     27  C   UNL A   1      34.842  23.326  23.108  1.00  0.00     0.065 A 
ATOM     28  N   UNL A   1      34.029  23.216  22.101  1.00  0.00    -0.280 NA
ATOM     29  C   UNL A   1      36.439  23.748  25.428  1.00  0.00     0.001 A 
ATOM     30  C   UNL A   1      36.059  22.518  23.335  1.00  0.00     0.028 A 
ATOM     31  C   UNL A   1      36.784  22.732  24.447  1.00  0.00     0.002 A 
ENDBRANCH  22  23
ENDBRANCH   5  22
ENDBRANCH   3   5
ENDBRANCH   2   3
ENDBRANCH   1   2
BRANCH   1  32
ATOM     32  C   UNL A   1      31.751  30.383  26.681  1.00  0.00     0.275 C 
BRANCH  32  33
ATOM     33  O   UNL A   1      33.070  30.878  26.380  1.00  0.00    -0.458 OA
BRANCH  33  34
ATOM     34  C   UNL A   1      33.533  31.802  27.253  1.00  0.00     0.338 C 
ATOM     35  O   UNL A   1      32.973  32.822  27.628  1.00  0.00    -0.246 OA
BRANCH  34  36
ATOM     36  C   UNL A   1      34.822  31.372  27.804  1.00  0.00     0.060 A 
ATOM     37  C   UNL A   1      34.946  30.054  28.236  1.00  0.00     0.016 A 
ATOM     38  C   UNL A   1      35.841  32.292  28.040  1.00  0.00     0.016 A 
ATOM     39  C   UNL A   1      36.068  29.656  28.955  1.00  0.00     0.010 A 
ATOM     40  C   UNL A   1      36.993  31.880  28.723  1.00  0.00     0.010 A 
ATOM     41  C   UNL A   1      37.104  30.565  29.213  1.00  0.00    -0.014 A 
BRANCH  41  42
ATOM     42  C   UNL A   1      38.255  30.148  30.058  1.00  0.00     0.031 A 
ATOM     43  C   UNL A   1      39.318  29.245  29.492  1.00  0.00     0.074 A 
ATOM     44  C   UNL A   1      38.407  30.652  31.298  1.00  0.00     0.049 A 
ATOM     45  N   UNL A   1      40.352  28.706  30.091  1.00  0.00    -0.248 NA
ATOM     46  C   UNL A   1      39.216  28.921  28.061  1.00  0.00     0.031 C 
ATOM     47  C   UNL A   1      37.503  31.605  31.940  1.00  0.00     0.029 A 
ATOM     48  N   UNL A   1      39.394  30.447  32.232  1.00  0.00    -0.354 N 
ATOM     49  C   UNL A   1      41.015  27.975  29.115  1.00  0.00     0.074 A 
ATOM     50  C   UNL A   1      40.253  28.111  27.892  1.00  0.00     0.031 C 
ATOM     51  C   UNL A   1      37.991  31.927  33.148  1.00  0.00     0.029 A 
ATOM     52  C   UNL A   1      39.200  31.149  33.397  1.00  0.00     0.049 A 
ATOM     53  H   UNL A   1      40.166  29.855  32.081  1.00  0.00     0.167 HD
ATOM     54  C   UNL A   1      42.171  27.277  29.219  1.00  0.00     0.037 A 
ATOM     55  C   UNL A   1      39.895  31.139  34.551  1.00  0.00     0.037 A 
ATOM     56  C   UNL A   1      42.966  27.181  30.414  1.00  0.00     0.049 A 
ATOM     57  C   UNL A   1      41.098  30.247  34.683  1.00  0.00     0.074 A 
ATOM     58  C   UNL A   1      44.154  26.498  30.609  1.00  0.00     0.029 A 
ATOM     59  N   UNL A   1      42.661  27.800  31.617  1.00  0.00    -0.354 N 
ATOM     60  N   UNL A   1      41.671  29.493  33.778  1.00  0.00    -0.248 NA
ATOM     61  C   UNL A   1      41.735  30.187  36.007  1.00  0.00     0.031 C 
ATOM     62  C   UNL A   1      44.556  26.684  31.936  1.00  0.00     0.029 A 
ATOM     63  C   UNL A   1      43.634  27.508  32.559  1.00  0.00     0.049 A 
ATOM     64  H   UNL A   1      41.869  28.363  31.777  1.00  0.00     0.167 HD
ATOM     65  C   UNL A   1      42.736  28.875  34.417  1.00  0.00     0.074 A 
ATOM     66  C   UNL A   1      42.745  29.358  35.783  1.00  0.00     0.031 C 
ATOM     67  C   UNL A   1      43.626  27.984  33.917  1.00  0.00     0.037 A 
BRANCH  54  68
ATOM     68  C   UNL A   1      42.648  26.549  28.000  1.00  0.00     0.064 A 
ATOM     69  C   UNL A   1      43.477  27.167  27.054  1.00  0.00     0.173 A 
ATOM     70  C   UNL A   1      42.311  25.202  27.803  1.00  0.00     0.173 A 
ATOM     71  F   UNL A   1      43.821  28.454  27.196  1.00  0.00    -0.203 F 
ATOM     72  C   UNL A   1      43.937  26.466  25.941  1.00  0.00     0.198 A 
ATOM     73  C   UNL A   1      42.789  24.499  26.701  1.00  0.00     0.198 A 
ATOM     74  F   UNL A   1      41.527  24.565  28.686  1.00  0.00    -0.203 F 
ATOM     75  F   UNL A   1      44.704  27.083  25.033  1.00  0.00    -0.200 F 
ATOM     76  C   UNL A   1      43.597  25.133  25.769  1.00  0.00     0.200 A 
ATOM     77  F   UNL A   1      42.470  23.207  26.542  1.00  0.00    -0.200 F 
ATOM     78  F   UNL A   1      44.048  24.457  24.703  1.00  0.00    -0.200 F 
ENDBRANCH  54  68
BRANCH  55  79
ATOM     79  C   UNL A   1      39.434  31.963  35.699  1.00  0.00     0.064 A 
ATOM     80  C   UNL A   1      39.953  33.244  35.929  1.00  0.00     0.173 A 
ATOM     81  C   UNL A   1      38.472  31.477  36.599  1.00  0.00     0.173 A 
ATOM     82  F   UNL A   1      40.898  33.737  35.117  1.00  0.00    -0.203 F 
ATOM     83  C   UNL A   1      39.530  34.005  37.017  1.00  0.00     0.198 A 
ATOM     84  C   UNL A   1      38.030  32.250  37.668  1.00  0.00     0.198 A 
ATOM     85  F   UNL A   1      37.952  30.252  36.429  1.00  0.00    -0.203 F 
ATOM     86  F   UNL A   1      40.071  35.212  37.237  1.00  0.00    -0.200 F 
ATOM     87  C   UNL A   1      38.564  33.512  37.880  1.00  0.00     0.200 A 
ATOM     88  F   UNL A   1      37.088  31.771  38.494  1.00  0.00    -0.200 F 
ATOM     89  F   UNL A   1      38.153  34.247  38.922  1.00  0.00    -0.200 F 
ENDBRANCH  55  79
BRANCH  67  90
ATOM     90  C   UNL A   1      44.687  27.480  34.849  1.00  0.00     0.064 A 
ATOM     91  C   UNL A   1      45.903  28.161  35.005  1.00  0.00     0.173 A 
ATOM     92  C   UNL A   1      44.478  26.321  35.610  1.00  0.00     0.173 A 
ATOM     93  F   UNL A   1      46.155  29.264  34.285  1.00  0.00    -0.203 F 
ATOM     94  C   UNL A   1      46.878  27.691  35.880  1.00  0.00     0.198 A 
ATOM     95  C   UNL A   1      45.448  25.865  36.500  1.00  0.00     0.198 A 
ATOM     96  F   UNL A   1      43.332  25.635  35.497  1.00  0.00    -0.203 F 
ATOM     97  F   UNL A   1      48.049  28.335  35.985  1.00  0.00    -0.200 F 
ATOM     98  C   UNL A   1      46.648  26.547  36.629  1.00  0.00     0.200 A 
ATOM     99  F   UNL A   1      45.221  24.765  37.230  1.00  0.00    -0.200 F 
ATOM    100  F   UNL A   1      47.588  26.096  37.472  1.00  0.00    -0.200 F 
ENDBRANCH  67  90
ENDBRANCH  41  42
ENDBRANCH  34  36
ENDBRANCH  33  34
ENDBRANCH  32  33
ENDBRANCH   1  32
TORSDOF 16
ENDMDL
MODEL 2
REMARK VINA RESULT:     -13.3      1.118      7.243
REMARK SMILES Cc1nc(-c2ccccc2)sc1C(=O)N[C@@H](CC1=c2ccccc2=NC1)C(=O)OCCOC(=O)c1ccc(-c2c3nc(c(-c4c(F)c(F)c(F)c(F)c4F)c4ccc([nH]4)c(-c4c(F)c(F)c(F)c(F)c4F)c4nc(c(-c5c(F)c(F)c(F)c(F)c5F)c5ccc2[nH]5)C=C4)C=C3)cc1
REMARK SMILES IDX 30 1 29 2 27 3 28 4 16 5 15 6 13 7 14 8 12 10 1 11 2 12 3 13
REMARK SMILES IDX 4 14 11 15 5 16 6 17 10 18 7 19 9 20 8 21 17 22 18 23 19 24
REMARK SMILES IDX 26 25 20 26 24 27 25 28 21 29 23 30 22 31 31 32 32 33 33 34
REMARK SMILES IDX 34 35 35 36 36 37 97 38 37 39 96 40 38 41 39 42 40 43 90 44
REMARK SMILES IDX 41 45 95 46 89 47 91 48 42 49 94 50 88 51 87 52 43 54 75 55
REMARK SMILES IDX 55 56 74 57 56 58 59 59 73 60 92 61 57 62 58 63 72 65 93 66
REMARK SMILES IDX 60 67 44 68 45 69 53 70 46 71 47 72 51 73 54 74 48 75 49 76
REMARK SMILES IDX 52 77 50 78 76 79 77 80 85 81 78 82 79 83 83 84 86 85 80 86
REMARK SMILES IDX 81 87 84 88 82 89 61 90 62 91 70 92 63 93 64 94 68 95 71 96
REMARK SMILES IDX 65 97 66 98 69 99 67 100
REMARK H PARENT 15 9 91 53 59 64
REMARK Flexibility Score: inf
ROOT
ATOM      1  C   UNL A   1      31.417  29.239  25.315  1.00  0.00     0.274 C 
ENDROOT
BRANCH   1   2
ATOM      2  O   UNL A   1      32.391  28.283  25.782  1.00  0.00    -0.461 OA
BRANCH   2   3
ATOM      3  C   UNL A   1      31.891  27.188  26.411  1.00  0.00     0.329 C 
ATOM      4  O   UNL A   1      31.241  27.204  27.450  1.00  0.00    -0.250 OA
BRANCH   3   5
ATOM      5  C   UNL A   1      32.270  25.874  25.715  1.00  0.00     0.196 C 
BRANCH   5   6
ATOM      6  N   UNL A   1      31.676  25.646  24.404  1.00  0.00    -0.338 N 
ATOM      7  C   UNL A   1      31.476  24.525  23.637  1.00  0.00     0.264 C 
ATOM      8  O   UNL A   1      31.134  24.778  22.477  1.00  0.00    -0.268 OA
ATOM      9  H   UNL A   1      31.349  26.471  23.978  1.00  0.00     0.164 HD
BRANCH   7  10
ATOM     10  C   UNL A   1      31.589  23.152  24.130  1.00  0.00     0.115 A 
ATOM     11  C   UNL A   1      30.530  22.789  26.517  1.00  0.00     0.068 C 
ATOM     12  C   UNL A   1      31.193  22.412  25.244  1.00  0.00     0.062 A 
ATOM     13  N   UNL A   1      31.508  21.061  25.192  1.00  0.00    -0.241 NA
ATOM     14  C   UNL A   1      32.280  20.787  24.171  1.00  0.00     0.124 A 
ATOM     15  S   UNL A   1      32.539  22.088  23.107  1.00  0.00    -0.108 S 
BRANCH  14  16
ATOM     16  C   UNL A   1      32.849  19.462  23.933  1.00  0.00     0.010 A 
ATOM     17  C   UNL A   1      34.007  19.084  24.624  1.00  0.00     0.011 A 
ATOM     18  C   UNL A   1      32.332  18.604  22.953  1.00  0.00     0.011 A 
ATOM     19  C   UNL A   1      34.625  17.862  24.365  1.00  0.00     0.001 A 
ATOM     20  C   UNL A   1      32.965  17.387  22.679  1.00  0.00     0.001 A 
ATOM     21  C   UNL A   1      34.106  17.016  23.389  1.00  0.00     0.000 A 
ENDBRANCH  14  16
ENDBRANCH   7  10
ENDBRANCH   5   6
BRANCH   5  22
ATOM     22  C   UNL A   1      33.806  25.755  25.644  1.00  0.00     0.070 C 
BRANCH  22  23
ATOM     23  C   UNL A   1      34.325  24.365  25.852  1.00  0.00    -0.037 C 
ATOM     24  C   UNL A   1      35.136  23.663  25.066  1.00  0.00     0.001 A 
ATOM     25  C   UNL A   1      33.956  23.574  27.072  1.00  0.00     0.174 C 
ATOM     26  C   UNL A   1      35.777  23.885  23.810  1.00  0.00     0.010 A 
ATOM     27  C   UNL A   1      35.376  22.445  25.856  1.00  0.00     0.065 A 
ATOM     28  N   UNL A   1      34.744  22.324  26.983  1.00  0.00    -0.280 NA
ATOM     29  C   UNL A   1      36.653  22.971  23.364  1.00  0.00     0.001 A 
ATOM     30  C   UNL A   1      36.352  21.485  25.298  1.00  0.00     0.028 A 
ATOM     31  C   UNL A   1      36.947  21.769  24.126  1.00  0.00     0.002 A 
ENDBRANCH  22  23
ENDBRANCH   5  22
ENDBRANCH   3   5
ENDBRANCH   2   3
ENDBRANCH   1   2
BRANCH   1  32
ATOM     32  C   UNL A   1      31.725  30.631  25.865  1.00  0.00     0.275 C 
BRANCH  32  33
ATOM     33  O   UNL A   1      32.519  30.552  27.065  1.00  0.00    -0.458 OA
BRANCH  33  34
ATOM     34  C   UNL A   1      33.239  31.664  27.333  1.00  0.00     0.338 C 
ATOM     35  O   UNL A   1      32.857  32.825  27.312  1.00  0.00    -0.246 OA
BRANCH  34  36
ATOM     36  C   UNL A   1      34.590  31.296  27.769  1.00  0.00     0.060 A 
ATOM     37  C   UNL A   1      34.848  29.956  28.049  1.00  0.00     0.016 A 
ATOM     38  C   UNL A   1      35.541  32.273  28.054  1.00  0.00     0.016 A 
ATOM     39  C   UNL A   1      36.039  29.587  28.665  1.00  0.00     0.010 A 
ATOM     40  C   UNL A   1      36.761  31.896  28.630  1.00  0.00     0.010 A 
ATOM     41  C   UNL A   1      37.009  30.553  28.968  1.00  0.00    -0.014 A 
BRANCH  41  42
ATOM     42  C   UNL A   1      38.238  30.155  29.705  1.00  0.00     0.031 A 
ATOM     43  C   UNL A   1      38.479  30.664  31.101  1.00  0.00     0.074 A 
ATOM     44  C   UNL A   1      39.094  29.261  29.171  1.00  0.00     0.049 A 
ATOM     45  N   UNL A   1      39.525  30.498  31.874  1.00  0.00    -0.248 NA
ATOM     46  C   UNL A   1      37.396  31.445  31.715  1.00  0.00     0.031 C 
ATOM     47  C   UNL A   1      38.939  28.618  27.867  1.00  0.00     0.029 A 
ATOM     48  N   UNL A   1      40.254  28.722  29.673  1.00  0.00    -0.354 N 
ATOM     49  C   UNL A   1      39.227  31.160  33.058  1.00  0.00     0.074 A 
ATOM     50  C   UNL A   1      37.920  31.758  32.892  1.00  0.00     0.031 C 
ATOM     51  C   UNL A   1      39.946  27.750  27.683  1.00  0.00     0.029 A 
ATOM     52  C   UNL A   1      40.857  27.828  28.822  1.00  0.00     0.049 A 
ATOM     53  H   UNL A   1      40.618  28.953  30.558  1.00  0.00     0.167 HD
ATOM     54  C   UNL A   1      39.964  31.240  34.191  1.00  0.00     0.037 A 
ATOM     55  C   UNL A   1      42.029  27.174  28.926  1.00  0.00     0.037 A 
ATOM     56  C   UNL A   1      41.239  30.603  34.387  1.00  0.00     0.049 A 
ATOM     57  C   UNL A   1      42.891  27.389  30.138  1.00  0.00     0.074 A 
ATOM     58  C   UNL A   1      42.054  30.628  35.506  1.00  0.00     0.029 A 
ATOM     59  N   UNL A   1      41.880  29.814  33.444  1.00  0.00    -0.354 N 
ATOM     60  N   UNL A   1      42.640  28.086  31.219  1.00  0.00    -0.248 NA
ATOM     61  C   UNL A   1      44.214  26.746  30.132  1.00  0.00     0.031 C 
ATOM     62  C   UNL A   1      43.200  29.872  35.232  1.00  0.00     0.029 A 
ATOM     63  C   UNL A   1      43.084  29.353  33.953  1.00  0.00     0.049 A 
ATOM     64  H   UNL A   1      41.532  29.612  32.546  1.00  0.00     0.167 HD
ATOM     65  C   UNL A   1      43.764  27.961  32.023  1.00  0.00     0.074 A 
ATOM     66  C   UNL A   1      44.693  27.104  31.316  1.00  0.00     0.031 C 
ATOM     67  C   UNL A   1      44.005  28.511  33.237  1.00  0.00     0.037 A 
BRANCH  54  68
ATOM     68  C   UNL A   1      39.408  32.055  35.318  1.00  0.00     0.064 A 
ATOM     69  C   UNL A   1      38.551  31.497  36.276  1.00  0.00     0.173 A 
ATOM     70  C   UNL A   1      39.778  33.400  35.468  1.00  0.00     0.173 A 
ATOM     71  F   UNL A   1      38.165  30.218  36.172  1.00  0.00    -0.203 F 
ATOM     72  C   UNL A   1      38.067  32.262  37.335  1.00  0.00     0.198 A 
ATOM     73  C   UNL A   1      39.309  34.156  36.538  1.00  0.00     0.198 A 
ATOM     74  F   UNL A   1      40.603  33.977  34.580  1.00  0.00    -0.203 F 
ATOM     75  F   UNL A   1      37.226  31.717  38.223  1.00  0.00    -0.200 F 
ATOM     76  C   UNL A   1      38.451  33.588  37.468  1.00  0.00     0.200 A 
ATOM     77  F   UNL A   1      39.690  35.434  36.672  1.00  0.00    -0.200 F 
ATOM     78  F   UNL A   1      37.992  34.321  38.492  1.00  0.00    -0.200 F 
ENDBRANCH  54  68
BRANCH  55  79
ATOM     79  C   UNL A   1      42.486  26.293  27.819  1.00  0.00     0.064 A 
ATOM     80  C   UNL A   1      42.127  24.939  27.773  1.00  0.00     0.173 A 
ATOM     81  C   UNL A   1      43.304  26.788  26.790  1.00  0.00     0.173 A 
ATOM     82  F   UNL A   1      41.376  24.413  28.751  1.00  0.00    -0.203 F 
ATOM     83  C   UNL A   1      42.572  24.113  26.742  1.00  0.00     0.198 A 
ATOM     84  C   UNL A   1      43.724  25.968  25.747  1.00  0.00     0.198 A 
ATOM     85  F   UNL A   1      43.684  28.073  26.795  1.00  0.00    -0.203 F 
ATOM     86  F   UNL A   1      42.248  22.813  26.742  1.00  0.00    -0.200 F 
ATOM     87  C   UNL A   1      43.362  24.630  25.727  1.00  0.00     0.200 A 
ATOM     88  F   UNL A   1      44.479  26.475  24.762  1.00  0.00    -0.200 F 
ATOM     89  F   UNL A   1      43.784  23.836  24.733  1.00  0.00    -0.200 F 
ENDBRANCH  55  79
BRANCH  67  90
ATOM     90  C   UNL A   1      45.322  28.196  33.881  1.00  0.00     0.064 A 
ATOM     91  C   UNL A   1      46.436  29.030  33.706  1.00  0.00     0.173 A 
ATOM     92  C   UNL A   1      45.464  27.068  34.701  1.00  0.00     0.173 A 
ATOM     93  F   UNL A   1      46.353  30.111  32.916  1.00  0.00    -0.203 F 
ATOM     94  C   UNL A   1      47.652  28.735  34.317  1.00  0.00     0.198 A 
ATOM     95  C   UNL A   1      46.677  26.787  35.328  1.00  0.00     0.198 A 
ATOM     96  F   UNL A   1      44.428  26.242  34.901  1.00  0.00    -0.203 F 
ATOM     97  F   UNL A   1      48.715  29.523  34.104  1.00  0.00    -0.200 F 
ATOM     98  C   UNL A   1      47.770  27.618  35.130  1.00  0.00     0.200 A 
ATOM     99  F   UNL A   1      46.787  25.713  36.121  1.00  0.00    -0.200 F 
ATOM    100  F   UNL A   1      48.940  27.336  35.719  1.00  0.00    -0.200 F 
ENDBRANCH  67  90
ENDBRANCH  41  42
ENDBRANCH  34  36
ENDBRANCH  33  34
ENDBRANCH  32  33
ENDBRANCH   1  32
TORSDOF 16
ENDMDL
MODEL 3
REMARK VINA RESULT:     -13.3      4.402      9.894
REMARK SMILES Cc1nc(-c2ccccc2)sc1C(=O)N[C@@H](CC1=c2ccccc2=NC1)C(=O)OCCOC(=O)c1ccc(-c2c3nc(c(-c4c(F)c(F)c(F)c(F)c4F)c4ccc([nH]4)c(-c4c(F)c(F)c(F)c(F)c4F)c4nc(c(-c5c(F)c(F)c(F)c(F)c5F)c5ccc2[nH]5)C=C4)C=C3)cc1
REMARK SMILES IDX 30 1 29 2 27 3 28 4 16 5 15 6 13 7 14 8 12 10 1 11 2 12 3 13
REMARK SMILES IDX 4 14 11 15 5 16 6 17 10 18 7 19 9 20 8 21 17 22 18 23 19 24
REMARK SMILES IDX 26 25 20 26 24 27 25 28 21 29 23 30 22 31 31 32 32 33 33 34
REMARK SMILES IDX 34 35 35 36 36 37 97 38 37 39 96 40 38 41 39 42 40 43 90 44
REMARK SMILES IDX 41 45 95 46 89 47 91 48 42 49 94 50 88 51 87 52 43 54 75 55
REMARK SMILES IDX 55 56 74 57 56 58 59 59 73 60 92 61 57 62 58 63 72 65 93 66
REMARK SMILES IDX 60 67 44 68 45 69 53 70 46 71 47 72 51 73 54 74 48 75 49 76
REMARK SMILES IDX 52 77 50 78 76 79 77 80 85 81 78 82 79 83 83 84 86 85 80 86
REMARK SMILES IDX 81 87 84 88 82 89 61 90 62 91 70 92 63 93 64 94 68 95 71 96
REMARK SMILES IDX 65 97 66 98 69 99 67 100
REMARK H PARENT 15 9 91 53 59 64
REMARK Flexibility Score: inf
ROOT
ATOM      1  C   UNL A   1      35.550  21.109  24.660  1.00  0.00     0.274 C 
ENDROOT
BRANCH   1   2
ATOM      2  O   UNL A   1      35.361  22.491  25.027  1.00  0.00    -0.461 OA
BRANCH   2   3
ATOM      3  C   UNL A   1      35.295  23.373  23.996  1.00  0.00     0.329 C 
ATOM      4  O   UNL A   1      36.145  23.504  23.122  1.00  0.00    -0.250 OA
BRANCH   3   5
ATOM      5  C   UNL A   1      34.049  24.266  24.051  1.00  0.00     0.196 C 
BRANCH   5   6
ATOM      6  N   UNL A   1      32.764  23.580  23.989  1.00  0.00    -0.338 N 
ATOM      7  C   UNL A   1      31.479  23.997  23.743  1.00  0.00     0.264 C 
ATOM      8  O   UNL A   1      30.627  23.140  24.000  1.00  0.00    -0.268 OA
ATOM      9  H   UNL A   1      32.832  22.614  24.161  1.00  0.00     0.164 HD
BRANCH   7  10
ATOM     10  C   UNL A   1      31.124  25.297  23.175  1.00  0.00     0.115 A 
ATOM     11  C   UNL A   1      32.460  25.903  20.984  1.00  0.00     0.068 C 
ATOM     12  C   UNL A   1      31.456  26.072  22.064  1.00  0.00     0.062 A 
ATOM     13  N   UNL A   1      30.750  27.261  21.947  1.00  0.00    -0.241 NA
ATOM     14  C   UNL A   1      30.030  27.500  23.014  1.00  0.00     0.124 A 
ATOM     15  S   UNL A   1      30.012  26.238  24.155  1.00  0.00    -0.108 S 
BRANCH  14  16
ATOM     16  C   UNL A   1      29.269  28.732  23.204  1.00  0.00     0.010 A 
ATOM     17  C   UNL A   1      27.879  28.707  23.034  1.00  0.00     0.011 A 
ATOM     18  C   UNL A   1      29.901  29.960  23.443  1.00  0.00     0.011 A 
ATOM     19  C   UNL A   1      27.127  29.878  23.127  1.00  0.00     0.001 A 
ATOM     20  C   UNL A   1      29.149  31.137  23.515  1.00  0.00     0.001 A 
ATOM     21  C   UNL A   1      27.764  31.093  23.363  1.00  0.00     0.000 A 
ENDBRANCH  14  16
ENDBRANCH   7  10
ENDBRANCH   5   6
BRANCH   5  22
ATOM     22  C   UNL A   1      34.121  25.174  25.296  1.00  0.00     0.070 C 
BRANCH  22  23
ATOM     23  C   UNL A   1      33.709  26.592  25.046  1.00  0.00    -0.037 C 
ATOM     24  C   UNL A   1      32.969  27.382  25.820  1.00  0.00     0.001 A 
ATOM     25  C   UNL A   1      34.136  27.317  23.805  1.00  0.00     0.174 C 
ATOM     26  C   UNL A   1      32.296  27.239  27.070  1.00  0.00     0.010 A 
ATOM     27  C   UNL A   1      33.019  28.669  25.108  1.00  0.00     0.065 A 
ATOM     28  N   UNL A   1      33.647  28.705  23.972  1.00  0.00    -0.280 NA
ATOM     29  C   UNL A   1      31.731  28.323  27.625  1.00  0.00     0.001 A 
ATOM     30  C   UNL A   1      32.374  29.815  25.781  1.00  0.00     0.028 A 
ATOM     31  C   UNL A   1      31.786  29.622  26.975  1.00  0.00     0.002 A 
ENDBRANCH  22  23
ENDBRANCH   5  22
ENDBRANCH   3   5
ENDBRANCH   2   3
ENDBRANCH   1   2
BRANCH   1  32
ATOM     32  C   UNL A   1      36.967  20.652  25.001  1.00  0.00     0.275 C 
BRANCH  32  33
ATOM     33  O   UNL A   1      37.556  21.495  26.010  1.00  0.00    -0.458 OA
BRANCH  33  34
ATOM     34  C   UNL A   1      38.898  21.374  26.127  1.00  0.00     0.338 C 
ATOM     35  O   UNL A   1      39.596  20.433  25.780  1.00  0.00    -0.246 OA
BRANCH  34  36
ATOM     36  C   UNL A   1      39.469  22.613  26.666  1.00  0.00     0.060 A 
ATOM     37  C   UNL A   1      38.931  23.825  26.242  1.00  0.00     0.016 A 
ATOM     38  C   UNL A   1      40.620  22.587  27.451  1.00  0.00     0.016 A 
ATOM     39  C   UNL A   1      39.568  25.021  26.554  1.00  0.00     0.010 A 
ATOM     40  C   UNL A   1      41.236  23.794  27.807  1.00  0.00     0.010 A 
ATOM     41  C   UNL A   1      40.731  25.021  27.337  1.00  0.00    -0.014 A 
BRANCH  41  42
ATOM     42  C   UNL A   1      41.449  26.299  27.588  1.00  0.00     0.031 A 
ATOM     43  C   UNL A   1      40.795  27.384  28.401  1.00  0.00     0.074 A 
ATOM     44  C   UNL A   1      42.722  26.459  27.176  1.00  0.00     0.049 A 
ATOM     45  N   UNL A   1      41.222  28.596  28.660  1.00  0.00    -0.248 NA
ATOM     46  C   UNL A   1      39.501  27.058  29.019  1.00  0.00     0.031 C 
ATOM     47  C   UNL A   1      43.509  25.457  26.458  1.00  0.00     0.029 A 
ATOM     48  N   UNL A   1      43.585  27.517  27.326  1.00  0.00    -0.354 N 
ATOM     49  C   UNL A   1      40.247  29.176  29.461  1.00  0.00     0.074 A 
ATOM     50  C   UNL A   1      39.192  28.198  29.620  1.00  0.00     0.031 C 
ATOM     51  C   UNL A   1      44.747  25.935  26.256  1.00  0.00     0.029 A 
ATOM     52  C   UNL A   1      44.820  27.302  26.763  1.00  0.00     0.049 A 
ATOM     53  H   UNL A   1      43.342  28.350  27.792  1.00  0.00     0.167 HD
ATOM     54  C   UNL A   1      40.243  30.401  30.037  1.00  0.00     0.037 A 
ATOM     55  C   UNL A   1      45.879  28.124  26.634  1.00  0.00     0.037 A 
ATOM     56  C   UNL A   1      41.311  31.360  29.932  1.00  0.00     0.049 A 
ATOM     57  C   UNL A   1      45.794  29.528  27.165  1.00  0.00     0.074 A 
ATOM     58  C   UNL A   1      41.393  32.626  30.487  1.00  0.00     0.029 A 
ATOM     59  N   UNL A   1      42.492  31.153  29.236  1.00  0.00    -0.354 N 
ATOM     60  N   UNL A   1      44.832  30.097  27.849  1.00  0.00    -0.248 NA
ATOM     61  C   UNL A   1      46.934  30.413  26.881  1.00  0.00     0.031 C 
ATOM     62  C   UNL A   1      42.614  33.194  30.106  1.00  0.00     0.029 A 
ATOM     63  C   UNL A   1      43.305  32.270  29.340  1.00  0.00     0.049 A 
ATOM     64  H   UNL A   1      42.718  30.333  28.740  1.00  0.00     0.167 HD
ATOM     65  C   UNL A   1      45.251  31.399  28.084  1.00  0.00     0.074 A 
ATOM     66  C   UNL A   1      46.564  31.533  27.487  1.00  0.00     0.031 C 
ATOM     67  C   UNL A   1      44.603  32.396  28.733  1.00  0.00     0.037 A 
BRANCH  54  68
ATOM     68  C   UNL A   1      39.035  30.785  30.835  1.00  0.00     0.064 A 
ATOM     69  C   UNL A   1      38.963  30.553  32.215  1.00  0.00     0.173 A 
ATOM     70  C   UNL A   1      37.956  31.435  30.218  1.00  0.00     0.173 A 
ATOM     71  F   UNL A   1      39.966  29.929  32.848  1.00  0.00    -0.203 F 
ATOM     72  C   UNL A   1      37.844  30.942  32.948  1.00  0.00     0.198 A 
ATOM     73  C   UNL A   1      36.848  31.841  30.957  1.00  0.00     0.198 A 
ATOM     74  F   UNL A   1      37.982  31.686  28.900  1.00  0.00    -0.203 F 
ATOM     75  F   UNL A   1      37.782  30.685  34.262  1.00  0.00    -0.200 F 
ATOM     76  C   UNL A   1      36.791  31.590  32.320  1.00  0.00     0.200 A 
ATOM     77  F   UNL A   1      35.837  32.478  30.350  1.00  0.00    -0.200 F 
ATOM     78  F   UNL A   1      35.719  31.973  33.027  1.00  0.00    -0.200 F 
ENDBRANCH  54  68
BRANCH  55  79
ATOM     79  C   UNL A   1      47.096  27.657  25.921  1.00  0.00     0.064 A 
ATOM     80  C   UNL A   1      47.192  27.726  24.525  1.00  0.00     0.173 A 
ATOM     81  C   UNL A   1      48.185  27.118  26.624  1.00  0.00     0.173 A 
ATOM     82  F   UNL A   1      46.164  28.203  23.807  1.00  0.00    -0.203 F 
ATOM     83  C   UNL A   1      48.328  27.271  23.859  1.00  0.00     0.198 A 
ATOM     84  C   UNL A   1      49.330  26.689  25.960  1.00  0.00     0.198 A 
ATOM     85  F   UNL A   1      48.138  27.018  27.961  1.00  0.00    -0.203 F 
ATOM     86  F   UNL A   1      48.379  27.312  22.521  1.00  0.00    -0.200 F 
ATOM     87  C   UNL A   1      49.399  26.761  24.577  1.00  0.00     0.200 A 
ATOM     88  F   UNL A   1      50.367  26.206  26.660  1.00  0.00    -0.200 F 
ATOM     89  F   UNL A   1      50.494  26.329  23.937  1.00  0.00    -0.200 F 
ENDBRANCH  55  79
BRANCH  67  90
ATOM     90  C   UNL A   1      45.307  33.716  28.838  1.00  0.00     0.064 A 
ATOM     91  C   UNL A   1      45.132  34.714  27.869  1.00  0.00     0.173 A 
ATOM     92  C   UNL A   1      46.143  33.995  29.929  1.00  0.00     0.173 A 
ATOM     93  F   UNL A   1      44.357  34.486  26.798  1.00  0.00    -0.203 F 
ATOM     94  C   UNL A   1      45.782  35.940  27.980  1.00  0.00     0.198 A 
ATOM     95  C   UNL A   1      46.775  35.230  30.048  1.00  0.00     0.198 A 
ATOM     96  F   UNL A   1      46.340  33.074  30.882  1.00  0.00    -0.203 F 
ATOM     97  F   UNL A   1      45.633  36.865  27.022  1.00  0.00    -0.200 F 
ATOM     98  C   UNL A   1      46.598  36.199  29.071  1.00  0.00     0.200 A 
ATOM     99  F   UNL A   1      47.555  35.483  31.108  1.00  0.00    -0.200 F 
ATOM    100  F   UNL A   1      47.222  37.380  29.178  1.00  0.00    -0.200 F 
ENDBRANCH  67  90
ENDBRANCH  41  42
ENDBRANCH  34  36
ENDBRANCH  33  34
ENDBRANCH  32  33
ENDBRANCH   1  32
TORSDOF 16
ENDMDL
