MODEL 1
REMARK VINA RESULT:     -11.2      0.000      0.000
REMARK SMILES C=CCN(CC(=O)OCCOC(=O)c1ccc(-c2c3nc(c(-c4c(F)c(F)c(F)c(F)c4F)c4ccc([nH]4)c(-c4c(F)c(F)c(F)c(F)c4F)c4nc(c(-c5c(F)c(F)c(F)c(F)c5F)c5ccc2[nH]5)C=C4)C=C3)cc1)S(=O)(=O)c1ccccc1OC
REMARK SMILES IDX 9 1 8 2 6 3 7 4 5 5 4 6 3 7 2 8 1 9 77 10 78 11 79 12 80 13
REMARK SMILES IDX 81 14 85 15 82 16 84 17 83 18 86 19 87 20 10 21 11 22 12 23
REMARK SMILES IDX 13 24 14 25 15 26 76 27 16 28 75 29 17 30 18 31 19 32 69 33
REMARK SMILES IDX 20 34 74 35 68 36 70 37 21 38 73 39 67 40 66 41 22 43 54 44
REMARK SMILES IDX 34 45 53 46 35 47 38 48 52 49 71 50 36 51 37 52 51 54 72 55
REMARK SMILES IDX 39 56 23 57 24 58 32 59 25 60 26 61 30 62 33 63 27 64 28 65
REMARK SMILES IDX 31 66 29 67 55 68 56 69 64 70 57 71 58 72 62 73 65 74 59 75
REMARK SMILES IDX 60 76 63 77 61 78 40 79 41 80 49 81 42 82 43 83 47 84 50 85
REMARK SMILES IDX 44 86 45 87 48 88 46 89
REMARK H PARENT 70 42 38 53
REMARK Flexibility Score: inf
ROOT
ATOM      1  C   UNL A   1      31.748  28.654  24.771  1.00  0.00     0.274 C 
ENDROOT
BRANCH   1   2
ATOM      2  O   UNL A   1      31.715  28.610  23.327  1.00  0.00    -0.461 OA
BRANCH   2   3
ATOM      3  C   UNL A   1      31.793  27.389  22.726  1.00  0.00     0.321 C 
ATOM      4  O   UNL A   1      31.017  26.999  21.860  1.00  0.00    -0.251 OA
BRANCH   3   5
ATOM      5  C   UNL A   1      32.842  26.489  23.375  1.00  0.00     0.225 C 
BRANCH   5   6
ATOM      6  N   UNL A   1      32.468  25.149  23.959  1.00  0.00    -0.183 NA
BRANCH   6   7
ATOM      7  C   UNL A   1      32.894  25.150  25.398  1.00  0.00     0.130 C 
BRANCH   7   8
ATOM      8  C   UNL A   1      31.742  25.099  26.344  1.00  0.00    -0.018 C 
ATOM      9  C   UNL A   1      30.471  25.205  25.927  1.00  0.00     0.005 C 
ENDBRANCH   7   8
ENDBRANCH   6   7
BRANCH   6  10
ATOM     10  S   UNL A   1      33.004  23.762  23.076  1.00  0.00     0.247 S 
ATOM     11  O   UNL A   1      31.903  22.826  22.985  1.00  0.00    -0.207 OA
ATOM     12  O   UNL A   1      33.605  24.254  21.850  1.00  0.00    -0.207 OA
BRANCH  10  13
ATOM     13  C   UNL A   1      34.342  22.898  23.910  1.00  0.00     0.124 A 
ATOM     14  C   UNL A   1      35.647  23.152  23.438  1.00  0.00     0.026 A 
ATOM     15  C   UNL A   1      34.171  21.830  24.787  1.00  0.00     0.138 A 
ATOM     16  C   UNL A   1      36.732  22.347  23.816  1.00  0.00     0.002 A 
ATOM     17  C   UNL A   1      35.270  21.053  25.202  1.00  0.00     0.048 A 
ATOM     18  C   UNL A   1      36.541  21.289  24.695  1.00  0.00     0.004 A 
BRANCH  15  19
ATOM     19  O   UNL A   1      32.964  21.478  25.306  1.00  0.00    -0.495 OA
ATOM     20  C   UNL A   1      32.738  20.096  25.075  1.00  0.00     0.278 C 
ENDBRANCH  15  19
ENDBRANCH  10  13
ENDBRANCH   6  10
ENDBRANCH   5   6
ENDBRANCH   3   5
ENDBRANCH   2   3
ENDBRANCH   1   2
BRANCH   1  21
ATOM     21  C   UNL A   1      31.701  30.091  25.299  1.00  0.00     0.275 C 
BRANCH  21  22
ATOM     22  O   UNL A   1      32.187  30.116  26.648  1.00  0.00    -0.458 OA
BRANCH  22  23
ATOM     23  C   UNL A   1      32.752  31.283  27.053  1.00  0.00     0.338 C 
ATOM     24  O   UNL A   1      32.217  32.379  27.063  1.00  0.00    -0.246 OA
BRANCH  23  25
ATOM     25  C   UNL A   1      34.137  31.023  27.540  1.00  0.00     0.060 A 
ATOM     26  C   UNL A   1      34.575  29.727  27.797  1.00  0.00     0.016 A 
ATOM     27  C   UNL A   1      35.000  32.087  27.820  1.00  0.00     0.016 A 
ATOM     28  C   UNL A   1      35.783  29.514  28.466  1.00  0.00     0.010 A 
ATOM     29  C   UNL A   1      36.261  31.852  28.407  1.00  0.00     0.010 A 
ATOM     30  C   UNL A   1      36.657  30.560  28.796  1.00  0.00    -0.014 A 
BRANCH  30  31
ATOM     31  C   UNL A   1      37.919  30.311  29.582  1.00  0.00     0.031 A 
ATOM     32  C   UNL A   1      39.063  29.512  28.988  1.00  0.00     0.074 A 
ATOM     33  C   UNL A   1      38.112  30.824  30.818  1.00  0.00     0.049 A 
ATOM     34  N   UNL A   1      40.073  28.934  29.595  1.00  0.00    -0.248 NA
ATOM     35  C   UNL A   1      39.073  29.334  27.528  1.00  0.00     0.031 C 
ATOM     36  C   UNL A   1      37.186  31.690  31.545  1.00  0.00     0.029 A 
ATOM     37  N   UNL A   1      39.179  30.699  31.685  1.00  0.00    -0.354 N 
ATOM     38  C   UNL A   1      40.771  28.242  28.611  1.00  0.00     0.074 A 
ATOM     39  C   UNL A   1      40.092  28.501  27.359  1.00  0.00     0.031 C 
ATOM     40  C   UNL A   1      37.750  32.089  32.691  1.00  0.00     0.029 A 
ATOM     41  C   UNL A   1      39.004  31.369  32.872  1.00  0.00     0.049 A 
ATOM     42  H   UNL A   1      39.988  30.180  31.474  1.00  0.00     0.167 HD
ATOM     43  C   UNL A   1      41.870  27.457  28.743  1.00  0.00     0.037 A 
ATOM     44  C   UNL A   1      39.703  31.352  34.025  1.00  0.00     0.037 A 
ATOM     45  C   UNL A   1      42.625  27.288  29.961  1.00  0.00     0.049 A 
ATOM     46  C   UNL A   1      40.881  30.439  34.173  1.00  0.00     0.074 A 
ATOM     47  C   UNL A   1      43.767  26.530  30.170  1.00  0.00     0.029 A 
ATOM     48  N   UNL A   1      42.340  27.912  31.163  1.00  0.00    -0.354 N 
ATOM     49  N   UNL A   1      41.429  29.649  33.287  1.00  0.00    -0.248 NA
ATOM     50  C   UNL A   1      41.504  30.375  35.504  1.00  0.00     0.031 C 
ATOM     51  C   UNL A   1      44.160  26.679  31.505  1.00  0.00     0.029 A 
ATOM     52  C   UNL A   1      43.281  27.554  32.117  1.00  0.00     0.049 A 
ATOM     53  H   UNL A   1      41.582  28.520  31.318  1.00  0.00     0.167 HD
ATOM     54  C   UNL A   1      42.449  28.983  33.951  1.00  0.00     0.074 A 
ATOM     55  C   UNL A   1      42.465  29.482  35.309  1.00  0.00     0.031 C 
ATOM     56  C   UNL A   1      43.287  28.033  33.473  1.00  0.00     0.037 A 
BRANCH  43  57
ATOM     57  C   UNL A   1      42.326  26.672  27.548  1.00  0.00     0.064 A 
ATOM     58  C   UNL A   1      43.344  27.125  26.700  1.00  0.00     0.173 A 
ATOM     59  C   UNL A   1      41.798  25.391  27.315  1.00  0.00     0.173 A 
ATOM     60  F   UNL A   1      43.875  28.345  26.874  1.00  0.00    -0.203 F 
ATOM     61  C   UNL A   1      43.815  26.326  25.659  1.00  0.00     0.198 A 
ATOM     62  C   UNL A   1      42.287  24.586  26.290  1.00  0.00     0.198 A 
ATOM     63  F   UNL A   1      40.829  24.906  28.108  1.00  0.00    -0.203 F 
ATOM     64  F   UNL A   1      44.778  26.786  24.847  1.00  0.00    -0.200 F 
ATOM     65  C   UNL A   1      43.294  25.055  25.463  1.00  0.00     0.200 A 
ATOM     66  F   UNL A   1      41.793  23.353  26.114  1.00  0.00    -0.200 F 
ATOM     67  F   UNL A   1      43.766  24.281  24.475  1.00  0.00    -0.200 F 
ENDBRANCH  43  57
BRANCH  44  68
ATOM     68  C   UNL A   1      39.217  32.155  35.179  1.00  0.00     0.064 A 
ATOM     69  C   UNL A   1      38.420  31.580  36.176  1.00  0.00     0.173 A 
ATOM     70  C   UNL A   1      39.580  33.503  35.324  1.00  0.00     0.173 A 
ATOM     71  F   UNL A   1      38.017  30.306  36.060  1.00  0.00    -0.203 F 
ATOM     72  C   UNL A   1      38.017  32.321  37.285  1.00  0.00     0.198 A 
ATOM     73  C   UNL A   1      39.206  34.232  36.449  1.00  0.00     0.198 A 
ATOM     74  F   UNL A   1      40.336  34.100  34.390  1.00  0.00    -0.203 F 
ATOM     75  F   UNL A   1      37.235  31.759  38.216  1.00  0.00    -0.200 F 
ATOM     76  C   UNL A   1      38.423  33.641  37.428  1.00  0.00     0.200 A 
ATOM     77  F   UNL A   1      39.618  35.499  36.590  1.00  0.00    -0.200 F 
ATOM     78  F   UNL A   1      38.060  34.343  38.509  1.00  0.00    -0.200 F 
ENDBRANCH  44  68
BRANCH  56  79
ATOM     79  C   UNL A   1      44.300  27.477  34.426  1.00  0.00     0.064 A 
ATOM     80  C   UNL A   1      44.049  26.303  35.152  1.00  0.00     0.173 A 
ATOM     81  C   UNL A   1      45.532  28.118  34.615  1.00  0.00     0.173 A 
ATOM     82  F   UNL A   1      42.876  25.665  35.019  1.00  0.00    -0.203 F 
ATOM     83  C   UNL A   1      44.989  25.804  36.050  1.00  0.00     0.198 A 
ATOM     84  C   UNL A   1      46.477  27.605  35.499  1.00  0.00     0.198 A 
ATOM     85  F   UNL A   1      45.818  29.244  33.943  1.00  0.00    -0.203 F 
ATOM     86  F   UNL A   1      44.712  24.706  36.766  1.00  0.00    -0.200 F 
ATOM     87  C   UNL A   1      46.202  26.453  36.221  1.00  0.00     0.200 A 
ATOM     88  F   UNL A   1      47.651  28.232  35.661  1.00  0.00    -0.200 F 
ATOM     89  F   UNL A   1      47.103  25.975  37.091  1.00  0.00    -0.200 F 
ENDBRANCH  56  79
ENDBRANCH  30  31
ENDBRANCH  23  25
ENDBRANCH  22  23
ENDBRANCH  21  22
ENDBRANCH   1  21
TORSDOF 17
ENDMDL
MODEL 2
REMARK VINA RESULT:     -11.2      0.900      1.926
REMARK SMILES C=CCN(CC(=O)OCCOC(=O)c1ccc(-c2c3nc(c(-c4c(F)c(F)c(F)c(F)c4F)c4ccc([nH]4)c(-c4c(F)c(F)c(F)c(F)c4F)c4nc(c(-c5c(F)c(F)c(F)c(F)c5F)c5ccc2[nH]5)C=C4)C=C3)cc1)S(=O)(=O)c1ccccc1OC
REMARK SMILES IDX 9 1 8 2 6 3 7 4 5 5 4 6 3 7 2 8 1 9 77 10 78 11 79 12 80 13
REMARK SMILES IDX 81 14 85 15 82 16 84 17 83 18 86 19 87 20 10 21 11 22 12 23
REMARK SMILES IDX 13 24 14 25 15 26 76 27 16 28 75 29 17 30 18 31 19 32 69 33
REMARK SMILES IDX 20 34 74 35 68 36 70 37 21 38 73 39 67 40 66 41 22 43 54 44
REMARK SMILES IDX 34 45 53 46 35 47 38 48 52 49 71 50 36 51 37 52 51 54 72 55
REMARK SMILES IDX 39 56 23 57 24 58 32 59 25 60 26 61 30 62 33 63 27 64 28 65
REMARK SMILES IDX 31 66 29 67 55 68 56 69 64 70 57 71 58 72 62 73 65 74 59 75
REMARK SMILES IDX 60 76 63 77 61 78 40 79 41 80 49 81 42 82 43 83 47 84 50 85
REMARK SMILES IDX 44 86 45 87 48 88 46 89
REMARK H PARENT 70 42 38 53
REMARK Flexibility Score: inf
ROOT
ATOM      1  C   UNL A   1      31.935  27.816  26.888  1.00  0.00     0.274 C 
ENDROOT
BRANCH   1   2
ATOM      2  O   UNL A   1      30.914  26.797  26.807  1.00  0.00    -0.461 OA
BRANCH   2   3
ATOM      3  C   UNL A   1      31.267  25.583  26.298  1.00  0.00     0.321 C 
ATOM      4  O   UNL A   1      31.339  24.554  26.963  1.00  0.00    -0.251 OA
BRANCH   3   5
ATOM      5  C   UNL A   1      31.739  25.676  24.849  1.00  0.00     0.225 C 
BRANCH   5   6
ATOM      6  N   UNL A   1      33.010  25.000  24.396  1.00  0.00    -0.183 NA
BRANCH   6   7
ATOM      7  C   UNL A   1      33.989  26.078  24.032  1.00  0.00     0.130 C 
BRANCH   7   8
ATOM      8  C   UNL A   1      33.329  27.300  23.488  1.00  0.00    -0.018 C 
ATOM      9  C   UNL A   1      34.024  28.397  23.151  1.00  0.00     0.005 C 
ENDBRANCH   7   8
ENDBRANCH   6   7
BRANCH   6  10
ATOM     10  S   UNL A   1      32.828  23.785  23.178  1.00  0.00     0.247 S 
ATOM     11  O   UNL A   1      31.415  23.617  22.910  1.00  0.00    -0.207 OA
ATOM     12  O   UNL A   1      33.707  24.156  22.085  1.00  0.00    -0.207 OA
BRANCH  10  13
ATOM     13  C   UNL A   1      33.441  22.183  23.717  1.00  0.00     0.124 A 
ATOM     14  C   UNL A   1      32.526  21.110  23.672  1.00  0.00     0.026 A 
ATOM     15  C   UNL A   1      34.636  21.981  24.401  1.00  0.00     0.138 A 
ATOM     16  C   UNL A   1      32.795  19.891  24.311  1.00  0.00     0.002 A 
ATOM     17  C   UNL A   1      34.923  20.740  25.002  1.00  0.00     0.048 A 
ATOM     18  C   UNL A   1      33.994  19.709  24.986  1.00  0.00     0.004 A 
BRANCH  15  19
ATOM     19  O   UNL A   1      35.596  22.937  24.523  1.00  0.00    -0.495 OA
ATOM     20  C   UNL A   1      36.684  22.418  25.273  1.00  0.00     0.278 C 
ENDBRANCH  15  19
ENDBRANCH  10  13
ENDBRANCH   6  10
ENDBRANCH   5   6
ENDBRANCH   3   5
ENDBRANCH   2   3
ENDBRANCH   1   2
BRANCH   1  21
ATOM     21  C   UNL A   1      31.479  29.132  26.252  1.00  0.00     0.275 C 
BRANCH  21  22
ATOM     22  O   UNL A   1      32.629  29.913  25.899  1.00  0.00    -0.458 OA
BRANCH  22  23
ATOM     23  C   UNL A   1      32.930  30.939  26.737  1.00  0.00     0.338 C 
ATOM     24  O   UNL A   1      32.190  31.855  27.052  1.00  0.00    -0.246 OA
BRANCH  23  25
ATOM     25  C   UNL A   1      34.312  30.760  27.267  1.00  0.00     0.060 A 
ATOM     26  C   UNL A   1      34.895  29.498  27.335  1.00  0.00     0.016 A 
ATOM     27  C   UNL A   1      35.022  31.852  27.775  1.00  0.00     0.016 A 
ATOM     28  C   UNL A   1      36.088  29.312  28.040  1.00  0.00     0.010 A 
ATOM     29  C   UNL A   1      36.273  31.666  28.399  1.00  0.00     0.010 A 
ATOM     30  C   UNL A   1      36.808  30.380  28.596  1.00  0.00    -0.014 A 
BRANCH  30  31
ATOM     31  C   UNL A   1      38.053  30.146  29.414  1.00  0.00     0.031 A 
ATOM     32  C   UNL A   1      39.222  29.361  28.849  1.00  0.00     0.074 A 
ATOM     33  C   UNL A   1      38.209  30.661  30.654  1.00  0.00     0.049 A 
ATOM     34  N   UNL A   1      40.223  28.796  29.481  1.00  0.00    -0.248 NA
ATOM     35  C   UNL A   1      39.270  29.184  27.389  1.00  0.00     0.031 C 
ATOM     36  C   UNL A   1      37.254  31.516  31.357  1.00  0.00     0.029 A 
ATOM     37  N   UNL A   1      39.255  30.549  31.547  1.00  0.00    -0.354 N 
ATOM     38  C   UNL A   1      40.954  28.112  28.515  1.00  0.00     0.074 A 
ATOM     39  C   UNL A   1      40.303  28.363  27.246  1.00  0.00     0.031 C 
ATOM     40  C   UNL A   1      37.785  31.921  32.517  1.00  0.00     0.029 A 
ATOM     41  C   UNL A   1      39.042  31.217  32.730  1.00  0.00     0.049 A 
ATOM     42  H   UNL A   1      40.075  30.040  31.356  1.00  0.00     0.167 HD
ATOM     43  C   UNL A   1      42.059  27.341  28.674  1.00  0.00     0.037 A 
ATOM     44  C   UNL A   1      39.712  31.208  33.900  1.00  0.00     0.037 A 
ATOM     45  C   UNL A   1      42.785  27.180  29.911  1.00  0.00     0.049 A 
ATOM     46  C   UNL A   1      40.897  30.309  34.078  1.00  0.00     0.074 A 
ATOM     47  C   UNL A   1      43.930  26.437  30.148  1.00  0.00     0.029 A 
ATOM     48  N   UNL A   1      42.462  27.801  31.105  1.00  0.00    -0.354 N 
ATOM     49  N   UNL A   1      41.476  29.526  33.205  1.00  0.00    -0.248 NA
ATOM     50  C   UNL A   1      41.487  30.253  35.424  1.00  0.00     0.031 C 
ATOM     51  C   UNL A   1      44.288  26.590  31.493  1.00  0.00     0.029 A 
ATOM     52  C   UNL A   1      43.383  27.455  32.083  1.00  0.00     0.049 A 
ATOM     53  H   UNL A   1      41.693  28.400  31.241  1.00  0.00     0.167 HD
ATOM     54  C   UNL A   1      42.488  28.873  33.895  1.00  0.00     0.074 A 
ATOM     55  C   UNL A   1      42.464  29.371  35.253  1.00  0.00     0.031 C 
ATOM     56  C   UNL A   1      43.349  27.933  33.438  1.00  0.00     0.037 A 
BRANCH  43  57
ATOM     57  C   UNL A   1      42.554  26.561  27.491  1.00  0.00     0.064 A 
ATOM     58  C   UNL A   1      43.580  27.033  26.663  1.00  0.00     0.173 A 
ATOM     59  C   UNL A   1      42.056  25.270  27.252  1.00  0.00     0.173 A 
ATOM     60  F   UNL A   1      44.084  28.263  26.844  1.00  0.00    -0.203 F 
ATOM     61  C   UNL A   1      44.088  26.240  25.634  1.00  0.00     0.198 A 
ATOM     62  C   UNL A   1      42.581  24.472  26.239  1.00  0.00     0.198 A 
ATOM     63  F   UNL A   1      41.081  24.768  28.026  1.00  0.00    -0.203 F 
ATOM     64  F   UNL A   1      45.058  26.716  24.841  1.00  0.00    -0.200 F 
ATOM     65  C   UNL A   1      43.596  24.958  25.431  1.00  0.00     0.200 A 
ATOM     66  F   UNL A   1      42.115  23.229  26.057  1.00  0.00    -0.200 F 
ATOM     67  F   UNL A   1      44.103  24.191  24.455  1.00  0.00    -0.200 F 
ENDBRANCH  43  57
BRANCH  44  68
ATOM     68  C   UNL A   1      39.188  32.004  35.042  1.00  0.00     0.064 A 
ATOM     69  C   UNL A   1      38.458  31.399  36.072  1.00  0.00     0.173 A 
ATOM     70  C   UNL A   1      39.446  33.381  35.140  1.00  0.00     0.173 A 
ATOM     71  F   UNL A   1      38.154  30.095  36.001  1.00  0.00    -0.203 F 
ATOM     72  C   UNL A   1      38.020  32.139  37.168  1.00  0.00     0.198 A 
ATOM     73  C   UNL A   1      39.039  34.111  36.252  1.00  0.00     0.198 A 
ATOM     74  F   UNL A   1      40.134  34.006  34.173  1.00  0.00    -0.203 F 
ATOM     75  F   UNL A   1      37.303  31.545  38.132  1.00  0.00    -0.200 F 
ATOM     76  C   UNL A   1      38.324  33.490  37.264  1.00  0.00     0.200 A 
ATOM     77  F   UNL A   1      39.352  35.410  36.348  1.00  0.00    -0.200 F 
ATOM     78  F   UNL A   1      37.928  34.194  38.333  1.00  0.00    -0.200 F 
ENDBRANCH  44  68
BRANCH  56  79
ATOM     79  C   UNL A   1      44.344  27.389  34.417  1.00  0.00     0.064 A 
ATOM     80  C   UNL A   1      45.572  28.031  34.640  1.00  0.00     0.173 A 
ATOM     81  C   UNL A   1      44.071  26.220  35.141  1.00  0.00     0.173 A 
ATOM     82  F   UNL A   1      45.886  29.141  33.955  1.00  0.00    -0.203 F 
ATOM     83  C   UNL A   1      46.499  27.507  35.537  1.00  0.00     0.198 A 
ATOM     84  C   UNL A   1      44.992  25.711  36.052  1.00  0.00     0.198 A 
ATOM     85  F   UNL A   1      42.910  25.571  34.963  1.00  0.00    -0.203 F 
ATOM     86  F   UNL A   1      47.684  28.111  35.702  1.00  0.00    -0.200 F 
ATOM     87  C   UNL A   1      46.207  26.350  36.244  1.00  0.00     0.200 A 
ATOM     88  F   UNL A   1      44.708  24.594  36.737  1.00  0.00    -0.200 F 
ATOM     89  F   UNL A   1      47.104  25.844  37.102  1.00  0.00    -0.200 F 
ENDBRANCH  56  79
ENDBRANCH  30  31
ENDBRANCH  23  25
ENDBRANCH  22  23
ENDBRANCH  21  22
ENDBRANCH   1  21
TORSDOF 17
ENDMDL
MODEL 3
REMARK VINA RESULT:     -11.1      4.062      9.718
REMARK SMILES C=CCN(CC(=O)OCCOC(=O)c1ccc(-c2c3nc(c(-c4c(F)c(F)c(F)c(F)c4F)c4ccc([nH]4)c(-c4c(F)c(F)c(F)c(F)c4F)c4nc(c(-c5c(F)c(F)c(F)c(F)c5F)c5ccc2[nH]5)C=C4)C=C3)cc1)S(=O)(=O)c1ccccc1OC
REMARK SMILES IDX 9 1 8 2 6 3 7 4 5 5 4 6 3 7 2 8 1 9 77 10 78 11 79 12 80 13
REMARK SMILES IDX 81 14 85 15 82 16 84 17 83 18 86 19 87 20 10 21 11 22 12 23
REMARK SMILES IDX 13 24 14 25 15 26 76 27 16 28 75 29 17 30 18 31 19 32 69 33
REMARK SMILES IDX 20 34 74 35 68 36 70 37 21 38 73 39 67 40 66 41 22 43 54 44
REMARK SMILES IDX 34 45 53 46 35 47 38 48 52 49 71 50 36 51 37 52 51 54 72 55
REMARK SMILES IDX 39 56 23 57 24 58 32 59 25 60 26 61 30 62 33 63 27 64 28 65
REMARK SMILES IDX 31 66 29 67 55 68 56 69 64 70 57 71 58 72 62 73 65 74 59 75
REMARK SMILES IDX 60 76 63 77 61 78 40 79 41 80 49 81 42 82 43 83 47 84 50 85
REMARK SMILES IDX 44 86 45 87 48 88 46 89
REMARK H PARENT 70 42 38 53
REMARK Flexibility Score: inf
ROOT
ATOM      1  C   UNL A   1      35.303  20.057  25.068  1.00  0.00     0.274 C 
ENDROOT
BRANCH   1   2
ATOM      2  O   UNL A   1      34.172  20.788  24.543  1.00  0.00    -0.461 OA
BRANCH   2   3
ATOM      3  C   UNL A   1      32.980  20.669  25.194  1.00  0.00     0.321 C 
ATOM      4  O   UNL A   1      32.158  19.787  24.966  1.00  0.00    -0.251 OA
BRANCH   3   5
ATOM      5  C   UNL A   1      32.699  21.856  26.113  1.00  0.00     0.225 C 
BRANCH   5   6
ATOM      6  N   UNL A   1      32.888  23.275  25.637  1.00  0.00    -0.183 NA
BRANCH   6   7
ATOM      7  C   UNL A   1      34.105  23.822  26.323  1.00  0.00     0.130 C 
BRANCH   7   8
ATOM      8  C   UNL A   1      35.172  24.237  25.367  1.00  0.00    -0.018 C 
ATOM      9  C   UNL A   1      35.077  24.012  24.048  1.00  0.00     0.005 C 
ENDBRANCH   7   8
ENDBRANCH   6   7
BRANCH   6  10
ATOM     10  S   UNL A   1      31.502  24.303  25.752  1.00  0.00     0.247 S 
ATOM     11  O   UNL A   1      30.596  23.970  24.673  1.00  0.00    -0.207 OA
ATOM     12  O   UNL A   1      31.025  24.208  27.119  1.00  0.00    -0.207 OA
BRANCH  10  13
ATOM     13  C   UNL A   1      31.922  26.039  25.549  1.00  0.00     0.124 A 
ATOM     14  C   UNL A   1      31.675  26.881  26.654  1.00  0.00     0.026 A 
ATOM     15  C   UNL A   1      32.220  26.645  24.332  1.00  0.00     0.138 A 
ATOM     16  C   UNL A   1      31.703  28.278  26.531  1.00  0.00     0.002 A 
ATOM     17  C   UNL A   1      32.294  28.048  24.223  1.00  0.00     0.048 A 
ATOM     18  C   UNL A   1      32.006  28.863  25.309  1.00  0.00     0.004 A 
BRANCH  15  19
ATOM     19  O   UNL A   1      32.470  25.946  23.193  1.00  0.00    -0.495 OA
ATOM     20  C   UNL A   1      31.507  26.290  22.208  1.00  0.00     0.278 C 
ENDBRANCH  15  19
ENDBRANCH  10  13
ENDBRANCH   6  10
ENDBRANCH   5   6
ENDBRANCH   3   5
ENDBRANCH   2   3
ENDBRANCH   1   2
BRANCH   1  21
ATOM     21  C   UNL A   1      36.633  20.650  24.596  1.00  0.00     0.275 C 
BRANCH  21  22
ATOM     22  O   UNL A   1      37.228  21.393  25.669  1.00  0.00    -0.458 OA
BRANCH  22  23
ATOM     23  C   UNL A   1      38.559  21.197  25.860  1.00  0.00     0.338 C 
ATOM     24  O   UNL A   1      39.200  20.216  25.525  1.00  0.00    -0.246 OA
BRANCH  23  25
ATOM     25  C   UNL A   1      39.150  22.401  26.512  1.00  0.00     0.060 A 
ATOM     26  C   UNL A   1      38.659  23.675  26.243  1.00  0.00     0.016 A 
ATOM     27  C   UNL A   1      40.261  22.278  27.352  1.00  0.00     0.016 A 
ATOM     28  C   UNL A   1      39.361  24.804  26.675  1.00  0.00     0.010 A 
ATOM     29  C   UNL A   1      40.904  23.424  27.863  1.00  0.00     0.010 A 
ATOM     30  C   UNL A   1      40.501  24.717  27.487  1.00  0.00    -0.014 A 
BRANCH  30  31
ATOM     31  C   UNL A   1      41.282  25.946  27.879  1.00  0.00     0.031 A 
ATOM     32  C   UNL A   1      40.672  27.005  28.778  1.00  0.00     0.074 A 
ATOM     33  C   UNL A   1      42.565  26.138  27.496  1.00  0.00     0.049 A 
ATOM     34  N   UNL A   1      41.048  28.248  28.968  1.00  0.00    -0.248 NA
ATOM     35  C   UNL A   1      39.485  26.622  29.558  1.00  0.00     0.031 C 
ATOM     36  C   UNL A   1      43.374  25.213  26.706  1.00  0.00     0.029 A 
ATOM     37  N   UNL A   1      43.426  27.188  27.741  1.00  0.00    -0.354 N 
ATOM     38  C   UNL A   1      40.091  28.819  29.799  1.00  0.00     0.074 A 
ATOM     39  C   UNL A   1      39.134  27.778  30.109  1.00  0.00     0.031 C 
ATOM     40  C   UNL A   1      44.624  25.683  26.607  1.00  0.00     0.029 A 
ATOM     41  C   UNL A   1      44.667  27.025  27.171  1.00  0.00     0.049 A 
ATOM     42  H   UNL A   1      43.177  27.977  28.273  1.00  0.00     0.167 HD
ATOM     43  C   UNL A   1      40.014  30.095  30.254  1.00  0.00     0.037 A 
ATOM     44  C   UNL A   1      45.704  27.873  27.020  1.00  0.00     0.037 A 
ATOM     45  C   UNL A   1      41.022  31.107  30.052  1.00  0.00     0.049 A 
ATOM     46  C   UNL A   1      45.583  29.294  27.478  1.00  0.00     0.074 A 
ATOM     47  C   UNL A   1      41.031  32.418  30.505  1.00  0.00     0.029 A 
ATOM     48  N   UNL A   1      42.215  30.915  29.376  1.00  0.00    -0.354 N 
ATOM     49  N   UNL A   1      44.595  29.876  28.107  1.00  0.00    -0.248 NA
ATOM     50  C   UNL A   1      46.702  30.191  27.151  1.00  0.00     0.031 C 
ATOM     51  C   UNL A   1      42.220  33.025  30.082  1.00  0.00     0.029 A 
ATOM     52  C   UNL A   1      42.964  32.082  29.396  1.00  0.00     0.049 A 
ATOM     53  H   UNL A   1      42.491  30.074  28.946  1.00  0.00     0.167 HD
ATOM     54  C   UNL A   1      44.964  31.207  28.241  1.00  0.00     0.074 A 
ATOM     55  C   UNL A   1      46.279  31.343  27.653  1.00  0.00     0.031 C 
ATOM     56  C   UNL A   1      44.262  32.225  28.794  1.00  0.00     0.037 A 
BRANCH  43  57
ATOM     57  C   UNL A   1      38.776  30.509  30.995  1.00  0.00     0.064 A 
ATOM     58  C   UNL A   1      38.699  30.485  32.393  1.00  0.00     0.173 A 
ATOM     59  C   UNL A   1      37.686  31.038  30.284  1.00  0.00     0.173 A 
ATOM     60  F   UNL A   1      39.710  29.981  33.117  1.00  0.00    -0.203 F 
ATOM     61  C   UNL A   1      37.573  30.973  33.054  1.00  0.00     0.198 A 
ATOM     62  C   UNL A   1      36.572  31.545  30.948  1.00  0.00     0.198 A 
ATOM     63  F   UNL A   1      37.716  31.093  28.944  1.00  0.00    -0.203 F 
ATOM     64  F   UNL A   1      37.510  30.925  34.392  1.00  0.00    -0.200 F 
ATOM     65  C   UNL A   1      36.517  31.512  32.332  1.00  0.00     0.200 A 
ATOM     66  F   UNL A   1      35.562  32.081  30.249  1.00  0.00    -0.200 F 
ATOM     67  F   UNL A   1      35.445  32.001  32.973  1.00  0.00    -0.200 F 
ENDBRANCH  43  57
BRANCH  44  68
ATOM     68  C   UNL A   1      46.914  27.414  26.287  1.00  0.00     0.064 A 
ATOM     69  C   UNL A   1      47.045  27.616  24.908  1.00  0.00     0.173 A 
ATOM     70  C   UNL A   1      47.979  26.801  26.965  1.00  0.00     0.173 A 
ATOM     71  F   UNL A   1      46.037  28.163  24.212  1.00  0.00    -0.203 F 
ATOM     72  C   UNL A   1      48.206  27.238  24.237  1.00  0.00     0.198 A 
ATOM     73  C   UNL A   1      49.152  26.456  26.301  1.00  0.00     0.198 A 
ATOM     74  F   UNL A   1      47.896  26.579  28.285  1.00  0.00    -0.203 F 
ATOM     75  F   UNL A   1      48.302  27.419  22.913  1.00  0.00    -0.200 F 
ATOM     76  C   UNL A   1      49.264  26.673  24.936  1.00  0.00     0.200 A 
ATOM     77  F   UNL A   1      50.176  25.929  26.985  1.00  0.00    -0.200 F 
ATOM     78  F   UNL A   1      50.391  26.337  24.295  1.00  0.00    -0.200 F 
ENDBRANCH  44  68
BRANCH  56  79
ATOM     79  C   UNL A   1      44.909  33.576  28.796  1.00  0.00     0.064 A 
ATOM     80  C   UNL A   1      45.666  34.019  29.891  1.00  0.00     0.173 A 
ATOM     81  C   UNL A   1      44.777  34.434  27.696  1.00  0.00     0.173 A 
ATOM     82  F   UNL A   1      45.803  33.241  30.975  1.00  0.00    -0.203 F 
ATOM     83  C   UNL A   1      46.247  35.284  29.892  1.00  0.00     0.198 A 
ATOM     84  C   UNL A   1      45.377  35.690  27.692  1.00  0.00     0.198 A 
ATOM     85  F   UNL A   1      44.064  34.055  26.624  1.00  0.00    -0.203 F 
ATOM     86  F   UNL A   1      46.929  35.706  30.966  1.00  0.00    -0.200 F 
ATOM     87  C   UNL A   1      46.105  36.117  28.792  1.00  0.00     0.200 A 
ATOM     88  F   UNL A   1      45.241  36.493  26.627  1.00  0.00    -0.200 F 
ATOM     89  F   UNL A   1      46.661  37.337  28.798  1.00  0.00    -0.200 F 
ENDBRANCH  56  79
ENDBRANCH  30  31
ENDBRANCH  23  25
ENDBRANCH  22  23
ENDBRANCH  21  22
ENDBRANCH   1  21
TORSDOF 17
ENDMDL
