MODEL 1
REMARK VINA RESULT:     -11.2      0.000      0.000
REMARK SMILES COc1ccccc1/C=C/C(=O)N(CC(=O)OCCOC(=O)c1ccc(-c2c3nc(c(-c4c(F)c(F)c(F)c(F)c4F)c4ccc([nH]4)c(-c4c(F)c(F)c(F)c(F)c4F)c4nc(c(-c5c(F)c(F)c(F)c(F)c5F)c5ccc2[nH]5)C=C4)C=C3)cc1)C(C)(C)C
REMARK SMILES IDX 17 1 15 2 16 3 14 4 13 5 11 6 12 7 10 8 9 9 8 10 3 11 4 12
REMARK SMILES IDX 5 13 7 14 6 15 2 16 1 17 86 18 87 19 88 20 89 21 18 22 19 23
REMARK SMILES IDX 20 24 21 25 22 26 23 27 24 28 85 29 25 30 84 31 26 32 27 33
REMARK SMILES IDX 28 34 78 35 29 36 83 37 77 38 79 39 30 40 82 41 76 42 75 43
REMARK SMILES IDX 31 45 63 46 43 47 62 48 44 49 47 50 61 51 80 52 45 53 46 54
REMARK SMILES IDX 60 56 81 57 48 58 32 59 33 60 41 61 34 62 35 63 39 64 42 65
REMARK SMILES IDX 36 66 37 67 40 68 38 69 64 70 65 71 73 72 66 73 67 74 71 75
REMARK SMILES IDX 74 76 68 77 69 78 72 79 70 80 49 81 50 82 58 83 51 84 52 85
REMARK SMILES IDX 56 86 59 87 53 88 54 89 57 90 55 91
REMARK H PARENT 79 44 47 55
REMARK Flexibility Score: inf
ROOT
ATOM      1  O   UNL A   1      32.334  27.487  26.374  1.00  0.00    -0.461 OA
ENDROOT
BRANCH   1   2
ATOM      2  C   UNL A   1      31.506  26.422  26.194  1.00  0.00     0.325 C 
ATOM      3  O   UNL A   1      31.316  25.543  27.030  1.00  0.00    -0.250 OA
BRANCH   2   4
ATOM      4  C   UNL A   1      30.727  26.456  24.877  1.00  0.00     0.243 C 
BRANCH   4   5
ATOM      5  N   UNL A   1      31.378  25.872  23.692  1.00  0.00    -0.323 N 
BRANCH   5   6
ATOM      6  C   UNL A   1      31.527  24.485  23.583  1.00  0.00     0.247 C 
ATOM      7  O   UNL A   1      30.612  23.693  23.378  1.00  0.00    -0.270 OA
BRANCH   6   8
ATOM      8  C   UNL A   1      32.853  23.908  23.924  1.00  0.00     0.072 C 
ATOM      9  C   UNL A   1      33.201  22.635  23.696  1.00  0.00     0.017 C 
BRANCH   9  10
ATOM     10  C   UNL A   1      34.550  22.146  24.017  1.00  0.00     0.017 A 
ATOM     11  C   UNL A   1      34.745  20.940  24.709  1.00  0.00     0.126 A 
ATOM     12  C   UNL A   1      36.031  20.515  25.054  1.00  0.00     0.047 A 
ATOM     13  C   UNL A   1      37.139  21.265  24.665  1.00  0.00     0.004 A 
ATOM     14  C   UNL A   1      35.674  22.889  23.630  1.00  0.00     0.012 A 
ATOM     15  C   UNL A   1      36.960  22.446  23.946  1.00  0.00     0.001 A 
BRANCH  11  16
ATOM     16  O   UNL A   1      33.663  20.195  25.103  1.00  0.00    -0.496 OA
ATOM     17  C   UNL A   1      33.724  18.880  24.547  1.00  0.00     0.278 C 
ENDBRANCH  11  16
ENDBRANCH   9  10
ENDBRANCH   6   8
ENDBRANCH   5   6
BRANCH   5  18
ATOM     18  C   UNL A   1      31.861  26.758  22.569  1.00  0.00     0.035 C 
ATOM     19  C   UNL A   1      31.907  25.998  21.228  1.00  0.00     0.034 C 
ATOM     20  C   UNL A   1      30.928  27.986  22.448  1.00  0.00     0.034 C 
ATOM     21  C   UNL A   1      33.283  27.337  22.784  1.00  0.00     0.034 C 
ENDBRANCH   5  18
ENDBRANCH   4   5
ENDBRANCH   2   4
ENDBRANCH   1   2
BRANCH   1  22
ATOM     22  C   UNL A   1      31.695  28.675  26.885  1.00  0.00     0.274 C 
BRANCH  22  23
ATOM     23  C   UNL A   1      31.853  29.847  25.914  1.00  0.00     0.275 C 
BRANCH  23  24
ATOM     24  O   UNL A   1      33.171  30.409  26.031  1.00  0.00    -0.458 OA
BRANCH  24  25
ATOM     25  C   UNL A   1      33.322  31.383  26.960  1.00  0.00     0.338 C 
ATOM     26  O   UNL A   1      32.564  32.320  27.168  1.00  0.00    -0.246 OA
BRANCH  25  27
ATOM     27  C   UNL A   1      34.548  31.161  27.756  1.00  0.00     0.060 A 
ATOM     28  C   UNL A   1      35.500  32.168  27.935  1.00  0.00     0.016 A 
ATOM     29  C   UNL A   1      34.804  29.882  28.253  1.00  0.00     0.016 A 
ATOM     30  C   UNL A   1      36.724  31.889  28.542  1.00  0.00     0.010 A 
ATOM     31  C   UNL A   1      35.989  29.626  28.948  1.00  0.00     0.010 A 
ATOM     32  C   UNL A   1      36.970  30.622  29.085  1.00  0.00    -0.014 A 
BRANCH  32  33
ATOM     33  C   UNL A   1      38.232  30.335  29.816  1.00  0.00     0.031 A 
ATOM     34  C   UNL A   1      39.273  29.433  29.213  1.00  0.00     0.074 A 
ATOM     35  C   UNL A   1      38.430  30.849  31.046  1.00  0.00     0.049 A 
ATOM     36  N   UNL A   1      40.320  28.882  29.775  1.00  0.00    -0.248 NA
ATOM     37  C   UNL A   1      39.107  29.093  27.791  1.00  0.00     0.031 C 
ATOM     38  C   UNL A   1      37.520  31.762  31.741  1.00  0.00     0.029 A 
ATOM     39  N   UNL A   1      39.457  30.663  31.939  1.00  0.00    -0.354 N 
ATOM     40  C   UNL A   1      40.904  28.090  28.796  1.00  0.00     0.074 A 
ATOM     41  C   UNL A   1      40.101  28.236  27.600  1.00  0.00     0.031 C 
ATOM     42  C   UNL A   1      38.036  32.071  32.939  1.00  0.00     0.029 A 
ATOM     43  C   UNL A   1      39.268  31.315  33.132  1.00  0.00     0.049 A 
ATOM     44  H   UNL A   1      40.252  30.117  31.742  1.00  0.00     0.167 HD
ATOM     45  C   UNL A   1      42.007  27.310  28.893  1.00  0.00     0.037 A 
ATOM     46  C   UNL A   1      39.976  31.272  34.277  1.00  0.00     0.037 A 
ATOM     47  C   UNL A   1      42.831  27.205  30.070  1.00  0.00     0.049 A 
ATOM     48  C   UNL A   1      41.179  30.381  34.366  1.00  0.00     0.074 A 
ATOM     49  C   UNL A   1      43.985  26.462  30.252  1.00  0.00     0.029 A 
ATOM     50  N   UNL A   1      42.596  27.875  31.260  1.00  0.00    -0.354 N 
ATOM     51  N   UNL A   1      41.696  29.598  33.451  1.00  0.00    -0.248 NA
ATOM     52  C   UNL A   1      41.885  30.351  35.654  1.00  0.00     0.031 C 
ATOM     53  C   UNL A   1      44.432  26.660  31.563  1.00  0.00     0.029 A 
ATOM     54  C   UNL A   1      43.576  27.553  32.186  1.00  0.00     0.049 A 
ATOM     55  H   UNL A   1      41.842  28.487  31.425  1.00  0.00     0.167 HD
ATOM     56  C   UNL A   1      42.789  28.987  34.049  1.00  0.00     0.074 A 
ATOM     57  C   UNL A   1      42.873  29.505  35.398  1.00  0.00     0.031 C 
ATOM     58  C   UNL A   1      43.642  28.075  33.526  1.00  0.00     0.037 A 
BRANCH  45  59
ATOM     59  C   UNL A   1      42.379  26.479  27.702  1.00  0.00     0.064 A 
ATOM     60  C   UNL A   1      43.356  26.895  26.787  1.00  0.00     0.173 A 
ATOM     61  C   UNL A   1      41.787  25.222  27.508  1.00  0.00     0.173 A 
ATOM     62  F   UNL A   1      43.940  28.095  26.922  1.00  0.00    -0.203 F 
ATOM     63  C   UNL A   1      43.718  26.086  25.712  1.00  0.00     0.198 A 
ATOM     64  C   UNL A   1      42.167  24.406  26.445  1.00  0.00     0.198 A 
ATOM     65  F   UNL A   1      40.850  24.777  28.360  1.00  0.00    -0.203 F 
ATOM     66  F   UNL A   1      44.633  26.515  24.832  1.00  0.00    -0.200 F 
ATOM     67  C   UNL A   1      43.129  24.840  25.547  1.00  0.00     0.200 A 
ATOM     68  F   UNL A   1      41.605  23.199  26.293  1.00  0.00    -0.200 F 
ATOM     69  F   UNL A   1      43.487  24.060  24.517  1.00  0.00    -0.200 F 
ENDBRANCH  45  59
BRANCH  46  70
ATOM     70  C   UNL A   1      39.529  32.074  35.442  1.00  0.00     0.064 A 
ATOM     71  C   UNL A   1      39.965  33.394  35.613  1.00  0.00     0.173 A 
ATOM     72  C   UNL A   1      38.641  31.547  36.392  1.00  0.00     0.173 A 
ATOM     73  F   UNL A   1      40.832  33.930  34.741  1.00  0.00    -0.203 F 
ATOM     74  C   UNL A   1      39.529  34.159  36.692  1.00  0.00     0.198 A 
ATOM     75  C   UNL A   1      38.187  32.322  37.457  1.00  0.00     0.198 A 
ATOM     76  F   UNL A   1      38.197  30.288  36.270  1.00  0.00    -0.203 F 
ATOM     77  F   UNL A   1      39.981  35.411  36.848  1.00  0.00    -0.200 F 
ATOM     78  C   UNL A   1      38.634  33.626  37.607  1.00  0.00     0.200 A 
ATOM     79  F   UNL A   1      37.311  31.808  38.330  1.00  0.00    -0.200 F 
ATOM     80  F   UNL A   1      38.205  34.367  38.638  1.00  0.00    -0.200 F 
ENDBRANCH  46  70
BRANCH  58  81
ATOM     81  C   UNL A   1      44.751  27.596  34.412  1.00  0.00     0.064 A 
ATOM     82  C   UNL A   1      44.608  26.446  35.202  1.00  0.00     0.173 A 
ATOM     83  C   UNL A   1      45.973  28.281  34.457  1.00  0.00     0.173 A 
ATOM     84  F   UNL A   1      43.450  25.770  35.206  1.00  0.00    -0.203 F 
ATOM     85  C   UNL A   1      45.646  26.012  36.022  1.00  0.00     0.198 A 
ATOM     86  C   UNL A   1      47.015  27.833  35.262  1.00  0.00     0.198 A 
ATOM     87  F   UNL A   1      46.156  29.386  33.716  1.00  0.00    -0.203 F 
ATOM     88  F   UNL A   1      45.475  24.935  36.802  1.00  0.00    -0.200 F 
ATOM     89  C   UNL A   1      46.849  26.702  36.049  1.00  0.00     0.200 A 
ATOM     90  F   UNL A   1      48.178  28.497  35.282  1.00  0.00    -0.200 F 
ATOM     91  F   UNL A   1      47.845  26.283  36.840  1.00  0.00    -0.200 F 
ENDBRANCH  58  81
ENDBRANCH  32  33
ENDBRANCH  25  27
ENDBRANCH  24  25
ENDBRANCH  23  24
ENDBRANCH  22  23
ENDBRANCH   1  22
TORSDOF 17
ENDMDL
MODEL 2
REMARK VINA RESULT:     -11.1      1.087      2.290
REMARK SMILES COc1ccccc1/C=C/C(=O)N(CC(=O)OCCOC(=O)c1ccc(-c2c3nc(c(-c4c(F)c(F)c(F)c(F)c4F)c4ccc([nH]4)c(-c4c(F)c(F)c(F)c(F)c4F)c4nc(c(-c5c(F)c(F)c(F)c(F)c5F)c5ccc2[nH]5)C=C4)C=C3)cc1)C(C)(C)C
REMARK SMILES IDX 17 1 15 2 16 3 14 4 13 5 11 6 12 7 10 8 9 9 8 10 3 11 4 12
REMARK SMILES IDX 5 13 7 14 6 15 2 16 1 17 86 18 87 19 88 20 89 21 18 22 19 23
REMARK SMILES IDX 20 24 21 25 22 26 23 27 24 28 85 29 25 30 84 31 26 32 27 33
REMARK SMILES IDX 28 34 78 35 29 36 83 37 77 38 79 39 30 40 82 41 76 42 75 43
REMARK SMILES IDX 31 45 63 46 43 47 62 48 44 49 47 50 61 51 80 52 45 53 46 54
REMARK SMILES IDX 60 56 81 57 48 58 32 59 33 60 41 61 34 62 35 63 39 64 42 65
REMARK SMILES IDX 36 66 37 67 40 68 38 69 64 70 65 71 73 72 66 73 67 74 71 75
REMARK SMILES IDX 74 76 68 77 69 78 72 79 70 80 49 81 50 82 58 83 51 84 52 85
REMARK SMILES IDX 56 86 59 87 53 88 54 89 57 90 55 91
REMARK H PARENT 79 44 47 55
REMARK Flexibility Score: inf
ROOT
ATOM      1  O   UNL A   1      31.832  27.584  26.482  1.00  0.00    -0.461 OA
ENDROOT
BRANCH   1   2
ATOM      2  C   UNL A   1      31.821  26.235  26.304  1.00  0.00     0.325 C 
ATOM      3  O   UNL A   1      30.872  25.507  26.581  1.00  0.00    -0.250 OA
BRANCH   2   4
ATOM      4  C   UNL A   1      33.074  25.688  25.617  1.00  0.00     0.243 C 
BRANCH   4   5
ATOM      5  N   UNL A   1      32.927  24.455  24.824  1.00  0.00    -0.323 N 
BRANCH   5   6
ATOM      6  C   UNL A   1      33.262  23.216  25.382  1.00  0.00     0.247 C 
ATOM      7  O   UNL A   1      32.459  22.330  25.660  1.00  0.00    -0.270 OA
BRANCH   6   8
ATOM      8  C   UNL A   1      34.661  23.027  25.843  1.00  0.00     0.072 C 
ATOM      9  C   UNL A   1      35.737  23.157  25.057  1.00  0.00     0.017 C 
BRANCH   9  10
ATOM     10  C   UNL A   1      37.096  23.000  25.595  1.00  0.00     0.017 A 
ATOM     11  C   UNL A   1      37.807  21.799  25.448  1.00  0.00     0.126 A 
ATOM     12  C   UNL A   1      39.077  21.646  26.012  1.00  0.00     0.047 A 
ATOM     13  C   UNL A   1      39.672  22.712  26.684  1.00  0.00     0.004 A 
ATOM     14  C   UNL A   1      37.708  24.064  26.273  1.00  0.00     0.012 A 
ATOM     15  C   UNL A   1      38.991  23.923  26.806  1.00  0.00     0.001 A 
BRANCH  11  16
ATOM     16  O   UNL A   1      37.231  20.739  24.794  1.00  0.00    -0.496 OA
ATOM     17  C   UNL A   1      38.040  19.568  24.918  1.00  0.00     0.278 C 
ENDBRANCH  11  16
ENDBRANCH   9  10
ENDBRANCH   6   8
ENDBRANCH   5   6
BRANCH   5  18
ATOM     18  C   UNL A   1      32.386  24.510  23.415  1.00  0.00     0.035 C 
ATOM     19  C   UNL A   1      32.653  25.879  22.759  1.00  0.00     0.034 C 
ATOM     20  C   UNL A   1      33.037  23.387  22.573  1.00  0.00     0.034 C 
ATOM     21  C   UNL A   1      30.858  24.273  23.312  1.00  0.00     0.034 C 
ENDBRANCH   5  18
ENDBRANCH   4   5
ENDBRANCH   2   4
ENDBRANCH   1   2
BRANCH   1  22
ATOM     22  C   UNL A   1      31.567  28.357  25.293  1.00  0.00     0.274 C 
BRANCH  22  23
ATOM     23  C   UNL A   1      31.791  29.850  25.544  1.00  0.00     0.275 C 
BRANCH  23  24
ATOM     24  O   UNL A   1      33.161  30.088  25.908  1.00  0.00    -0.458 OA
BRANCH  24  25
ATOM     25  C   UNL A   1      33.370  31.030  26.858  1.00  0.00     0.338 C 
ATOM     26  O   UNL A   1      32.618  31.947  27.157  1.00  0.00    -0.246 OA
BRANCH  25  27
ATOM     27  C   UNL A   1      34.655  30.798  27.551  1.00  0.00     0.060 A 
ATOM     28  C   UNL A   1      35.034  29.526  27.988  1.00  0.00     0.016 A 
ATOM     29  C   UNL A   1      35.458  31.895  27.863  1.00  0.00     0.016 A 
ATOM     30  C   UNL A   1      36.165  29.356  28.788  1.00  0.00     0.010 A 
ATOM     31  C   UNL A   1      36.644  31.713  28.581  1.00  0.00     0.010 A 
ATOM     32  C   UNL A   1      37.001  30.444  29.066  1.00  0.00    -0.014 A 
BRANCH  32  33
ATOM     33  C   UNL A   1      38.258  30.264  29.839  1.00  0.00     0.031 A 
ATOM     34  C   UNL A   1      39.393  29.460  29.269  1.00  0.00     0.074 A 
ATOM     35  C   UNL A   1      38.369  30.788  31.075  1.00  0.00     0.049 A 
ATOM     36  N   UNL A   1      40.465  29.000  29.866  1.00  0.00    -0.248 NA
ATOM     37  C   UNL A   1      39.305  29.114  27.842  1.00  0.00     0.031 C 
ATOM     38  C   UNL A   1      37.360  31.615  31.741  1.00  0.00     0.029 A 
ATOM     39  N   UNL A   1      39.378  30.689  32.002  1.00  0.00    -0.354 N 
ATOM     40  C   UNL A   1      41.149  28.267  28.905  1.00  0.00     0.074 A 
ATOM     41  C   UNL A   1      40.376  28.347  27.683  1.00  0.00     0.031 C 
ATOM     42  C   UNL A   1      37.807  31.962  32.957  1.00  0.00     0.029 A 
ATOM     43  C   UNL A   1      39.093  31.315  33.189  1.00  0.00     0.049 A 
ATOM     44  H   UNL A   1      40.224  30.214  31.831  1.00  0.00     0.167 HD
ATOM     45  C   UNL A   1      42.312  27.586  29.038  1.00  0.00     0.037 A 
ATOM     46  C   UNL A   1      39.763  31.329  34.357  1.00  0.00     0.037 A 
ATOM     47  C   UNL A   1      43.102  27.548  30.241  1.00  0.00     0.049 A 
ATOM     48  C   UNL A   1      41.037  30.546  34.485  1.00  0.00     0.074 A 
ATOM     49  C   UNL A   1      44.310  26.908  30.461  1.00  0.00     0.029 A 
ATOM     50  N   UNL A   1      42.770  28.188  31.425  1.00  0.00    -0.354 N 
ATOM     51  N   UNL A   1      41.650  29.816  33.587  1.00  0.00    -0.248 NA
ATOM     52  C   UNL A   1      41.699  30.572  35.796  1.00  0.00     0.031 C 
ATOM     53  C   UNL A   1      44.694  27.138  31.787  1.00  0.00     0.029 A 
ATOM     54  C   UNL A   1      43.743  27.949  32.382  1.00  0.00     0.049 A 
ATOM     55  H   UNL A   1      41.960  28.731  31.565  1.00  0.00     0.167 HD
ATOM     56  C   UNL A   1      42.771  29.300  34.220  1.00  0.00     0.074 A 
ATOM     57  C   UNL A   1      42.765  29.817  35.573  1.00  0.00     0.031 C 
ATOM     58  C   UNL A   1      43.719  28.468  33.724  1.00  0.00     0.037 A 
BRANCH  45  59
ATOM     59  C   UNL A   1      42.794  26.796  27.859  1.00  0.00     0.064 A 
ATOM     60  C   UNL A   1      42.483  25.438  27.702  1.00  0.00     0.173 A 
ATOM     61  C   UNL A   1      43.532  27.424  26.844  1.00  0.00     0.173 A 
ATOM     62  F   UNL A   1      41.792  24.789  28.652  1.00  0.00    -0.203 F 
ATOM     63  C   UNL A   1      42.904  24.734  26.575  1.00  0.00     0.198 A 
ATOM     64  C   UNL A   1      43.932  26.724  25.709  1.00  0.00     0.198 A 
ATOM     65  F   UNL A   1      43.852  28.723  26.946  1.00  0.00    -0.203 F 
ATOM     66  F   UNL A   1      42.620  23.429  26.459  1.00  0.00    -0.200 F 
ATOM     67  C   UNL A   1      43.620  25.379  25.578  1.00  0.00     0.200 A 
ATOM     68  F   UNL A   1      44.616  27.350  24.742  1.00  0.00    -0.200 F 
ATOM     69  F   UNL A   1      44.015  24.702  24.490  1.00  0.00    -0.200 F 
ENDBRANCH  45  59
BRANCH  46  70
ATOM     70  C   UNL A   1      39.210  32.084  35.509  1.00  0.00     0.064 A 
ATOM     71  C   UNL A   1      38.404  31.447  36.462  1.00  0.00     0.173 A 
ATOM     72  C   UNL A   1      39.494  33.445  35.693  1.00  0.00     0.173 A 
ATOM     73  F   UNL A   1      38.088  30.152  36.313  1.00  0.00    -0.203 F 
ATOM     74  C   UNL A   1      37.903  32.145  37.557  1.00  0.00     0.198 A 
ATOM     75  C   UNL A   1      39.013  34.134  36.803  1.00  0.00     0.198 A 
ATOM     76  F   UNL A   1      40.262  34.096  34.807  1.00  0.00    -0.203 F 
ATOM     77  F   UNL A   1      37.112  31.520  38.442  1.00  0.00    -0.200 F 
ATOM     78  C   UNL A   1      38.215  33.485  37.732  1.00  0.00     0.200 A 
ATOM     79  F   UNL A   1      39.329  35.425  36.975  1.00  0.00    -0.200 F 
ATOM     80  F   UNL A   1      37.742  34.152  38.794  1.00  0.00    -0.200 F 
ENDBRANCH  46  70
BRANCH  58  81
ATOM     81  C   UNL A   1      44.835  28.084  34.647  1.00  0.00     0.064 A 
ATOM     82  C   UNL A   1      44.765  26.925  35.433  1.00  0.00     0.173 A 
ATOM     83  C   UNL A   1      45.992  28.871  34.730  1.00  0.00     0.173 A 
ATOM     84  F   UNL A   1      43.669  26.152  35.399  1.00  0.00    -0.203 F 
ATOM     85  C   UNL A   1      45.809  26.579  36.287  1.00  0.00     0.198 A 
ATOM     86  C   UNL A   1      47.042  28.511  35.569  1.00  0.00     0.198 A 
ATOM     87  F   UNL A   1      46.104  29.988  33.995  1.00  0.00    -0.203 F 
ATOM     88  F   UNL A   1      45.705  25.490  37.061  1.00  0.00    -0.200 F 
ATOM     89  C   UNL A   1      46.947  27.369  36.351  1.00  0.00     0.200 A 
ATOM     90  F   UNL A   1      48.143  29.272  35.626  1.00  0.00    -0.200 F 
ATOM     91  F   UNL A   1      47.949  27.035  37.175  1.00  0.00    -0.200 F 
ENDBRANCH  58  81
ENDBRANCH  32  33
ENDBRANCH  25  27
ENDBRANCH  24  25
ENDBRANCH  23  24
ENDBRANCH  22  23
ENDBRANCH   1  22
TORSDOF 17
ENDMDL
MODEL 3
REMARK VINA RESULT:     -11.0      0.932      2.458
REMARK SMILES COc1ccccc1/C=C/C(=O)N(CC(=O)OCCOC(=O)c1ccc(-c2c3nc(c(-c4c(F)c(F)c(F)c(F)c4F)c4ccc([nH]4)c(-c4c(F)c(F)c(F)c(F)c4F)c4nc(c(-c5c(F)c(F)c(F)c(F)c5F)c5ccc2[nH]5)C=C4)C=C3)cc1)C(C)(C)C
REMARK SMILES IDX 17 1 15 2 16 3 14 4 13 5 11 6 12 7 10 8 9 9 8 10 3 11 4 12
REMARK SMILES IDX 5 13 7 14 6 15 2 16 1 17 86 18 87 19 88 20 89 21 18 22 19 23
REMARK SMILES IDX 20 24 21 25 22 26 23 27 24 28 85 29 25 30 84 31 26 32 27 33
REMARK SMILES IDX 28 34 78 35 29 36 83 37 77 38 79 39 30 40 82 41 76 42 75 43
REMARK SMILES IDX 31 45 63 46 43 47 62 48 44 49 47 50 61 51 80 52 45 53 46 54
REMARK SMILES IDX 60 56 81 57 48 58 32 59 33 60 41 61 34 62 35 63 39 64 42 65
REMARK SMILES IDX 36 66 37 67 40 68 38 69 64 70 65 71 73 72 66 73 67 74 71 75
REMARK SMILES IDX 74 76 68 77 69 78 72 79 70 80 49 81 50 82 58 83 51 84 52 85
REMARK SMILES IDX 56 86 59 87 53 88 54 89 57 90 55 91
REMARK H PARENT 79 44 47 55
REMARK Flexibility Score: inf
ROOT
ATOM      1  O   UNL A   1      31.256  27.477  24.341  1.00  0.00    -0.461 OA
ENDROOT
BRANCH   1   2
ATOM      2  C   UNL A   1      31.468  26.794  23.183  1.00  0.00     0.325 C 
ATOM      3  O   UNL A   1      30.802  26.936  22.162  1.00  0.00    -0.250 OA
BRANCH   2   4
ATOM      4  C   UNL A   1      32.699  25.885  23.214  1.00  0.00     0.243 C 
BRANCH   4   5
ATOM      5  N   UNL A   1      32.699  24.779  24.187  1.00  0.00    -0.323 N 
BRANCH   5   6
ATOM      6  C   UNL A   1      31.874  23.666  23.987  1.00  0.00     0.247 C 
ATOM      7  O   UNL A   1      30.652  23.668  24.100  1.00  0.00    -0.270 OA
BRANCH   6   8
ATOM      8  C   UNL A   1      32.532  22.347  23.807  1.00  0.00     0.072 C 
ATOM      9  C   UNL A   1      32.069  21.199  24.319  1.00  0.00     0.017 C 
BRANCH   9  10
ATOM     10  C   UNL A   1      32.749  19.922  24.059  1.00  0.00     0.017 A 
ATOM     11  C   UNL A   1      33.992  19.624  24.641  1.00  0.00     0.126 A 
ATOM     12  C   UNL A   1      34.652  18.428  24.343  1.00  0.00     0.047 A 
ATOM     13  C   UNL A   1      34.052  17.494  23.501  1.00  0.00     0.004 A 
ATOM     14  C   UNL A   1      32.157  18.972  23.216  1.00  0.00     0.012 A 
ATOM     15  C   UNL A   1      32.801  17.762  22.946  1.00  0.00     0.001 A 
BRANCH  11  16
ATOM     16  O   UNL A   1      34.597  20.538  25.466  1.00  0.00    -0.496 OA
ATOM     17  C   UNL A   1      35.953  20.756  25.071  1.00  0.00     0.278 C 
ENDBRANCH  11  16
ENDBRANCH   9  10
ENDBRANCH   6   8
ENDBRANCH   5   6
BRANCH   5  18
ATOM     18  C   UNL A   1      33.607  24.819  25.393  1.00  0.00     0.035 C 
ATOM     19  C   UNL A   1      33.123  23.860  26.498  1.00  0.00     0.034 C 
ATOM     20  C   UNL A   1      35.045  24.444  24.963  1.00  0.00     0.034 C 
ATOM     21  C   UNL A   1      33.722  26.216  26.054  1.00  0.00     0.034 C 
ENDBRANCH   5  18
ENDBRANCH   4   5
ENDBRANCH   2   4
ENDBRANCH   1   2
BRANCH   1  22
ATOM     22  C   UNL A   1      31.537  28.890  24.274  1.00  0.00     0.274 C 
BRANCH  22  23
ATOM     23  C   UNL A   1      31.768  29.474  25.669  1.00  0.00     0.275 C 
BRANCH  23  24
ATOM     24  O   UNL A   1      33.030  30.162  25.712  1.00  0.00    -0.458 OA
BRANCH  24  25
ATOM     25  C   UNL A   1      33.207  31.015  26.748  1.00  0.00     0.338 C 
ATOM     26  O   UNL A   1      32.436  31.891  27.115  1.00  0.00    -0.246 OA
BRANCH  25  27
ATOM     27  C   UNL A   1      34.483  30.738  27.442  1.00  0.00     0.060 A 
ATOM     28  C   UNL A   1      34.796  29.463  27.919  1.00  0.00     0.016 A 
ATOM     29  C   UNL A   1      35.346  31.800  27.713  1.00  0.00     0.016 A 
ATOM     30  C   UNL A   1      35.922  29.259  28.718  1.00  0.00     0.010 A 
ATOM     31  C   UNL A   1      36.525  31.578  28.430  1.00  0.00     0.010 A 
ATOM     32  C   UNL A   1      36.816  30.309  28.955  1.00  0.00    -0.014 A 
BRANCH  32  33
ATOM     33  C   UNL A   1      38.068  30.087  29.727  1.00  0.00     0.031 A 
ATOM     34  C   UNL A   1      39.162  29.219  29.171  1.00  0.00     0.074 A 
ATOM     35  C   UNL A   1      38.208  30.631  30.952  1.00  0.00     0.049 A 
ATOM     36  N   UNL A   1      40.214  28.722  29.773  1.00  0.00    -0.248 NA
ATOM     37  C   UNL A   1      39.051  28.846  27.752  1.00  0.00     0.031 C 
ATOM     38  C   UNL A   1      37.243  31.518  31.603  1.00  0.00     0.029 A 
ATOM     39  N   UNL A   1      39.216  30.505  31.877  1.00  0.00    -0.354 N 
ATOM     40  C   UNL A   1      40.858  27.938  28.827  1.00  0.00     0.074 A 
ATOM     41  C   UNL A   1      40.084  28.027  27.606  1.00  0.00     0.031 C 
ATOM     42  C   UNL A   1      37.711  31.871  32.809  1.00  0.00     0.029 A 
ATOM     43  C   UNL A   1      38.967  31.170  33.051  1.00  0.00     0.049 A 
ATOM     44  H   UNL A   1      40.038  29.988  31.713  1.00  0.00     0.167 HD
ATOM     45  C   UNL A   1      41.989  27.206  28.969  1.00  0.00     0.037 A 
ATOM     46  C   UNL A   1      39.642  31.177  34.216  1.00  0.00     0.037 A 
ATOM     47  C   UNL A   1      42.782  27.157  30.170  1.00  0.00     0.049 A 
ATOM     48  C   UNL A   1      40.878  30.339  34.356  1.00  0.00     0.074 A 
ATOM     49  C   UNL A   1      43.960  26.466  30.399  1.00  0.00     0.029 A 
ATOM     50  N   UNL A   1      42.485  27.837  31.341  1.00  0.00    -0.354 N 
ATOM     51  N   UNL A   1      41.453  29.562  33.472  1.00  0.00    -0.248 NA
ATOM     52  C   UNL A   1      41.547  30.362  35.664  1.00  0.00     0.031 C 
ATOM     53  C   UNL A   1      44.361  26.707  31.719  1.00  0.00     0.029 A 
ATOM     54  C   UNL A   1      43.451  27.574  32.299  1.00  0.00     0.049 A 
ATOM     55  H   UNL A   1      41.703  28.421  31.472  1.00  0.00     0.167 HD
ATOM     56  C   UNL A   1      42.552  29.008  34.111  1.00  0.00     0.074 A 
ATOM     57  C   UNL A   1      42.577  29.553  35.453  1.00  0.00     0.031 C 
ATOM     58  C   UNL A   1      43.457  28.122  33.630  1.00  0.00     0.037 A 
BRANCH  45  59
ATOM     59  C   UNL A   1      42.428  26.369  27.806  1.00  0.00     0.064 A 
ATOM     60  C   UNL A   1      41.909  25.087  27.580  1.00  0.00     0.173 A 
ATOM     61  C   UNL A   1      43.341  26.884  26.873  1.00  0.00     0.173 A 
ATOM     62  F   UNL A   1      41.044  24.546  28.451  1.00  0.00    -0.203 F 
ATOM     63  C   UNL A   1      42.298  24.345  26.467  1.00  0.00     0.198 A 
ATOM     64  C   UNL A   1      43.712  26.148  25.750  1.00  0.00     0.198 A 
ATOM     65  F   UNL A   1      43.864  28.108  27.043  1.00  0.00    -0.203 F 
ATOM     66  F   UNL A   1      41.812  23.109  26.285  1.00  0.00    -0.200 F 
ATOM     67  C   UNL A   1      43.192  24.879  25.550  1.00  0.00     0.200 A 
ATOM     68  F   UNL A   1      44.568  26.670  24.860  1.00  0.00    -0.200 F 
ATOM     69  F   UNL A   1      43.557  24.166  24.475  1.00  0.00    -0.200 F 
ENDBRANCH  45  59
BRANCH  46  70
ATOM     70  C   UNL A   1      39.130  31.981  35.353  1.00  0.00     0.064 A 
ATOM     71  C   UNL A   1      38.340  31.392  36.348  1.00  0.00     0.173 A 
ATOM     72  C   UNL A   1      39.440  33.343  35.481  1.00  0.00     0.173 A 
ATOM     73  F   UNL A   1      38.000  30.098  36.254  1.00  0.00    -0.203 F 
ATOM     74  C   UNL A   1      37.877  32.136  37.430  1.00  0.00     0.198 A 
ATOM     75  C   UNL A   1      38.997  34.080  36.577  1.00  0.00     0.198 A 
ATOM     76  F   UNL A   1      40.194  33.950  34.553  1.00  0.00    -0.203 F 
ATOM     77  F   UNL A   1      37.100  31.557  38.356  1.00  0.00    -0.200 F 
ATOM     78  C   UNL A   1      38.214  33.477  37.548  1.00  0.00     0.200 A 
ATOM     79  F   UNL A   1      39.337  35.371  36.694  1.00  0.00    -0.200 F 
ATOM     80  F   UNL A   1      37.779  34.189  38.597  1.00  0.00    -0.200 F 
ENDBRANCH  46  70
BRANCH  58  81
ATOM     81  C   UNL A   1      44.559  27.706  34.557  1.00  0.00     0.064 A 
ATOM     82  C   UNL A   1      44.431  26.579  35.382  1.00  0.00     0.173 A 
ATOM     83  C   UNL A   1      45.759  28.429  34.605  1.00  0.00     0.173 A 
ATOM     84  F   UNL A   1      43.294  25.869  35.382  1.00  0.00    -0.203 F 
ATOM     85  C   UNL A   1      45.462  26.204  36.239  1.00  0.00     0.198 A 
ATOM     86  C   UNL A   1      46.795  28.038  35.447  1.00  0.00     0.198 A 
ATOM     87  F   UNL A   1      45.927  29.513  33.832  1.00  0.00    -0.203 F 
ATOM     88  F   UNL A   1      45.304  25.148  37.050  1.00  0.00    -0.200 F 
ATOM     89  C   UNL A   1      46.643  26.930  36.268  1.00  0.00     0.200 A 
ATOM     90  F   UNL A   1      47.937  28.737  35.471  1.00  0.00    -0.200 F 
ATOM     91  F   UNL A   1      47.633  26.567  37.095  1.00  0.00    -0.200 F 
ENDBRANCH  58  81
ENDBRANCH  32  33
ENDBRANCH  25  27
ENDBRANCH  24  25
ENDBRANCH  23  24
ENDBRANCH  22  23
ENDBRANCH   1  22
TORSDOF 17
ENDMDL
