MODEL 1
REMARK VINA RESULT:     -11.4      0.000      0.000
REMARK SMILES CC[C@@](C)(NS(=O)(=O)c1ccc(F)c(F)c1)C(=O)OCCOC(=O)c1ccc(-c2c3nc(c(-c4c(F)c(F)c(F)c(F)c4F)c4ccc([nH]4)c(-c4c(F)c(F)c(F)c(F)c4F)c4nc(c(-c5c(F)c(F)c(F)c(F)c5F)c5ccc2[nH]5)C=C4)C=C3)cc1
REMARK SMILES IDX 20 1 19 2 17 3 18 4 3 5 4 6 2 7 1 8 5 9 6 11 7 12 8 13 9 14
REMARK SMILES IDX 10 15 16 16 11 17 14 18 12 19 15 20 13 21 21 22 22 23 23 24
REMARK SMILES IDX 24 25 25 26 26 27 87 28 27 29 86 30 28 31 29 32 30 33 80 34
REMARK SMILES IDX 31 35 85 36 79 37 81 38 32 39 84 40 78 41 77 42 33 44 65 45
REMARK SMILES IDX 45 46 64 47 46 48 49 49 63 50 82 51 47 52 48 53 62 55 83 56
REMARK SMILES IDX 50 57 34 58 35 59 43 60 36 61 37 62 41 63 44 64 38 65 39 66
REMARK SMILES IDX 42 67 40 68 66 69 67 70 75 71 68 72 69 73 73 74 76 75 70 76
REMARK SMILES IDX 71 77 74 78 72 79 51 80 52 81 60 82 53 83 54 84 58 85 61 86
REMARK SMILES IDX 55 87 56 88 59 89 57 90
REMARK H PARENT 5 10 81 43 49 54
REMARK Flexibility Score: inf
ROOT
ATOM      1  C   UNL A   1      31.656  28.687  26.693  1.00  0.00     0.274 C 
ENDROOT
BRANCH   1   2
ATOM      2  O   UNL A   1      32.428  27.580  26.173  1.00  0.00    -0.461 OA
BRANCH   2   3
ATOM      3  C   UNL A   1      31.830  26.357  26.160  1.00  0.00     0.327 C 
ATOM      4  O   UNL A   1      30.856  26.082  26.854  1.00  0.00    -0.250 OA
BRANCH   3   5
ATOM      5  C   UNL A   1      32.556  25.329  25.257  1.00  0.00     0.127 C 
ATOM      6  C   UNL A   1      34.056  25.570  25.456  1.00  0.00     0.042 C 
BRANCH   5   7
ATOM      7  C   UNL A   1      32.247  23.843  25.662  1.00  0.00     0.032 C 
ATOM      8  C   UNL A   1      31.254  23.046  24.824  1.00  0.00     0.006 C 
ENDBRANCH   5   7
BRANCH   5   9
ATOM      9  N   UNL A   1      32.137  25.388  23.827  1.00  0.00    -0.194 NA
ATOM     10  H   UNL A   1      31.155  25.110  23.843  1.00  0.00     0.142 HD
BRANCH   9  11
ATOM     11  S   UNL A   1      32.183  26.660  22.760  1.00  0.00     0.241 S 
ATOM     12  O   UNL A   1      33.205  27.601  23.157  1.00  0.00    -0.207 OA
ATOM     13  O   UNL A   1      32.202  26.056  21.445  1.00  0.00    -0.207 OA
BRANCH  11  14
ATOM     14  C   UNL A   1      30.607  27.450  22.919  1.00  0.00     0.085 A 
ATOM     15  C   UNL A   1      30.394  28.725  22.377  1.00  0.00     0.025 A 
ATOM     16  C   UNL A   1      29.561  26.748  23.529  1.00  0.00     0.064 A 
ATOM     17  C   UNL A   1      29.134  29.317  22.490  1.00  0.00     0.044 A 
ATOM     18  C   UNL A   1      28.313  27.349  23.630  1.00  0.00     0.160 A 
ATOM     19  C   UNL A   1      28.103  28.627  23.125  1.00  0.00     0.158 A 
ATOM     20  F   UNL A   1      27.317  26.702  24.251  1.00  0.00    -0.204 F 
ATOM     21  F   UNL A   1      26.908  29.218  23.263  1.00  0.00    -0.204 F 
ENDBRANCH  11  14
ENDBRANCH   9  11
ENDBRANCH   5   9
ENDBRANCH   3   5
ENDBRANCH   2   3
ENDBRANCH   1   2
BRANCH   1  22
ATOM     22  C   UNL A   1      31.863  29.958  25.866  1.00  0.00     0.275 C 
BRANCH  22  23
ATOM     23  O   UNL A   1      33.214  30.428  25.984  1.00  0.00    -0.458 OA
BRANCH  23  24
ATOM     24  C   UNL A   1      33.397  31.401  26.904  1.00  0.00     0.338 C 
ATOM     25  O   UNL A   1      32.607  32.258  27.264  1.00  0.00    -0.246 OA
BRANCH  24  26
ATOM     26  C   UNL A   1      34.638  31.126  27.628  1.00  0.00     0.060 A 
ATOM     27  C   UNL A   1      34.841  29.802  28.000  1.00  0.00     0.016 A 
ATOM     28  C   UNL A   1      35.541  32.116  27.999  1.00  0.00     0.016 A 
ATOM     29  C   UNL A   1      35.924  29.448  28.787  1.00  0.00     0.010 A 
ATOM     30  C   UNL A   1      36.667  31.755  28.750  1.00  0.00     0.010 A 
ATOM     31  C   UNL A   1      36.858  30.421  29.160  1.00  0.00    -0.014 A 
BRANCH  31  32
ATOM     32  C   UNL A   1      38.017  30.015  29.995  1.00  0.00     0.031 A 
ATOM     33  C   UNL A   1      39.094  29.147  29.416  1.00  0.00     0.074 A 
ATOM     34  C   UNL A   1      38.127  30.491  31.249  1.00  0.00     0.049 A 
ATOM     35  N   UNL A   1      40.157  28.652  29.996  1.00  0.00    -0.248 NA
ATOM     36  C   UNL A   1      38.961  28.785  27.996  1.00  0.00     0.031 C 
ATOM     37  C   UNL A   1      37.170  31.395  31.891  1.00  0.00     0.029 A 
ATOM     38  N   UNL A   1      39.100  30.308  32.200  1.00  0.00    -0.354 N 
ATOM     39  C   UNL A   1      40.800  27.895  29.026  1.00  0.00     0.074 A 
ATOM     40  C   UNL A   1      40.002  27.982  27.821  1.00  0.00     0.031 C 
ATOM     41  C   UNL A   1      37.626  31.724  33.109  1.00  0.00     0.029 A 
ATOM     42  C   UNL A   1      38.866  30.998  33.366  1.00  0.00     0.049 A 
ATOM     43  H   UNL A   1      39.889  29.737  32.061  1.00  0.00     0.167 HD
ATOM     44  C   UNL A   1      41.952  27.194  29.137  1.00  0.00     0.037 A 
ATOM     45  C   UNL A   1      39.559  31.024  34.520  1.00  0.00     0.037 A 
ATOM     46  C   UNL A   1      42.751  27.143  30.332  1.00  0.00     0.049 A 
ATOM     47  C   UNL A   1      40.806  30.193  34.636  1.00  0.00     0.074 A 
ATOM     48  C   UNL A   1      43.937  26.464  30.548  1.00  0.00     0.029 A 
ATOM     49  N   UNL A   1      42.447  27.805  31.514  1.00  0.00    -0.354 N 
ATOM     50  N   UNL A   1      41.386  29.450  33.726  1.00  0.00    -0.248 NA
ATOM     51  C   UNL A   1      41.483  30.185  35.940  1.00  0.00     0.031 C 
ATOM     52  C   UNL A   1      44.324  26.674  31.874  1.00  0.00     0.029 A 
ATOM     53  C   UNL A   1      43.411  27.531  32.470  1.00  0.00     0.049 A 
ATOM     54  H   UNL A   1      41.663  28.384  31.653  1.00  0.00     0.167 HD
ATOM     55  C   UNL A   1      42.502  28.899  34.336  1.00  0.00     0.074 A 
ATOM     56  C   UNL A   1      42.526  29.400  35.695  1.00  0.00     0.031 C 
ATOM     57  C   UNL A   1      43.422  28.050  33.815  1.00  0.00     0.037 A 
BRANCH  44  58
ATOM     58  C   UNL A   1      42.403  26.396  27.948  1.00  0.00     0.064 A 
ATOM     59  C   UNL A   1      43.295  26.956  27.020  1.00  0.00     0.173 A 
ATOM     60  C   UNL A   1      41.927  25.101  27.698  1.00  0.00     0.173 A 
ATOM     61  F   UNL A   1      43.776  28.194  27.207  1.00  0.00    -0.203 F 
ATOM     62  C   UNL A   1      43.687  26.253  25.884  1.00  0.00     0.198 A 
ATOM     63  C   UNL A   1      42.346  24.388  26.576  1.00  0.00     0.198 A 
ATOM     64  F   UNL A   1      41.083  24.513  28.559  1.00  0.00    -0.203 F 
ATOM     65  F   UNL A   1      44.520  26.820  25.001  1.00  0.00    -0.200 F 
ATOM     66  C   UNL A   1      43.218  24.967  25.667  1.00  0.00     0.200 A 
ATOM     67  F   UNL A   1      41.911  23.135  26.381  1.00  0.00    -0.200 F 
ATOM     68  F   UNL A   1      43.612  24.283  24.583  1.00  0.00    -0.200 F 
ENDBRANCH  44  58
BRANCH  45  69
ATOM     69  C   UNL A   1      39.074  31.869  35.642  1.00  0.00     0.064 A 
ATOM     70  C   UNL A   1      39.498  33.200  35.789  1.00  0.00     0.173 A 
ATOM     71  C   UNL A   1      38.231  31.344  36.628  1.00  0.00     0.173 A 
ATOM     72  F   UNL A   1      40.308  33.751  34.874  1.00  0.00    -0.203 F 
ATOM     73  C   UNL A   1      39.131  33.955  36.900  1.00  0.00     0.198 A 
ATOM     74  C   UNL A   1      37.840  32.109  37.725  1.00  0.00     0.198 A 
ATOM     75  F   UNL A   1      37.780  30.084  36.523  1.00  0.00    -0.203 F 
ATOM     76  F   UNL A   1      39.595  35.204  37.042  1.00  0.00    -0.200 F 
ATOM     77  C   UNL A   1      38.301  33.410  37.867  1.00  0.00     0.200 A 
ATOM     78  F   UNL A   1      37.021  31.587  38.649  1.00  0.00    -0.200 F 
ATOM     79  F   UNL A   1      37.949  34.137  38.937  1.00  0.00    -0.200 F 
ENDBRANCH  45  69
BRANCH  57  80
ATOM     80  C   UNL A   1      44.553  27.616  34.697  1.00  0.00     0.064 A 
ATOM     81  C   UNL A   1      45.760  28.332  34.702  1.00  0.00     0.173 A 
ATOM     82  C   UNL A   1      44.488  26.428  35.438  1.00  0.00     0.173 A 
ATOM     83  F   UNL A   1      45.873  29.470  34.000  1.00  0.00    -0.203 F 
ATOM     84  C   UNL A   1      46.871  27.857  35.391  1.00  0.00     0.198 A 
ATOM     85  C   UNL A   1      45.593  25.969  36.148  1.00  0.00     0.198 A 
ATOM     86  F   UNL A   1      43.350  25.717  35.475  1.00  0.00    -0.203 F 
ATOM     87  F   UNL A   1      48.028  28.531  35.342  1.00  0.00    -0.200 F 
ATOM     88  C   UNL A   1      46.787  26.674  36.112  1.00  0.00     0.200 A 
ATOM     89  F   UNL A   1      45.507  24.837  36.860  1.00  0.00    -0.200 F 
ATOM     90  F   UNL A   1      47.860  26.214  36.770  1.00  0.00    -0.200 F 
ENDBRANCH  57  80
ENDBRANCH  31  32
ENDBRANCH  24  26
ENDBRANCH  23  24
ENDBRANCH  22  23
ENDBRANCH   1  22
TORSDOF 15
ENDMDL
MODEL 2
REMARK VINA RESULT:     -11.3      4.939      9.973
REMARK SMILES CC[C@@](C)(NS(=O)(=O)c1ccc(F)c(F)c1)C(=O)OCCOC(=O)c1ccc(-c2c3nc(c(-c4c(F)c(F)c(F)c(F)c4F)c4ccc([nH]4)c(-c4c(F)c(F)c(F)c(F)c4F)c4nc(c(-c5c(F)c(F)c(F)c(F)c5F)c5ccc2[nH]5)C=C4)C=C3)cc1
REMARK SMILES IDX 20 1 19 2 17 3 18 4 3 5 4 6 2 7 1 8 5 9 6 11 7 12 8 13 9 14
REMARK SMILES IDX 10 15 16 16 11 17 14 18 12 19 15 20 13 21 21 22 22 23 23 24
REMARK SMILES IDX 24 25 25 26 26 27 87 28 27 29 86 30 28 31 29 32 30 33 80 34
REMARK SMILES IDX 31 35 85 36 79 37 81 38 32 39 84 40 78 41 77 42 33 44 65 45
REMARK SMILES IDX 45 46 64 47 46 48 49 49 63 50 82 51 47 52 48 53 62 55 83 56
REMARK SMILES IDX 50 57 34 58 35 59 43 60 36 61 37 62 41 63 44 64 38 65 39 66
REMARK SMILES IDX 42 67 40 68 66 69 67 70 75 71 68 72 69 73 73 74 76 75 70 76
REMARK SMILES IDX 71 77 74 78 72 79 51 80 52 81 60 82 53 83 54 84 58 85 61 86
REMARK SMILES IDX 55 87 56 88 59 89 57 90
REMARK H PARENT 5 10 81 43 49 54
REMARK Flexibility Score: inf
ROOT
ATOM      1  C   UNL A   1      36.807  22.584  23.495  1.00  0.00     0.274 C 
ENDROOT
BRANCH   1   2
ATOM      2  O   UNL A   1      36.216  23.718  24.173  1.00  0.00    -0.461 OA
BRANCH   2   3
ATOM      3  C   UNL A   1      34.881  23.919  24.000  1.00  0.00     0.327 C 
ATOM      4  O   UNL A   1      34.408  24.425  22.988  1.00  0.00    -0.250 OA
BRANCH   3   5
ATOM      5  C   UNL A   1      34.038  23.532  25.240  1.00  0.00     0.127 C 
ATOM      6  C   UNL A   1      34.873  23.922  26.463  1.00  0.00     0.042 C 
BRANCH   5   7
ATOM      7  C   UNL A   1      32.677  24.314  25.314  1.00  0.00     0.032 C 
ATOM      8  C   UNL A   1      32.661  25.698  25.954  1.00  0.00     0.006 C 
ENDBRANCH   5   7
BRANCH   5   9
ATOM      9  N   UNL A   1      33.611  22.103  25.252  1.00  0.00    -0.194 NA
ATOM     10  H   UNL A   1      33.471  21.893  26.240  1.00  0.00     0.142 HD
BRANCH   9  11
ATOM     11  S   UNL A   1      32.325  21.374  24.494  1.00  0.00     0.241 S 
ATOM     12  O   UNL A   1      31.223  21.232  25.418  1.00  0.00    -0.207 OA
ATOM     13  O   UNL A   1      32.159  22.090  23.248  1.00  0.00    -0.207 OA
BRANCH  11  14
ATOM     14  C   UNL A   1      32.903  19.757  24.063  1.00  0.00     0.085 A 
ATOM     15  C   UNL A   1      32.212  18.984  23.120  1.00  0.00     0.025 A 
ATOM     16  C   UNL A   1      34.098  19.298  24.627  1.00  0.00     0.064 A 
ATOM     17  C   UNL A   1      32.702  17.723  22.775  1.00  0.00     0.044 A 
ATOM     18  C   UNL A   1      34.575  18.043  24.271  1.00  0.00     0.160 A 
ATOM     19  C   UNL A   1      33.877  17.256  23.360  1.00  0.00     0.158 A 
ATOM     20  F   UNL A   1      35.696  17.577  24.838  1.00  0.00    -0.204 F 
ATOM     21  F   UNL A   1      34.320  16.029  23.053  1.00  0.00    -0.204 F 
ENDBRANCH  11  14
ENDBRANCH   9  11
ENDBRANCH   5   9
ENDBRANCH   3   5
ENDBRANCH   2   3
ENDBRANCH   1   2
BRANCH   1  22
ATOM     22  C   UNL A   1      37.133  21.450  24.469  1.00  0.00     0.275 C 
BRANCH  22  23
ATOM     23  O   UNL A   1      37.552  21.973  25.739  1.00  0.00    -0.458 OA
BRANCH  23  24
ATOM     24  C   UNL A   1      38.796  21.608  26.118  1.00  0.00     0.338 C 
ATOM     25  O   UNL A   1      39.372  20.554  25.906  1.00  0.00    -0.246 OA
BRANCH  24  26
ATOM     26  C   UNL A   1      39.490  22.792  26.626  1.00  0.00     0.060 A 
ATOM     27  C   UNL A   1      39.065  24.011  26.111  1.00  0.00     0.016 A 
ATOM     28  C   UNL A   1      40.561  22.728  27.511  1.00  0.00     0.016 A 
ATOM     29  C   UNL A   1      39.727  25.183  26.433  1.00  0.00     0.010 A 
ATOM     30  C   UNL A   1      41.200  23.917  27.883  1.00  0.00     0.010 A 
ATOM     31  C   UNL A   1      40.795  25.151  27.336  1.00  0.00    -0.014 A 
BRANCH  31  32
ATOM     32  C   UNL A   1      41.482  26.422  27.675  1.00  0.00     0.031 A 
ATOM     33  C   UNL A   1      40.776  27.464  28.490  1.00  0.00     0.074 A 
ATOM     34  C   UNL A   1      42.765  26.600  27.307  1.00  0.00     0.049 A 
ATOM     35  N   UNL A   1      41.190  28.653  28.850  1.00  0.00    -0.248 NA
ATOM     36  C   UNL A   1      39.425  27.130  28.966  1.00  0.00     0.031 C 
ATOM     37  C   UNL A   1      43.568  25.625  26.567  1.00  0.00     0.029 A 
ATOM     38  N   UNL A   1      43.628  27.645  27.524  1.00  0.00    -0.354 N 
ATOM     39  C   UNL A   1      40.142  29.219  29.562  1.00  0.00     0.074 A 
ATOM     40  C   UNL A   1      39.065  28.252  29.574  1.00  0.00     0.031 C 
ATOM     41  C   UNL A   1      44.818  26.095  26.433  1.00  0.00     0.029 A 
ATOM     42  C   UNL A   1      44.885  27.435  27.009  1.00  0.00     0.049 A 
ATOM     43  H   UNL A   1      43.371  28.466  28.002  1.00  0.00     0.167 HD
ATOM     44  C   UNL A   1      40.090  30.436  30.151  1.00  0.00     0.037 A 
ATOM     45  C   UNL A   1      45.964  28.240  26.982  1.00  0.00     0.037 A 
ATOM     46  C   UNL A   1      41.181  31.374  30.158  1.00  0.00     0.049 A 
ATOM     47  C   UNL A   1      45.863  29.610  27.595  1.00  0.00     0.074 A 
ATOM     48  C   UNL A   1      41.232  32.634  30.729  1.00  0.00     0.029 A 
ATOM     49  N   UNL A   1      42.418  31.151  29.570  1.00  0.00    -0.354 N 
ATOM     50  N   UNL A   1      44.855  30.151  28.233  1.00  0.00    -0.248 NA
ATOM     51  C   UNL A   1      47.036  30.486  27.467  1.00  0.00     0.031 C 
ATOM     52  C   UNL A   1      42.480  33.191  30.444  1.00  0.00     0.029 A 
ATOM     53  C   UNL A   1      43.231  32.258  29.744  1.00  0.00     0.049 A 
ATOM     54  H   UNL A   1      42.680  30.327  29.099  1.00  0.00     0.167 HD
ATOM     55  C   UNL A   1      45.272  31.422  28.598  1.00  0.00     0.074 A 
ATOM     56  C   UNL A   1      46.631  31.570  28.118  1.00  0.00     0.031 C 
ATOM     57  C   UNL A   1      44.586  32.381  29.268  1.00  0.00     0.037 A 
BRANCH  44  58
ATOM     58  C   UNL A   1      38.802  30.842  30.808  1.00  0.00     0.064 A 
ATOM     59  C   UNL A   1      37.752  31.366  30.038  1.00  0.00     0.173 A 
ATOM     60  C   UNL A   1      38.617  30.756  32.195  1.00  0.00     0.173 A 
ATOM     61  F   UNL A   1      37.879  31.475  28.707  1.00  0.00    -0.203 F 
ATOM     62  C   UNL A   1      36.568  31.795  30.632  1.00  0.00     0.198 A 
ATOM     63  C   UNL A   1      37.419  31.158  32.784  1.00  0.00     0.198 A 
ATOM     64  F   UNL A   1      39.583  30.251  32.977  1.00  0.00    -0.203 F 
ATOM     65  F   UNL A   1      35.591  32.315  29.878  1.00  0.00    -0.200 F 
ATOM     66  C   UNL A   1      36.400  31.684  32.003  1.00  0.00     0.200 A 
ATOM     67  F   UNL A   1      37.247  31.026  34.107  1.00  0.00    -0.200 F 
ATOM     68  F   UNL A   1      35.253  32.079  32.573  1.00  0.00    -0.200 F 
ENDBRANCH  44  58
BRANCH  45  69
ATOM     69  C   UNL A   1      47.219  27.757  26.349  1.00  0.00     0.064 A 
ATOM     70  C   UNL A   1      47.411  27.831  24.960  1.00  0.00     0.173 A 
ATOM     71  C   UNL A   1      48.223  27.147  27.112  1.00  0.00     0.173 A 
ATOM     72  F   UNL A   1      46.479  28.403  24.183  1.00  0.00    -0.203 F 
ATOM     73  C   UNL A   1      48.538  27.278  24.357  1.00  0.00     0.198 A 
ATOM     74  C   UNL A   1      49.364  26.620  26.511  1.00  0.00     0.198 A 
ATOM     75  F   UNL A   1      48.096  27.070  28.446  1.00  0.00    -0.203 F 
ATOM     76  F   UNL A   1      48.669  27.316  23.024  1.00  0.00    -0.200 F 
ATOM     77  C   UNL A   1      49.515  26.673  25.133  1.00  0.00     0.200 A 
ATOM     78  F   UNL A   1      50.316  26.053  27.265  1.00  0.00    -0.200 F 
ATOM     79  F   UNL A   1      50.599  26.140  24.553  1.00  0.00    -0.200 F 
ENDBRANCH  45  69
BRANCH  57  80
ATOM     80  C   UNL A   1      45.288  33.674  29.552  1.00  0.00     0.064 A 
ATOM     81  C   UNL A   1      45.965  33.859  30.766  1.00  0.00     0.173 A 
ATOM     82  C   UNL A   1      45.184  34.768  28.681  1.00  0.00     0.173 A 
ATOM     83  F   UNL A   1      46.083  32.843  31.635  1.00  0.00    -0.203 F 
ATOM     84  C   UNL A   1      46.486  35.102  31.113  1.00  0.00     0.198 A 
ATOM     85  C   UNL A   1      45.728  36.003  29.019  1.00  0.00     0.198 A 
ATOM     86  F   UNL A   1      44.556  34.635  27.502  1.00  0.00    -0.203 F 
ATOM     87  F   UNL A   1      47.087  35.268  32.300  1.00  0.00    -0.200 F 
ATOM     88  C   UNL A   1      46.365  36.173  30.240  1.00  0.00     0.200 A 
ATOM     89  F   UNL A   1      45.628  37.033  28.169  1.00  0.00    -0.200 F 
ATOM     90  F   UNL A   1      46.861  37.371  30.578  1.00  0.00    -0.200 F 
ENDBRANCH  57  80
ENDBRANCH  31  32
ENDBRANCH  24  26
ENDBRANCH  23  24
ENDBRANCH  22  23
ENDBRANCH   1  22
TORSDOF 15
ENDMDL
MODEL 3
REMARK VINA RESULT:     -11.3      0.369      1.670
REMARK SMILES CC[C@@](C)(NS(=O)(=O)c1ccc(F)c(F)c1)C(=O)OCCOC(=O)c1ccc(-c2c3nc(c(-c4c(F)c(F)c(F)c(F)c4F)c4ccc([nH]4)c(-c4c(F)c(F)c(F)c(F)c4F)c4nc(c(-c5c(F)c(F)c(F)c(F)c5F)c5ccc2[nH]5)C=C4)C=C3)cc1
REMARK SMILES IDX 20 1 19 2 17 3 18 4 3 5 4 6 2 7 1 8 5 9 6 11 7 12 8 13 9 14
REMARK SMILES IDX 10 15 16 16 11 17 14 18 12 19 15 20 13 21 21 22 22 23 23 24
REMARK SMILES IDX 24 25 25 26 26 27 87 28 27 29 86 30 28 31 29 32 30 33 80 34
REMARK SMILES IDX 31 35 85 36 79 37 81 38 32 39 84 40 78 41 77 42 33 44 65 45
REMARK SMILES IDX 45 46 64 47 46 48 49 49 63 50 82 51 47 52 48 53 62 55 83 56
REMARK SMILES IDX 50 57 34 58 35 59 43 60 36 61 37 62 41 63 44 64 38 65 39 66
REMARK SMILES IDX 42 67 40 68 66 69 67 70 75 71 68 72 69 73 73 74 76 75 70 76
REMARK SMILES IDX 71 77 74 78 72 79 51 80 52 81 60 82 53 83 54 84 58 85 61 86
REMARK SMILES IDX 55 87 56 88 59 89 57 90
REMARK H PARENT 5 10 81 43 49 54
REMARK Flexibility Score: inf
ROOT
ATOM      1  C   UNL A   1      31.808  28.595  27.145  1.00  0.00     0.274 C 
ENDROOT
BRANCH   1   2
ATOM      2  O   UNL A   1      32.475  27.557  26.390  1.00  0.00    -0.461 OA
BRANCH   2   3
ATOM      3  C   UNL A   1      31.814  26.377  26.235  1.00  0.00     0.327 C 
ATOM      4  O   UNL A   1      30.749  26.131  26.793  1.00  0.00    -0.250 OA
BRANCH   3   5
ATOM      5  C   UNL A   1      32.583  25.353  25.365  1.00  0.00     0.127 C 
ATOM      6  C   UNL A   1      34.072  25.642  25.581  1.00  0.00     0.042 C 
BRANCH   5   7
ATOM      7  C   UNL A   1      32.312  23.867  25.798  1.00  0.00     0.032 C 
ATOM      8  C   UNL A   1      33.319  23.172  26.707  1.00  0.00     0.006 C 
ENDBRANCH   5   7
BRANCH   5   9
ATOM      9  N   UNL A   1      32.184  25.368  23.929  1.00  0.00    -0.194 NA
ATOM     10  H   UNL A   1      31.216  25.043  23.935  1.00  0.00     0.142 HD
BRANCH   9  11
ATOM     11  S   UNL A   1      32.185  26.623  22.841  1.00  0.00     0.241 S 
ATOM     12  O   UNL A   1      33.167  27.610  23.227  1.00  0.00    -0.207 OA
ATOM     13  O   UNL A   1      32.234  26.000  21.537  1.00  0.00    -0.207 OA
BRANCH  11  14
ATOM     14  C   UNL A   1      30.578  27.353  22.981  1.00  0.00     0.085 A 
ATOM     15  C   UNL A   1      30.319  28.613  22.424  1.00  0.00     0.025 A 
ATOM     16  C   UNL A   1      29.556  26.617  23.592  1.00  0.00     0.064 A 
ATOM     17  C   UNL A   1      29.037  29.156  22.522  1.00  0.00     0.044 A 
ATOM     18  C   UNL A   1      28.285  27.170  23.678  1.00  0.00     0.160 A 
ATOM     19  C   UNL A   1      28.028  28.434  23.157  1.00  0.00     0.158 A 
ATOM     20  F   UNL A   1      27.311  26.491  24.299  1.00  0.00    -0.204 F 
ATOM     21  F   UNL A   1      26.811  28.979  23.281  1.00  0.00    -0.204 F 
ENDBRANCH  11  14
ENDBRANCH   9  11
ENDBRANCH   5   9
ENDBRANCH   3   5
ENDBRANCH   2   3
ENDBRANCH   1   2
BRANCH   1  22
ATOM     22  C   UNL A   1      31.775  29.919  26.379  1.00  0.00     0.275 C 
BRANCH  22  23
ATOM     23  O   UNL A   1      33.100  30.441  26.205  1.00  0.00    -0.458 OA
BRANCH  23  24
ATOM     24  C   UNL A   1      33.394  31.509  26.979  1.00  0.00     0.338 C 
ATOM     25  O   UNL A   1      32.678  32.454  27.265  1.00  0.00    -0.246 OA
BRANCH  24  26
ATOM     26  C   UNL A   1      34.658  31.247  27.668  1.00  0.00     0.060 A 
ATOM     27  C   UNL A   1      34.843  29.946  28.120  1.00  0.00     0.016 A 
ATOM     28  C   UNL A   1      35.601  32.234  27.935  1.00  0.00     0.016 A 
ATOM     29  C   UNL A   1      35.950  29.614  28.883  1.00  0.00     0.010 A 
ATOM     30  C   UNL A   1      36.748  31.891  28.661  1.00  0.00     0.010 A 
ATOM     31  C   UNL A   1      36.924  30.582  29.151  1.00  0.00    -0.014 A 
BRANCH  31  32
ATOM     32  C   UNL A   1      38.107  30.200  29.962  1.00  0.00     0.031 A 
ATOM     33  C   UNL A   1      39.197  29.368  29.356  1.00  0.00     0.074 A 
ATOM     34  C   UNL A   1      38.224  30.666  31.220  1.00  0.00     0.049 A 
ATOM     35  N   UNL A   1      40.283  28.896  29.914  1.00  0.00    -0.248 NA
ATOM     36  C   UNL A   1      39.050  29.017  27.935  1.00  0.00     0.031 C 
ATOM     37  C   UNL A   1      37.254  31.536  31.887  1.00  0.00     0.029 A 
ATOM     38  N   UNL A   1      39.217  30.500  32.152  1.00  0.00    -0.354 N 
ATOM     39  C   UNL A   1      40.930  28.167  28.925  1.00  0.00     0.074 A 
ATOM     40  C   UNL A   1      40.110  28.246  27.735  1.00  0.00     0.031 C 
ATOM     41  C   UNL A   1      37.720  31.865  33.101  1.00  0.00     0.029 A 
ATOM     42  C   UNL A   1      38.984  31.171  33.329  1.00  0.00     0.049 A 
ATOM     43  H   UNL A   1      40.020  29.952  31.994  1.00  0.00     0.167 HD
ATOM     44  C   UNL A   1      42.102  27.497  29.010  1.00  0.00     0.037 A 
ATOM     45  C   UNL A   1      39.695  31.204  34.472  1.00  0.00     0.037 A 
ATOM     46  C   UNL A   1      42.923  27.456  30.191  1.00  0.00     0.049 A 
ATOM     47  C   UNL A   1      40.966  30.406  34.560  1.00  0.00     0.074 A 
ATOM     48  C   UNL A   1      44.130  26.808  30.381  1.00  0.00     0.029 A 
ATOM     49  N   UNL A   1      42.620  28.097  31.385  1.00  0.00    -0.354 N 
ATOM     50  N   UNL A   1      41.551  29.689  33.631  1.00  0.00    -0.248 NA
ATOM     51  C   UNL A   1      41.665  30.403  35.852  1.00  0.00     0.031 C 
ATOM     52  C   UNL A   1      44.533  27.015  31.702  1.00  0.00     0.029 A 
ATOM     53  C   UNL A   1      43.607  27.840  32.323  1.00  0.00     0.049 A 
ATOM     54  H   UNL A   1      41.822  28.652  31.543  1.00  0.00     0.167 HD
ATOM     55  C   UNL A   1      42.692  29.162  34.218  1.00  0.00     0.074 A 
ATOM     56  C   UNL A   1      42.724  29.650  35.582  1.00  0.00     0.031 C 
ATOM     57  C   UNL A   1      43.626  28.344  33.673  1.00  0.00     0.037 A 
BRANCH  44  58
ATOM     58  C   UNL A   1      42.556  26.725  27.805  1.00  0.00     0.064 A 
ATOM     59  C   UNL A   1      42.116  25.406  27.606  1.00  0.00     0.173 A 
ATOM     60  C   UNL A   1      43.453  27.263  26.871  1.00  0.00     0.173 A 
ATOM     61  F   UNL A   1      41.262  24.841  28.473  1.00  0.00    -0.203 F 
ATOM     62  C   UNL A   1      42.563  24.654  26.524  1.00  0.00     0.198 A 
ATOM     63  C   UNL A   1      43.874  26.517  25.771  1.00  0.00     0.198 A 
ATOM     64  F   UNL A   1      43.894  28.522  27.006  1.00  0.00    -0.203 F 
ATOM     65  F   UNL A   1      42.148  23.389  26.371  1.00  0.00    -0.200 F 
ATOM     66  C   UNL A   1      43.436  25.212  25.603  1.00  0.00     0.200 A 
ATOM     67  F   UNL A   1      44.698  27.068  24.868  1.00  0.00    -0.200 F 
ATOM     68  F   UNL A   1      43.851  24.494  24.550  1.00  0.00    -0.200 F 
ENDBRANCH  44  58
BRANCH  45  69
ATOM     69  C   UNL A   1      39.206  32.023  35.611  1.00  0.00     0.064 A 
ATOM     70  C   UNL A   1      39.643  33.345  35.800  1.00  0.00     0.173 A 
ATOM     71  C   UNL A   1      38.345  31.480  36.573  1.00  0.00     0.173 A 
ATOM     72  F   UNL A   1      40.470  33.912  34.909  1.00  0.00    -0.203 F 
ATOM     73  C   UNL A   1      39.270  34.074  36.927  1.00  0.00     0.198 A 
ATOM     74  C   UNL A   1      37.949  32.220  37.686  1.00  0.00     0.198 A 
ATOM     75  F   UNL A   1      37.882  30.229  36.427  1.00  0.00    -0.203 F 
ATOM     76  F   UNL A   1      39.746  35.313  37.108  1.00  0.00    -0.200 F 
ATOM     77  C   UNL A   1      38.422  33.511  37.869  1.00  0.00     0.200 A 
ATOM     78  F   UNL A   1      37.113  31.682  38.585  1.00  0.00    -0.200 F 
ATOM     79  F   UNL A   1      38.065  34.212  38.954  1.00  0.00    -0.200 F 
ENDBRANCH  45  69
BRANCH  57  80
ATOM     80  C   UNL A   1      44.783  27.933  34.532  1.00  0.00     0.064 A 
ATOM     81  C   UNL A   1      44.686  26.799  35.351  1.00  0.00     0.173 A 
ATOM     82  C   UNL A   1      45.933  28.728  34.637  1.00  0.00     0.173 A 
ATOM     83  F   UNL A   1      43.601  26.013  35.292  1.00  0.00    -0.203 F 
ATOM     84  C   UNL A   1      45.686  26.493  36.269  1.00  0.00     0.198 A 
ATOM     85  C   UNL A   1      46.943  28.404  35.537  1.00  0.00     0.198 A 
ATOM     86  F   UNL A   1      46.075  29.815  33.863  1.00  0.00    -0.203 F 
ATOM     87  F   UNL A   1      45.551  25.431  37.077  1.00  0.00    -0.200 F 
ATOM     88  C   UNL A   1      46.813  27.296  36.363  1.00  0.00     0.200 A 
ATOM     89  F   UNL A   1      48.040  29.170  35.615  1.00  0.00    -0.200 F 
ATOM     90  F   UNL A   1      47.772  27.004  37.252  1.00  0.00    -0.200 F 
ENDBRANCH  57  80
ENDBRANCH  31  32
ENDBRANCH  24  26
ENDBRANCH  23  24
ENDBRANCH  22  23
ENDBRANCH   1  22
TORSDOF 15
ENDMDL
