MODEL 1
REMARK VINA RESULT:     -10.7      0.000      0.000
REMARK SMILES CCCCCN(C(=O)N1CCC(CC(=O)OCCOC(=O)c2ccc(-c3c4nc(c(-c5c(F)c(F)c(F)c(F)c5F)c5ccc([nH]5)c(-c5c(F)c(F)c(F)c(F)c5F)c5nc(c(-c6c(F)c(F)c(F)c(F)c6F)c6ccc3[nH]6)C=C5)C=C4)cc2)CC1)C(C)C
REMARK SMILES IDX 14 1 15 2 13 3 12 4 7 5 8 6 9 7 10 8 86 9 11 10 85 11 6 12
REMARK SMILES IDX 5 13 4 14 3 15 2 16 1 17 87 18 88 19 89 20 16 21 17 22 18 23
REMARK SMILES IDX 19 24 20 25 21 26 22 27 23 28 84 29 24 30 83 31 25 32 26 33
REMARK SMILES IDX 27 34 77 35 28 36 82 37 76 38 78 39 29 40 81 41 75 42 74 43
REMARK SMILES IDX 30 45 62 46 42 47 61 48 43 49 46 50 60 51 79 52 44 53 45 54
REMARK SMILES IDX 59 56 80 57 47 58 31 59 32 60 40 61 33 62 34 63 38 64 41 65
REMARK SMILES IDX 35 66 36 67 39 68 37 69 63 70 64 71 72 72 65 73 66 74 70 75
REMARK SMILES IDX 73 76 67 77 68 78 71 79 69 80 48 81 49 82 57 83 50 84 51 85
REMARK SMILES IDX 55 86 58 87 52 88 53 89 56 90 54 91
REMARK H PARENT 78 44 46 55
REMARK Flexibility Score: inf
ROOT
ATOM      1  C   UNL A   1      32.295  28.649  23.545  1.00  0.00     0.306 C 
ATOM      2  O   UNL A   1      32.270  29.001  22.371  1.00  0.00    -0.252 OA
ENDROOT
BRANCH   1   3
ATOM      3  C   UNL A   1      33.469  27.908  24.150  1.00  0.00     0.126 C 
BRANCH   3   4
ATOM      4  C   UNL A   1      33.298  26.388  24.313  1.00  0.00     0.003 C 
ATOM      5  C   UNL A   1      35.612  23.033  24.050  1.00  0.00     0.320 C 
ATOM      6  O   UNL A   1      36.076  23.094  22.908  1.00  0.00    -0.248 OA
ATOM      7  N   UNL A   1      34.438  23.693  24.366  1.00  0.00    -0.325 N 
ATOM      8  C   UNL A   1      33.569  24.107  23.269  1.00  0.00     0.121 C 
ATOM      9  C   UNL A   1      34.172  24.368  25.634  1.00  0.00     0.121 C 
ATOM     10  C   UNL A   1      33.666  25.613  23.037  1.00  0.00     0.026 C 
ATOM     11  C   UNL A   1      34.175  25.892  25.480  1.00  0.00     0.026 C 
BRANCH   5  12
ATOM     12  N   UNL A   1      36.274  22.330  25.055  1.00  0.00    -0.322 N 
BRANCH  12  13
ATOM     13  C   UNL A   1      35.715  21.116  25.687  1.00  0.00     0.121 C 
BRANCH  13  14
ATOM     14  C   UNL A   1      34.980  20.131  24.761  1.00  0.00     0.022 C 
BRANCH  14  15
ATOM     15  C   UNL A   1      33.450  20.030  24.840  1.00  0.00     0.002 C 
BRANCH  15  16
ATOM     16  C   UNL A   1      32.812  18.721  24.371  1.00  0.00    -0.003 C 
ATOM     17  C   UNL A   1      33.824  17.696  23.885  1.00  0.00     0.004 C 
ENDBRANCH  15  16
ENDBRANCH  14  15
ENDBRANCH  13  14
ENDBRANCH  12  13
BRANCH  12  18
ATOM     18  C   UNL A   1      37.692  22.700  25.258  1.00  0.00     0.080 C 
ATOM     19  C   UNL A   1      37.877  23.940  26.131  1.00  0.00     0.031 C 
ATOM     20  C   UNL A   1      38.576  21.548  25.727  1.00  0.00     0.031 C 
ENDBRANCH  12  18
ENDBRANCH   5  12
ENDBRANCH   3   4
ENDBRANCH   1   3
BRANCH   1  21
ATOM     21  O   UNL A   1      31.277  28.812  24.424  1.00  0.00    -0.462 OA
BRANCH  21  22
ATOM     22  C   UNL A   1      31.018  30.154  24.880  1.00  0.00     0.274 C 
BRANCH  22  23
ATOM     23  C   UNL A   1      31.550  30.381  26.297  1.00  0.00     0.275 C 
BRANCH  23  24
ATOM     24  O   UNL A   1      32.965  30.637  26.290  1.00  0.00    -0.458 OA
BRANCH  24  25
ATOM     25  C   UNL A   1      33.373  31.664  27.070  1.00  0.00     0.338 C 
ATOM     26  O   UNL A   1      32.776  32.700  27.307  1.00  0.00    -0.246 OA
BRANCH  25  27
ATOM     27  C   UNL A   1      34.642  31.307  27.721  1.00  0.00     0.060 A 
ATOM     28  C   UNL A   1      34.814  29.993  28.166  1.00  0.00     0.016 A 
ATOM     29  C   UNL A   1      35.624  32.272  27.951  1.00  0.00     0.016 A 
ATOM     30  C   UNL A   1      35.975  29.637  28.850  1.00  0.00     0.010 A 
ATOM     31  C   UNL A   1      36.789  31.913  28.635  1.00  0.00     0.010 A 
ATOM     32  C   UNL A   1      36.966  30.598  29.099  1.00  0.00    -0.014 A 
BRANCH  32  33
ATOM     33  C   UNL A   1      38.172  30.234  29.882  1.00  0.00     0.031 A 
ATOM     34  C   UNL A   1      39.171  29.271  29.310  1.00  0.00     0.074 A 
ATOM     35  C   UNL A   1      38.367  30.768  31.100  1.00  0.00     0.049 A 
ATOM     36  N   UNL A   1      40.247  28.768  29.860  1.00  0.00    -0.248 NA
ATOM     37  C   UNL A   1      38.926  28.812  27.934  1.00  0.00     0.031 C 
ATOM     38  C   UNL A   1      37.484  31.736  31.748  1.00  0.00     0.029 A 
ATOM     39  N   UNL A   1      39.371  30.563  32.014  1.00  0.00    -0.354 N 
ATOM     40  C   UNL A   1      40.799  27.923  28.907  1.00  0.00     0.074 A 
ATOM     41  C   UNL A   1      39.929  27.966  27.750  1.00  0.00     0.031 C 
ATOM     42  C   UNL A   1      37.981  32.039  32.958  1.00  0.00     0.029 A 
ATOM     43  C   UNL A   1      39.194  31.257  33.186  1.00  0.00     0.049 A 
ATOM     44  H   UNL A   1      40.141  29.975  31.847  1.00  0.00     0.167 HD
ATOM     45  C   UNL A   1      41.930  27.183  28.991  1.00  0.00     0.037 A 
ATOM     46  C   UNL A   1      39.915  31.241  34.323  1.00  0.00     0.037 A 
ATOM     47  C   UNL A   1      42.798  27.151  30.139  1.00  0.00     0.049 A 
ATOM     48  C   UNL A   1      41.138  30.368  34.409  1.00  0.00     0.074 A 
ATOM     49  C   UNL A   1      43.978  26.448  30.312  1.00  0.00     0.029 A 
ATOM     50  N   UNL A   1      42.574  27.850  31.317  1.00  0.00    -0.354 N 
ATOM     51  N   UNL A   1      41.660  29.583  33.499  1.00  0.00    -0.248 NA
ATOM     52  C   UNL A   1      41.871  30.379  35.684  1.00  0.00     0.031 C 
ATOM     53  C   UNL A   1      44.447  26.689  31.608  1.00  0.00     0.029 A 
ATOM     54  C   UNL A   1      43.584  27.578  32.228  1.00  0.00     0.049 A 
ATOM     55  H   UNL A   1      41.812  28.449  31.482  1.00  0.00     0.167 HD
ATOM     56  C   UNL A   1      42.790  29.024  34.080  1.00  0.00     0.074 A 
ATOM     57  C   UNL A   1      42.887  29.572  35.417  1.00  0.00     0.031 C 
ATOM     58  C   UNL A   1      43.669  28.135  33.553  1.00  0.00     0.037 A 
BRANCH  45  59
ATOM     59  C   UNL A   1      42.286  26.326  27.812  1.00  0.00     0.064 A 
ATOM     60  C   UNL A   1      43.251  26.726  26.875  1.00  0.00     0.173 A 
ATOM     61  C   UNL A   1      41.682  25.073  27.639  1.00  0.00     0.173 A 
ATOM     62  F   UNL A   1      43.848  27.922  26.990  1.00  0.00    -0.203 F 
ATOM     63  C   UNL A   1      43.579  25.911  25.795  1.00  0.00     0.198 A 
ATOM     64  C   UNL A   1      42.031  24.249  26.572  1.00  0.00     0.198 A 
ATOM     65  F   UNL A   1      40.756  24.642  28.510  1.00  0.00    -0.203 F 
ATOM     66  F   UNL A   1      44.474  26.330  24.889  1.00  0.00    -0.200 F 
ATOM     67  C   UNL A   1      42.974  24.671  25.648  1.00  0.00     0.200 A 
ATOM     68  F   UNL A   1      41.453  23.047  26.437  1.00  0.00    -0.200 F 
ATOM     69  F   UNL A   1      43.297  23.885  24.611  1.00  0.00    -0.200 F 
ENDBRANCH  45  59
BRANCH  46  70
ATOM     70  C   UNL A   1      39.490  32.071  35.479  1.00  0.00     0.064 A 
ATOM     71  C   UNL A   1      39.926  33.395  35.616  1.00  0.00     0.173 A 
ATOM     72  C   UNL A   1      38.645  31.554  36.473  1.00  0.00     0.173 A 
ATOM     73  F   UNL A   1      40.756  33.924  34.705  1.00  0.00    -0.203 F 
ATOM     74  C   UNL A   1      39.543  34.168  36.710  1.00  0.00     0.198 A 
ATOM     75  C   UNL A   1      38.242  32.336  37.553  1.00  0.00     0.198 A 
ATOM     76  F   UNL A   1      38.204  30.290  36.389  1.00  0.00    -0.203 F 
ATOM     77  F   UNL A   1      40.008  35.418  36.839  1.00  0.00    -0.200 F 
ATOM     78  C   UNL A   1      38.696  33.641  37.674  1.00  0.00     0.200 A 
ATOM     79  F   UNL A   1      37.416  31.826  38.475  1.00  0.00    -0.200 F 
ATOM     80  F   UNL A   1      38.326  34.386  38.723  1.00  0.00    -0.200 F 
ENDBRANCH  46  70
BRANCH  58  81
ATOM     81  C   UNL A   1      44.828  27.724  34.411  1.00  0.00     0.064 A 
ATOM     82  C   UNL A   1      44.775  26.579  35.220  1.00  0.00     0.173 A 
ATOM     83  C   UNL A   1      46.020  28.466  34.397  1.00  0.00     0.173 A 
ATOM     84  F   UNL A   1      43.652  25.848  35.279  1.00  0.00    -0.203 F 
ATOM     85  C   UNL A   1      45.866  26.204  35.998  1.00  0.00     0.198 A 
ATOM     86  C   UNL A   1      47.117  28.071  35.157  1.00  0.00     0.198 A 
ATOM     87  F   UNL A   1      46.123  29.565  33.636  1.00  0.00    -0.203 F 
ATOM     88  F   UNL A   1      45.779  25.129  36.795  1.00  0.00    -0.200 F 
ATOM     89  C   UNL A   1      47.038  26.944  35.961  1.00  0.00     0.200 A 
ATOM     90  F   UNL A   1      48.253  28.782  35.112  1.00  0.00    -0.200 F 
ATOM     91  F   UNL A   1      48.089  26.577  36.708  1.00  0.00    -0.200 F 
ENDBRANCH  58  81
ENDBRANCH  32  33
ENDBRANCH  25  27
ENDBRANCH  24  25
ENDBRANCH  23  24
ENDBRANCH  22  23
ENDBRANCH  21  22
ENDBRANCH   1  21
TORSDOF 18
ENDMDL
MODEL 2
REMARK VINA RESULT:     -10.5      1.269      1.469
REMARK SMILES CCCCCN(C(=O)N1CCC(CC(=O)OCCOC(=O)c2ccc(-c3c4nc(c(-c5c(F)c(F)c(F)c(F)c5F)c5ccc([nH]5)c(-c5c(F)c(F)c(F)c(F)c5F)c5nc(c(-c6c(F)c(F)c(F)c(F)c6F)c6ccc3[nH]6)C=C5)C=C4)cc2)CC1)C(C)C
REMARK SMILES IDX 14 1 15 2 13 3 12 4 7 5 8 6 9 7 10 8 86 9 11 10 85 11 6 12
REMARK SMILES IDX 5 13 4 14 3 15 2 16 1 17 87 18 88 19 89 20 16 21 17 22 18 23
REMARK SMILES IDX 19 24 20 25 21 26 22 27 23 28 84 29 24 30 83 31 25 32 26 33
REMARK SMILES IDX 27 34 77 35 28 36 82 37 76 38 78 39 29 40 81 41 75 42 74 43
REMARK SMILES IDX 30 45 62 46 42 47 61 48 43 49 46 50 60 51 79 52 44 53 45 54
REMARK SMILES IDX 59 56 80 57 47 58 31 59 32 60 40 61 33 62 34 63 38 64 41 65
REMARK SMILES IDX 35 66 36 67 39 68 37 69 63 70 64 71 72 72 65 73 66 74 70 75
REMARK SMILES IDX 73 76 67 77 68 78 71 79 69 80 48 81 49 82 57 83 50 84 51 85
REMARK SMILES IDX 55 86 58 87 52 88 53 89 56 90 54 91
REMARK H PARENT 78 44 46 55
REMARK Flexibility Score: inf
ROOT
ATOM      1  C   UNL A   1      30.529  28.638  22.753  1.00  0.00     0.306 C 
ATOM      2  O   UNL A   1      29.571  28.516  21.998  1.00  0.00    -0.252 OA
ENDROOT
BRANCH   1   3
ATOM      3  C   UNL A   1      31.827  27.885  22.551  1.00  0.00     0.126 C 
BRANCH   3   4
ATOM      4  C   UNL A   1      31.705  26.361  22.374  1.00  0.00     0.003 C 
ATOM      5  C   UNL A   1      33.316  22.982  24.007  1.00  0.00     0.320 C 
ATOM      6  O   UNL A   1      34.530  23.138  23.848  1.00  0.00    -0.248 OA
ATOM      7  N   UNL A   1      32.412  23.642  23.194  1.00  0.00    -0.325 N 
ATOM      8  C   UNL A   1      32.898  24.182  21.929  1.00  0.00     0.121 C 
ATOM      9  C   UNL A   1      31.138  24.202  23.640  1.00  0.00     0.121 C 
ATOM     10  C   UNL A   1      33.044  25.701  22.005  1.00  0.00     0.026 C 
ATOM     11  C   UNL A   1      31.168  25.732  23.675  1.00  0.00     0.026 C 
BRANCH   5  12
ATOM     12  N   UNL A   1      32.827  22.169  25.027  1.00  0.00    -0.322 N 
BRANCH  12  13
ATOM     13  C   UNL A   1      32.225  20.841  24.777  1.00  0.00     0.121 C 
BRANCH  13  14
ATOM     14  C   UNL A   1      33.136  19.780  24.135  1.00  0.00     0.022 C 
BRANCH  14  15
ATOM     15  C   UNL A   1      32.503  18.515  23.537  1.00  0.00     0.002 C 
BRANCH  15  16
ATOM     16  C   UNL A   1      33.445  17.358  23.201  1.00  0.00    -0.003 C 
ATOM     17  C   UNL A   1      34.658  17.281  24.112  1.00  0.00     0.004 C 
ENDBRANCH  15  16
ENDBRANCH  14  15
ENDBRANCH  13  14
ENDBRANCH  12  13
BRANCH  12  18
ATOM     18  C   UNL A   1      33.197  22.581  26.399  1.00  0.00     0.080 C 
ATOM     19  C   UNL A   1      32.081  23.321  27.134  1.00  0.00     0.031 C 
ATOM     20  C   UNL A   1      33.781  21.457  27.251  1.00  0.00     0.031 C 
ENDBRANCH  12  18
ENDBRANCH   5  12
ENDBRANCH   3   4
ENDBRANCH   1   3
BRANCH   1  21
ATOM     21  O   UNL A   1      30.538  29.391  23.878  1.00  0.00    -0.462 OA
BRANCH  21  22
ATOM     22  C   UNL A   1      31.747  29.381  24.661  1.00  0.00     0.274 C 
BRANCH  22  23
ATOM     23  C   UNL A   1      31.728  30.462  25.744  1.00  0.00     0.275 C 
BRANCH  23  24
ATOM     24  O   UNL A   1      32.794  30.273  26.690  1.00  0.00    -0.458 OA
BRANCH  24  25
ATOM     25  C   UNL A   1      33.342  31.409  27.180  1.00  0.00     0.338 C 
ATOM     26  O   UNL A   1      32.848  32.523  27.203  1.00  0.00    -0.246 OA
BRANCH  25  27
ATOM     27  C   UNL A   1      34.629  31.094  27.818  1.00  0.00     0.060 A 
ATOM     28  C   UNL A   1      34.826  29.801  28.313  1.00  0.00     0.016 A 
ATOM     29  C   UNL A   1      35.605  32.078  27.986  1.00  0.00     0.016 A 
ATOM     30  C   UNL A   1      36.005  29.486  28.986  1.00  0.00     0.010 A 
ATOM     31  C   UNL A   1      36.788  31.760  28.659  1.00  0.00     0.010 A 
ATOM     32  C   UNL A   1      36.990  30.467  29.173  1.00  0.00    -0.014 A 
BRANCH  32  33
ATOM     33  C   UNL A   1      38.216  30.150  29.944  1.00  0.00     0.031 A 
ATOM     34  C   UNL A   1      39.241  29.218  29.366  1.00  0.00     0.074 A 
ATOM     35  C   UNL A   1      38.407  30.697  31.158  1.00  0.00     0.049 A 
ATOM     36  N   UNL A   1      40.339  28.755  29.906  1.00  0.00    -0.248 NA
ATOM     37  C   UNL A   1      38.997  28.743  27.996  1.00  0.00     0.031 C 
ATOM     38  C   UNL A   1      37.498  31.639  31.810  1.00  0.00     0.029 A 
ATOM     39  N   UNL A   1      39.427  30.532  32.061  1.00  0.00    -0.354 N 
ATOM     40  C   UNL A   1      40.909  27.923  28.953  1.00  0.00     0.074 A 
ATOM     41  C   UNL A   1      40.025  27.930  27.805  1.00  0.00     0.031 C 
ATOM     42  C   UNL A   1      37.999  31.966  33.012  1.00  0.00     0.029 A 
ATOM     43  C   UNL A   1      39.240  31.226  33.230  1.00  0.00     0.049 A 
ATOM     44  H   UNL A   1      40.216  29.969  31.888  1.00  0.00     0.167 HD
ATOM     45  C   UNL A   1      42.066  27.223  29.027  1.00  0.00     0.037 A 
ATOM     46  C   UNL A   1      39.974  31.242  34.360  1.00  0.00     0.037 A 
ATOM     47  C   UNL A   1      42.947  27.227  30.166  1.00  0.00     0.049 A 
ATOM     48  C   UNL A   1      41.227  30.411  34.436  1.00  0.00     0.074 A 
ATOM     49  C   UNL A   1      44.153  26.566  30.328  1.00  0.00     0.029 A 
ATOM     50  N   UNL A   1      42.713  27.925  31.341  1.00  0.00    -0.354 N 
ATOM     51  N   UNL A   1      41.765  29.639  33.525  1.00  0.00    -0.248 NA
ATOM     52  C   UNL A   1      41.974  30.455  35.702  1.00  0.00     0.031 C 
ATOM     53  C   UNL A   1      44.628  26.831  31.618  1.00  0.00     0.029 A 
ATOM     54  C   UNL A   1      43.742  27.693  32.242  1.00  0.00     0.049 A 
ATOM     55  H   UNL A   1      41.933  28.499  31.512  1.00  0.00     0.167 HD
ATOM     56  C   UNL A   1      42.921  29.122  34.096  1.00  0.00     0.074 A 
ATOM     57  C   UNL A   1      43.014  29.681  35.428  1.00  0.00     0.031 C 
ATOM     58  C   UNL A   1      43.822  28.261  33.564  1.00  0.00     0.037 A 
BRANCH  45  59
ATOM     59  C   UNL A   1      42.438  26.371  27.849  1.00  0.00     0.064 A 
ATOM     60  C   UNL A   1      43.362  26.807  26.888  1.00  0.00     0.173 A 
ATOM     61  C   UNL A   1      41.890  25.089  27.701  1.00  0.00     0.173 A 
ATOM     62  F   UNL A   1      43.904  28.031  26.978  1.00  0.00    -0.203 F 
ATOM     63  C   UNL A   1      43.707  25.997  25.809  1.00  0.00     0.198 A 
ATOM     64  C   UNL A   1      42.256  24.272  26.634  1.00  0.00     0.198 A 
ATOM     65  F   UNL A   1      41.004  24.624  28.595  1.00  0.00    -0.203 F 
ATOM     66  F   UNL A   1      44.561  26.448  24.880  1.00  0.00    -0.200 F 
ATOM     67  C   UNL A   1      43.158  24.729  25.687  1.00  0.00     0.200 A 
ATOM     68  F   UNL A   1      41.733  23.043  26.523  1.00  0.00    -0.200 F 
ATOM     69  F   UNL A   1      43.496  23.948  24.650  1.00  0.00    -0.200 F 
ENDBRANCH  45  59
BRANCH  46  70
ATOM     70  C   UNL A   1      39.534  32.063  35.515  1.00  0.00     0.064 A 
ATOM     71  C   UNL A   1      40.038  33.356  35.716  1.00  0.00     0.173 A 
ATOM     72  C   UNL A   1      38.607  31.570  36.447  1.00  0.00     0.173 A 
ATOM     73  F   UNL A   1      40.946  33.859  34.867  1.00  0.00    -0.203 F 
ATOM     74  C   UNL A   1      39.639  34.120  36.811  1.00  0.00     0.198 A 
ATOM     75  C   UNL A   1      38.190  32.346  37.526  1.00  0.00     0.198 A 
ATOM     76  F   UNL A   1      38.099  30.338  36.300  1.00  0.00    -0.203 F 
ATOM     77  F   UNL A   1      40.168  35.336  37.003  1.00  0.00    -0.200 F 
ATOM     78  C   UNL A   1      38.712  33.617  37.711  1.00  0.00     0.200 A 
ATOM     79  F   UNL A   1      37.286  31.860  38.387  1.00  0.00    -0.200 F 
ATOM     80  F   UNL A   1      38.327  34.354  38.762  1.00  0.00    -0.200 F 
ENDBRANCH  46  70
BRANCH  58  81
ATOM     81  C   UNL A   1      45.005  27.895  34.411  1.00  0.00     0.064 A 
ATOM     82  C   UNL A   1      44.999  26.755  35.229  1.00  0.00     0.173 A 
ATOM     83  C   UNL A   1      46.172  28.674  34.376  1.00  0.00     0.173 A 
ATOM     84  F   UNL A   1      43.901  25.989  35.308  1.00  0.00    -0.203 F 
ATOM     85  C   UNL A   1      46.111  26.422  35.997  1.00  0.00     0.198 A 
ATOM     86  C   UNL A   1      47.290  28.321  35.125  1.00  0.00     0.198 A 
ATOM     87  F   UNL A   1      46.231  29.770  33.605  1.00  0.00    -0.203 F 
ATOM     88  F   UNL A   1      46.068  25.352  36.803  1.00  0.00    -0.200 F 
ATOM     89  C   UNL A   1      47.257  27.200  35.940  1.00  0.00     0.200 A 
ATOM     90  F   UNL A   1      48.402  29.068  35.060  1.00  0.00    -0.200 F 
ATOM     91  F   UNL A   1      48.329  26.873  36.676  1.00  0.00    -0.200 F 
ENDBRANCH  58  81
ENDBRANCH  32  33
ENDBRANCH  25  27
ENDBRANCH  24  25
ENDBRANCH  23  24
ENDBRANCH  22  23
ENDBRANCH  21  22
ENDBRANCH   1  21
TORSDOF 18
ENDMDL
MODEL 3
REMARK VINA RESULT:     -10.4      1.196      2.498
REMARK SMILES CCCCCN(C(=O)N1CCC(CC(=O)OCCOC(=O)c2ccc(-c3c4nc(c(-c5c(F)c(F)c(F)c(F)c5F)c5ccc([nH]5)c(-c5c(F)c(F)c(F)c(F)c5F)c5nc(c(-c6c(F)c(F)c(F)c(F)c6F)c6ccc3[nH]6)C=C5)C=C4)cc2)CC1)C(C)C
REMARK SMILES IDX 14 1 15 2 13 3 12 4 7 5 8 6 9 7 10 8 86 9 11 10 85 11 6 12
REMARK SMILES IDX 5 13 4 14 3 15 2 16 1 17 87 18 88 19 89 20 16 21 17 22 18 23
REMARK SMILES IDX 19 24 20 25 21 26 22 27 23 28 84 29 24 30 83 31 25 32 26 33
REMARK SMILES IDX 27 34 77 35 28 36 82 37 76 38 78 39 29 40 81 41 75 42 74 43
REMARK SMILES IDX 30 45 62 46 42 47 61 48 43 49 46 50 60 51 79 52 44 53 45 54
REMARK SMILES IDX 59 56 80 57 47 58 31 59 32 60 40 61 33 62 34 63 38 64 41 65
REMARK SMILES IDX 35 66 36 67 39 68 37 69 63 70 64 71 72 72 65 73 66 74 70 75
REMARK SMILES IDX 73 76 67 77 68 78 71 79 69 80 48 81 49 82 57 83 50 84 51 85
REMARK SMILES IDX 55 86 58 87 52 88 53 89 56 90 54 91
REMARK H PARENT 78 44 46 55
REMARK Flexibility Score: inf
ROOT
ATOM      1  C   UNL A   1      30.284  28.782  22.761  1.00  0.00     0.306 C 
ATOM      2  O   UNL A   1      29.803  29.104  21.681  1.00  0.00    -0.252 OA
ENDROOT
BRANCH   1   3
ATOM      3  C   UNL A   1      29.885  27.514  23.486  1.00  0.00     0.126 C 
BRANCH   3   4
ATOM      4  C   UNL A   1      30.542  26.215  22.989  1.00  0.00     0.003 C 
ATOM      5  C   UNL A   1      33.269  23.490  24.338  1.00  0.00     0.320 C 
ATOM      6  O   UNL A   1      34.265  24.177  24.581  1.00  0.00    -0.248 OA
ATOM      7  N   UNL A   1      32.316  23.930  23.438  1.00  0.00    -0.325 N 
ATOM      8  C   UNL A   1      32.692  24.986  22.504  1.00  0.00     0.121 C 
ATOM      9  C   UNL A   1      30.874  23.741  23.585  1.00  0.00     0.121 C 
ATOM     10  C   UNL A   1      32.075  26.321  22.914  1.00  0.00     0.026 C 
ATOM     11  C   UNL A   1      30.158  25.051  23.924  1.00  0.00     0.026 C 
BRANCH   5  12
ATOM     12  N   UNL A   1      33.062  22.275  24.988  1.00  0.00    -0.322 N 
BRANCH  12  13
ATOM     13  C   UNL A   1      33.267  20.967  24.330  1.00  0.00     0.121 C 
BRANCH  13  14
ATOM     14  C   UNL A   1      33.016  19.715  25.188  1.00  0.00     0.022 C 
BRANCH  14  15
ATOM     15  C   UNL A   1      32.944  18.342  24.505  1.00  0.00     0.002 C 
BRANCH  15  16
ATOM     16  C   UNL A   1      34.270  17.641  24.207  1.00  0.00    -0.003 C 
ATOM     17  C   UNL A   1      34.155  16.553  23.152  1.00  0.00     0.004 C 
ENDBRANCH  15  16
ENDBRANCH  14  15
ENDBRANCH  13  14
ENDBRANCH  12  13
BRANCH  12  18
ATOM     18  C   UNL A   1      32.900  22.361  26.457  1.00  0.00     0.080 C 
ATOM     19  C   UNL A   1      34.208  22.174  27.224  1.00  0.00     0.031 C 
ATOM     20  C   UNL A   1      32.146  23.601  26.928  1.00  0.00     0.031 C 
ENDBRANCH  12  18
ENDBRANCH   5  12
ENDBRANCH   3   4
ENDBRANCH   1   3
BRANCH   1  21
ATOM     21  O   UNL A   1      31.168  29.526  23.469  1.00  0.00    -0.462 OA
BRANCH  21  22
ATOM     22  C   UNL A   1      31.401  29.137  24.836  1.00  0.00     0.274 C 
BRANCH  22  23
ATOM     23  C   UNL A   1      31.661  30.350  25.731  1.00  0.00     0.275 C 
BRANCH  23  24
ATOM     24  O   UNL A   1      33.046  30.431  26.112  1.00  0.00    -0.458 OA
BRANCH  24  25
ATOM     25  C   UNL A   1      33.349  31.416  26.989  1.00  0.00     0.338 C 
ATOM     26  O   UNL A   1      32.666  32.380  27.289  1.00  0.00    -0.246 OA
BRANCH  25  27
ATOM     27  C   UNL A   1      34.621  31.101  27.655  1.00  0.00     0.060 A 
ATOM     28  C   UNL A   1      34.856  29.781  28.050  1.00  0.00     0.016 A 
ATOM     29  C   UNL A   1      35.544  32.107  27.947  1.00  0.00     0.016 A 
ATOM     30  C   UNL A   1      36.020  29.459  28.745  1.00  0.00     0.010 A 
ATOM     31  C   UNL A   1      36.712  31.783  28.642  1.00  0.00     0.010 A 
ATOM     32  C   UNL A   1      36.951  30.461  29.056  1.00  0.00    -0.014 A 
BRANCH  32  33
ATOM     33  C   UNL A   1      38.159  30.130  29.851  1.00  0.00     0.031 A 
ATOM     34  C   UNL A   1      39.184  29.185  29.295  1.00  0.00     0.074 A 
ATOM     35  C   UNL A   1      38.333  30.678  31.067  1.00  0.00     0.049 A 
ATOM     36  N   UNL A   1      40.266  28.710  29.857  1.00  0.00    -0.248 NA
ATOM     37  C   UNL A   1      38.960  28.710  27.921  1.00  0.00     0.031 C 
ATOM     38  C   UNL A   1      37.423  31.632  31.700  1.00  0.00     0.029 A 
ATOM     39  N   UNL A   1      39.333  30.502  31.991  1.00  0.00    -0.354 N 
ATOM     40  C   UNL A   1      40.844  27.870  28.916  1.00  0.00     0.074 A 
ATOM     41  C   UNL A   1      39.983  27.884  27.752  1.00  0.00     0.031 C 
ATOM     42  C   UNL A   1      37.904  31.955  32.911  1.00  0.00     0.029 A 
ATOM     43  C   UNL A   1      39.131  31.202  33.155  1.00  0.00     0.049 A 
ATOM     44  H   UNL A   1      40.118  29.930  31.834  1.00  0.00     0.167 HD
ATOM     45  C   UNL A   1      41.991  27.156  29.015  1.00  0.00     0.037 A 
ATOM     46  C   UNL A   1      39.844  31.211  34.298  1.00  0.00     0.037 A 
ATOM     47  C   UNL A   1      42.849  27.152  30.170  1.00  0.00     0.049 A 
ATOM     48  C   UNL A   1      41.085  30.366  34.400  1.00  0.00     0.074 A 
ATOM     49  C   UNL A   1      44.044  26.477  30.358  1.00  0.00     0.029 A 
ATOM     50  N   UNL A   1      42.601  27.855  31.340  1.00  0.00    -0.354 N 
ATOM     51  N   UNL A   1      41.631  29.585  33.501  1.00  0.00    -0.248 NA
ATOM     52  C   UNL A   1      41.807  30.404  35.681  1.00  0.00     0.031 C 
ATOM     53  C   UNL A   1      44.497  26.739  31.655  1.00  0.00     0.029 A 
ATOM     54  C   UNL A   1      43.609  27.613  32.261  1.00  0.00     0.049 A 
ATOM     55  H   UNL A   1      41.824  28.439  31.495  1.00  0.00     0.167 HD
ATOM     56  C   UNL A   1      42.769  29.056  34.095  1.00  0.00     0.074 A 
ATOM     57  C   UNL A   1      42.843  29.616  35.429  1.00  0.00     0.031 C 
ATOM     58  C   UNL A   1      43.671  28.183  33.583  1.00  0.00     0.037 A 
BRANCH  45  59
ATOM     59  C   UNL A   1      42.375  26.298  27.846  1.00  0.00     0.064 A 
ATOM     60  C   UNL A   1      41.859  25.004  27.681  1.00  0.00     0.173 A 
ATOM     61  C   UNL A   1      43.241  26.791  26.859  1.00  0.00     0.173 A 
ATOM     62  F   UNL A   1      41.037  24.482  28.604  1.00  0.00    -0.203 F 
ATOM     63  C   UNL A   1      42.215  24.227  26.582  1.00  0.00     0.198 A 
ATOM     64  C   UNL A   1      43.574  26.021  25.748  1.00  0.00     0.198 A 
ATOM     65  F   UNL A   1      43.758  28.024  26.968  1.00  0.00    -0.203 F 
ATOM     66  F   UNL A   1      41.743  22.978  26.465  1.00  0.00    -0.200 F 
ATOM     67  C   UNL A   1      43.066  24.738  25.614  1.00  0.00     0.200 A 
ATOM     68  F   UNL A   1      44.389  26.520  24.808  1.00  0.00    -0.200 F 
ATOM     69  F   UNL A   1      43.403  23.991  24.553  1.00  0.00    -0.200 F 
ENDBRANCH  45  59
BRANCH  46  70
ATOM     70  C   UNL A   1      39.391  32.040  35.443  1.00  0.00     0.064 A 
ATOM     71  C   UNL A   1      38.513  31.524  36.405  1.00  0.00     0.173 A 
ATOM     72  C   UNL A   1      39.821  33.367  35.595  1.00  0.00     0.173 A 
ATOM     73  F   UNL A   1      38.054  30.270  36.288  1.00  0.00    -0.203 F 
ATOM     74  C   UNL A   1      38.073  32.308  37.470  1.00  0.00     0.198 A 
ATOM     75  C   UNL A   1      39.401  34.141  36.674  1.00  0.00     0.198 A 
ATOM     76  F   UNL A   1      40.659  33.909  34.698  1.00  0.00    -0.203 F 
ATOM     77  F   UNL A   1      37.200  31.804  38.353  1.00  0.00    -0.200 F 
ATOM     78  C   UNL A   1      38.521  33.613  37.607  1.00  0.00     0.200 A 
ATOM     79  F   UNL A   1      39.845  35.398  36.808  1.00  0.00    -0.200 F 
ATOM     80  F   UNL A   1      38.101  34.364  38.633  1.00  0.00    -0.200 F 
ENDBRANCH  46  70
BRANCH  58  81
ATOM     81  C   UNL A   1      44.833  27.805  34.453  1.00  0.00     0.064 A 
ATOM     82  C   UNL A   1      46.020  28.552  34.460  1.00  0.00     0.173 A 
ATOM     83  C   UNL A   1      44.743  26.702  35.317  1.00  0.00     0.173 A 
ATOM     84  F   UNL A   1      46.158  29.604  33.640  1.00  0.00    -0.203 F 
ATOM     85  C   UNL A   1      47.082  28.196  35.286  1.00  0.00     0.198 A 
ATOM     86  C   UNL A   1      45.798  26.366  36.159  1.00  0.00     0.198 A 
ATOM     87  F   UNL A   1      43.627  25.959  35.352  1.00  0.00    -0.203 F 
ATOM     88  F   UNL A   1      48.223  28.899  35.246  1.00  0.00    -0.200 F 
ATOM     89  C   UNL A   1      46.969  27.109  36.139  1.00  0.00     0.200 A 
ATOM     90  F   UNL A   1      45.684  25.321  36.992  1.00  0.00    -0.200 F 
ATOM     91  F   UNL A   1      47.992  26.771  36.937  1.00  0.00    -0.200 F 
ENDBRANCH  58  81
ENDBRANCH  32  33
ENDBRANCH  25  27
ENDBRANCH  24  25
ENDBRANCH  23  24
ENDBRANCH  22  23
ENDBRANCH  21  22
ENDBRANCH   1  21
TORSDOF 18
ENDMDL
