MODEL 1
REMARK VINA RESULT:     -13.0      0.000      0.000
REMARK SMILES O=C(OCCOC(=O)[C@H]1CC[C@@H]2CCCC[C@H]2N1C(=O)Cn1cnnn1)c1ccc(-c2c3nc(c(-c4c(F)c(F)c(F)c(F)c4F)c4ccc([nH]4)c(-c4c(F)c(F)c(F)c(F)c4F)c4nc(c(-c5c(F)c(F)c(F)c(F)c5F)c5ccc2[nH]5)C=C4)C=C3)cc1
REMARK SMILES IDX 5 1 4 2 3 3 2 4 1 5 27 6 28 7 89 8 29 9 88 10 30 11 31 12
REMARK SMILES IDX 32 13 82 14 33 15 87 16 81 17 83 18 34 19 86 20 80 21 79 22
REMARK SMILES IDX 35 24 67 25 47 26 66 27 48 28 51 29 65 30 84 31 49 32 50 33
REMARK SMILES IDX 64 35 85 36 52 37 36 38 37 39 45 40 38 41 39 42 43 43 46 44
REMARK SMILES IDX 40 45 41 46 44 47 42 48 68 49 69 50 77 51 70 52 71 53 75 54
REMARK SMILES IDX 78 55 72 56 73 57 76 58 74 59 53 60 54 61 62 62 55 63 56 64
REMARK SMILES IDX 60 65 63 66 57 67 58 68 61 69 59 70 6 71 7 72 8 73 9 74
REMARK SMILES IDX 10 75 18 76 11 77 17 78 12 79 16 80 13 81 15 82 14 83 19 84
REMARK SMILES IDX 20 85 21 86 22 87 23 88 26 89 24 90 25 91
REMARK H PARENT 83 23 51 34
REMARK Flexibility Score: inf
ROOT
ATOM      1  C   UNL A   1      38.434  22.162  26.060  1.00  0.00     0.274 C 
ENDROOT
BRANCH   1   2
ATOM      2  C   UNL A   1      39.787  21.477  26.333  1.00  0.00     0.275 C 
BRANCH   2   3
ATOM      3  O   UNL A   1      40.512  22.117  27.381  1.00  0.00    -0.458 OA
BRANCH   3   4
ATOM      4  C   UNL A   1      41.514  22.887  26.912  1.00  0.00     0.338 C 
ATOM      5  O   UNL A   1      42.501  22.485  26.308  1.00  0.00    -0.246 OA
BRANCH   4   6
ATOM      6  C   UNL A   1      41.353  24.281  27.313  1.00  0.00     0.060 A 
ATOM      7  C   UNL A   1      40.495  25.128  26.616  1.00  0.00     0.016 A 
ATOM      8  C   UNL A   1      42.066  24.730  28.432  1.00  0.00     0.016 A 
ATOM      9  C   UNL A   1      40.447  26.451  26.986  1.00  0.00     0.010 A 
ATOM     10  C   UNL A   1      41.948  26.028  28.862  1.00  0.00     0.010 A 
ATOM     11  C   UNL A   1      41.191  26.891  28.094  1.00  0.00    -0.014 A 
BRANCH  11  12
ATOM     12  C   UNL A   1      41.017  28.262  28.515  1.00  0.00     0.031 A 
ATOM     13  C   UNL A   1      42.091  29.128  27.986  1.00  0.00     0.074 A 
ATOM     14  C   UNL A   1      40.008  28.674  29.301  1.00  0.00     0.049 A 
ATOM     15  N   UNL A   1      43.145  29.492  28.634  1.00  0.00    -0.248 NA
ATOM     16  C   UNL A   1      42.160  29.378  26.538  1.00  0.00     0.031 C 
ATOM     17  C   UNL A   1      38.785  27.972  29.687  1.00  0.00     0.029 A 
ATOM     18  N   UNL A   1      39.873  29.882  29.911  1.00  0.00    -0.354 N 
ATOM     19  C   UNL A   1      43.905  30.228  27.739  1.00  0.00     0.074 A 
ATOM     20  C   UNL A   1      43.367  29.942  26.434  1.00  0.00     0.031 C 
ATOM     21  C   UNL A   1      37.934  28.844  30.281  1.00  0.00     0.029 A 
ATOM     22  C   UNL A   1      38.618  30.111  30.463  1.00  0.00     0.049 A 
ATOM     23  H   UNL A   1      40.604  30.540  29.957  1.00  0.00     0.167 HD
ATOM     24  C   UNL A   1      44.688  31.233  28.216  1.00  0.00     0.037 A 
ATOM     25  C   UNL A   1      38.196  31.289  30.990  1.00  0.00     0.037 A 
ATOM     26  C   UNL A   1      44.951  31.034  29.628  1.00  0.00     0.049 A 
ATOM     27  C   UNL A   1      39.416  32.057  31.368  1.00  0.00     0.074 A 
ATOM     28  C   UNL A   1      45.548  30.033  30.373  1.00  0.00     0.029 A 
ATOM     29  N   UNL A   1      44.189  31.753  30.518  1.00  0.00    -0.354 N 
ATOM     30  N   UNL A   1      40.216  31.690  32.332  1.00  0.00    -0.248 NA
ATOM     31  C   UNL A   1      40.013  32.911  30.351  1.00  0.00     0.031 C 
ATOM     32  C   UNL A   1      44.748  29.917  31.551  1.00  0.00     0.029 A 
ATOM     33  C   UNL A   1      43.768  30.909  31.511  1.00  0.00     0.049 A 
ATOM     34  H   UNL A   1      43.981  32.713  30.453  1.00  0.00     0.167 HD
ATOM     35  C   UNL A   1      41.492  31.876  31.819  1.00  0.00     0.074 A 
ATOM     36  C   UNL A   1      41.304  32.690  30.618  1.00  0.00     0.031 C 
ATOM     37  C   UNL A   1      42.536  31.100  32.241  1.00  0.00     0.037 A 
BRANCH  24  38
ATOM     38  C   UNL A   1      44.758  32.599  27.566  1.00  0.00     0.064 A 
ATOM     39  C   UNL A   1      45.931  32.939  26.859  1.00  0.00     0.173 A 
ATOM     40  C   UNL A   1      43.911  33.685  27.880  1.00  0.00     0.173 A 
ATOM     41  F   UNL A   1      46.807  31.991  26.493  1.00  0.00    -0.203 F 
ATOM     42  C   UNL A   1      46.289  34.266  26.618  1.00  0.00     0.198 A 
ATOM     43  C   UNL A   1      44.252  35.005  27.600  1.00  0.00     0.198 A 
ATOM     44  F   UNL A   1      42.768  33.546  28.558  1.00  0.00    -0.203 F 
ATOM     45  F   UNL A   1      47.485  34.543  26.082  1.00  0.00    -0.200 F 
ATOM     46  C   UNL A   1      45.458  35.300  27.005  1.00  0.00     0.200 A 
ATOM     47  F   UNL A   1      43.434  35.991  27.996  1.00  0.00    -0.200 F 
ATOM     48  F   UNL A   1      45.833  36.574  26.848  1.00  0.00    -0.200 F 
ENDBRANCH  24  38
BRANCH  25  49
ATOM     49  C   UNL A   1      36.869  31.934  30.837  1.00  0.00     0.064 A 
ATOM     50  C   UNL A   1      35.989  32.046  31.928  1.00  0.00     0.173 A 
ATOM     51  C   UNL A   1      36.561  32.713  29.704  1.00  0.00     0.173 A 
ATOM     52  F   UNL A   1      36.234  31.377  33.063  1.00  0.00    -0.203 F 
ATOM     53  C   UNL A   1      34.889  32.910  31.898  1.00  0.00     0.198 A 
ATOM     54  C   UNL A   1      35.461  33.571  29.675  1.00  0.00     0.198 A 
ATOM     55  F   UNL A   1      37.376  32.732  28.641  1.00  0.00    -0.203 F 
ATOM     56  F   UNL A   1      34.110  33.040  32.983  1.00  0.00    -0.200 F 
ATOM     57  C   UNL A   1      34.632  33.681  30.776  1.00  0.00     0.200 A 
ATOM     58  F   UNL A   1      35.247  34.342  28.599  1.00  0.00    -0.200 F 
ATOM     59  F   UNL A   1      33.618  34.558  30.771  1.00  0.00    -0.200 F 
ENDBRANCH  25  49
BRANCH  37  60
ATOM     60  C   UNL A   1      42.321  30.243  33.458  1.00  0.00     0.064 A 
ATOM     61  C   UNL A   1      42.484  30.683  34.784  1.00  0.00     0.173 A 
ATOM     62  C   UNL A   1      41.806  28.954  33.267  1.00  0.00     0.173 A 
ATOM     63  F   UNL A   1      42.873  31.935  35.054  1.00  0.00    -0.203 F 
ATOM     64  C   UNL A   1      42.192  29.847  35.864  1.00  0.00     0.198 A 
ATOM     65  C   UNL A   1      41.481  28.136  34.345  1.00  0.00     0.198 A 
ATOM     66  F   UNL A   1      41.576  28.502  32.025  1.00  0.00    -0.203 F 
ATOM     67  F   UNL A   1      42.371  30.282  37.120  1.00  0.00    -0.200 F 
ATOM     68  C   UNL A   1      41.687  28.577  35.642  1.00  0.00     0.200 A 
ATOM     69  F   UNL A   1      40.943  26.929  34.123  1.00  0.00    -0.200 F 
ATOM     70  F   UNL A   1      41.371  27.786  36.677  1.00  0.00    -0.200 F 
ENDBRANCH  37  60
ENDBRANCH  11  12
ENDBRANCH   4   6
ENDBRANCH   3   4
ENDBRANCH   2   3
ENDBRANCH   1   2
BRANCH   1  71
ATOM     71  O   UNL A   1      37.832  21.722  24.813  1.00  0.00    -0.461 OA
BRANCH  71  72
ATOM     72  C   UNL A   1      36.679  20.992  24.887  1.00  0.00     0.328 C 
ATOM     73  O   UNL A   1      36.649  19.773  24.931  1.00  0.00    -0.250 OA
BRANCH  72  74
ATOM     74  C   UNL A   1      35.430  21.902  24.779  1.00  0.00     0.195 C 
ATOM     75  C   UNL A   1      35.768  22.729  23.505  1.00  0.00     0.037 C 
ATOM     76  N   UNL A   1      33.959  21.524  24.721  1.00  0.00    -0.324 N 
ATOM     77  C   UNL A   1      34.865  23.930  23.293  1.00  0.00     0.008 C 
ATOM     78  C   UNL A   1      33.078  22.776  24.625  1.00  0.00     0.089 C 
ATOM     79  C   UNL A   1      33.398  23.504  23.295  1.00  0.00     0.012 C 
ATOM     80  C   UNL A   1      31.542  22.637  24.803  1.00  0.00     0.025 C 
ATOM     81  C   UNL A   1      32.524  24.736  23.013  1.00  0.00     0.006 C 
ATOM     82  C   UNL A   1      30.743  23.906  24.518  1.00  0.00     0.002 C 
ATOM     83  C   UNL A   1      31.043  24.423  23.125  1.00  0.00     0.000 C 
BRANCH  76  84
ATOM     84  C   UNL A   1      33.361  20.318  25.073  1.00  0.00     0.245 C 
ATOM     85  O   UNL A   1      33.254  20.025  26.281  1.00  0.00    -0.273 OA
BRANCH  84  86
ATOM     86  C   UNL A   1      32.846  19.196  24.207  1.00  0.00     0.248 C 
BRANCH  86  87
ATOM     87  N   UNL A   1      33.632  18.050  23.857  1.00  0.00    -0.223 N 
ATOM     88  C   UNL A   1      34.188  17.173  24.748  1.00  0.00     0.246 A 
ATOM     89  N   UNL A   1      33.439  17.423  22.685  1.00  0.00    -0.045 NA
ATOM     90  N   UNL A   1      34.410  16.035  24.137  1.00  0.00    -0.117 NA
ATOM     91  N   UNL A   1      33.943  16.207  22.856  1.00  0.00    -0.024 NA
ENDBRANCH  86  87
ENDBRANCH  84  86
ENDBRANCH  76  84
ENDBRANCH  72  74
ENDBRANCH  71  72
ENDBRANCH   1  71
TORSDOF 14
ENDMDL
MODEL 2
REMARK VINA RESULT:     -12.9      6.053     11.961
REMARK SMILES O=C(OCCOC(=O)[C@H]1CC[C@@H]2CCCC[C@H]2N1C(=O)Cn1cnnn1)c1ccc(-c2c3nc(c(-c4c(F)c(F)c(F)c(F)c4F)c4ccc([nH]4)c(-c4c(F)c(F)c(F)c(F)c4F)c4nc(c(-c5c(F)c(F)c(F)c(F)c5F)c5ccc2[nH]5)C=C4)C=C3)cc1
REMARK SMILES IDX 5 1 4 2 3 3 2 4 1 5 27 6 28 7 89 8 29 9 88 10 30 11 31 12
REMARK SMILES IDX 32 13 82 14 33 15 87 16 81 17 83 18 34 19 86 20 80 21 79 22
REMARK SMILES IDX 35 24 67 25 47 26 66 27 48 28 51 29 65 30 84 31 49 32 50 33
REMARK SMILES IDX 64 35 85 36 52 37 36 38 37 39 45 40 38 41 39 42 43 43 46 44
REMARK SMILES IDX 40 45 41 46 44 47 42 48 68 49 69 50 77 51 70 52 71 53 75 54
REMARK SMILES IDX 78 55 72 56 73 57 76 58 74 59 53 60 54 61 62 62 55 63 56 64
REMARK SMILES IDX 60 65 63 66 57 67 58 68 61 69 59 70 6 71 7 72 8 73 9 74
REMARK SMILES IDX 10 75 18 76 11 77 17 78 12 79 16 80 13 81 15 82 14 83 19 84
REMARK SMILES IDX 20 85 21 86 22 87 23 88 26 89 24 90 25 91
REMARK H PARENT 83 23 51 34
REMARK Flexibility Score: inf
ROOT
ATOM      1  C   UNL A   1      34.671  33.378  30.569  1.00  0.00     0.274 C 
ENDROOT
BRANCH   1   2
ATOM      2  C   UNL A   1      33.910  32.921  29.310  1.00  0.00     0.275 C 
BRANCH   2   3
ATOM      3  O   UNL A   1      34.618  31.916  28.587  1.00  0.00    -0.458 OA
BRANCH   3   4
ATOM      4  C   UNL A   1      35.768  32.381  28.059  1.00  0.00     0.338 C 
ATOM      5  O   UNL A   1      35.886  33.402  27.392  1.00  0.00    -0.246 OA
BRANCH   4   6
ATOM      6  C   UNL A   1      36.872  31.451  28.274  1.00  0.00     0.060 A 
ATOM      7  C   UNL A   1      36.837  30.167  27.736  1.00  0.00     0.016 A 
ATOM      8  C   UNL A   1      37.974  31.898  29.015  1.00  0.00     0.016 A 
ATOM      9  C   UNL A   1      37.865  29.307  28.041  1.00  0.00     0.010 A 
ATOM     10  C   UNL A   1      39.046  31.071  29.243  1.00  0.00     0.010 A 
ATOM     11  C   UNL A   1      38.950  29.763  28.810  1.00  0.00    -0.014 A 
BRANCH  11  12
ATOM     12  C   UNL A   1      40.058  28.859  29.005  1.00  0.00     0.031 A 
ATOM     13  C   UNL A   1      40.286  28.588  30.439  1.00  0.00     0.074 A 
ATOM     14  C   UNL A   1      40.788  28.351  27.997  1.00  0.00     0.049 A 
ATOM     15  N   UNL A   1      41.164  29.174  31.181  1.00  0.00    -0.248 NA
ATOM     16  C   UNL A   1      39.280  27.823  31.192  1.00  0.00     0.031 C 
ATOM     17  C   UNL A   1      40.520  28.363  26.560  1.00  0.00     0.029 A 
ATOM     18  N   UNL A   1      41.960  27.667  28.085  1.00  0.00    -0.354 N 
ATOM     19  C   UNL A   1      40.978  28.669  32.458  1.00  0.00     0.074 A 
ATOM     20  C   UNL A   1      39.691  28.025  32.447  1.00  0.00     0.031 C 
ATOM     21  C   UNL A   1      41.384  27.526  25.935  1.00  0.00     0.029 A 
ATOM     22  C   UNL A   1      42.361  27.058  26.901  1.00  0.00     0.049 A 
ATOM     23  H   UNL A   1      42.480  27.608  28.918  1.00  0.00     0.167 HD
ATOM     24  C   UNL A   1      42.054  28.572  33.287  1.00  0.00     0.037 A 
ATOM     25  C   UNL A   1      43.409  26.205  26.774  1.00  0.00     0.037 A 
ATOM     26  C   UNL A   1      43.108  29.464  32.844  1.00  0.00     0.049 A 
ATOM     27  C   UNL A   1      44.328  26.474  27.917  1.00  0.00     0.074 A 
ATOM     28  C   UNL A   1      43.207  30.831  32.654  1.00  0.00     0.029 A 
ATOM     29  N   UNL A   1      44.133  28.914  32.112  1.00  0.00    -0.354 N 
ATOM     30  N   UNL A   1      45.000  27.586  28.042  1.00  0.00    -0.248 NA
ATOM     31  C   UNL A   1      44.091  25.743  29.153  1.00  0.00     0.031 C 
ATOM     32  C   UNL A   1      43.974  30.987  31.459  1.00  0.00     0.029 A 
ATOM     33  C   UNL A   1      44.381  29.722  31.034  1.00  0.00     0.049 A 
ATOM     34  H   UNL A   1      44.609  28.080  32.326  1.00  0.00     0.167 HD
ATOM     35  C   UNL A   1      44.873  27.923  29.382  1.00  0.00     0.074 A 
ATOM     36  C   UNL A   1      44.356  26.717  30.031  1.00  0.00     0.031 C 
ATOM     37  C   UNL A   1      44.907  29.230  29.782  1.00  0.00     0.037 A 
BRANCH  24  38
ATOM     38  C   UNL A   1      42.335  27.343  34.126  1.00  0.00     0.064 A 
ATOM     39  C   UNL A   1      42.034  27.398  35.503  1.00  0.00     0.173 A 
ATOM     40  C   UNL A   1      43.176  26.277  33.737  1.00  0.00     0.173 A 
ATOM     41  F   UNL A   1      41.234  28.359  35.991  1.00  0.00    -0.203 F 
ATOM     42  C   UNL A   1      42.640  26.543  36.426  1.00  0.00     0.198 A 
ATOM     43  C   UNL A   1      43.745  25.400  34.656  1.00  0.00     0.198 A 
ATOM     44  F   UNL A   1      43.573  26.085  32.476  1.00  0.00    -0.203 F 
ATOM     45  F   UNL A   1      42.441  26.735  37.737  1.00  0.00    -0.200 F 
ATOM     46  C   UNL A   1      43.510  25.557  36.003  1.00  0.00     0.200 A 
ATOM     47  F   UNL A   1      44.595  24.458  34.223  1.00  0.00    -0.200 F 
ATOM     48  F   UNL A   1      44.153  24.787  36.889  1.00  0.00    -0.200 F 
ENDBRANCH  24  38
BRANCH  25  49
ATOM     49  C   UNL A   1      43.476  24.954  25.979  1.00  0.00     0.064 A 
ATOM     50  C   UNL A   1      44.541  24.717  25.093  1.00  0.00     0.173 A 
ATOM     51  C   UNL A   1      42.666  23.845  26.292  1.00  0.00     0.173 A 
ATOM     52  F   UNL A   1      45.390  25.706  24.780  1.00  0.00    -0.203 F 
ATOM     53  C   UNL A   1      44.798  23.442  24.577  1.00  0.00     0.198 A 
ATOM     54  C   UNL A   1      42.921  22.574  25.774  1.00  0.00     0.198 A 
ATOM     55  F   UNL A   1      41.671  23.951  27.183  1.00  0.00    -0.203 F 
ATOM     56  F   UNL A   1      45.862  23.241  23.786  1.00  0.00    -0.200 F 
ATOM     57  C   UNL A   1      43.995  22.369  24.928  1.00  0.00     0.200 A 
ATOM     58  F   UNL A   1      42.161  21.537  26.154  1.00  0.00    -0.200 F 
ATOM     59  F   UNL A   1      44.279  21.135  24.488  1.00  0.00    -0.200 F 
ENDBRANCH  25  49
BRANCH  37  60
ATOM     60  C   UNL A   1      45.356  30.255  28.777  1.00  0.00     0.064 A 
ATOM     61  C   UNL A   1      44.507  30.904  27.863  1.00  0.00     0.173 A 
ATOM     62  C   UNL A   1      46.689  30.684  28.833  1.00  0.00     0.173 A 
ATOM     63  F   UNL A   1      43.198  30.625  27.818  1.00  0.00    -0.203 F 
ATOM     64  C   UNL A   1      44.988  31.900  27.012  1.00  0.00     0.198 A 
ATOM     65  C   UNL A   1      47.157  31.703  28.010  1.00  0.00     0.198 A 
ATOM     66  F   UNL A   1      47.531  30.141  29.725  1.00  0.00    -0.203 F 
ATOM     67  F   UNL A   1      44.163  32.495  26.137  1.00  0.00    -0.200 F 
ATOM     68  C   UNL A   1      46.311  32.302  27.090  1.00  0.00     0.200 A 
ATOM     69  F   UNL A   1      48.424  32.123  28.128  1.00  0.00    -0.200 F 
ATOM     70  F   UNL A   1      46.766  33.284  26.300  1.00  0.00    -0.200 F 
ENDBRANCH  37  60
ENDBRANCH  11  12
ENDBRANCH   4   6
ENDBRANCH   3   4
ENDBRANCH   2   3
ENDBRANCH   1   2
BRANCH   1  71
ATOM     71  O   UNL A   1      34.520  32.448  31.675  1.00  0.00    -0.461 OA
BRANCH  71  72
ATOM     72  C   UNL A   1      35.535  31.563  31.905  1.00  0.00     0.328 C 
ATOM     73  O   UNL A   1      35.789  30.618  31.176  1.00  0.00    -0.250 OA
BRANCH  72  74
ATOM     74  C   UNL A   1      36.228  31.842  33.262  1.00  0.00     0.195 C 
ATOM     75  C   UNL A   1      37.533  31.008  33.112  1.00  0.00     0.037 C 
ATOM     76  N   UNL A   1      36.585  33.169  33.912  1.00  0.00    -0.324 N 
ATOM     77  C   UNL A   1      38.305  30.835  34.407  1.00  0.00     0.008 C 
ATOM     78  C   UNL A   1      37.258  32.945  35.272  1.00  0.00     0.089 C 
ATOM     79  C   UNL A   1      38.593  32.192  35.046  1.00  0.00     0.012 C 
ATOM     80  C   UNL A   1      37.480  34.158  36.215  1.00  0.00     0.025 C 
ATOM     81  C   UNL A   1      39.429  31.975  36.316  1.00  0.00     0.006 C 
ATOM     82  C   UNL A   1      38.309  33.861  37.462  1.00  0.00     0.002 C 
ATOM     83  C   UNL A   1      39.650  33.267  37.082  1.00  0.00     0.000 C 
BRANCH  76  84
ATOM     84  C   UNL A   1      36.099  34.437  33.614  1.00  0.00     0.245 C 
ATOM     85  O   UNL A   1      36.812  35.220  32.956  1.00  0.00    -0.273 OA
BRANCH  84  86
ATOM     86  C   UNL A   1      34.811  35.109  34.023  1.00  0.00     0.248 C 
BRANCH  86  87
ATOM     87  N   UNL A   1      34.057  35.959  33.150  1.00  0.00    -0.223 N 
ATOM     88  C   UNL A   1      32.904  35.603  32.506  1.00  0.00     0.246 A 
ATOM     89  N   UNL A   1      34.075  37.292  33.312  1.00  0.00    -0.045 NA
ATOM     90  N   UNL A   1      32.238  36.689  32.200  1.00  0.00    -0.117 NA
ATOM     91  N   UNL A   1      32.980  37.730  32.705  1.00  0.00    -0.024 NA
ENDBRANCH  86  87
ENDBRANCH  84  86
ENDBRANCH  76  84
ENDBRANCH  72  74
ENDBRANCH  71  72
ENDBRANCH   1  71
TORSDOF 14
ENDMDL
MODEL 3
REMARK VINA RESULT:     -12.9      5.965     11.205
REMARK SMILES O=C(OCCOC(=O)[C@H]1CC[C@@H]2CCCC[C@H]2N1C(=O)Cn1cnnn1)c1ccc(-c2c3nc(c(-c4c(F)c(F)c(F)c(F)c4F)c4ccc([nH]4)c(-c4c(F)c(F)c(F)c(F)c4F)c4nc(c(-c5c(F)c(F)c(F)c(F)c5F)c5ccc2[nH]5)C=C4)C=C3)cc1
REMARK SMILES IDX 5 1 4 2 3 3 2 4 1 5 27 6 28 7 89 8 29 9 88 10 30 11 31 12
REMARK SMILES IDX 32 13 82 14 33 15 87 16 81 17 83 18 34 19 86 20 80 21 79 22
REMARK SMILES IDX 35 24 67 25 47 26 66 27 48 28 51 29 65 30 84 31 49 32 50 33
REMARK SMILES IDX 64 35 85 36 52 37 36 38 37 39 45 40 38 41 39 42 43 43 46 44
REMARK SMILES IDX 40 45 41 46 44 47 42 48 68 49 69 50 77 51 70 52 71 53 75 54
REMARK SMILES IDX 78 55 72 56 73 57 76 58 74 59 53 60 54 61 62 62 55 63 56 64
REMARK SMILES IDX 60 65 63 66 57 67 58 68 61 69 59 70 6 71 7 72 8 73 9 74
REMARK SMILES IDX 10 75 18 76 11 77 17 78 12 79 16 80 13 81 15 82 14 83 19 84
REMARK SMILES IDX 20 85 21 86 22 87 23 88 26 89 24 90 25 91
REMARK H PARENT 83 23 51 34
REMARK Flexibility Score: inf
ROOT
ATOM      1  C   UNL A   1      34.242  31.082  27.532  1.00  0.00     0.274 C 
ENDROOT
BRANCH   1   2
ATOM      2  C   UNL A   1      34.799  29.653  27.665  1.00  0.00     0.275 C 
BRANCH   2   3
ATOM      3  O   UNL A   1      36.224  29.622  27.600  1.00  0.00    -0.458 OA
BRANCH   3   4
ATOM      4  C   UNL A   1      36.781  29.309  28.787  1.00  0.00     0.338 C 
ATOM      5  O   UNL A   1      36.237  29.406  29.880  1.00  0.00    -0.246 OA
BRANCH   4   6
ATOM      6  C   UNL A   1      38.186  28.940  28.639  1.00  0.00     0.060 A 
ATOM      7  C   UNL A   1      38.791  28.064  29.536  1.00  0.00     0.016 A 
ATOM      8  C   UNL A   1      38.895  29.474  27.554  1.00  0.00     0.016 A 
ATOM      9  C   UNL A   1      40.137  27.819  29.397  1.00  0.00     0.010 A 
ATOM     10  C   UNL A   1      40.216  29.157  27.358  1.00  0.00     0.010 A 
ATOM     11  C   UNL A   1      40.840  28.386  28.319  1.00  0.00    -0.014 A 
BRANCH  11  12
ATOM     12  C   UNL A   1      42.222  28.006  28.149  1.00  0.00     0.031 A 
ATOM     13  C   UNL A   1      42.342  26.733  27.407  1.00  0.00     0.074 A 
ATOM     14  C   UNL A   1      43.254  28.722  28.626  1.00  0.00     0.049 A 
ATOM     15  N   UNL A   1      42.512  25.570  27.941  1.00  0.00    -0.248 NA
ATOM     16  C   UNL A   1      41.956  26.692  25.989  1.00  0.00     0.031 C 
ATOM     17  C   UNL A   1      43.270  30.083  29.161  1.00  0.00     0.029 A 
ATOM     18  N   UNL A   1      44.560  28.350  28.696  1.00  0.00    -0.354 N 
ATOM     19  C   UNL A   1      42.495  24.666  26.890  1.00  0.00     0.074 A 
ATOM     20  C   UNL A   1      41.940  25.375  25.767  1.00  0.00     0.031 C 
ATOM     21  C   UNL A   1      44.553  30.499  29.292  1.00  0.00     0.029 A 
ATOM     22  C   UNL A   1      45.436  29.382  29.012  1.00  0.00     0.049 A 
ATOM     23  H   UNL A   1      44.859  27.426  28.537  1.00  0.00     0.167 HD
ATOM     24  C   UNL A   1      43.237  23.530  26.992  1.00  0.00     0.037 A 
ATOM     25  C   UNL A   1      46.790  29.293  28.997  1.00  0.00     0.037 A 
ATOM     26  C   UNL A   1      43.530  23.247  28.384  1.00  0.00     0.049 A 
ATOM     27  C   UNL A   1      47.132  27.848  29.135  1.00  0.00     0.074 A 
ATOM     28  C   UNL A   1      42.761  23.007  29.508  1.00  0.00     0.029 A 
ATOM     29  N   UNL A   1      44.768  23.614  28.855  1.00  0.00    -0.354 N 
ATOM     30  N   UNL A   1      46.907  27.167  30.226  1.00  0.00    -0.248 NA
ATOM     31  C   UNL A   1      47.227  27.061  27.915  1.00  0.00     0.031 C 
ATOM     32  C   UNL A   1      43.425  23.695  30.569  1.00  0.00     0.029 A 
ATOM     33  C   UNL A   1      44.607  24.237  30.064  1.00  0.00     0.049 A 
ATOM     34  H   UNL A   1      45.626  23.455  28.400  1.00  0.00     0.167 HD
ATOM     35  C   UNL A   1      46.387  25.959  29.784  1.00  0.00     0.074 A 
ATOM     36  C   UNL A   1      46.667  25.927  28.348  1.00  0.00     0.031 C 
ATOM     37  C   UNL A   1      45.514  25.247  30.559  1.00  0.00     0.037 A 
BRANCH  24  38
ATOM     38  C   UNL A   1      44.103  23.011  25.863  1.00  0.00     0.064 A 
ATOM     39  C   UNL A   1      44.108  21.622  25.615  1.00  0.00     0.173 A 
ATOM     40  C   UNL A   1      45.157  23.732  25.258  1.00  0.00     0.173 A 
ATOM     41  F   UNL A   1      43.149  20.833  26.126  1.00  0.00    -0.203 F 
ATOM     42  C   UNL A   1      45.157  20.996  24.941  1.00  0.00     0.198 A 
ATOM     43  C   UNL A   1      46.180  23.108  24.550  1.00  0.00     0.198 A 
ATOM     44  F   UNL A   1      45.313  25.051  25.401  1.00  0.00    -0.203 F 
ATOM     45  F   UNL A   1      45.193  19.659  24.867  1.00  0.00    -0.200 F 
ATOM     46  C   UNL A   1      46.202  21.738  24.425  1.00  0.00     0.200 A 
ATOM     47  F   UNL A   1      47.189  23.848  24.069  1.00  0.00    -0.200 F 
ATOM     48  F   UNL A   1      47.249  21.135  23.848  1.00  0.00    -0.200 F 
ENDBRANCH  24  38
BRANCH  25  49
ATOM     49  C   UNL A   1      47.765  30.293  28.497  1.00  0.00     0.064 A 
ATOM     50  C   UNL A   1      47.484  31.071  27.359  1.00  0.00     0.173 A 
ATOM     51  C   UNL A   1      48.850  30.716  29.289  1.00  0.00     0.173 A 
ATOM     52  F   UNL A   1      46.439  30.767  26.577  1.00  0.00    -0.203 F 
ATOM     53  C   UNL A   1      48.224  32.219  27.053  1.00  0.00     0.198 A 
ATOM     54  C   UNL A   1      49.589  31.860  28.980  1.00  0.00     0.198 A 
ATOM     55  F   UNL A   1      49.153  30.086  30.432  1.00  0.00    -0.203 F 
ATOM     56  F   UNL A   1      47.884  32.972  25.996  1.00  0.00    -0.200 F 
ATOM     57  C   UNL A   1      49.268  32.619  27.871  1.00  0.00     0.200 A 
ATOM     58  F   UNL A   1      50.571  32.258  29.802  1.00  0.00    -0.200 F 
ATOM     59  F   UNL A   1      49.934  33.754  27.616  1.00  0.00    -0.200 F 
ENDBRANCH  25  49
BRANCH  37  60
ATOM     60  C   UNL A   1      45.354  25.667  31.995  1.00  0.00     0.064 A 
ATOM     61  C   UNL A   1      46.254  25.346  33.026  1.00  0.00     0.173 A 
ATOM     62  C   UNL A   1      44.300  26.537  32.308  1.00  0.00     0.173 A 
ATOM     63  F   UNL A   1      47.344  24.605  32.787  1.00  0.00    -0.203 F 
ATOM     64  C   UNL A   1      46.075  25.837  34.321  1.00  0.00     0.198 A 
ATOM     65  C   UNL A   1      44.145  27.054  33.589  1.00  0.00     0.198 A 
ATOM     66  F   UNL A   1      43.443  26.923  31.351  1.00  0.00    -0.203 F 
ATOM     67  F   UNL A   1      46.938  25.506  35.292  1.00  0.00    -0.200 F 
ATOM     68  C   UNL A   1      45.023  26.694  34.599  1.00  0.00     0.200 A 
ATOM     69  F   UNL A   1      43.157  27.924  33.839  1.00  0.00    -0.200 F 
ATOM     70  F   UNL A   1      44.870  27.196  35.832  1.00  0.00    -0.200 F 
ENDBRANCH  37  60
ENDBRANCH  11  12
ENDBRANCH   4   6
ENDBRANCH   3   4
ENDBRANCH   2   3
ENDBRANCH   1   2
BRANCH   1  71
ATOM     71  O   UNL A   1      34.478  31.881  28.722  1.00  0.00    -0.461 OA
BRANCH  71  72
ATOM     72  C   UNL A   1      35.366  32.915  28.627  1.00  0.00     0.328 C 
ATOM     73  O   UNL A   1      35.516  33.590  27.621  1.00  0.00    -0.250 OA
BRANCH  72  74
ATOM     74  C   UNL A   1      36.236  33.030  29.904  1.00  0.00     0.195 C 
ATOM     75  C   UNL A   1      37.428  33.883  29.382  1.00  0.00     0.037 C 
ATOM     76  N   UNL A   1      35.862  33.534  31.288  1.00  0.00    -0.324 N 
ATOM     77  C   UNL A   1      38.613  33.927  30.328  1.00  0.00     0.008 C 
ATOM     78  C   UNL A   1      37.061  33.449  32.241  1.00  0.00     0.089 C 
ATOM     79  C   UNL A   1      38.175  34.389  31.717  1.00  0.00     0.012 C 
ATOM     80  C   UNL A   1      36.838  33.678  33.760  1.00  0.00     0.025 C 
ATOM     81  C   UNL A   1      39.414  34.482  32.622  1.00  0.00     0.006 C 
ATOM     82  C   UNL A   1      38.114  33.745  34.595  1.00  0.00     0.002 C 
ATOM     83  C   UNL A   1      39.047  34.811  34.058  1.00  0.00     0.000 C 
BRANCH  76  84
ATOM     84  C   UNL A   1      34.593  33.706  31.832  1.00  0.00     0.245 C 
ATOM     85  O   UNL A   1      33.928  32.700  32.149  1.00  0.00    -0.273 OA
BRANCH  84  86
ATOM     86  C   UNL A   1      33.794  34.965  32.062  1.00  0.00     0.248 C 
BRANCH  86  87
ATOM     87  N   UNL A   1      33.148  35.688  31.008  1.00  0.00    -0.223 N 
ATOM     88  C   UNL A   1      33.330  37.016  30.736  1.00  0.00     0.246 A 
ATOM     89  N   UNL A   1      32.763  35.059  29.885  1.00  0.00    -0.045 NA
ATOM     90  N   UNL A   1      33.000  37.240  29.487  1.00  0.00    -0.117 NA
ATOM     91  N   UNL A   1      32.647  36.016  28.973  1.00  0.00    -0.024 NA
ENDBRANCH  86  87
ENDBRANCH  84  86
ENDBRANCH  76  84
ENDBRANCH  72  74
ENDBRANCH  71  72
ENDBRANCH   1  71
TORSDOF 14
ENDMDL
