MODEL 1
REMARK VINA RESULT:     -11.9      0.000      0.000
REMARK SMILES C[C@@H](O)[C@@H](NC(=O)Nc1ccc(F)cc1F)C(=O)OCCOC(=O)c1ccc(-c2c3nc(c(-c4c(F)c(F)c(F)c(F)c4F)c4ccc([nH]4)c(-c4c(F)c(F)c(F)c(F)c4F)c4nc(c(-c5c(F)c(F)c(F)c(F)c5F)c5ccc2[nH]5)C=C4)C=C3)cc1
REMARK SMILES IDX 20 1 19 2 17 3 18 4 4 5 2 6 1 7 3 8 5 10 6 11 7 13 8 14 9 16
REMARK SMILES IDX 10 17 15 18 11 19 14 20 16 21 12 22 13 23 21 24 22 25 23 26
REMARK SMILES IDX 24 27 25 28 26 29 87 30 27 31 86 32 28 33 29 34 30 35 80 36
REMARK SMILES IDX 31 37 85 38 79 39 81 40 32 41 84 42 78 43 77 44 33 46 65 47
REMARK SMILES IDX 45 48 64 49 46 50 49 51 63 52 82 53 47 54 48 55 62 57 83 58
REMARK SMILES IDX 50 59 34 60 35 61 43 62 36 63 37 64 41 65 44 66 38 67 39 68
REMARK SMILES IDX 42 69 40 70 66 71 67 72 75 73 68 74 69 75 73 76 76 77 70 78
REMARK SMILES IDX 71 79 74 80 72 81 51 82 52 83 60 84 53 85 54 86 58 87 61 88
REMARK SMILES IDX 55 89 56 90 59 91 57 92
REMARK H PARENT 3 9 5 12 8 15 81 45 49 56
REMARK Flexibility Score: inf
ROOT
ATOM      1  C   UNL A   1      33.001  29.563  25.047  1.00  0.00     0.274 C 
ENDROOT
BRANCH   1   2
ATOM      2  O   UNL A   1      32.374  28.438  24.408  1.00  0.00    -0.460 OA
BRANCH   2   3
ATOM      3  C   UNL A   1      32.673  28.184  23.106  1.00  0.00     0.331 C 
ATOM      4  O   UNL A   1      33.707  28.520  22.544  1.00  0.00    -0.250 OA
BRANCH   3   5
ATOM      5  C   UNL A   1      31.543  27.381  22.450  1.00  0.00     0.222 C 
BRANCH   5   6
ATOM      6  C   UNL A   1      30.406  28.377  22.085  1.00  0.00     0.145 C 
ATOM      7  C   UNL A   1      29.285  28.382  23.126  1.00  0.00     0.041 C 
BRANCH   6   8
ATOM      8  O   UNL A   1      30.882  29.725  22.033  1.00  0.00    -0.391 OA
ATOM      9  H   UNL A   1      30.452  30.246  22.729  1.00  0.00     0.211 HD
ENDBRANCH   6   8
ENDBRANCH   5   6
BRANCH   5  10
ATOM     10  N   UNL A   1      32.054  26.703  21.252  1.00  0.00    -0.322 N 
ATOM     11  C   UNL A   1      32.549  25.497  20.962  1.00  0.00     0.320 C 
ATOM     12  H   UNL A   1      32.025  27.287  20.460  1.00  0.00     0.166 HD
ATOM     13  O   UNL A   1      32.903  25.309  19.795  1.00  0.00    -0.248 OA
ATOM     14  N   UNL A   1      32.779  24.515  21.848  1.00  0.00    -0.305 N 
ATOM     15  H   UNL A   1      33.177  23.707  21.449  1.00  0.00     0.171 HD
BRANCH  14  16
ATOM     16  C   UNL A   1      32.567  24.417  23.222  1.00  0.00     0.079 A 
ATOM     17  C   UNL A   1      33.545  24.795  24.141  1.00  0.00     0.032 A 
ATOM     18  C   UNL A   1      31.293  24.056  23.677  1.00  0.00     0.149 A 
ATOM     19  C   UNL A   1      33.262  24.720  25.508  1.00  0.00     0.041 A 
ATOM     20  C   UNL A   1      31.018  23.946  25.032  1.00  0.00     0.080 A 
ATOM     21  F   UNL A   1      30.336  23.737  22.792  1.00  0.00    -0.205 F 
ATOM     22  C   UNL A   1      32.016  24.268  25.939  1.00  0.00     0.126 A 
ATOM     23  F   UNL A   1      31.779  24.144  27.251  1.00  0.00    -0.207 F 
ENDBRANCH  14  16
ENDBRANCH   5  10
ENDBRANCH   3   5
ENDBRANCH   2   3
ENDBRANCH   1   2
BRANCH   1  24
ATOM     24  C   UNL A   1      31.982  30.396  25.839  1.00  0.00     0.275 C 
BRANCH  24  25
ATOM     25  O   UNL A   1      32.390  30.658  27.195  1.00  0.00    -0.458 OA
BRANCH  25  26
ATOM     26  C   UNL A   1      33.167  31.765  27.325  1.00  0.00     0.338 C 
ATOM     27  O   UNL A   1      32.825  32.921  27.125  1.00  0.00    -0.246 OA
BRANCH  26  28
ATOM     28  C   UNL A   1      34.485  31.410  27.891  1.00  0.00     0.060 A 
ATOM     29  C   UNL A   1      34.681  30.087  28.302  1.00  0.00     0.016 A 
ATOM     30  C   UNL A   1      35.491  32.358  28.091  1.00  0.00     0.016 A 
ATOM     31  C   UNL A   1      35.868  29.703  28.923  1.00  0.00     0.010 A 
ATOM     32  C   UNL A   1      36.679  31.977  28.729  1.00  0.00     0.010 A 
ATOM     33  C   UNL A   1      36.866  30.651  29.165  1.00  0.00    -0.014 A 
BRANCH  33  34
ATOM     34  C   UNL A   1      38.052  30.284  29.976  1.00  0.00     0.031 A 
ATOM     35  C   UNL A   1      39.078  29.354  29.394  1.00  0.00     0.074 A 
ATOM     36  C   UNL A   1      38.234  30.791  31.208  1.00  0.00     0.049 A 
ATOM     37  N   UNL A   1      40.131  28.823  29.960  1.00  0.00    -0.248 NA
ATOM     38  C   UNL A   1      38.894  28.980  27.983  1.00  0.00     0.031 C 
ATOM     39  C   UNL A   1      37.361  31.762  31.860  1.00  0.00     0.029 A 
ATOM     40  N   UNL A   1      39.221  30.549  32.133  1.00  0.00    -0.354 N 
ATOM     41  C   UNL A   1      40.730  28.044  28.980  1.00  0.00     0.074 A 
ATOM     42  C   UNL A   1      39.918  28.161  27.787  1.00  0.00     0.031 C 
ATOM     43  C   UNL A   1      37.842  32.026  33.087  1.00  0.00     0.029 A 
ATOM     44  C   UNL A   1      39.033  31.209  33.322  1.00  0.00     0.049 A 
ATOM     45  H   UNL A   1      39.989  29.958  31.960  1.00  0.00     0.167 HD
ATOM     46  C   UNL A   1      41.857  27.298  29.068  1.00  0.00     0.037 A 
ATOM     47  C   UNL A   1      39.723  31.138  34.478  1.00  0.00     0.037 A 
ATOM     48  C   UNL A   1      42.667  27.177  30.250  1.00  0.00     0.049 A 
ATOM     49  C   UNL A   1      40.918  30.226  34.581  1.00  0.00     0.074 A 
ATOM     50  C   UNL A   1      43.813  26.423  30.434  1.00  0.00     0.029 A 
ATOM     51  N   UNL A   1      42.419  27.827  31.449  1.00  0.00    -0.354 N 
ATOM     52  N   UNL A   1      41.462  29.466  33.662  1.00  0.00    -0.248 NA
ATOM     53  C   UNL A   1      41.592  30.155  35.887  1.00  0.00     0.031 C 
ATOM     54  C   UNL A   1      44.236  26.584  31.758  1.00  0.00     0.029 A 
ATOM     55  C   UNL A   1      43.382  27.479  32.382  1.00  0.00     0.049 A 
ATOM     56  H   UNL A   1      41.670  28.444  31.613  1.00  0.00     0.167 HD
ATOM     57  C   UNL A   1      42.553  28.854  34.266  1.00  0.00     0.074 A 
ATOM     58  C   UNL A   1      42.599  29.331  35.631  1.00  0.00     0.031 C 
ATOM     59  C   UNL A   1      43.436  27.975  33.733  1.00  0.00     0.037 A 
BRANCH  46  60
ATOM     60  C   UNL A   1      42.269  26.523  27.855  1.00  0.00     0.064 A 
ATOM     61  C   UNL A   1      41.739  25.247  27.616  1.00  0.00     0.173 A 
ATOM     62  C   UNL A   1      43.229  27.017  26.960  1.00  0.00     0.173 A 
ATOM     63  F   UNL A   1      40.820  24.731  28.446  1.00  0.00    -0.203 F 
ATOM     64  C   UNL A   1      42.166  24.486  26.532  1.00  0.00     0.198 A 
ATOM     65  C   UNL A   1      43.635  26.264  25.862  1.00  0.00     0.198 A 
ATOM     66  F   UNL A   1      43.753  28.238  27.139  1.00  0.00    -0.203 F 
ATOM     67  F   UNL A   1      41.665  23.258  26.339  1.00  0.00    -0.200 F 
ATOM     68  C   UNL A   1      43.110  24.996  25.654  1.00  0.00     0.200 A 
ATOM     69  F   UNL A   1      44.532  26.766  25.002  1.00  0.00    -0.200 F 
ATOM     70  F   UNL A   1      43.512  24.267  24.604  1.00  0.00    -0.200 F 
ENDBRANCH  46  60
BRANCH  47  71
ATOM     71  C   UNL A   1      39.288  31.942  35.649  1.00  0.00     0.064 A 
ATOM     72  C   UNL A   1      39.767  33.244  35.857  1.00  0.00     0.173 A 
ATOM     73  C   UNL A   1      38.371  31.427  36.574  1.00  0.00     0.173 A 
ATOM     74  F   UNL A   1      40.641  33.784  34.995  1.00  0.00    -0.203 F 
ATOM     75  C   UNL A   1      39.355  33.994  36.955  1.00  0.00     0.198 A 
ATOM     76  C   UNL A   1      37.939  32.188  37.659  1.00  0.00     0.198 A 
ATOM     77  F   UNL A   1      37.862  30.198  36.400  1.00  0.00    -0.203 F 
ATOM     78  F   UNL A   1      39.845  35.227  37.143  1.00  0.00    -0.200 F 
ATOM     79  C   UNL A   1      38.437  33.469  37.852  1.00  0.00     0.200 A 
ATOM     80  F   UNL A   1      37.031  31.688  38.507  1.00  0.00    -0.200 F 
ATOM     81  F   UNL A   1      38.026  34.199  38.898  1.00  0.00    -0.200 F 
ENDBRANCH  47  71
BRANCH  59  82
ATOM     82  C   UNL A   1      44.563  27.496  34.600  1.00  0.00     0.064 A 
ATOM     83  C   UNL A   1      44.408  26.345  35.390  1.00  0.00     0.173 A 
ATOM     84  C   UNL A   1      45.758  28.218  34.720  1.00  0.00     0.173 A 
ATOM     85  F   UNL A   1      43.280  25.623  35.318  1.00  0.00    -0.203 F 
ATOM     86  C   UNL A   1      45.402  25.948  36.280  1.00  0.00     0.198 A 
ATOM     87  C   UNL A   1      46.760  27.803  35.593  1.00  0.00     0.198 A 
ATOM     88  F   UNL A   1      45.959  29.318  33.977  1.00  0.00    -0.203 F 
ATOM     89  F   UNL A   1      45.217  24.865  37.050  1.00  0.00    -0.200 F 
ATOM     90  C   UNL A   1      46.578  26.675  36.379  1.00  0.00     0.200 A 
ATOM     91  F   UNL A   1      47.905  28.495  35.673  1.00  0.00    -0.200 F 
ATOM     92  F   UNL A   1      47.536  26.289  37.233  1.00  0.00    -0.200 F 
ENDBRANCH  59  82
ENDBRANCH  33  34
ENDBRANCH  26  28
ENDBRANCH  25  26
ENDBRANCH  24  25
ENDBRANCH   1  24
TORSDOF 15
ENDMDL
MODEL 2
REMARK VINA RESULT:     -11.9      4.783      9.891
REMARK SMILES C[C@@H](O)[C@@H](NC(=O)Nc1ccc(F)cc1F)C(=O)OCCOC(=O)c1ccc(-c2c3nc(c(-c4c(F)c(F)c(F)c(F)c4F)c4ccc([nH]4)c(-c4c(F)c(F)c(F)c(F)c4F)c4nc(c(-c5c(F)c(F)c(F)c(F)c5F)c5ccc2[nH]5)C=C4)C=C3)cc1
REMARK SMILES IDX 20 1 19 2 17 3 18 4 4 5 2 6 1 7 3 8 5 10 6 11 7 13 8 14 9 16
REMARK SMILES IDX 10 17 15 18 11 19 14 20 16 21 12 22 13 23 21 24 22 25 23 26
REMARK SMILES IDX 24 27 25 28 26 29 87 30 27 31 86 32 28 33 29 34 30 35 80 36
REMARK SMILES IDX 31 37 85 38 79 39 81 40 32 41 84 42 78 43 77 44 33 46 65 47
REMARK SMILES IDX 45 48 64 49 46 50 49 51 63 52 82 53 47 54 48 55 62 57 83 58
REMARK SMILES IDX 50 59 34 60 35 61 43 62 36 63 37 64 41 65 44 66 38 67 39 68
REMARK SMILES IDX 42 69 40 70 66 71 67 72 75 73 68 74 69 75 73 76 76 77 70 78
REMARK SMILES IDX 71 79 74 80 72 81 51 82 52 83 60 84 53 85 54 86 58 87 61 88
REMARK SMILES IDX 55 89 56 90 59 91 57 92
REMARK H PARENT 3 9 5 12 8 15 81 45 49 56
REMARK Flexibility Score: inf
ROOT
ATOM      1  C   UNL A   1      33.388  33.461  27.963  1.00  0.00     0.274 C 
ENDROOT
BRANCH   1   2
ATOM      2  O   UNL A   1      33.404  33.844  29.349  1.00  0.00    -0.460 OA
BRANCH   2   3
ATOM      3  C   UNL A   1      33.112  35.134  29.667  1.00  0.00     0.331 C 
ATOM      4  O   UNL A   1      32.421  35.885  28.992  1.00  0.00    -0.250 OA
BRANCH   3   5
ATOM      5  C   UNL A   1      33.745  35.503  31.015  1.00  0.00     0.222 C 
BRANCH   5   6
ATOM      6  C   UNL A   1      33.300  36.951  31.364  1.00  0.00     0.145 C 
ATOM      7  C   UNL A   1      34.009  37.490  32.608  1.00  0.00     0.041 C 
BRANCH   6   8
ATOM      8  O   UNL A   1      33.624  37.870  30.316  1.00  0.00    -0.391 OA
ATOM      9  H   UNL A   1      34.226  38.550  30.658  1.00  0.00     0.211 HD
ENDBRANCH   6   8
ENDBRANCH   5   6
BRANCH   5  10
ATOM     10  N   UNL A   1      33.299  34.553  32.043  1.00  0.00    -0.322 N 
ATOM     11  C   UNL A   1      33.832  33.516  32.695  1.00  0.00     0.320 C 
ATOM     12  H   UNL A   1      32.371  34.723  32.321  1.00  0.00     0.166 HD
ATOM     13  O   UNL A   1      33.102  32.936  33.503  1.00  0.00    -0.248 OA
ATOM     14  N   UNL A   1      35.052  33.001  32.476  1.00  0.00    -0.305 N 
ATOM     15  H   UNL A   1      35.256  32.216  33.036  1.00  0.00     0.171 HD
BRANCH  14  16
ATOM     16  C   UNL A   1      36.084  33.358  31.612  1.00  0.00     0.079 A 
ATOM     17  C   UNL A   1      36.154  32.859  30.311  1.00  0.00     0.032 A 
ATOM     18  C   UNL A   1      36.991  34.342  32.024  1.00  0.00     0.149 A 
ATOM     19  C   UNL A   1      37.186  33.287  29.470  1.00  0.00     0.041 A 
ATOM     20  C   UNL A   1      38.037  34.744  31.206  1.00  0.00     0.080 A 
ATOM     21  F   UNL A   1      36.897  34.858  33.259  1.00  0.00    -0.205 F 
ATOM     22  C   UNL A   1      38.132  34.198  29.935  1.00  0.00     0.126 A 
ATOM     23  F   UNL A   1      39.149  34.554  29.140  1.00  0.00    -0.207 F 
ENDBRANCH  14  16
ENDBRANCH   5  10
ENDBRANCH   3   5
ENDBRANCH   2   3
ENDBRANCH   1   2
BRANCH   1  24
ATOM     24  C   UNL A   1      33.286  31.937  27.806  1.00  0.00     0.275 C 
BRANCH  24  25
ATOM     25  O   UNL A   1      34.475  31.338  27.259  1.00  0.00    -0.458 OA
BRANCH  25  26
ATOM     26  C   UNL A   1      34.654  30.044  27.632  1.00  0.00     0.338 C 
ATOM     27  O   UNL A   1      33.865  29.125  27.469  1.00  0.00    -0.246 OA
BRANCH  26  28
ATOM     28  C   UNL A   1      36.021  29.838  28.153  1.00  0.00     0.060 A 
ATOM     29  C   UNL A   1      37.092  30.091  27.288  1.00  0.00     0.016 A 
ATOM     30  C   UNL A   1      36.264  29.336  29.434  1.00  0.00     0.016 A 
ATOM     31  C   UNL A   1      38.403  29.835  27.684  1.00  0.00     0.010 A 
ATOM     32  C   UNL A   1      37.582  29.064  29.828  1.00  0.00     0.010 A 
ATOM     33  C   UNL A   1      38.656  29.296  28.949  1.00  0.00    -0.014 A 
BRANCH  33  34
ATOM     34  C   UNL A   1      40.029  28.864  29.305  1.00  0.00     0.031 A 
ATOM     35  C   UNL A   1      40.872  29.750  30.177  1.00  0.00     0.074 A 
ATOM     36  C   UNL A   1      40.517  27.683  28.884  1.00  0.00     0.049 A 
ATOM     37  N   UNL A   1      42.126  29.618  30.526  1.00  0.00    -0.248 NA
ATOM     38  C   UNL A   1      40.209  30.939  30.735  1.00  0.00     0.031 C 
ATOM     39  C   UNL A   1      39.781  26.695  28.103  1.00  0.00     0.029 A 
ATOM     40  N   UNL A   1      41.759  27.121  29.056  1.00  0.00    -0.354 N 
ATOM     41  C   UNL A   1      42.407  30.711  31.334  1.00  0.00     0.074 A 
ATOM     42  C   UNL A   1      41.197  31.502  31.416  1.00  0.00     0.031 C 
ATOM     43  C   UNL A   1      40.587  25.650  27.850  1.00  0.00     0.029 A 
ATOM     44  C   UNL A   1      41.910  25.917  28.414  1.00  0.00     0.049 A 
ATOM     45  H   UNL A   1      42.473  27.543  29.588  1.00  0.00     0.167 HD
ATOM     46  C   UNL A   1      43.569  31.025  31.953  1.00  0.00     0.037 A 
ATOM     47  C   UNL A   1      42.999  25.136  28.272  1.00  0.00     0.037 A 
ATOM     48  C   UNL A   1      44.775  30.244  31.875  1.00  0.00     0.049 A 
ATOM     49  C   UNL A   1      44.308  25.556  28.890  1.00  0.00     0.074 A 
ATOM     50  C   UNL A   1      46.006  30.502  32.452  1.00  0.00     0.029 A 
ATOM     51  N   UNL A   1      44.901  29.052  31.179  1.00  0.00    -0.354 N 
ATOM     52  N   UNL A   1      44.577  26.606  29.626  1.00  0.00    -0.248 NA
ATOM     53  C   UNL A   1      45.469  24.685  28.649  1.00  0.00     0.031 C 
ATOM     54  C   UNL A   1      46.890  29.487  32.070  1.00  0.00     0.029 A 
ATOM     55  C   UNL A   1      46.195  28.571  31.298  1.00  0.00     0.049 A 
ATOM     56  H   UNL A   1      44.179  28.614  30.674  1.00  0.00     0.167 HD
ATOM     57  C   UNL A   1      45.922  26.507  29.961  1.00  0.00     0.074 A 
ATOM     58  C   UNL A   1      46.417  25.292  29.350  1.00  0.00     0.031 C 
ATOM     59  C   UNL A   1      46.676  27.350  30.707  1.00  0.00     0.037 A 
BRANCH  46  60
ATOM     60  C   UNL A   1      43.607  32.292  32.751  1.00  0.00     0.064 A 
ATOM     61  C   UNL A   1      43.244  32.287  34.106  1.00  0.00     0.173 A 
ATOM     62  C   UNL A   1      43.946  33.519  32.163  1.00  0.00     0.173 A 
ATOM     63  F   UNL A   1      42.910  31.137  34.711  1.00  0.00    -0.203 F 
ATOM     64  C   UNL A   1      43.207  33.467  34.841  1.00  0.00     0.198 A 
ATOM     65  C   UNL A   1      43.932  34.695  32.909  1.00  0.00     0.198 A 
ATOM     66  F   UNL A   1      44.313  33.572  30.875  1.00  0.00    -0.203 F 
ATOM     67  F   UNL A   1      42.831  33.442  36.127  1.00  0.00    -0.200 F 
ATOM     68  C   UNL A   1      43.554  34.670  34.243  1.00  0.00     0.200 A 
ATOM     69  F   UNL A   1      44.288  35.853  32.336  1.00  0.00    -0.200 F 
ATOM     70  F   UNL A   1      43.528  35.804  34.956  1.00  0.00    -0.200 F 
ENDBRANCH  46  60
BRANCH  47  71
ATOM     71  C   UNL A   1      42.908  23.877  27.489  1.00  0.00     0.064 A 
ATOM     72  C   UNL A   1      43.284  23.831  26.138  1.00  0.00     0.173 A 
ATOM     73  C   UNL A   1      42.456  22.691  28.082  1.00  0.00     0.173 A 
ATOM     74  F   UNL A   1      43.730  24.938  25.526  1.00  0.00    -0.203 F 
ATOM     75  C   UNL A   1      43.197  22.648  25.408  1.00  0.00     0.198 A 
ATOM     76  C   UNL A   1      42.395  21.502  27.358  1.00  0.00     0.198 A 
ATOM     77  F   UNL A   1      42.114  22.679  29.380  1.00  0.00    -0.203 F 
ATOM     78  F   UNL A   1      43.542  22.636  24.113  1.00  0.00    -0.200 F 
ATOM     79  C   UNL A   1      42.759  21.483  26.020  1.00  0.00     0.200 A 
ATOM     80  F   UNL A   1      41.998  20.373  27.960  1.00  0.00    -0.200 F 
ATOM     81  F   UNL A   1      42.695  20.341  25.322  1.00  0.00    -0.200 F 
ENDBRANCH  47  71
BRANCH  59  82
ATOM     82  C   UNL A   1      48.109  26.980  30.956  1.00  0.00     0.064 A 
ATOM     83  C   UNL A   1      49.119  27.449  30.102  1.00  0.00     0.173 A 
ATOM     84  C   UNL A   1      48.473  26.093  31.979  1.00  0.00     0.173 A 
ATOM     85  F   UNL A   1      48.821  28.294  29.103  1.00  0.00    -0.203 F 
ATOM     86  C   UNL A   1      50.438  27.030  30.253  1.00  0.00     0.198 A 
ATOM     87  C   UNL A   1      49.798  25.696  32.142  1.00  0.00     0.198 A 
ATOM     88  F   UNL A   1      47.546  25.626  32.828  1.00  0.00    -0.203 F 
ATOM     89  F   UNL A   1      51.380  27.465  29.403  1.00  0.00    -0.200 F 
ATOM     90  C   UNL A   1      50.776  26.156  31.274  1.00  0.00     0.200 A 
ATOM     91  F   UNL A   1      50.128  24.867  33.142  1.00  0.00    -0.200 F 
ATOM     92  F   UNL A   1      52.047  25.756  31.422  1.00  0.00    -0.200 F 
ENDBRANCH  59  82
ENDBRANCH  33  34
ENDBRANCH  26  28
ENDBRANCH  25  26
ENDBRANCH  24  25
ENDBRANCH   1  24
TORSDOF 15
ENDMDL
MODEL 3
REMARK VINA RESULT:     -11.7      0.266      1.989
REMARK SMILES C[C@@H](O)[C@@H](NC(=O)Nc1ccc(F)cc1F)C(=O)OCCOC(=O)c1ccc(-c2c3nc(c(-c4c(F)c(F)c(F)c(F)c4F)c4ccc([nH]4)c(-c4c(F)c(F)c(F)c(F)c4F)c4nc(c(-c5c(F)c(F)c(F)c(F)c5F)c5ccc2[nH]5)C=C4)C=C3)cc1
REMARK SMILES IDX 20 1 19 2 17 3 18 4 4 5 2 6 1 7 3 8 5 10 6 11 7 13 8 14 9 16
REMARK SMILES IDX 10 17 15 18 11 19 14 20 16 21 12 22 13 23 21 24 22 25 23 26
REMARK SMILES IDX 24 27 25 28 26 29 87 30 27 31 86 32 28 33 29 34 30 35 80 36
REMARK SMILES IDX 31 37 85 38 79 39 81 40 32 41 84 42 78 43 77 44 33 46 65 47
REMARK SMILES IDX 45 48 64 49 46 50 49 51 63 52 82 53 47 54 48 55 62 57 83 58
REMARK SMILES IDX 50 59 34 60 35 61 43 62 36 63 37 64 41 65 44 66 38 67 39 68
REMARK SMILES IDX 42 69 40 70 66 71 67 72 75 73 68 74 69 75 73 76 76 77 70 78
REMARK SMILES IDX 71 79 74 80 72 81 51 82 52 83 60 84 53 85 54 86 58 87 61 88
REMARK SMILES IDX 55 89 56 90 59 91 57 92
REMARK H PARENT 3 9 5 12 8 15 81 45 49 56
REMARK Flexibility Score: inf
ROOT
ATOM      1  C   UNL A   1      33.506  28.967  25.409  1.00  0.00     0.274 C 
ENDROOT
BRANCH   1   2
ATOM      2  O   UNL A   1      32.890  27.956  24.594  1.00  0.00    -0.460 OA
BRANCH   2   3
ATOM      3  C   UNL A   1      32.862  28.138  23.247  1.00  0.00     0.331 C 
ATOM      4  O   UNL A   1      33.659  28.815  22.612  1.00  0.00    -0.250 OA
BRANCH   3   5
ATOM      5  C   UNL A   1      31.706  27.341  22.629  1.00  0.00     0.222 C 
BRANCH   5   6
ATOM      6  C   UNL A   1      30.538  28.333  22.363  1.00  0.00     0.145 C 
ATOM      7  C   UNL A   1      29.277  27.966  23.148  1.00  0.00     0.041 C 
BRANCH   6   8
ATOM      8  O   UNL A   1      30.869  29.661  22.776  1.00  0.00    -0.391 OA
ATOM      9  H   UNL A   1      31.330  29.629  23.629  1.00  0.00     0.211 HD
ENDBRANCH   6   8
ENDBRANCH   5   6
BRANCH   5  10
ATOM     10  N   UNL A   1      32.156  26.711  21.381  1.00  0.00    -0.322 N 
ATOM     11  C   UNL A   1      32.578  25.500  21.009  1.00  0.00     0.320 C 
ATOM     12  H   UNL A   1      32.145  27.343  20.626  1.00  0.00     0.166 HD
ATOM     13  O   UNL A   1      32.899  25.365  19.825  1.00  0.00    -0.248 OA
ATOM     14  N   UNL A   1      32.770  24.455  21.829  1.00  0.00    -0.305 N 
ATOM     15  H   UNL A   1      33.114  23.652  21.373  1.00  0.00     0.171 HD
BRANCH  14  16
ATOM     16  C   UNL A   1      32.578  24.285  23.198  1.00  0.00     0.079 A 
ATOM     17  C   UNL A   1      33.604  24.517  24.114  1.00  0.00     0.032 A 
ATOM     18  C   UNL A   1      31.287  24.003  23.662  1.00  0.00     0.149 A 
ATOM     19  C   UNL A   1      33.344  24.375  25.481  1.00  0.00     0.041 A 
ATOM     20  C   UNL A   1      31.032  23.828  25.015  1.00  0.00     0.080 A 
ATOM     21  F   UNL A   1      30.288  23.827  22.784  1.00  0.00    -0.205 F 
ATOM     22  C   UNL A   1      32.072  24.003  25.914  1.00  0.00     0.126 A 
ATOM     23  F   UNL A   1      31.852  23.813  27.221  1.00  0.00    -0.207 F 
ENDBRANCH  14  16
ENDBRANCH   5  10
ENDBRANCH   3   5
ENDBRANCH   2   3
ENDBRANCH   1   2
BRANCH   1  24
ATOM     24  C   UNL A   1      32.518  30.094  25.745  1.00  0.00     0.275 C 
BRANCH  24  25
ATOM     25  O   UNL A   1      32.548  30.485  27.130  1.00  0.00    -0.458 OA
BRANCH  25  26
ATOM     26  C   UNL A   1      33.276  31.609  27.363  1.00  0.00     0.338 C 
ATOM     27  O   UNL A   1      32.891  32.762  27.239  1.00  0.00    -0.246 OA
BRANCH  26  28
ATOM     28  C   UNL A   1      34.593  31.265  27.938  1.00  0.00     0.060 A 
ATOM     29  C   UNL A   1      34.765  29.970  28.438  1.00  0.00     0.016 A 
ATOM     30  C   UNL A   1      35.621  32.203  28.061  1.00  0.00     0.016 A 
ATOM     31  C   UNL A   1      35.951  29.604  29.073  1.00  0.00     0.010 A 
ATOM     32  C   UNL A   1      36.808  31.840  28.712  1.00  0.00     0.010 A 
ATOM     33  C   UNL A   1      36.973  30.544  29.237  1.00  0.00    -0.014 A 
BRANCH  33  34
ATOM     34  C   UNL A   1      38.159  30.208  30.059  1.00  0.00     0.031 A 
ATOM     35  C   UNL A   1      39.197  29.277  29.501  1.00  0.00     0.074 A 
ATOM     36  C   UNL A   1      38.333  30.745  31.280  1.00  0.00     0.049 A 
ATOM     37  N   UNL A   1      40.254  28.770  30.081  1.00  0.00    -0.248 NA
ATOM     38  C   UNL A   1      39.021  28.869  28.098  1.00  0.00     0.031 C 
ATOM     39  C   UNL A   1      37.448  31.721  31.908  1.00  0.00     0.029 A 
ATOM     40  N   UNL A   1      39.319  30.534  32.213  1.00  0.00    -0.354 N 
ATOM     41  C   UNL A   1      40.864  27.976  29.121  1.00  0.00     0.074 A 
ATOM     42  C   UNL A   1      40.055  28.057  27.924  1.00  0.00     0.031 C 
ATOM     43  C   UNL A   1      37.922  32.018  33.130  1.00  0.00     0.029 A 
ATOM     44  C   UNL A   1      39.120  31.219  33.387  1.00  0.00     0.049 A 
ATOM     45  H   UNL A   1      40.094  29.948  32.056  1.00  0.00     0.167 HD
ATOM     46  C   UNL A   1      41.999  27.245  29.229  1.00  0.00     0.037 A 
ATOM     47  C   UNL A   1      39.808  31.181  34.546  1.00  0.00     0.037 A 
ATOM     48  C   UNL A   1      42.808  27.158  30.416  1.00  0.00     0.049 A 
ATOM     49  C   UNL A   1      41.013  30.285  34.672  1.00  0.00     0.074 A 
ATOM     50  C   UNL A   1      43.961  26.422  30.620  1.00  0.00     0.029 A 
ATOM     51  N   UNL A   1      42.549  27.833  31.599  1.00  0.00    -0.354 N 
ATOM     52  N   UNL A   1      41.568  29.511  33.772  1.00  0.00    -0.248 NA
ATOM     53  C   UNL A   1      41.684  30.250  35.981  1.00  0.00     0.031 C 
ATOM     54  C   UNL A   1      44.378  26.617  31.940  1.00  0.00     0.029 A 
ATOM     55  C   UNL A   1      43.513  27.516  32.543  1.00  0.00     0.049 A 
ATOM     56  H   UNL A   1      41.792  28.445  31.747  1.00  0.00     0.167 HD
ATOM     57  C   UNL A   1      42.664  28.924  34.392  1.00  0.00     0.074 A 
ATOM     58  C   UNL A   1      42.700  29.432  35.747  1.00  0.00     0.031 C 
ATOM     59  C   UNL A   1      43.557  28.042  33.882  1.00  0.00     0.037 A 
BRANCH  46  60
ATOM     60  C   UNL A   1      42.423  26.447  28.034  1.00  0.00     0.064 A 
ATOM     61  C   UNL A   1      43.274  27.011  27.072  1.00  0.00     0.173 A 
ATOM     62  C   UNL A   1      41.945  25.148  27.812  1.00  0.00     0.173 A 
ATOM     63  F   UNL A   1      43.755  28.253  27.240  1.00  0.00    -0.203 F 
ATOM     64  C   UNL A   1      43.619  26.308  25.923  1.00  0.00     0.198 A 
ATOM     65  C   UNL A   1      42.313  24.438  26.673  1.00  0.00     0.198 A 
ATOM     66  F   UNL A   1      41.141  24.562  28.711  1.00  0.00    -0.203 F 
ATOM     67  F   UNL A   1      44.412  26.877  25.003  1.00  0.00    -0.200 F 
ATOM     68  C   UNL A   1      43.142  25.021  25.725  1.00  0.00     0.200 A 
ATOM     69  F   UNL A   1      41.869  23.186  26.494  1.00  0.00    -0.200 F 
ATOM     70  F   UNL A   1      43.485  24.340  24.623  1.00  0.00    -0.200 F 
ENDBRANCH  46  60
BRANCH  47  71
ATOM     71  C   UNL A   1      39.361  32.006  35.697  1.00  0.00     0.064 A 
ATOM     72  C   UNL A   1      38.402  31.532  36.604  1.00  0.00     0.173 A 
ATOM     73  C   UNL A   1      39.897  33.281  35.920  1.00  0.00     0.173 A 
ATOM     74  F   UNL A   1      37.863  30.314  36.437  1.00  0.00    -0.203 F 
ATOM     75  C   UNL A   1      37.986  32.309  37.682  1.00  0.00     0.198 A 
ATOM     76  C   UNL A   1      39.500  34.047  37.015  1.00  0.00     0.198 A 
ATOM     77  F   UNL A   1      40.839  33.765  35.097  1.00  0.00    -0.203 F 
ATOM     78  F   UNL A   1      37.052  31.840  38.522  1.00  0.00    -0.200 F 
ATOM     79  C   UNL A   1      38.540  33.562  37.891  1.00  0.00     0.200 A 
ATOM     80  F   UNL A   1      40.058  35.245  37.229  1.00  0.00    -0.200 F 
ATOM     81  F   UNL A   1      38.155  34.301  38.941  1.00  0.00    -0.200 F 
ENDBRANCH  47  71
BRANCH  59  82
ATOM     82  C   UNL A   1      44.687  27.595  34.762  1.00  0.00     0.064 A 
ATOM     83  C   UNL A   1      45.901  28.301  34.767  1.00  0.00     0.173 A 
ATOM     84  C   UNL A   1      44.606  26.424  35.527  1.00  0.00     0.173 A 
ATOM     85  F   UNL A   1      46.033  29.424  34.045  1.00  0.00    -0.203 F 
ATOM     86  C   UNL A   1      46.996  27.840  35.494  1.00  0.00     0.198 A 
ATOM     87  C   UNL A   1      45.695  25.980  36.273  1.00  0.00     0.198 A 
ATOM     88  F   UNL A   1      43.464  25.721  35.564  1.00  0.00    -0.203 F 
ATOM     89  F   UNL A   1      48.155  28.512  35.456  1.00  0.00    -0.200 F 
ATOM     90  C   UNL A   1      46.891  26.681  36.247  1.00  0.00     0.200 A 
ATOM     91  F   UNL A   1      45.587  24.871  37.017  1.00  0.00    -0.200 F 
ATOM     92  F   UNL A   1      47.943  26.240  36.950  1.00  0.00    -0.200 F 
ENDBRANCH  59  82
ENDBRANCH  33  34
ENDBRANCH  26  28
ENDBRANCH  25  26
ENDBRANCH  24  25
ENDBRANCH   1  24
TORSDOF 15
ENDMDL
