MODEL 1
REMARK VINA RESULT:     -12.8      0.000      0.000
REMARK SMILES CC(C)COc1cccc(C(=O)Nc2ccc(O)c(C(=O)OCCOC(=O)c3ccc(-c4c5nc(c(-c6c(F)c(F)c(F)c(F)c6F)c6ccc([nH]6)c(-c6c(F)c(F)c(F)c(F)c6F)c6nc(c(-c7c(F)c(F)c(F)c(F)c7F)c7ccc4[nH]7)C=C6)C=C5)cc3)c2)c1
REMARK SMILES IDX 22 1 20 2 21 3 19 4 14 5 15 6 91 7 16 8 17 9 13 10 11 11
REMARK SMILES IDX 12 12 10 14 6 15 7 16 92 17 8 18 9 19 5 20 4 21 2 22 1 23
REMARK SMILES IDX 3 24 18 25 23 27 24 28 25 29 26 30 27 31 28 32 29 33 90 34
REMARK SMILES IDX 30 35 89 36 31 37 32 38 33 39 83 40 34 41 88 42 82 43 84 44
REMARK SMILES IDX 35 45 87 46 81 47 80 48 36 50 68 51 48 52 67 53 49 54 52 55
REMARK SMILES IDX 66 56 85 57 50 58 51 59 65 61 86 62 53 63 37 64 38 65 46 66
REMARK SMILES IDX 39 67 40 68 44 69 47 70 41 71 42 72 45 73 43 74 69 75 70 76
REMARK SMILES IDX 78 77 71 78 72 79 76 80 79 81 73 82 74 83 77 84 75 85 54 86
REMARK SMILES IDX 55 87 63 88 56 89 57 90 61 91 64 92 58 93 59 94 62 95 60 96
REMARK H PARENT 13 13 18 26 84 49 52 60
REMARK Flexibility Score: inf
ROOT
ATOM      1  O   UNL A   1      41.735  21.483  25.695  1.00  0.00    -0.458 OA
ENDROOT
BRANCH   1   2
ATOM      2  C   UNL A   1      40.799  21.400  26.665  1.00  0.00     0.342 C 
ATOM      3  O   UNL A   1      40.948  21.632  27.859  1.00  0.00    -0.246 OA
BRANCH   2   4
ATOM      4  C   UNL A   1      39.480  20.998  26.121  1.00  0.00     0.103 A 
ATOM      5  C   UNL A   1      37.570  21.669  24.836  1.00  0.00     0.042 A 
ATOM      6  C   UNL A   1      37.224  20.332  24.610  1.00  0.00     0.030 A 
ATOM      7  C   UNL A   1      38.574  21.992  25.747  1.00  0.00     0.045 A 
ATOM      8  C   UNL A   1      38.069  19.323  25.060  1.00  0.00     0.049 A 
ATOM      9  C   UNL A   1      39.247  19.674  25.705  1.00  0.00     0.130 A 
BRANCH   5  10
ATOM     10  N   UNL A   1      37.003  22.630  23.990  1.00  0.00    -0.322 N 
ATOM     11  C   UNL A   1      35.682  22.961  23.721  1.00  0.00     0.255 C 
ATOM     12  O   UNL A   1      35.487  23.759  22.799  1.00  0.00    -0.269 OA
ATOM     13  H   UNL A   1      37.661  23.170  23.497  1.00  0.00     0.170 HD
BRANCH  11  14
ATOM     14  C   UNL A   1      34.488  22.534  24.536  1.00  0.00     0.043 A 
ATOM     15  C   UNL A   1      32.797  20.910  25.254  1.00  0.00     0.120 A 
ATOM     16  C   UNL A   1      32.277  21.813  26.165  1.00  0.00     0.046 A 
ATOM     17  C   UNL A   1      33.901  21.271  24.478  1.00  0.00     0.060 A 
ATOM     18  C   UNL A   1      32.893  23.059  26.312  1.00  0.00     0.005 A 
ATOM     19  C   UNL A   1      33.979  23.417  25.498  1.00  0.00     0.014 A 
BRANCH  15  20
ATOM     20  O   UNL A   1      32.128  19.747  24.994  1.00  0.00    -0.493 OA
BRANCH  20  21
ATOM     21  C   UNL A   1      32.625  18.968  23.887  1.00  0.00     0.232 C 
BRANCH  21  22
ATOM     22  C   UNL A   1      33.546  17.812  24.320  1.00  0.00     0.020 C 
ATOM     23  C   UNL A   1      32.905  16.924  25.390  1.00  0.00     0.011 C 
ATOM     24  C   UNL A   1      33.989  16.931  23.153  1.00  0.00     0.011 C 
ENDBRANCH  21  22
ENDBRANCH  20  21
ENDBRANCH  15  20
ENDBRANCH  11  14
ENDBRANCH   5  10
BRANCH   9  25
ATOM     25  O   UNL A   1      40.196  18.687  25.755  1.00  0.00    -0.507 OA
ATOM     26  H   UNL A   1      39.982  17.818  25.478  1.00  0.00     0.293 HD
ENDBRANCH   9  25
ENDBRANCH   2   4
ENDBRANCH   1   2
BRANCH   1  27
ATOM     27  C   UNL A   1      43.094  21.227  26.097  1.00  0.00     0.275 C 
BRANCH  27  28
ATOM     28  C   UNL A   1      44.065  22.152  25.362  1.00  0.00     0.275 C 
BRANCH  28  29
ATOM     29  O   UNL A   1      43.375  23.325  24.882  1.00  0.00    -0.458 OA
BRANCH  29  30
ATOM     30  C   UNL A   1      43.973  24.513  25.137  1.00  0.00     0.338 C 
ATOM     31  O   UNL A   1      44.983  24.964  24.627  1.00  0.00    -0.246 OA
BRANCH  30  32
ATOM     32  C   UNL A   1      43.097  25.318  26.005  1.00  0.00     0.060 A 
ATOM     33  C   UNL A   1      43.435  26.657  26.137  1.00  0.00     0.016 A 
ATOM     34  C   UNL A   1      42.097  24.785  26.809  1.00  0.00     0.016 A 
ATOM     35  C   UNL A   1      42.802  27.493  27.044  1.00  0.00     0.010 A 
ATOM     36  C   UNL A   1      41.449  25.620  27.739  1.00  0.00     0.010 A 
ATOM     37  C   UNL A   1      41.818  26.976  27.879  1.00  0.00    -0.014 A 
BRANCH  37  38
ATOM     38  C   UNL A   1      41.384  27.807  29.032  1.00  0.00     0.031 A 
ATOM     39  C   UNL A   1      42.213  27.774  30.286  1.00  0.00     0.074 A 
ATOM     40  C   UNL A   1      40.374  28.691  28.934  1.00  0.00     0.049 A 
ATOM     41  N   UNL A   1      41.974  28.300  31.460  1.00  0.00    -0.248 NA
ATOM     42  C   UNL A   1      43.495  27.057  30.198  1.00  0.00     0.031 C 
ATOM     43  C   UNL A   1      39.596  28.964  27.725  1.00  0.00     0.029 A 
ATOM     44  N   UNL A   1      39.839  29.542  29.873  1.00  0.00    -0.354 N 
ATOM     45  C   UNL A   1      43.047  27.932  32.261  1.00  0.00     0.074 A 
ATOM     46  C   UNL A   1      43.940  27.141  31.442  1.00  0.00     0.031 C 
ATOM     47  C   UNL A   1      38.683  29.912  27.997  1.00  0.00     0.029 A 
ATOM     48  C   UNL A   1      38.762  30.261  29.415  1.00  0.00     0.049 A 
ATOM     49  H   UNL A   1      40.195  29.627  30.787  1.00  0.00     0.167 HD
ATOM     50  C   UNL A   1      43.263  28.224  33.566  1.00  0.00     0.037 A 
ATOM     51  C   UNL A   1      37.910  31.068  30.075  1.00  0.00     0.037 A 
ATOM     52  C   UNL A   1      42.395  29.048  34.363  1.00  0.00     0.049 A 
ATOM     53  C   UNL A   1      38.107  31.291  31.554  1.00  0.00     0.074 A 
ATOM     54  C   UNL A   1      42.500  29.368  35.705  1.00  0.00     0.029 A 
ATOM     55  N   UNL A   1      41.267  29.697  33.883  1.00  0.00    -0.354 N 
ATOM     56  N   UNL A   1      39.060  30.855  32.342  1.00  0.00    -0.248 NA
ATOM     57  C   UNL A   1      37.099  32.115  32.239  1.00  0.00     0.031 C 
ATOM     58  C   UNL A   1      41.406  30.170  36.049  1.00  0.00     0.029 A 
ATOM     59  C   UNL A   1      40.658  30.406  34.907  1.00  0.00     0.049 A 
ATOM     60  H   UNL A   1      40.945  29.659  32.954  1.00  0.00     0.167 HD
ATOM     61  C   UNL A   1      38.791  31.380  33.600  1.00  0.00     0.074 A 
ATOM     62  C   UNL A   1      37.590  32.177  33.469  1.00  0.00     0.031 C 
ATOM     63  C   UNL A   1      39.478  31.219  34.757  1.00  0.00     0.037 A 
BRANCH  50  64
ATOM     64  C   UNL A   1      44.449  27.582  34.225  1.00  0.00     0.064 A 
ATOM     65  C   UNL A   1      45.716  28.184  34.244  1.00  0.00     0.173 A 
ATOM     66  C   UNL A   1      44.306  26.333  34.849  1.00  0.00     0.173 A 
ATOM     67  F   UNL A   1      45.911  29.367  33.642  1.00  0.00    -0.203 F 
ATOM     68  C   UNL A   1      46.802  27.543  34.837  1.00  0.00     0.198 A 
ATOM     69  C   UNL A   1      45.385  25.712  35.469  1.00  0.00     0.198 A 
ATOM     70  F   UNL A   1      43.116  25.713  34.859  1.00  0.00    -0.203 F 
ATOM     71  F   UNL A   1      48.016  28.108  34.791  1.00  0.00    -0.200 F 
ATOM     72  C   UNL A   1      46.635  26.313  35.454  1.00  0.00     0.200 A 
ATOM     73  F   UNL A   1      45.218  24.528  36.076  1.00  0.00    -0.200 F 
ATOM     74  F   UNL A   1      47.681  25.699  36.025  1.00  0.00    -0.200 F 
ENDBRANCH  50  64
BRANCH  51  75
ATOM     75  C   UNL A   1      36.750  31.680  29.369  1.00  0.00     0.064 A 
ATOM     76  C   UNL A   1      36.696  33.056  29.109  1.00  0.00     0.173 A 
ATOM     77  C   UNL A   1      35.643  30.904  28.989  1.00  0.00     0.173 A 
ATOM     78  F   UNL A   1      37.712  33.849  29.483  1.00  0.00    -0.203 F 
ATOM     79  C   UNL A   1      35.572  33.636  28.522  1.00  0.00     0.198 A 
ATOM     80  C   UNL A   1      34.536  31.479  28.369  1.00  0.00     0.198 A 
ATOM     81  F   UNL A   1      35.634  29.583  29.222  1.00  0.00    -0.203 F 
ATOM     82  F   UNL A   1      35.522  34.964  28.345  1.00  0.00    -0.200 F 
ATOM     83  C   UNL A   1      34.496  32.847  28.147  1.00  0.00     0.200 A 
ATOM     84  F   UNL A   1      33.503  30.710  27.999  1.00  0.00    -0.200 F 
ATOM     85  F   UNL A   1      33.415  33.406  27.586  1.00  0.00    -0.200 F 
ENDBRANCH  51  75
BRANCH  63  86
ATOM     86  C   UNL A   1      38.997  31.980  35.961  1.00  0.00     0.064 A 
ATOM     87  C   UNL A   1      39.337  33.322  36.182  1.00  0.00     0.173 A 
ATOM     88  C   UNL A   1      38.153  31.357  36.894  1.00  0.00     0.173 A 
ATOM     89  F   UNL A   1      40.150  33.962  35.327  1.00  0.00    -0.203 F 
ATOM     90  C   UNL A   1      38.880  34.002  37.308  1.00  0.00     0.198 A 
ATOM     91  C   UNL A   1      37.668  32.049  38.000  1.00  0.00     0.198 A 
ATOM     92  F   UNL A   1      37.788  30.076  36.728  1.00  0.00    -0.203 F 
ATOM     93  F   UNL A   1      39.266  35.266  37.529  1.00  0.00    -0.200 F 
ATOM     94  C   UNL A   1      38.041  33.367  38.212  1.00  0.00     0.200 A 
ATOM     95  F   UNL A   1      36.843  31.439  38.862  1.00  0.00    -0.200 F 
ATOM     96  F   UNL A   1      37.597  34.024  39.292  1.00  0.00    -0.200 F 
ENDBRANCH  63  86
ENDBRANCH  37  38
ENDBRANCH  30  32
ENDBRANCH  29  30
ENDBRANCH  28  29
ENDBRANCH  27  28
ENDBRANCH   1  27
TORSDOF 17
ENDMDL
MODEL 2
REMARK VINA RESULT:     -12.7      3.114      8.166
REMARK SMILES CC(C)COc1cccc(C(=O)Nc2ccc(O)c(C(=O)OCCOC(=O)c3ccc(-c4c5nc(c(-c6c(F)c(F)c(F)c(F)c6F)c6ccc([nH]6)c(-c6c(F)c(F)c(F)c(F)c6F)c6nc(c(-c7c(F)c(F)c(F)c(F)c7F)c7ccc4[nH]7)C=C6)C=C5)cc3)c2)c1
REMARK SMILES IDX 22 1 20 2 21 3 19 4 14 5 15 6 91 7 16 8 17 9 13 10 11 11
REMARK SMILES IDX 12 12 10 14 6 15 7 16 92 17 8 18 9 19 5 20 4 21 2 22 1 23
REMARK SMILES IDX 3 24 18 25 23 27 24 28 25 29 26 30 27 31 28 32 29 33 90 34
REMARK SMILES IDX 30 35 89 36 31 37 32 38 33 39 83 40 34 41 88 42 82 43 84 44
REMARK SMILES IDX 35 45 87 46 81 47 80 48 36 50 68 51 48 52 67 53 49 54 52 55
REMARK SMILES IDX 66 56 85 57 50 58 51 59 65 61 86 62 53 63 37 64 38 65 46 66
REMARK SMILES IDX 39 67 40 68 44 69 47 70 41 71 42 72 45 73 43 74 69 75 70 76
REMARK SMILES IDX 78 77 71 78 72 79 76 80 79 81 73 82 74 83 77 84 75 85 54 86
REMARK SMILES IDX 55 87 63 88 56 89 57 90 61 91 64 92 58 93 59 94 62 95 60 96
REMARK H PARENT 13 13 18 26 84 49 52 60
REMARK Flexibility Score: inf
ROOT
ATOM      1  O   UNL A   1      32.493  28.424  25.871  1.00  0.00    -0.458 OA
ENDROOT
BRANCH   1   2
ATOM      2  C   UNL A   1      31.816  27.284  26.128  1.00  0.00     0.342 C 
ATOM      3  O   UNL A   1      31.361  26.920  27.206  1.00  0.00    -0.246 OA
BRANCH   2   4
ATOM      4  C   UNL A   1      31.639  26.464  24.905  1.00  0.00     0.103 A 
ATOM      5  C   UNL A   1      32.723  25.141  23.225  1.00  0.00     0.042 A 
ATOM      6  C   UNL A   1      31.512  24.516  22.904  1.00  0.00     0.030 A 
ATOM      7  C   UNL A   1      32.742  26.242  24.079  1.00  0.00     0.045 A 
ATOM      8  C   UNL A   1      30.378  24.797  23.658  1.00  0.00     0.049 A 
ATOM      9  C   UNL A   1      30.486  25.679  24.726  1.00  0.00     0.130 A 
BRANCH   5  10
ATOM     10  N   UNL A   1      33.901  24.510  22.807  1.00  0.00    -0.322 N 
ATOM     11  C   UNL A   1      34.683  23.526  23.396  1.00  0.00     0.255 C 
ATOM     12  O   UNL A   1      35.764  23.277  22.853  1.00  0.00    -0.269 OA
ATOM     13  H   UNL A   1      34.235  24.821  21.935  1.00  0.00     0.170 HD
BRANCH  11  14
ATOM     14  C   UNL A   1      34.268  22.654  24.554  1.00  0.00     0.043 A 
ATOM     15  C   UNL A   1      33.217  20.664  25.528  1.00  0.00     0.120 A 
ATOM     16  C   UNL A   1      33.591  21.057  26.801  1.00  0.00     0.046 A 
ATOM     17  C   UNL A   1      33.580  21.448  24.430  1.00  0.00     0.060 A 
ATOM     18  C   UNL A   1      34.357  22.215  26.957  1.00  0.00     0.005 A 
ATOM     19  C   UNL A   1      34.681  23.009  25.845  1.00  0.00     0.014 A 
BRANCH  15  20
ATOM     20  O   UNL A   1      32.353  19.617  25.366  1.00  0.00    -0.493 OA
BRANCH  20  21
ATOM     21  C   UNL A   1      32.591  18.775  24.220  1.00  0.00     0.232 C 
BRANCH  21  22
ATOM     22  C   UNL A   1      33.583  17.631  24.502  1.00  0.00     0.020 C 
ATOM     23  C   UNL A   1      33.011  16.585  25.463  1.00  0.00     0.011 C 
ATOM     24  C   UNL A   1      34.054  16.922  23.232  1.00  0.00     0.011 C 
ENDBRANCH  21  22
ENDBRANCH  20  21
ENDBRANCH  15  20
ENDBRANCH  11  14
ENDBRANCH   5  10
BRANCH   9  25
ATOM     25  O   UNL A   1      29.473  25.601  25.645  1.00  0.00    -0.507 OA
ATOM     26  H   UNL A   1      29.255  24.776  26.033  1.00  0.00     0.293 HD
ENDBRANCH   9  25
ENDBRANCH   2   4
ENDBRANCH   1   2
BRANCH   1  27
ATOM     27  C   UNL A   1      31.736  29.494  25.274  1.00  0.00     0.275 C 
BRANCH  27  28
ATOM     28  C   UNL A   1      31.724  30.726  26.180  1.00  0.00     0.275 C 
BRANCH  28  29
ATOM     29  O   UNL A   1      32.762  30.626  27.177  1.00  0.00    -0.458 OA
BRANCH  29  30
ATOM     30  C   UNL A   1      33.435  31.769  27.453  1.00  0.00     0.338 C 
ATOM     31  O   UNL A   1      32.984  32.897  27.538  1.00  0.00    -0.246 OA
BRANCH  30  32
ATOM     32  C   UNL A   1      34.812  31.433  27.852  1.00  0.00     0.060 A 
ATOM     33  C   UNL A   1      35.027  30.122  28.253  1.00  0.00     0.016 A 
ATOM     34  C   UNL A   1      35.825  32.370  28.013  1.00  0.00     0.016 A 
ATOM     35  C   UNL A   1      36.228  29.706  28.807  1.00  0.00     0.010 A 
ATOM     36  C   UNL A   1      37.048  31.964  28.580  1.00  0.00     0.010 A 
ATOM     37  C   UNL A   1      37.247  30.632  29.005  1.00  0.00    -0.014 A 
BRANCH  37  38
ATOM     38  C   UNL A   1      38.387  30.230  29.869  1.00  0.00     0.031 A 
ATOM     39  C   UNL A   1      39.443  29.334  29.284  1.00  0.00     0.074 A 
ATOM     40  C   UNL A   1      38.577  30.761  31.091  1.00  0.00     0.049 A 
ATOM     41  N   UNL A   1      40.455  28.743  29.867  1.00  0.00    -0.248 NA
ATOM     42  C   UNL A   1      39.350  29.080  27.837  1.00  0.00     0.031 C 
ATOM     43  C   UNL A   1      37.734  31.780  31.717  1.00  0.00     0.029 A 
ATOM     44  N   UNL A   1      39.561  30.526  32.022  1.00  0.00    -0.354 N 
ATOM     45  C   UNL A   1      41.083  28.007  28.871  1.00  0.00     0.074 A 
ATOM     46  C   UNL A   1      40.343  28.226  27.647  1.00  0.00     0.031 C 
ATOM     47  C   UNL A   1      38.235  32.078  32.928  1.00  0.00     0.029 A 
ATOM     48  C   UNL A   1      39.389  31.221  33.194  1.00  0.00     0.049 A 
ATOM     49  H   UNL A   1      40.318  29.916  31.863  1.00  0.00     0.167 HD
ATOM     50  C   UNL A   1      42.177  27.214  28.973  1.00  0.00     0.037 A 
ATOM     51  C   UNL A   1      40.055  31.138  34.361  1.00  0.00     0.037 A 
ATOM     52  C   UNL A   1      42.935  27.036  30.182  1.00  0.00     0.049 A 
ATOM     53  C   UNL A   1      41.203  30.167  34.485  1.00  0.00     0.074 A 
ATOM     54  C   UNL A   1      44.031  26.221  30.402  1.00  0.00     0.029 A 
ATOM     55  N   UNL A   1      42.681  27.698  31.375  1.00  0.00    -0.354 N 
ATOM     56  N   UNL A   1      41.732  29.385  33.575  1.00  0.00    -0.248 NA
ATOM     57  C   UNL A   1      41.840  30.060  35.806  1.00  0.00     0.031 C 
ATOM     58  C   UNL A   1      44.410  26.353  31.743  1.00  0.00     0.029 A 
ATOM     59  C   UNL A   1      43.593  27.300  32.339  1.00  0.00     0.049 A 
ATOM     60  H   UNL A   1      41.960  28.353  31.516  1.00  0.00     0.167 HD
ATOM     61  C   UNL A   1      42.785  28.726  34.199  1.00  0.00     0.074 A 
ATOM     62  C   UNL A   1      42.826  29.207  35.563  1.00  0.00     0.031 C 
ATOM     63  C   UNL A   1      43.641  27.808  33.687  1.00  0.00     0.037 A 
BRANCH  50  64
ATOM     64  C   UNL A   1      42.567  26.425  27.757  1.00  0.00     0.064 A 
ATOM     65  C   UNL A   1      42.008  25.173  27.463  1.00  0.00     0.173 A 
ATOM     66  C   UNL A   1      43.526  26.941  26.872  1.00  0.00     0.173 A 
ATOM     67  F   UNL A   1      41.104  24.625  28.289  1.00  0.00    -0.203 F 
ATOM     68  C   UNL A   1      42.419  24.453  26.343  1.00  0.00     0.198 A 
ATOM     69  C   UNL A   1      43.909  26.234  25.736  1.00  0.00     0.198 A 
ATOM     70  F   UNL A   1      44.093  28.134  27.107  1.00  0.00    -0.203 F 
ATOM     71  F   UNL A   1      41.916  23.232  26.113  1.00  0.00    -0.200 F 
ATOM     72  C   UNL A   1      43.363  24.986  25.478  1.00  0.00     0.200 A 
ATOM     73  F   UNL A   1      44.812  26.758  24.896  1.00  0.00    -0.200 F 
ATOM     74  F   UNL A   1      43.756  24.293  24.401  1.00  0.00    -0.200 F 
ENDBRANCH  50  64
BRANCH  51  75
ATOM     75  C   UNL A   1      39.624  31.947  35.536  1.00  0.00     0.064 A 
ATOM     76  C   UNL A   1      38.628  31.491  36.410  1.00  0.00     0.173 A 
ATOM     77  C   UNL A   1      40.163  33.221  35.773  1.00  0.00     0.173 A 
ATOM     78  F   UNL A   1      38.056  30.295  36.209  1.00  0.00    -0.203 F 
ATOM     79  C   UNL A   1      38.170  32.287  37.460  1.00  0.00     0.198 A 
ATOM     80  C   UNL A   1      39.730  34.001  36.844  1.00  0.00     0.198 A 
ATOM     81  F   UNL A   1      41.111  33.714  34.962  1.00  0.00    -0.203 F 
ATOM     82  F   UNL A   1      37.172  31.852  38.241  1.00  0.00    -0.200 F 
ATOM     83  C   UNL A   1      38.726  33.539  37.679  1.00  0.00     0.200 A 
ATOM     84  F   UNL A   1      40.277  35.205  37.057  1.00  0.00    -0.200 F 
ATOM     85  F   UNL A   1      38.283  34.304  38.685  1.00  0.00    -0.200 F 
ENDBRANCH  51  75
BRANCH  63  86
ATOM     86  C   UNL A   1      44.748  27.318  34.579  1.00  0.00     0.064 A 
ATOM     87  C   UNL A   1      45.982  27.976  34.669  1.00  0.00     0.173 A 
ATOM     88  C   UNL A   1      44.551  26.183  35.382  1.00  0.00     0.173 A 
ATOM     89  F   UNL A   1      46.227  29.059  33.914  1.00  0.00    -0.203 F 
ATOM     90  C   UNL A   1      46.991  27.498  35.501  1.00  0.00     0.198 A 
ATOM     91  C   UNL A   1      45.547  25.728  36.241  1.00  0.00     0.198 A 
ATOM     92  F   UNL A   1      43.385  25.520  35.344  1.00  0.00    -0.203 F 
ATOM     93  F   UNL A   1      48.183  28.108  35.526  1.00  0.00    -0.200 F 
ATOM     94  C   UNL A   1      46.771  26.379  36.291  1.00  0.00     0.200 A 
ATOM     95  F   UNL A   1      45.325  24.658  37.016  1.00  0.00    -0.200 F 
ATOM     96  F   UNL A   1      47.740  25.923  37.096  1.00  0.00    -0.200 F 
ENDBRANCH  63  86
ENDBRANCH  37  38
ENDBRANCH  30  32
ENDBRANCH  29  30
ENDBRANCH  28  29
ENDBRANCH  27  28
ENDBRANCH   1  27
TORSDOF 17
ENDMDL
MODEL 3
REMARK VINA RESULT:     -12.6      5.008      9.525
REMARK SMILES CC(C)COc1cccc(C(=O)Nc2ccc(O)c(C(=O)OCCOC(=O)c3ccc(-c4c5nc(c(-c6c(F)c(F)c(F)c(F)c6F)c6ccc([nH]6)c(-c6c(F)c(F)c(F)c(F)c6F)c6nc(c(-c7c(F)c(F)c(F)c(F)c7F)c7ccc4[nH]7)C=C6)C=C5)cc3)c2)c1
REMARK SMILES IDX 22 1 20 2 21 3 19 4 14 5 15 6 91 7 16 8 17 9 13 10 11 11
REMARK SMILES IDX 12 12 10 14 6 15 7 16 92 17 8 18 9 19 5 20 4 21 2 22 1 23
REMARK SMILES IDX 3 24 18 25 23 27 24 28 25 29 26 30 27 31 28 32 29 33 90 34
REMARK SMILES IDX 30 35 89 36 31 37 32 38 33 39 83 40 34 41 88 42 82 43 84 44
REMARK SMILES IDX 35 45 87 46 81 47 80 48 36 50 68 51 48 52 67 53 49 54 52 55
REMARK SMILES IDX 66 56 85 57 50 58 51 59 65 61 86 62 53 63 37 64 38 65 46 66
REMARK SMILES IDX 39 67 40 68 44 69 47 70 41 71 42 72 45 73 43 74 69 75 70 76
REMARK SMILES IDX 78 77 71 78 72 79 76 80 79 81 73 82 74 83 77 84 75 85 54 86
REMARK SMILES IDX 55 87 63 88 56 89 57 90 61 91 64 92 58 93 59 94 62 95 60 96
REMARK H PARENT 13 13 18 26 84 49 52 60
REMARK Flexibility Score: inf
ROOT
ATOM      1  O   UNL A   1      35.482  22.626  24.927  1.00  0.00    -0.458 OA
ENDROOT
BRANCH   1   2
ATOM      2  C   UNL A   1      34.771  23.203  23.933  1.00  0.00     0.342 C 
ATOM      3  O   UNL A   1      35.198  23.616  22.862  1.00  0.00    -0.246 OA
BRANCH   2   4
ATOM      4  C   UNL A   1      33.328  23.278  24.264  1.00  0.00     0.103 A 
ATOM      5  C   UNL A   1      31.648  24.341  25.605  1.00  0.00     0.042 A 
ATOM      6  C   UNL A   1      30.648  23.934  24.715  1.00  0.00     0.030 A 
ATOM      7  C   UNL A   1      32.945  23.847  25.480  1.00  0.00     0.045 A 
ATOM      8  C   UNL A   1      31.004  23.280  23.540  1.00  0.00     0.049 A 
ATOM      9  C   UNL A   1      32.351  23.067  23.275  1.00  0.00     0.130 A 
BRANCH   5  10
ATOM     10  N   UNL A   1      31.336  25.382  26.488  1.00  0.00    -0.322 N 
ATOM     11  C   UNL A   1      31.463  26.760  26.375  1.00  0.00     0.255 C 
ATOM     12  O   UNL A   1      31.246  27.423  27.394  1.00  0.00    -0.269 OA
ATOM     13  H   UNL A   1      30.957  25.082  27.345  1.00  0.00     0.170 HD
BRANCH  11  14
ATOM     14  C   UNL A   1      31.712  27.515  25.093  1.00  0.00     0.043 A 
ATOM     15  C   UNL A   1      30.989  28.598  23.016  1.00  0.00     0.120 A 
ATOM     16  C   UNL A   1      32.286  28.992  22.738  1.00  0.00     0.046 A 
ATOM     17  C   UNL A   1      30.719  27.893  24.192  1.00  0.00     0.060 A 
ATOM     18  C   UNL A   1      33.295  28.706  23.661  1.00  0.00     0.005 A 
ATOM     19  C   UNL A   1      33.011  27.966  24.821  1.00  0.00     0.014 A 
BRANCH  15  20
ATOM     20  O   UNL A   1      30.017  28.742  22.066  1.00  0.00    -0.493 OA
BRANCH  20  21
ATOM     21  C   UNL A   1      29.699  30.098  21.691  1.00  0.00     0.232 C 
BRANCH  21  22
ATOM     22  C   UNL A   1      28.713  30.781  22.656  1.00  0.00     0.020 C 
ATOM     23  C   UNL A   1      28.118  32.065  22.071  1.00  0.00     0.011 C 
ATOM     24  C   UNL A   1      27.568  29.865  23.090  1.00  0.00     0.011 C 
ENDBRANCH  21  22
ENDBRANCH  20  21
ENDBRANCH  15  20
ENDBRANCH  11  14
ENDBRANCH   5  10
BRANCH   9  25
ATOM     25  O   UNL A   1      32.646  22.799  21.964  1.00  0.00    -0.507 OA
ATOM     26  H   UNL A   1      32.215  23.273  21.280  1.00  0.00     0.293 HD
ENDBRANCH   9  25
ENDBRANCH   2   4
ENDBRANCH   1   2
BRANCH   1  27
ATOM     27  C   UNL A   1      35.363  21.196  25.048  1.00  0.00     0.275 C 
BRANCH  27  28
ATOM     28  C   UNL A   1      36.741  20.538  25.126  1.00  0.00     0.275 C 
BRANCH  28  29
ATOM     29  O   UNL A   1      37.774  21.543  25.189  1.00  0.00    -0.458 OA
BRANCH  29  30
ATOM     30  C   UNL A   1      38.910  21.189  25.837  1.00  0.00     0.338 C 
ATOM     31  O   UNL A   1      39.521  20.138  25.752  1.00  0.00    -0.246 OA
BRANCH  30  32
ATOM     32  C   UNL A   1      39.450  22.365  26.540  1.00  0.00     0.060 A 
ATOM     33  C   UNL A   1      39.027  23.601  26.072  1.00  0.00     0.016 A 
ATOM     34  C   UNL A   1      40.461  22.306  27.491  1.00  0.00     0.016 A 
ATOM     35  C   UNL A   1      39.575  24.790  26.527  1.00  0.00     0.010 A 
ATOM     36  C   UNL A   1      41.031  23.505  27.959  1.00  0.00     0.010 A 
ATOM     37  C   UNL A   1      40.607  24.756  27.459  1.00  0.00    -0.014 A 
BRANCH  37  38
ATOM     38  C   UNL A   1      41.370  26.010  27.691  1.00  0.00     0.031 A 
ATOM     39  C   UNL A   1      40.732  27.088  28.522  1.00  0.00     0.074 A 
ATOM     40  C   UNL A   1      42.655  26.143  27.314  1.00  0.00     0.049 A 
ATOM     41  N   UNL A   1      41.133  28.311  28.756  1.00  0.00    -0.248 NA
ATOM     42  C   UNL A   1      39.471  26.730  29.192  1.00  0.00     0.031 C 
ATOM     43  C   UNL A   1      43.461  25.112  26.660  1.00  0.00     0.029 A 
ATOM     44  N   UNL A   1      43.517  27.206  27.446  1.00  0.00    -0.354 N 
ATOM     45  C   UNL A   1      40.149  28.883  29.552  1.00  0.00     0.074 A 
ATOM     46  C   UNL A   1      39.134  27.875  29.765  1.00  0.00     0.031 C 
ATOM     47  C   UNL A   1      44.698  25.594  26.446  1.00  0.00     0.029 A 
ATOM     48  C   UNL A   1      44.749  26.989  26.879  1.00  0.00     0.049 A 
ATOM     49  H   UNL A   1      43.274  28.043  27.904  1.00  0.00     0.167 HD
ATOM     50  C   UNL A   1      40.098  30.140  30.055  1.00  0.00     0.037 A 
ATOM     51  C   UNL A   1      45.780  27.835  26.688  1.00  0.00     0.037 A 
ATOM     52  C   UNL A   1      41.132  31.123  29.877  1.00  0.00     0.049 A 
ATOM     53  C   UNL A   1      45.657  29.262  27.160  1.00  0.00     0.074 A 
ATOM     54  C   UNL A   1      41.157  32.438  30.307  1.00  0.00     0.029 A 
ATOM     55  N   UNL A   1      42.336  30.891  29.227  1.00  0.00    -0.354 N 
ATOM     56  N   UNL A   1      44.680  29.840  27.818  1.00  0.00    -0.248 NA
ATOM     57  C   UNL A   1      46.779  30.161  26.852  1.00  0.00     0.031 C 
ATOM     58  C   UNL A   1      42.355  33.016  29.872  1.00  0.00     0.029 A 
ATOM     59  C   UNL A   1      43.105  32.044  29.232  1.00  0.00     0.049 A 
ATOM     60  H   UNL A   1      42.603  30.035  28.820  1.00  0.00     0.167 HD
ATOM     61  C   UNL A   1      45.085  31.151  28.036  1.00  0.00     0.074 A 
ATOM     62  C   UNL A   1      46.401  31.283  27.449  1.00  0.00     0.031 C 
ATOM     63  C   UNL A   1      44.426  32.154  28.668  1.00  0.00     0.037 A 
BRANCH  50  64
ATOM     64  C   UNL A   1      38.845  30.537  30.779  1.00  0.00     0.064 A 
ATOM     65  C   UNL A   1      37.691  30.964  30.107  1.00  0.00     0.173 A 
ATOM     66  C   UNL A   1      38.808  30.490  32.182  1.00  0.00     0.173 A 
ATOM     67  F   UNL A   1      37.682  31.049  28.767  1.00  0.00    -0.203 F 
ATOM     68  C   UNL A   1      36.556  31.358  30.813  1.00  0.00     0.198 A 
ATOM     69  C   UNL A   1      37.662  30.851  32.883  1.00  0.00     0.198 A 
ATOM     70  F   UNL A   1      39.885  30.090  32.874  1.00  0.00    -0.203 F 
ATOM     71  F   UNL A   1      35.486  31.819  30.153  1.00  0.00    -0.200 F 
ATOM     72  C   UNL A   1      36.541  31.295  32.199  1.00  0.00     0.200 A 
ATOM     73  F   UNL A   1      37.646  30.778  34.221  1.00  0.00    -0.200 F 
ATOM     74  F   UNL A   1      35.448  31.672  32.877  1.00  0.00    -0.200 F 
ENDBRANCH  50  64
BRANCH  51  75
ATOM     75  C   UNL A   1      47.001  27.385  25.963  1.00  0.00     0.064 A 
ATOM     76  C   UNL A   1      48.101  26.850  26.647  1.00  0.00     0.173 A 
ATOM     77  C   UNL A   1      47.111  27.533  24.571  1.00  0.00     0.173 A 
ATOM     78  F   UNL A   1      48.062  26.718  27.981  1.00  0.00    -0.203 F 
ATOM     79  C   UNL A   1      49.272  26.507  25.972  1.00  0.00     0.198 A 
ATOM     80  C   UNL A   1      48.268  27.155  23.894  1.00  0.00     0.198 A 
ATOM     81  F   UNL A   1      46.094  28.049  23.866  1.00  0.00    -0.203 F 
ATOM     82  F   UNL A   1      50.333  26.059  26.660  1.00  0.00    -0.200 F 
ATOM     83  C   UNL A   1      49.353  26.654  24.596  1.00  0.00     0.200 A 
ATOM     84  F   UNL A   1      48.337  27.291  22.562  1.00  0.00    -0.200 F 
ATOM     85  F   UNL A   1      50.480  26.327  23.949  1.00  0.00    -0.200 F 
ENDBRANCH  51  75
BRANCH  63  86
ATOM     86  C   UNL A   1      45.149  33.463  28.830  1.00  0.00     0.064 A 
ATOM     87  C   UNL A   1      45.033  34.501  27.895  1.00  0.00     0.173 A 
ATOM     88  C   UNL A   1      45.946  33.688  29.964  1.00  0.00     0.173 A 
ATOM     89  F   UNL A   1      44.293  34.334  26.789  1.00  0.00    -0.203 F 
ATOM     90  C   UNL A   1      45.717  35.702  28.069  1.00  0.00     0.198 A 
ATOM     91  C   UNL A   1      46.599  34.902  30.154  1.00  0.00     0.198 A 
ATOM     92  F   UNL A   1      46.084  32.733  30.896  1.00  0.00    -0.203 F 
ATOM     93  F   UNL A   1      45.640  36.657  27.133  1.00  0.00    -0.200 F 
ATOM     94  C   UNL A   1      46.493  35.904  29.201  1.00  0.00     0.200 A 
ATOM     95  F   UNL A   1      47.334  35.101  31.256  1.00  0.00    -0.200 F 
ATOM     96  F   UNL A   1      47.146  37.062  29.370  1.00  0.00    -0.200 F 
ENDBRANCH  63  86
ENDBRANCH  37  38
ENDBRANCH  30  32
ENDBRANCH  29  30
ENDBRANCH  28  29
ENDBRANCH  27  28
ENDBRANCH   1  27
TORSDOF 17
ENDMDL
