MODEL 1
REMARK VINA RESULT:     -10.5      0.000      0.000
REMARK SMILES O=C(COCC(=O)OCCOC(=O)c1ccc(-c2c3nc(c(-c4c(F)c(F)c(F)c(F)c4F)c4ccc([nH]4)c(-c4c(F)c(F)c(F)c(F)c4F)c4nc(c(-c5c(F)c(F)c(F)c(F)c5F)c5ccc2[nH]5)C=C4)C=C3)cc1)/[NH+]=C1\S[C@@H]2CS(=O)(=O)C[C@H]2N1c1ccc(Cl)cc1
REMARK SMILES IDX 9 1 8 2 6 3 7 4 5 5 4 6 3 7 2 8 1 9 77 10 78 11 79 13 87 14
REMARK SMILES IDX 80 15 86 16 81 17 85 18 82 19 83 20 84 21 88 22 89 23 94 24
REMARK SMILES IDX 90 25 93 26 91 27 92 28 10 29 11 30 12 31 13 32 14 33 15 34
REMARK SMILES IDX 76 35 16 36 75 37 17 38 18 39 19 40 69 41 20 42 74 43 68 44
REMARK SMILES IDX 70 45 21 46 73 47 67 48 66 49 22 51 54 52 34 53 53 54 35 55
REMARK SMILES IDX 38 56 52 57 71 58 36 59 37 60 51 62 72 63 39 64 23 65 24 66
REMARK SMILES IDX 32 67 25 68 26 69 30 70 33 71 27 72 28 73 31 74 29 75 55 76
REMARK SMILES IDX 56 77 64 78 57 79 58 80 62 81 65 82 59 83 60 84 63 85 61 86
REMARK SMILES IDX 40 87 41 88 49 89 42 90 43 91 47 92 50 93 44 94 45 95 48 96
REMARK SMILES IDX 46 97
REMARK H PARENT 77 12 70 50 38 61
REMARK Flexibility Score: inf
ROOT
ATOM      1  C   UNL A   1      33.510  33.823  28.007  1.00  0.00     0.274 C 
ENDROOT
BRANCH   1   2
ATOM      2  O   UNL A   1      34.103  34.931  28.713  1.00  0.00    -0.460 OA
BRANCH   2   3
ATOM      3  C   UNL A   1      33.264  35.631  29.523  1.00  0.00     0.332 C 
ATOM      4  O   UNL A   1      32.430  36.446  29.141  1.00  0.00    -0.250 OA
BRANCH   3   5
ATOM      5  C   UNL A   1      33.455  35.288  31.005  1.00  0.00     0.283 C 
BRANCH   5   6
ATOM      6  O   UNL A   1      34.758  35.107  31.529  1.00  0.00    -0.358 OA
BRANCH   6   7
ATOM      7  C   UNL A   1      35.150  33.747  31.651  1.00  0.00     0.288 C 
BRANCH   7   8
ATOM      8  C   UNL A   1      36.601  33.311  31.309  1.00  0.00     0.333 C 
ATOM      9  O   UNL A   1      37.195  33.826  30.363  1.00  0.00    -0.244 OA
ATOM     10  N   UNL A   1      37.173  32.298  32.038  1.00  0.00    -0.202 N 
ATOM     11  C   UNL A   1      37.486  32.484  33.277  1.00  0.00     0.319 C 
ATOM     12  H   UNL A   1      37.346  31.425  31.614  1.00  0.00     0.316 HD
ATOM     13  S   UNL A   1      37.069  33.956  34.215  1.00  0.00    -0.029 SA
ATOM     14  N   UNL A   1      38.136  31.573  34.126  1.00  0.00    -0.217 N 
ATOM     15  C   UNL A   1      36.992  32.933  35.693  1.00  0.00     0.120 C 
ATOM     16  C   UNL A   1      38.253  32.078  35.508  1.00  0.00     0.212 C 
ATOM     17  C   UNL A   1      37.048  33.546  37.065  1.00  0.00     0.156 C 
ATOM     18  C   UNL A   1      38.203  31.126  36.680  1.00  0.00     0.188 C 
ATOM     19  S   UNL A   1      37.738  32.205  38.040  1.00  0.00     0.155 S 
ATOM     20  O   UNL A   1      36.672  31.565  38.780  1.00  0.00    -0.229 OA
ATOM     21  O   UNL A   1      38.946  32.685  38.675  1.00  0.00    -0.229 OA
BRANCH  14  22
ATOM     22  C   UNL A   1      39.109  30.658  33.676  1.00  0.00     0.128 A 
ATOM     23  C   UNL A   1      40.482  30.941  33.775  1.00  0.00     0.053 A 
ATOM     24  C   UNL A   1      38.750  29.425  33.100  1.00  0.00     0.053 A 
ATOM     25  C   UNL A   1      41.451  30.059  33.284  1.00  0.00     0.025 A 
ATOM     26  C   UNL A   1      39.716  28.535  32.610  1.00  0.00     0.025 A 
ATOM     27  C   UNL A   1      41.064  28.861  32.696  1.00  0.00     0.041 A 
ATOM     28  Cl  UNL A   1      42.255  27.782  32.086  1.00  0.00    -0.084 Cl
ENDBRANCH  14  22
ENDBRANCH   7   8
ENDBRANCH   6   7
ENDBRANCH   5   6
ENDBRANCH   3   5
ENDBRANCH   2   3
ENDBRANCH   1   2
BRANCH   1  29
ATOM     29  C   UNL A   1      34.108  32.499  28.475  1.00  0.00     0.275 C 
BRANCH  29  30
ATOM     30  O   UNL A   1      34.314  31.625  27.351  1.00  0.00    -0.458 OA
BRANCH  30  31
ATOM     31  C   UNL A   1      34.348  30.307  27.645  1.00  0.00     0.338 C 
ATOM     32  O   UNL A   1      33.413  29.524  27.636  1.00  0.00    -0.246 OA
BRANCH  31  33
ATOM     33  C   UNL A   1      35.715  29.895  28.001  1.00  0.00     0.060 A 
ATOM     34  C   UNL A   1      36.047  29.522  29.307  1.00  0.00     0.016 A 
ATOM     35  C   UNL A   1      36.704  30.005  27.025  1.00  0.00     0.016 A 
ATOM     36  C   UNL A   1      37.384  29.310  29.651  1.00  0.00     0.010 A 
ATOM     37  C   UNL A   1      38.029  29.731  27.354  1.00  0.00     0.010 A 
ATOM     38  C   UNL A   1      38.385  29.406  28.674  1.00  0.00    -0.014 A 
BRANCH  38  39
ATOM     39  C   UNL A   1      39.817  29.171  28.987  1.00  0.00     0.031 A 
ATOM     40  C   UNL A   1      40.652  30.290  29.543  1.00  0.00     0.074 A 
ATOM     41  C   UNL A   1      40.387  27.993  28.666  1.00  0.00     0.049 A 
ATOM     42  N   UNL A   1      41.954  30.395  29.613  1.00  0.00    -0.248 NA
ATOM     43  C   UNL A   1      39.922  31.453  30.073  1.00  0.00     0.031 C 
ATOM     44  C   UNL A   1      39.678  26.824  28.148  1.00  0.00     0.029 A 
ATOM     45  N   UNL A   1      41.704  27.604  28.691  1.00  0.00    -0.354 N 
ATOM     46  C   UNL A   1      42.203  31.652  30.151  1.00  0.00     0.074 A 
ATOM     47  C   UNL A   1      40.916  32.272  30.391  1.00  0.00     0.031 C 
ATOM     48  C   UNL A   1      40.568  25.856  27.879  1.00  0.00     0.029 A 
ATOM     49  C   UNL A   1      41.912  26.362  28.143  1.00  0.00     0.049 A 
ATOM     50  H   UNL A   1      42.426  28.160  29.063  1.00  0.00     0.167 HD
ATOM     51  C   UNL A   1      43.400  32.229  30.411  1.00  0.00     0.037 A 
ATOM     52  C   UNL A   1      43.057  25.724  27.835  1.00  0.00     0.037 A 
ATOM     53  C   UNL A   1      44.672  31.588  30.199  1.00  0.00     0.049 A 
ATOM     54  C   UNL A   1      44.372  26.401  28.105  1.00  0.00     0.074 A 
ATOM     55  C   UNL A   1      45.940  32.076  30.465  1.00  0.00     0.029 A 
ATOM     56  N   UNL A   1      44.837  30.315  29.674  1.00  0.00    -0.354 N 
ATOM     57  N   UNL A   1      44.602  27.591  28.605  1.00  0.00    -0.248 NA
ATOM     58  C   UNL A   1      45.587  25.651  27.759  1.00  0.00     0.031 C 
ATOM     59  C   UNL A   1      46.874  31.114  30.067  1.00  0.00     0.029 A 
ATOM     60  C   UNL A   1      46.186  30.007  29.597  1.00  0.00     0.049 A 
ATOM     61  H   UNL A   1      44.104  29.718  29.399  1.00  0.00     0.167 HD
ATOM     62  C   UNL A   1      45.982  27.718  28.666  1.00  0.00     0.074 A 
ATOM     63  C   UNL A   1      46.540  26.484  28.154  1.00  0.00     0.031 C 
ATOM     64  C   UNL A   1      46.722  28.764  29.108  1.00  0.00     0.037 A 
BRANCH  51  65
ATOM     65  C   UNL A   1      43.407  33.634  30.935  1.00  0.00     0.064 A 
ATOM     66  C   UNL A   1      43.438  33.911  32.309  1.00  0.00     0.173 A 
ATOM     67  C   UNL A   1      43.471  34.719  30.045  1.00  0.00     0.173 A 
ATOM     68  F   UNL A   1      43.371  32.911  33.201  1.00  0.00    -0.203 F 
ATOM     69  C   UNL A   1      43.525  35.222  32.773  1.00  0.00     0.198 A 
ATOM     70  C   UNL A   1      43.582  36.025  30.511  1.00  0.00     0.198 A 
ATOM     71  F   UNL A   1      43.453  34.508  28.720  1.00  0.00    -0.203 F 
ATOM     72  F   UNL A   1      43.532  35.465  34.091  1.00  0.00    -0.200 F 
ATOM     73  C   UNL A   1      43.607  36.277  31.875  1.00  0.00     0.200 A 
ATOM     74  F   UNL A   1      43.678  37.041  29.642  1.00  0.00    -0.200 F 
ATOM     75  F   UNL A   1      43.712  37.535  32.324  1.00  0.00    -0.200 F 
ENDBRANCH  51  65
BRANCH  52  76
ATOM     76  C   UNL A   1      43.008  24.381  27.202  1.00  0.00     0.064 A 
ATOM     77  C   UNL A   1      42.674  23.246  27.952  1.00  0.00     0.173 A 
ATOM     78  C   UNL A   1      43.293  24.204  25.840  1.00  0.00     0.173 A 
ATOM     79  F   UNL A   1      42.416  23.361  29.263  1.00  0.00    -0.203 F 
ATOM     80  C   UNL A   1      42.644  21.982  27.367  1.00  0.00     0.198 A 
ATOM     81  C   UNL A   1      43.234  22.944  25.249  1.00  0.00     0.198 A 
ATOM     82  F   UNL A   1      43.617  25.261  25.079  1.00  0.00    -0.203 F 
ATOM     83  F   UNL A   1      42.365  20.907  28.117  1.00  0.00    -0.200 F 
ATOM     84  C   UNL A   1      42.917  21.833  26.016  1.00  0.00     0.200 A 
ATOM     85  F   UNL A   1      43.486  22.807  23.942  1.00  0.00    -0.200 F 
ATOM     86  F   UNL A   1      42.883  20.617  25.454  1.00  0.00    -0.200 F 
ENDBRANCH  52  76
BRANCH  64  87
ATOM     87  C   UNL A   1      48.211  28.597  29.117  1.00  0.00     0.064 A 
ATOM     88  C   UNL A   1      48.889  28.077  30.227  1.00  0.00     0.173 A 
ATOM     89  C   UNL A   1      48.963  28.926  27.978  1.00  0.00     0.173 A 
ATOM     90  F   UNL A   1      48.215  27.765  31.344  1.00  0.00    -0.203 F 
ATOM     91  C   UNL A   1      50.271  27.908  30.205  1.00  0.00     0.198 A 
ATOM     92  C   UNL A   1      50.341  28.732  27.950  1.00  0.00     0.198 A 
ATOM     93  F   UNL A   1      48.359  29.423  26.888  1.00  0.00    -0.203 F 
ATOM     94  F   UNL A   1      50.906  27.446  31.291  1.00  0.00    -0.200 F 
ATOM     95  C   UNL A   1      50.994  28.228  29.064  1.00  0.00     0.200 A 
ATOM     96  F   UNL A   1      51.036  29.031  26.844  1.00  0.00    -0.200 F 
ATOM     97  F   UNL A   1      52.324  28.057  29.042  1.00  0.00    -0.200 F 
ENDBRANCH  64  87
ENDBRANCH  38  39
ENDBRANCH  31  33
ENDBRANCH  30  31
ENDBRANCH  29  30
ENDBRANCH   1  29
TORSDOF 15
ENDMDL
MODEL 2
REMARK VINA RESULT:     -10.1      6.300     11.584
REMARK SMILES O=C(COCC(=O)OCCOC(=O)c1ccc(-c2c3nc(c(-c4c(F)c(F)c(F)c(F)c4F)c4ccc([nH]4)c(-c4c(F)c(F)c(F)c(F)c4F)c4nc(c(-c5c(F)c(F)c(F)c(F)c5F)c5ccc2[nH]5)C=C4)C=C3)cc1)/[NH+]=C1\S[C@@H]2CS(=O)(=O)C[C@H]2N1c1ccc(Cl)cc1
REMARK SMILES IDX 9 1 8 2 6 3 7 4 5 5 4 6 3 7 2 8 1 9 77 10 78 11 79 13 87 14
REMARK SMILES IDX 80 15 86 16 81 17 85 18 82 19 83 20 84 21 88 22 89 23 94 24
REMARK SMILES IDX 90 25 93 26 91 27 92 28 10 29 11 30 12 31 13 32 14 33 15 34
REMARK SMILES IDX 76 35 16 36 75 37 17 38 18 39 19 40 69 41 20 42 74 43 68 44
REMARK SMILES IDX 70 45 21 46 73 47 67 48 66 49 22 51 54 52 34 53 53 54 35 55
REMARK SMILES IDX 38 56 52 57 71 58 36 59 37 60 51 62 72 63 39 64 23 65 24 66
REMARK SMILES IDX 32 67 25 68 26 69 30 70 33 71 27 72 28 73 31 74 29 75 55 76
REMARK SMILES IDX 56 77 64 78 57 79 58 80 62 81 65 82 59 83 60 84 63 85 61 86
REMARK SMILES IDX 40 87 41 88 49 89 42 90 43 91 47 92 50 93 44 94 45 95 48 96
REMARK SMILES IDX 46 97
REMARK H PARENT 77 12 70 50 38 61
REMARK Flexibility Score: inf
ROOT
ATOM      1  C   UNL A   1      41.869  19.353  26.184  1.00  0.00     0.274 C 
ENDROOT
BRANCH   1   2
ATOM      2  O   UNL A   1      42.070  20.024  27.445  1.00  0.00    -0.460 OA
BRANCH   2   3
ATOM      3  C   UNL A   1      42.021  21.383  27.404  1.00  0.00     0.332 C 
ATOM      4  O   UNL A   1      42.729  22.135  28.066  1.00  0.00    -0.250 OA
BRANCH   3   5
ATOM      5  C   UNL A   1      40.973  21.904  26.414  1.00  0.00     0.283 C 
BRANCH   5   6
ATOM      6  O   UNL A   1      39.838  22.606  26.886  1.00  0.00    -0.358 OA
BRANCH   6   7
ATOM      7  C   UNL A   1      38.601  22.099  26.404  1.00  0.00     0.288 C 
BRANCH   7   8
ATOM      8  C   UNL A   1      37.529  23.060  25.820  1.00  0.00     0.333 C 
ATOM      9  O   UNL A   1      37.872  24.074  25.215  1.00  0.00    -0.244 OA
ATOM     10  N   UNL A   1      36.204  22.787  26.053  1.00  0.00    -0.202 N 
ATOM     11  C   UNL A   1      35.641  21.768  25.495  1.00  0.00     0.319 C 
ATOM     12  H   UNL A   1      35.680  23.372  26.648  1.00  0.00     0.316 HD
ATOM     13  S   UNL A   1      36.517  20.528  24.535  1.00  0.00    -0.029 SA
ATOM     14  N   UNL A   1      34.288  21.403  25.581  1.00  0.00    -0.217 N 
ATOM     15  C   UNL A   1      35.299  19.320  25.075  1.00  0.00     0.120 C 
ATOM     16  C   UNL A   1      34.005  20.126  24.895  1.00  0.00     0.212 C 
ATOM     17  C   UNL A   1      35.130  18.012  24.353  1.00  0.00     0.156 C 
ATOM     18  C   UNL A   1      32.938  19.193  25.419  1.00  0.00     0.188 C 
ATOM     19  S   UNL A   1      33.414  17.614  24.704  1.00  0.00     0.155 S 
ATOM     20  O   UNL A   1      33.367  16.614  25.749  1.00  0.00    -0.229 OA
ATOM     21  O   UNL A   1      32.722  17.457  23.445  1.00  0.00    -0.229 OA
BRANCH  14  22
ATOM     22  C   UNL A   1      33.240  22.341  25.681  1.00  0.00     0.128 A 
ATOM     23  C   UNL A   1      32.634  22.886  24.537  1.00  0.00     0.053 A 
ATOM     24  C   UNL A   1      32.762  22.779  26.930  1.00  0.00     0.053 A 
ATOM     25  C   UNL A   1      31.628  23.856  24.630  1.00  0.00     0.025 A 
ATOM     26  C   UNL A   1      31.753  23.747  27.031  1.00  0.00     0.025 A 
ATOM     27  C   UNL A   1      31.195  24.288  25.878  1.00  0.00     0.041 A 
ATOM     28  Cl  UNL A   1      29.967  25.485  25.991  1.00  0.00    -0.084 Cl
ENDBRANCH  14  22
ENDBRANCH   7   8
ENDBRANCH   6   7
ENDBRANCH   5   6
ENDBRANCH   3   5
ENDBRANCH   2   3
ENDBRANCH   1   2
BRANCH   1  29
ATOM     29  C   UNL A   1      43.098  18.532  25.806  1.00  0.00     0.275 C 
BRANCH  29  30
ATOM     30  O   UNL A   1      43.558  18.907  24.495  1.00  0.00    -0.458 OA
BRANCH  30  31
ATOM     31  C   UNL A   1      44.807  19.422  24.448  1.00  0.00     0.338 C 
ATOM     32  O   UNL A   1      45.841  18.830  24.185  1.00  0.00    -0.246 OA
BRANCH  31  33
ATOM     33  C   UNL A   1      44.781  20.858  24.770  1.00  0.00     0.060 A 
ATOM     34  C   UNL A   1      44.173  21.785  23.919  1.00  0.00     0.016 A 
ATOM     35  C   UNL A   1      45.489  21.286  25.893  1.00  0.00     0.016 A 
ATOM     36  C   UNL A   1      44.321  23.152  24.162  1.00  0.00     0.010 A 
ATOM     37  C   UNL A   1      45.581  22.648  26.169  1.00  0.00     0.010 A 
ATOM     38  C   UNL A   1      45.020  23.595  25.294  1.00  0.00    -0.014 A 
BRANCH  38  39
ATOM     39  C   UNL A   1      45.187  25.036  25.605  1.00  0.00     0.031 A 
ATOM     40  C   UNL A   1      46.546  25.669  25.499  1.00  0.00     0.074 A 
ATOM     41  C   UNL A   1      44.146  25.741  26.087  1.00  0.00     0.049 A 
ATOM     42  N   UNL A   1      46.971  26.805  25.989  1.00  0.00    -0.248 NA
ATOM     43  C   UNL A   1      47.568  24.910  24.759  1.00  0.00     0.031 C 
ATOM     44  C   UNL A   1      42.775  25.248  26.210  1.00  0.00     0.029 A 
ATOM     45  N   UNL A   1      44.092  27.012  26.605  1.00  0.00    -0.354 N 
ATOM     46  C   UNL A   1      48.318  26.879  25.659  1.00  0.00     0.074 A 
ATOM     47  C   UNL A   1      48.640  25.673  24.925  1.00  0.00     0.031 C 
ATOM     48  C   UNL A   1      42.019  26.194  26.788  1.00  0.00     0.029 A 
ATOM     49  C   UNL A   1      42.868  27.329  27.137  1.00  0.00     0.049 A 
ATOM     50  H   UNL A   1      44.857  27.633  26.595  1.00  0.00     0.167 HD
ATOM     51  C   UNL A   1      49.199  27.865  25.952  1.00  0.00     0.037 A 
ATOM     52  C   UNL A   1      42.483  28.389  27.873  1.00  0.00     0.037 A 
ATOM     53  C   UNL A   1      48.857  29.075  26.654  1.00  0.00     0.049 A 
ATOM     54  C   UNL A   1      43.489  29.454  28.211  1.00  0.00     0.074 A 
ATOM     55  C   UNL A   1      49.671  30.151  26.968  1.00  0.00     0.029 A 
ATOM     56  N   UNL A   1      47.595  29.373  27.147  1.00  0.00    -0.354 N 
ATOM     57  N   UNL A   1      44.762  29.516  27.904  1.00  0.00    -0.248 NA
ATOM     58  C   UNL A   1      43.008  30.593  29.006  1.00  0.00     0.031 C 
ATOM     59  C   UNL A   1      48.911  31.083  27.683  1.00  0.00     0.029 A 
ATOM     60  C   UNL A   1      47.612  30.608  27.773  1.00  0.00     0.049 A 
ATOM     61  H   UNL A   1      46.805  28.792  27.063  1.00  0.00     0.167 HD
ATOM     62  C   UNL A   1      45.225  30.711  28.437  1.00  0.00     0.074 A 
ATOM     63  C   UNL A   1      44.097  31.346  29.084  1.00  0.00     0.031 C 
ATOM     64  C   UNL A   1      46.473  31.236  28.391  1.00  0.00     0.037 A 
BRANCH  51  65
ATOM     65  C   UNL A   1      50.628  27.680  25.538  1.00  0.00     0.064 A 
ATOM     66  C   UNL A   1      51.065  27.965  24.237  1.00  0.00     0.173 A 
ATOM     67  C   UNL A   1      51.592  27.294  26.484  1.00  0.00     0.173 A 
ATOM     68  F   UNL A   1      50.182  28.331  23.294  1.00  0.00    -0.203 F 
ATOM     69  C   UNL A   1      52.411  27.863  23.895  1.00  0.00     0.198 A 
ATOM     70  C   UNL A   1      52.940  27.216  26.146  1.00  0.00     0.198 A 
ATOM     71  F   UNL A   1      51.229  27.018  27.746  1.00  0.00    -0.203 F 
ATOM     72  F   UNL A   1      52.803  28.120  22.639  1.00  0.00    -0.200 F 
ATOM     73  C   UNL A   1      53.349  27.500  24.850  1.00  0.00     0.200 A 
ATOM     74  F   UNL A   1      53.845  26.881  27.074  1.00  0.00    -0.200 F 
ATOM     75  F   UNL A   1      54.646  27.423  24.524  1.00  0.00    -0.200 F 
ENDBRANCH  51  65
BRANCH  52  76
ATOM     76  C   UNL A   1      41.086  28.477  28.370  1.00  0.00     0.064 A 
ATOM     77  C   UNL A   1      40.750  28.027  29.654  1.00  0.00     0.173 A 
ATOM     78  C   UNL A   1      40.060  29.010  27.575  1.00  0.00     0.173 A 
ATOM     79  F   UNL A   1      41.691  27.489  30.442  1.00  0.00    -0.203 F 
ATOM     80  C   UNL A   1      39.437  28.091  30.117  1.00  0.00     0.198 A 
ATOM     81  C   UNL A   1      38.754  29.101  28.049  1.00  0.00     0.198 A 
ATOM     82  F   UNL A   1      40.331  29.455  26.338  1.00  0.00    -0.203 F 
ATOM     83  F   UNL A   1      39.135  27.613  31.331  1.00  0.00    -0.200 F 
ATOM     84  C   UNL A   1      38.443  28.634  29.318  1.00  0.00     0.200 A 
ATOM     85  F   UNL A   1      37.799  29.637  27.280  1.00  0.00    -0.200 F 
ATOM     86  F   UNL A   1      37.182  28.699  29.766  1.00  0.00    -0.200 F 
ENDBRANCH  52  76
BRANCH  64  87
ATOM     87  C   UNL A   1      46.672  32.589  29.005  1.00  0.00     0.064 A 
ATOM     88  C   UNL A   1      46.490  33.768  28.268  1.00  0.00     0.173 A 
ATOM     89  C   UNL A   1      47.010  32.704  30.362  1.00  0.00     0.173 A 
ATOM     90  F   UNL A   1      46.183  33.707  26.964  1.00  0.00    -0.203 F 
ATOM     91  C   UNL A   1      46.657  35.014  28.865  1.00  0.00     0.198 A 
ATOM     92  C   UNL A   1      47.152  33.951  30.961  1.00  0.00     0.198 A 
ATOM     93  F   UNL A   1      47.191  31.604  31.109  1.00  0.00    -0.203 F 
ATOM     94  F   UNL A   1      46.516  36.129  28.134  1.00  0.00    -0.200 F 
ATOM     95  C   UNL A   1      46.979  35.105  30.212  1.00  0.00     0.200 A 
ATOM     96  F   UNL A   1      47.453  34.038  32.264  1.00  0.00    -0.200 F 
ATOM     97  F   UNL A   1      47.132  36.307  30.785  1.00  0.00    -0.200 F 
ENDBRANCH  64  87
ENDBRANCH  38  39
ENDBRANCH  31  33
ENDBRANCH  30  31
ENDBRANCH  29  30
ENDBRANCH   1  29
TORSDOF 15
ENDMDL
MODEL 3
REMARK VINA RESULT:     -10.0      6.079     11.730
REMARK SMILES O=C(COCC(=O)OCCOC(=O)c1ccc(-c2c3nc(c(-c4c(F)c(F)c(F)c(F)c4F)c4ccc([nH]4)c(-c4c(F)c(F)c(F)c(F)c4F)c4nc(c(-c5c(F)c(F)c(F)c(F)c5F)c5ccc2[nH]5)C=C4)C=C3)cc1)/[NH+]=C1\S[C@@H]2CS(=O)(=O)C[C@H]2N1c1ccc(Cl)cc1
REMARK SMILES IDX 9 1 8 2 6 3 7 4 5 5 4 6 3 7 2 8 1 9 77 10 78 11 79 13 87 14
REMARK SMILES IDX 80 15 86 16 81 17 85 18 82 19 83 20 84 21 88 22 89 23 94 24
REMARK SMILES IDX 90 25 93 26 91 27 92 28 10 29 11 30 12 31 13 32 14 33 15 34
REMARK SMILES IDX 76 35 16 36 75 37 17 38 18 39 19 40 69 41 20 42 74 43 68 44
REMARK SMILES IDX 70 45 21 46 73 47 67 48 66 49 22 51 54 52 34 53 53 54 35 55
REMARK SMILES IDX 38 56 52 57 71 58 36 59 37 60 51 62 72 63 39 64 23 65 24 66
REMARK SMILES IDX 32 67 25 68 26 69 30 70 33 71 27 72 28 73 31 74 29 75 55 76
REMARK SMILES IDX 56 77 64 78 57 79 58 80 62 81 65 82 59 83 60 84 63 85 61 86
REMARK SMILES IDX 40 87 41 88 49 89 42 90 43 91 47 92 50 93 44 94 45 95 48 96
REMARK SMILES IDX 46 97
REMARK H PARENT 77 12 70 50 38 61
REMARK Flexibility Score: inf
ROOT
ATOM      1  C   UNL A   1      43.616  20.783  25.742  1.00  0.00     0.274 C 
ENDROOT
BRANCH   1   2
ATOM      2  O   UNL A   1      42.475  19.917  25.568  1.00  0.00    -0.460 OA
BRANCH   2   3
ATOM      3  C   UNL A   1      41.654  19.801  26.647  1.00  0.00     0.332 C 
ATOM      4  O   UNL A   1      41.930  19.208  27.684  1.00  0.00    -0.250 OA
BRANCH   3   5
ATOM      5  C   UNL A   1      40.312  20.515  26.443  1.00  0.00     0.283 C 
BRANCH   5   6
ATOM      6  O   UNL A   1      40.256  21.929  26.429  1.00  0.00    -0.358 OA
BRANCH   6   7
ATOM      7  C   UNL A   1      39.039  22.467  26.928  1.00  0.00     0.288 C 
BRANCH   7   8
ATOM      8  C   UNL A   1      38.352  23.662  26.212  1.00  0.00     0.333 C 
ATOM      9  O   UNL A   1      39.031  24.509  25.635  1.00  0.00    -0.244 OA
ATOM     10  N   UNL A   1      36.987  23.784  26.298  1.00  0.00    -0.202 N 
ATOM     11  C   UNL A   1      36.219  22.940  25.694  1.00  0.00     0.319 C 
ATOM     12  H   UNL A   1      36.592  24.519  26.821  1.00  0.00     0.316 HD
ATOM     13  S   UNL A   1      36.801  21.461  24.859  1.00  0.00    -0.029 SA
ATOM     14  N   UNL A   1      34.817  22.975  25.632  1.00  0.00    -0.217 N 
ATOM     15  C   UNL A   1      35.239  20.671  25.275  1.00  0.00     0.120 C 
ATOM     16  C   UNL A   1      34.255  21.799  24.937  1.00  0.00     0.212 C 
ATOM     17  C   UNL A   1      34.781  19.431  24.558  1.00  0.00     0.156 C 
ATOM     18  C   UNL A   1      32.918  21.229  25.351  1.00  0.00     0.188 C 
ATOM     19  S   UNL A   1      32.997  19.549  24.718  1.00  0.00     0.155 S 
ATOM     20  O   UNL A   1      32.558  18.652  25.765  1.00  0.00    -0.229 OA
ATOM     21  O   UNL A   1      32.424  19.535  23.390  1.00  0.00    -0.229 OA
BRANCH  14  22
ATOM     22  C   UNL A   1      34.075  24.173  25.600  1.00  0.00     0.128 A 
ATOM     23  C   UNL A   1      34.321  25.160  24.630  1.00  0.00     0.053 A 
ATOM     24  C   UNL A   1      33.063  24.439  26.541  1.00  0.00     0.053 A 
ATOM     25  C   UNL A   1      33.623  26.374  24.624  1.00  0.00     0.025 A 
ATOM     26  C   UNL A   1      32.358  25.650  26.538  1.00  0.00     0.025 A 
ATOM     27  C   UNL A   1      32.648  26.617  25.583  1.00  0.00     0.041 A 
ATOM     28  Cl  UNL A   1      31.798  28.111  25.579  1.00  0.00    -0.084 Cl
ENDBRANCH  14  22
ENDBRANCH   7   8
ENDBRANCH   6   7
ENDBRANCH   5   6
ENDBRANCH   3   5
ENDBRANCH   2   3
ENDBRANCH   1   2
BRANCH   1  29
ATOM     29  C   UNL A   1      43.639  21.869  24.670  1.00  0.00     0.275 C 
BRANCH  29  30
ATOM     30  O   UNL A   1      43.035  23.074  25.176  1.00  0.00    -0.458 OA
BRANCH  30  31
ATOM     31  C   UNL A   1      43.777  24.194  25.032  1.00  0.00     0.338 C 
ATOM     32  O   UNL A   1      44.719  24.364  24.275  1.00  0.00    -0.246 OA
BRANCH  31  33
ATOM     33  C   UNL A   1      43.298  25.247  25.941  1.00  0.00     0.060 A 
ATOM     34  C   UNL A   1      43.674  26.583  25.771  1.00  0.00     0.016 A 
ATOM     35  C   UNL A   1      42.555  24.858  27.054  1.00  0.00     0.016 A 
ATOM     36  C   UNL A   1      43.350  27.526  26.749  1.00  0.00     0.010 A 
ATOM     37  C   UNL A   1      42.178  25.812  27.997  1.00  0.00     0.010 A 
ATOM     38  C   UNL A   1      42.592  27.149  27.867  1.00  0.00    -0.014 A 
BRANCH  38  39
ATOM     39  C   UNL A   1      42.207  28.118  28.923  1.00  0.00     0.031 A 
ATOM     40  C   UNL A   1      43.002  28.187  30.196  1.00  0.00     0.074 A 
ATOM     41  C   UNL A   1      41.085  28.849  28.782  1.00  0.00     0.049 A 
ATOM     42  N   UNL A   1      42.684  28.734  31.342  1.00  0.00    -0.248 NA
ATOM     43  C   UNL A   1      44.323  27.538  30.183  1.00  0.00     0.031 C 
ATOM     44  C   UNL A   1      40.246  28.889  27.585  1.00  0.00     0.029 A 
ATOM     45  N   UNL A   1      40.435  29.665  29.675  1.00  0.00    -0.354 N 
ATOM     46  C   UNL A   1      43.740  28.455  32.199  1.00  0.00     0.074 A 
ATOM     47  C   UNL A   1      44.711  27.694  31.442  1.00  0.00     0.031 C 
ATOM     48  C   UNL A   1      39.180  29.668  27.823  1.00  0.00     0.029 A 
ATOM     49  C   UNL A   1      39.228  30.125  29.209  1.00  0.00     0.049 A 
ATOM     50  H   UNL A   1      40.798  29.897  30.560  1.00  0.00     0.167 HD
ATOM     51  C   UNL A   1      43.876  28.804  33.501  1.00  0.00     0.037 A 
ATOM     52  C   UNL A   1      38.243  30.790  29.842  1.00  0.00     0.037 A 
ATOM     53  C   UNL A   1      42.919  29.591  34.234  1.00  0.00     0.049 A 
ATOM     54  C   UNL A   1      38.406  31.137  31.297  1.00  0.00     0.074 A 
ATOM     55  C   UNL A   1      42.983  30.027  35.547  1.00  0.00     0.029 A 
ATOM     56  N   UNL A   1      41.724  30.066  33.714  1.00  0.00    -0.354 N 
ATOM     57  N   UNL A   1      39.402  30.865  32.104  1.00  0.00    -0.248 NA
ATOM     58  C   UNL A   1      37.304  31.874  31.930  1.00  0.00     0.031 C 
ATOM     59  C   UNL A   1      41.810  30.734  35.833  1.00  0.00     0.029 A 
ATOM     60  C   UNL A   1      41.037  30.779  34.683  1.00  0.00     0.049 A 
ATOM     61  H   UNL A   1      41.411  29.919  32.792  1.00  0.00     0.167 HD
ATOM     62  C   UNL A   1      39.064  31.426  33.327  1.00  0.00     0.074 A 
ATOM     63  C   UNL A   1      37.772  32.056  33.157  1.00  0.00     0.031 C 
ATOM     64  C   UNL A   1      39.763  31.420  34.488  1.00  0.00     0.037 A 
BRANCH  51  65
ATOM     65  C   UNL A   1      45.092  28.324  34.237  1.00  0.00     0.064 A 
ATOM     66  C   UNL A   1      45.119  27.085  34.892  1.00  0.00     0.173 A 
ATOM     67  C   UNL A   1      46.276  29.079  34.211  1.00  0.00     0.173 A 
ATOM     68  F   UNL A   1      44.012  26.329  34.952  1.00  0.00    -0.203 F 
ATOM     69  C   UNL A   1      46.284  26.623  35.501  1.00  0.00     0.198 A 
ATOM     70  C   UNL A   1      47.444  28.604  34.799  1.00  0.00     0.198 A 
ATOM     71  F   UNL A   1      46.306  30.268  33.590  1.00  0.00    -0.203 F 
ATOM     72  F   UNL A   1      46.282  25.445  36.140  1.00  0.00    -0.200 F 
ATOM     73  C   UNL A   1      47.448  27.376  35.445  1.00  0.00     0.200 A 
ATOM     74  F   UNL A   1      48.571  29.326  34.730  1.00  0.00    -0.200 F 
ATOM     75  F   UNL A   1      48.572  26.919  36.013  1.00  0.00    -0.200 F 
ENDBRANCH  51  65
BRANCH  52  76
ATOM     76  C   UNL A   1      36.999  31.142  29.111  1.00  0.00     0.064 A 
ATOM     77  C   UNL A   1      36.775  32.450  28.662  1.00  0.00     0.173 A 
ATOM     78  C   UNL A   1      36.011  30.181  28.846  1.00  0.00     0.173 A 
ATOM     79  F   UNL A   1      37.679  33.407  28.913  1.00  0.00    -0.203 F 
ATOM     80  C   UNL A   1      35.601  32.788  27.992  1.00  0.00     0.198 A 
ATOM     81  C   UNL A   1      34.852  30.513  28.150  1.00  0.00     0.198 A 
ATOM     82  F   UNL A   1      36.180  28.914  29.254  1.00  0.00    -0.203 F 
ATOM     83  F   UNL A   1      35.392  34.056  27.613  1.00  0.00    -0.200 F 
ATOM     84  C   UNL A   1      34.645  31.819  27.730  1.00  0.00     0.200 A 
ATOM     85  F   UNL A   1      33.937  29.572  27.888  1.00  0.00    -0.200 F 
ATOM     86  F   UNL A   1      33.519  32.144  27.080  1.00  0.00    -0.200 F 
ENDBRANCH  52  76
BRANCH  64  87
ATOM     87  C   UNL A   1      39.176  32.168  35.647  1.00  0.00     0.064 A 
ATOM     88  C   UNL A   1      38.361  31.537  36.596  1.00  0.00     0.173 A 
ATOM     89  C   UNL A   1      39.471  33.528  35.830  1.00  0.00     0.173 A 
ATOM     90  F   UNL A   1      38.038  30.243  36.454  1.00  0.00    -0.203 F 
ATOM     91  C   UNL A   1      37.846  32.246  37.679  1.00  0.00     0.198 A 
ATOM     92  C   UNL A   1      38.975  34.227  36.926  1.00  0.00     0.198 A 
ATOM     93  F   UNL A   1      40.251  34.175  34.951  1.00  0.00    -0.203 F 
ATOM     94  F   UNL A   1      37.036  31.633  38.553  1.00  0.00    -0.200 F 
ATOM     95  C   UNL A   1      38.160  33.587  37.847  1.00  0.00     0.200 A 
ATOM     96  F   UNL A   1      39.288  35.519  37.093  1.00  0.00    -0.200 F 
ATOM     97  F   UNL A   1      37.668  34.265  38.893  1.00  0.00    -0.200 F 
ENDBRANCH  64  87
ENDBRANCH  38  39
ENDBRANCH  31  33
ENDBRANCH  30  31
ENDBRANCH  29  30
ENDBRANCH   1  29
TORSDOF 15
ENDMDL
