MODEL 1
REMARK VINA RESULT:     -12.4      0.000      0.000
REMARK SMILES O=C(Cc1ccc(F)c(F)c1)N[C@H]1COC[C@@H]1C(=O)OCCOC(=O)c1ccc(-c2c3nc(c(-c4c(F)c(F)c(F)c(F)c4F)c4ccc([nH]4)c(-c4c(F)c(F)c(F)c(F)c4F)c4nc(c(-c5c(F)c(F)c(F)c(F)c5F)c5ccc2[nH]5)C=C4)C=C3)cc1
REMARK SMILES IDX 21 1 20 2 18 3 19 4 17 5 13 6 14 7 15 8 16 9 12 10 1 11 2 12
REMARK SMILES IDX 3 14 4 15 5 16 11 17 6 18 9 19 7 20 10 21 8 22 22 23 23 24
REMARK SMILES IDX 24 25 25 26 26 27 27 28 88 29 28 30 87 31 29 32 30 33 31 34
REMARK SMILES IDX 81 35 32 36 86 37 80 38 82 39 33 40 85 41 79 42 78 43 34 45
REMARK SMILES IDX 66 46 46 47 65 48 47 49 50 50 64 51 83 52 48 53 49 54 63 56
REMARK SMILES IDX 84 57 51 58 35 59 36 60 44 61 37 62 38 63 42 64 45 65 39 66
REMARK SMILES IDX 40 67 43 68 41 69 67 70 68 71 76 72 69 73 70 74 74 75 77 76
REMARK SMILES IDX 71 77 72 78 75 79 73 80 52 81 53 82 61 83 54 84 55 85 59 86
REMARK SMILES IDX 62 87 56 88 57 89 60 90 58 91
REMARK H PARENT 12 13 82 44 50 55
REMARK Flexibility Score: inf
ROOT
ATOM      1  C   UNL A   1      31.075  29.274  24.355  1.00  0.00     0.274 C 
ENDROOT
BRANCH   1   2
ATOM      2  O   UNL A   1      30.803  27.859  24.216  1.00  0.00    -0.462 OA
BRANCH   2   3
ATOM      3  C   UNL A   1      30.862  27.379  22.943  1.00  0.00     0.313 C 
ATOM      4  O   UNL A   1      30.243  27.860  22.000  1.00  0.00    -0.252 OA
BRANCH   3   5
ATOM      5  C   UNL A   1      31.664  26.093  22.850  1.00  0.00     0.149 C 
ATOM      6  C   UNL A   1      32.985  26.087  23.609  1.00  0.00     0.124 C 
ATOM      7  C   UNL A   1      33.897  26.837  22.639  1.00  0.00     0.186 C 
ATOM      8  O   UNL A   1      33.389  26.621  21.312  1.00  0.00    -0.378 OA
ATOM      9  C   UNL A   1      32.147  25.915  21.419  1.00  0.00     0.177 C 
BRANCH   6  10
ATOM     10  N   UNL A   1      33.417  24.701  23.856  1.00  0.00    -0.350 N 
ATOM     11  O   UNL A   1      33.236  24.764  26.149  1.00  0.00    -0.275 OA
ATOM     12  C   UNL A   1      33.495  24.150  25.119  1.00  0.00     0.224 C 
ATOM     13  H   UNL A   1      33.662  24.141  23.084  1.00  0.00     0.163 HD
BRANCH  12  14
ATOM     14  C   UNL A   1      33.841  22.674  25.132  1.00  0.00     0.135 C 
BRANCH  14  15
ATOM     15  C   UNL A   1      35.325  22.399  25.250  1.00  0.00    -0.036 A 
ATOM     16  C   UNL A   1      36.170  23.431  25.693  1.00  0.00     0.007 A 
ATOM     17  C   UNL A   1      35.890  21.145  24.959  1.00  0.00     0.046 A 
ATOM     18  C   UNL A   1      37.545  23.218  25.828  1.00  0.00     0.043 A 
ATOM     19  C   UNL A   1      37.260  20.943  25.089  1.00  0.00     0.159 A 
ATOM     20  C   UNL A   1      38.082  21.972  25.520  1.00  0.00     0.158 A 
ATOM     21  F   UNL A   1      37.774  19.742  24.791  1.00  0.00    -0.204 F 
ATOM     22  F   UNL A   1      39.401  21.775  25.645  1.00  0.00    -0.204 F 
ENDBRANCH  14  15
ENDBRANCH  12  14
ENDBRANCH   6  10
ENDBRANCH   3   5
ENDBRANCH   2   3
ENDBRANCH   1   2
BRANCH   1  23
ATOM     23  C   UNL A   1      31.526  29.610  25.774  1.00  0.00     0.275 C 
BRANCH  23  24
ATOM     24  O   UNL A   1      32.801  30.272  25.724  1.00  0.00    -0.458 OA
BRANCH  24  25
ATOM     25  C   UNL A   1      33.077  31.088  26.769  1.00  0.00     0.338 C 
ATOM     26  O   UNL A   1      32.332  31.925  27.250  1.00  0.00    -0.246 OA
BRANCH  25  27
ATOM     27  C   UNL A   1      34.418  30.787  27.326  1.00  0.00     0.060 A 
ATOM     28  C   UNL A   1      34.800  29.482  27.641  1.00  0.00     0.016 A 
ATOM     29  C   UNL A   1      35.259  31.848  27.672  1.00  0.00     0.016 A 
ATOM     30  C   UNL A   1      35.936  29.256  28.419  1.00  0.00     0.010 A 
ATOM     31  C   UNL A   1      36.463  31.602  28.342  1.00  0.00     0.010 A 
ATOM     32  C   UNL A   1      36.799  30.306  28.765  1.00  0.00    -0.014 A 
BRANCH  32  33
ATOM     33  C   UNL A   1      38.028  30.064  29.578  1.00  0.00     0.031 A 
ATOM     34  C   UNL A   1      39.173  29.259  29.017  1.00  0.00     0.074 A 
ATOM     35  C   UNL A   1      38.137  30.562  30.826  1.00  0.00     0.049 A 
ATOM     36  N   UNL A   1      40.190  28.717  29.642  1.00  0.00    -0.248 NA
ATOM     37  C   UNL A   1      39.168  29.018  27.567  1.00  0.00     0.031 C 
ATOM     38  C   UNL A   1      37.152  31.413  31.492  1.00  0.00     0.029 A 
ATOM     39  N   UNL A   1      39.140  30.430  31.758  1.00  0.00    -0.354 N 
ATOM     40  C   UNL A   1      40.898  28.011  28.678  1.00  0.00     0.074 A 
ATOM     41  C   UNL A   1      40.208  28.207  27.421  1.00  0.00     0.031 C 
ATOM     42  C   UNL A   1      37.623  31.780  32.692  1.00  0.00     0.029 A 
ATOM     43  C   UNL A   1      38.890  31.098  32.931  1.00  0.00     0.049 A 
ATOM     44  H   UNL A   1      39.958  29.907  31.599  1.00  0.00     0.167 HD
ATOM     45  C   UNL A   1      42.016  27.262  28.834  1.00  0.00     0.037 A 
ATOM     46  C   UNL A   1      39.569  31.125  34.094  1.00  0.00     0.037 A 
ATOM     47  C   UNL A   1      42.748  27.136  30.069  1.00  0.00     0.049 A 
ATOM     48  C   UNL A   1      40.794  30.275  34.254  1.00  0.00     0.074 A 
ATOM     49  C   UNL A   1      43.891  26.396  30.325  1.00  0.00     0.029 A 
ATOM     50  N   UNL A   1      42.427  27.793  31.247  1.00  0.00    -0.354 N 
ATOM     51  N   UNL A   1      41.379  29.500  33.375  1.00  0.00    -0.248 NA
ATOM     52  C   UNL A   1      41.428  30.270  35.579  1.00  0.00     0.031 C 
ATOM     53  C   UNL A   1      44.250  26.592  31.662  1.00  0.00     0.029 A 
ATOM     54  C   UNL A   1      43.349  27.476  32.231  1.00  0.00     0.049 A 
ATOM     55  H   UNL A   1      41.657  28.395  31.366  1.00  0.00     0.167 HD
ATOM     56  C   UNL A   1      42.441  28.905  34.040  1.00  0.00     0.074 A 
ATOM     57  C   UNL A   1      42.438  29.430  35.390  1.00  0.00     0.031 C 
ATOM     58  C   UNL A   1      43.329  27.996  33.574  1.00  0.00     0.037 A 
BRANCH  45  59
ATOM     59  C   UNL A   1      42.512  26.485  27.651  1.00  0.00     0.064 A 
ATOM     60  C   UNL A   1      41.989  25.209  27.381  1.00  0.00     0.173 A 
ATOM     61  C   UNL A   1      43.546  26.958  26.831  1.00  0.00     0.173 A 
ATOM     62  F   UNL A   1      41.007  24.707  28.143  1.00  0.00    -0.203 F 
ATOM     63  C   UNL A   1      42.492  24.433  26.341  1.00  0.00     0.198 A 
ATOM     64  C   UNL A   1      44.030  26.188  25.777  1.00  0.00     0.198 A 
ATOM     65  F   UNL A   1      44.072  28.173  27.044  1.00  0.00    -0.203 F 
ATOM     66  F   UNL A   1      41.999  23.206  26.123  1.00  0.00    -0.200 F 
ATOM     67  C   UNL A   1      43.510  24.924  25.538  1.00  0.00     0.200 A 
ATOM     68  F   UNL A   1      45.003  26.668  24.990  1.00  0.00    -0.200 F 
ATOM     69  F   UNL A   1      43.990  24.177  24.534  1.00  0.00    -0.200 F 
ENDBRANCH  45  59
BRANCH  46  70
ATOM     70  C   UNL A   1      39.059  31.960  35.209  1.00  0.00     0.064 A 
ATOM     71  C   UNL A   1      39.340  33.333  35.282  1.00  0.00     0.173 A 
ATOM     72  C   UNL A   1      38.335  31.382  36.260  1.00  0.00     0.173 A 
ATOM     73  F   UNL A   1      40.029  33.929  34.299  1.00  0.00    -0.203 F 
ATOM     74  C   UNL A   1      38.952  34.088  36.385  1.00  0.00     0.198 A 
ATOM     75  C   UNL A   1      37.925  32.145  37.351  1.00  0.00     0.198 A 
ATOM     76  F   UNL A   1      38.020  30.079  36.219  1.00  0.00    -0.203 F 
ATOM     77  F   UNL A   1      39.279  35.385  36.455  1.00  0.00    -0.200 F 
ATOM     78  C   UNL A   1      38.245  33.493  37.419  1.00  0.00     0.200 A 
ATOM     79  F   UNL A   1      37.222  31.573  38.339  1.00  0.00    -0.200 F 
ATOM     80  F   UNL A   1      37.875  34.219  38.483  1.00  0.00    -0.200 F 
ENDBRANCH  46  70
BRANCH  58  81
ATOM     81  C   UNL A   1      44.372  27.504  34.527  1.00  0.00     0.064 A 
ATOM     82  C   UNL A   1      45.599  28.170  34.649  1.00  0.00     0.173 A 
ATOM     83  C   UNL A   1      44.172  26.340  35.283  1.00  0.00     0.173 A 
ATOM     84  F   UNL A   1      45.836  29.285  33.943  1.00  0.00    -0.203 F 
ATOM     85  C   UNL A   1      46.596  27.681  35.488  1.00  0.00     0.198 A 
ATOM     86  C   UNL A   1      45.164  25.864  36.135  1.00  0.00     0.198 A 
ATOM     87  F   UNL A   1      43.007  25.678  35.209  1.00  0.00    -0.203 F 
ATOM     88  F   UNL A   1      47.769  28.322  35.577  1.00  0.00    -0.200 F 
ATOM     89  C   UNL A   1      46.377  26.532  36.233  1.00  0.00     0.200 A 
ATOM     90  F   UNL A   1      44.945  24.765  36.869  1.00  0.00    -0.200 F 
ATOM     91  F   UNL A   1      47.334  26.069  37.049  1.00  0.00    -0.200 F 
ENDBRANCH  58  81
ENDBRANCH  32  33
ENDBRANCH  25  27
ENDBRANCH  24  25
ENDBRANCH  23  24
ENDBRANCH   1  23
TORSDOF 14
ENDMDL
MODEL 2
REMARK VINA RESULT:     -12.4      0.109      1.138
REMARK SMILES O=C(Cc1ccc(F)c(F)c1)N[C@H]1COC[C@@H]1C(=O)OCCOC(=O)c1ccc(-c2c3nc(c(-c4c(F)c(F)c(F)c(F)c4F)c4ccc([nH]4)c(-c4c(F)c(F)c(F)c(F)c4F)c4nc(c(-c5c(F)c(F)c(F)c(F)c5F)c5ccc2[nH]5)C=C4)C=C3)cc1
REMARK SMILES IDX 21 1 20 2 18 3 19 4 17 5 13 6 14 7 15 8 16 9 12 10 1 11 2 12
REMARK SMILES IDX 3 14 4 15 5 16 11 17 6 18 9 19 7 20 10 21 8 22 22 23 23 24
REMARK SMILES IDX 24 25 25 26 26 27 27 28 88 29 28 30 87 31 29 32 30 33 31 34
REMARK SMILES IDX 81 35 32 36 86 37 80 38 82 39 33 40 85 41 79 42 78 43 34 45
REMARK SMILES IDX 66 46 46 47 65 48 47 49 50 50 64 51 83 52 48 53 49 54 63 56
REMARK SMILES IDX 84 57 51 58 35 59 36 60 44 61 37 62 38 63 42 64 45 65 39 66
REMARK SMILES IDX 40 67 43 68 41 69 67 70 68 71 76 72 69 73 70 74 74 75 77 76
REMARK SMILES IDX 71 77 72 78 75 79 73 80 52 81 53 82 61 83 54 84 55 85 59 86
REMARK SMILES IDX 62 87 56 88 57 89 60 90 58 91
REMARK H PARENT 12 13 82 44 50 55
REMARK Flexibility Score: inf
ROOT
ATOM      1  C   UNL A   1      31.071  29.298  24.375  1.00  0.00     0.274 C 
ENDROOT
BRANCH   1   2
ATOM      2  O   UNL A   1      30.826  27.878  24.230  1.00  0.00    -0.462 OA
BRANCH   2   3
ATOM      3  C   UNL A   1      30.898  27.405  22.955  1.00  0.00     0.313 C 
ATOM      4  O   UNL A   1      30.296  27.896  22.007  1.00  0.00    -0.252 OA
BRANCH   3   5
ATOM      5  C   UNL A   1      31.690  26.112  22.866  1.00  0.00     0.149 C 
ATOM      6  C   UNL A   1      33.011  26.098  23.625  1.00  0.00     0.124 C 
ATOM      7  C   UNL A   1      33.928  26.838  22.653  1.00  0.00     0.186 C 
ATOM      8  O   UNL A   1      33.419  26.621  21.326  1.00  0.00    -0.378 OA
ATOM      9  C   UNL A   1      32.171  25.926  21.436  1.00  0.00     0.177 C 
BRANCH   6  10
ATOM     10  N   UNL A   1      33.432  24.710  23.877  1.00  0.00    -0.350 N 
ATOM     11  O   UNL A   1      33.221  24.772  26.167  1.00  0.00    -0.275 OA
ATOM     12  C   UNL A   1      33.490  24.158  25.140  1.00  0.00     0.224 C 
ATOM     13  H   UNL A   1      33.685  24.149  23.107  1.00  0.00     0.163 HD
BRANCH  12  14
ATOM     14  C   UNL A   1      33.829  22.679  25.156  1.00  0.00     0.135 C 
BRANCH  14  15
ATOM     15  C   UNL A   1      35.312  22.397  25.257  1.00  0.00    -0.036 A 
ATOM     16  C   UNL A   1      36.166  23.420  25.704  1.00  0.00     0.007 A 
ATOM     17  C   UNL A   1      35.869  21.144  24.947  1.00  0.00     0.046 A 
ATOM     18  C   UNL A   1      37.541  23.199  25.823  1.00  0.00     0.043 A 
ATOM     19  C   UNL A   1      37.239  20.934  25.062  1.00  0.00     0.159 A 
ATOM     20  C   UNL A   1      38.070  21.955  25.497  1.00  0.00     0.158 A 
ATOM     21  F   UNL A   1      37.745  19.735  24.746  1.00  0.00    -0.204 F 
ATOM     22  F   UNL A   1      39.389  21.750  25.607  1.00  0.00    -0.204 F 
ENDBRANCH  14  15
ENDBRANCH  12  14
ENDBRANCH   6  10
ENDBRANCH   3   5
ENDBRANCH   2   3
ENDBRANCH   1   2
BRANCH   1  23
ATOM     23  C   UNL A   1      31.529  29.635  25.792  1.00  0.00     0.275 C 
BRANCH  23  24
ATOM     24  O   UNL A   1      32.795  30.311  25.735  1.00  0.00    -0.458 OA
BRANCH  24  25
ATOM     25  C   UNL A   1      33.071  31.124  26.783  1.00  0.00     0.338 C 
ATOM     26  O   UNL A   1      32.321  31.950  27.275  1.00  0.00    -0.246 OA
BRANCH  25  27
ATOM     27  C   UNL A   1      34.420  30.835  27.327  1.00  0.00     0.060 A 
ATOM     28  C   UNL A   1      34.825  29.531  27.614  1.00  0.00     0.016 A 
ATOM     29  C   UNL A   1      35.245  31.902  27.689  1.00  0.00     0.016 A 
ATOM     30  C   UNL A   1      35.970  29.308  28.381  1.00  0.00     0.010 A 
ATOM     31  C   UNL A   1      36.457  31.664  28.348  1.00  0.00     0.010 A 
ATOM     32  C   UNL A   1      36.817  30.365  28.743  1.00  0.00    -0.014 A 
BRANCH  32  33
ATOM     33  C   UNL A   1      38.054  30.129  29.545  1.00  0.00     0.031 A 
ATOM     34  C   UNL A   1      39.196  29.325  28.975  1.00  0.00     0.074 A 
ATOM     35  C   UNL A   1      38.174  30.629  30.791  1.00  0.00     0.049 A 
ATOM     36  N   UNL A   1      40.220  28.787  29.591  1.00  0.00    -0.248 NA
ATOM     37  C   UNL A   1      39.178  29.082  27.525  1.00  0.00     0.031 C 
ATOM     38  C   UNL A   1      37.193  31.480  31.465  1.00  0.00     0.029 A 
ATOM     39  N   UNL A   1      39.186  30.502  31.714  1.00  0.00    -0.354 N 
ATOM     40  C   UNL A   1      40.920  28.081  28.622  1.00  0.00     0.074 A 
ATOM     41  C   UNL A   1      40.218  28.273  27.371  1.00  0.00     0.031 C 
ATOM     42  C   UNL A   1      37.674  31.850  32.659  1.00  0.00     0.029 A 
ATOM     43  C   UNL A   1      38.946  31.172  32.888  1.00  0.00     0.049 A 
ATOM     44  H   UNL A   1      40.004  29.980  31.548  1.00  0.00     0.167 HD
ATOM     45  C   UNL A   1      42.042  27.335  28.769  1.00  0.00     0.037 A 
ATOM     46  C   UNL A   1      39.636  31.203  34.044  1.00  0.00     0.037 A 
ATOM     47  C   UNL A   1      42.786  27.213  29.997  1.00  0.00     0.049 A 
ATOM     48  C   UNL A   1      40.864  30.356  34.194  1.00  0.00     0.074 A 
ATOM     49  C   UNL A   1      43.933  26.477  30.243  1.00  0.00     0.029 A 
ATOM     50  N   UNL A   1      42.474  27.872  31.176  1.00  0.00    -0.354 N 
ATOM     51  N   UNL A   1      41.442  29.581  33.311  1.00  0.00    -0.248 NA
ATOM     52  C   UNL A   1      41.511  30.355  35.513  1.00  0.00     0.031 C 
ATOM     53  C   UNL A   1      44.304  26.676  31.577  1.00  0.00     0.029 A 
ATOM     54  C   UNL A   1      43.407  27.560  32.152  1.00  0.00     0.049 A 
ATOM     55  H   UNL A   1      41.704  28.472  31.301  1.00  0.00     0.167 HD
ATOM     56  C   UNL A   1      42.512  28.990  33.967  1.00  0.00     0.074 A 
ATOM     57  C   UNL A   1      42.521  29.518  35.316  1.00  0.00     0.031 C 
ATOM     58  C   UNL A   1      43.398  28.082  33.494  1.00  0.00     0.037 A 
BRANCH  45  59
ATOM     59  C   UNL A   1      42.528  26.557  27.583  1.00  0.00     0.064 A 
ATOM     60  C   UNL A   1      42.026  25.269  27.336  1.00  0.00     0.173 A 
ATOM     61  C   UNL A   1      43.535  27.042  26.737  1.00  0.00     0.173 A 
ATOM     62  F   UNL A   1      41.070  24.754  28.123  1.00  0.00    -0.203 F 
ATOM     63  C   UNL A   1      42.522  24.492  26.293  1.00  0.00     0.198 A 
ATOM     64  C   UNL A   1      44.012  26.272  25.679  1.00  0.00     0.198 A 
ATOM     65  F   UNL A   1      44.041  28.270  26.927  1.00  0.00    -0.203 F 
ATOM     66  F   UNL A   1      42.049  23.254  26.096  1.00  0.00    -0.200 F 
ATOM     67  C   UNL A   1      43.513  24.996  25.463  1.00  0.00     0.200 A 
ATOM     68  F   UNL A   1      44.959  26.764  24.868  1.00  0.00    -0.200 F 
ATOM     69  F   UNL A   1      43.987  24.249  24.456  1.00  0.00    -0.200 F 
ENDBRANCH  45  59
BRANCH  46  70
ATOM     70  C   UNL A   1      39.134  32.039  35.162  1.00  0.00     0.064 A 
ATOM     71  C   UNL A   1      39.434  33.407  35.243  1.00  0.00     0.173 A 
ATOM     72  C   UNL A   1      38.400  31.466  36.208  1.00  0.00     0.173 A 
ATOM     73  F   UNL A   1      40.133  34.000  34.264  1.00  0.00    -0.203 F 
ATOM     74  C   UNL A   1      39.053  34.162  36.349  1.00  0.00     0.198 A 
ATOM     75  C   UNL A   1      37.997  32.228  37.302  1.00  0.00     0.198 A 
ATOM     76  F   UNL A   1      38.067  30.168  36.160  1.00  0.00    -0.203 F 
ATOM     77  F   UNL A   1      39.398  35.454  36.427  1.00  0.00    -0.200 F 
ATOM     78  C   UNL A   1      38.336  33.572  37.378  1.00  0.00     0.200 A 
ATOM     79  F   UNL A   1      37.285  31.661  38.286  1.00  0.00    -0.200 F 
ATOM     80  F   UNL A   1      37.973  34.297  38.445  1.00  0.00    -0.200 F 
ENDBRANCH  46  70
BRANCH  58  81
ATOM     81  C   UNL A   1      44.452  27.594  34.439  1.00  0.00     0.064 A 
ATOM     82  C   UNL A   1      44.221  26.475  35.250  1.00  0.00     0.173 A 
ATOM     83  C   UNL A   1      45.672  28.271  34.575  1.00  0.00     0.173 A 
ATOM     84  F   UNL A   1      43.067  25.799  35.156  1.00  0.00    -0.203 F 
ATOM     85  C   UNL A   1      45.174  26.055  36.173  1.00  0.00     0.198 A 
ATOM     86  C   UNL A   1      46.630  27.837  35.486  1.00  0.00     0.198 A 
ATOM     87  F   UNL A   1      45.942  29.339  33.808  1.00  0.00    -0.203 F 
ATOM     88  F   UNL A   1      44.927  24.993  36.953  1.00  0.00    -0.200 F 
ATOM     89  C   UNL A   1      46.378  26.733  36.289  1.00  0.00     0.200 A 
ATOM     90  F   UNL A   1      47.801  28.481  35.584  1.00  0.00    -0.200 F 
ATOM     91  F   UNL A   1      47.299  26.321  37.171  1.00  0.00    -0.200 F 
ENDBRANCH  58  81
ENDBRANCH  32  33
ENDBRANCH  25  27
ENDBRANCH  24  25
ENDBRANCH  23  24
ENDBRANCH   1  23
TORSDOF 14
ENDMDL
MODEL 3
REMARK VINA RESULT:     -12.3      1.148      2.303
REMARK SMILES O=C(Cc1ccc(F)c(F)c1)N[C@H]1COC[C@@H]1C(=O)OCCOC(=O)c1ccc(-c2c3nc(c(-c4c(F)c(F)c(F)c(F)c4F)c4ccc([nH]4)c(-c4c(F)c(F)c(F)c(F)c4F)c4nc(c(-c5c(F)c(F)c(F)c(F)c5F)c5ccc2[nH]5)C=C4)C=C3)cc1
REMARK SMILES IDX 21 1 20 2 18 3 19 4 17 5 13 6 14 7 15 8 16 9 12 10 1 11 2 12
REMARK SMILES IDX 3 14 4 15 5 16 11 17 6 18 9 19 7 20 10 21 8 22 22 23 23 24
REMARK SMILES IDX 24 25 25 26 26 27 27 28 88 29 28 30 87 31 29 32 30 33 31 34
REMARK SMILES IDX 81 35 32 36 86 37 80 38 82 39 33 40 85 41 79 42 78 43 34 45
REMARK SMILES IDX 66 46 46 47 65 48 47 49 50 50 64 51 83 52 48 53 49 54 63 56
REMARK SMILES IDX 84 57 51 58 35 59 36 60 44 61 37 62 38 63 42 64 45 65 39 66
REMARK SMILES IDX 40 67 43 68 41 69 67 70 68 71 76 72 69 73 70 74 74 75 77 76
REMARK SMILES IDX 71 77 72 78 75 79 73 80 52 81 53 82 61 83 54 84 55 85 59 86
REMARK SMILES IDX 62 87 56 88 57 89 60 90 58 91
REMARK H PARENT 12 13 82 44 50 55
REMARK Flexibility Score: inf
ROOT
ATOM      1  C   UNL A   1      31.791  28.652  25.010  1.00  0.00     0.274 C 
ENDROOT
BRANCH   1   2
ATOM      2  O   UNL A   1      32.688  27.707  25.641  1.00  0.00    -0.462 OA
BRANCH   2   3
ATOM      3  C   UNL A   1      32.084  26.758  26.409  1.00  0.00     0.313 C 
ATOM      4  O   UNL A   1      31.352  27.010  27.359  1.00  0.00    -0.252 OA
BRANCH   3   5
ATOM      5  C   UNL A   1      32.535  25.354  26.047  1.00  0.00     0.149 C 
ATOM      6  C   UNL A   1      32.375  24.970  24.581  1.00  0.00     0.124 C 
ATOM      7  C   UNL A   1      30.892  24.612  24.520  1.00  0.00     0.186 C 
ATOM      8  O   UNL A   1      30.502  24.154  25.826  1.00  0.00    -0.378 OA
ATOM      9  C   UNL A   1      31.608  24.350  26.715  1.00  0.00     0.177 C 
BRANCH   6  10
ATOM     10  N   UNL A   1      33.259  23.838  24.258  1.00  0.00    -0.350 N 
ATOM     11  O   UNL A   1      34.544  24.932  22.694  1.00  0.00    -0.275 OA
ATOM     12  C   UNL A   1      34.286  23.921  23.340  1.00  0.00     0.224 C 
ATOM     13  H   UNL A   1      33.110  22.980  24.719  1.00  0.00     0.163 HD
BRANCH  12  14
ATOM     14  C   UNL A   1      35.146  22.675  23.256  1.00  0.00     0.135 C 
BRANCH  14  15
ATOM     15  C   UNL A   1      36.278  22.650  24.261  1.00  0.00    -0.036 A 
ATOM     16  C   UNL A   1      37.021  21.467  24.413  1.00  0.00     0.007 A 
ATOM     17  C   UNL A   1      36.634  23.772  25.030  1.00  0.00     0.046 A 
ATOM     18  C   UNL A   1      38.082  21.404  25.321  1.00  0.00     0.043 A 
ATOM     19  C   UNL A   1      37.686  23.699  25.936  1.00  0.00     0.159 A 
ATOM     20  C   UNL A   1      38.405  22.522  26.081  1.00  0.00     0.158 A 
ATOM     21  F   UNL A   1      37.995  24.778  26.667  1.00  0.00    -0.204 F 
ATOM     22  F   UNL A   1      39.419  22.455  26.955  1.00  0.00    -0.204 F 
ENDBRANCH  14  15
ENDBRANCH  12  14
ENDBRANCH   6  10
ENDBRANCH   3   5
ENDBRANCH   2   3
ENDBRANCH   1   2
BRANCH   1  23
ATOM     23  C   UNL A   1      32.149  30.087  25.390  1.00  0.00     0.275 C 
BRANCH  23  24
ATOM     24  O   UNL A   1      32.489  30.140  26.785  1.00  0.00    -0.458 OA
BRANCH  24  25
ATOM     25  C   UNL A   1      33.128  31.263  27.188  1.00  0.00     0.338 C 
ATOM     26  O   UNL A   1      32.663  32.390  27.216  1.00  0.00    -0.246 OA
BRANCH  25  27
ATOM     27  C   UNL A   1      34.493  30.942  27.674  1.00  0.00     0.060 A 
ATOM     28  C   UNL A   1      34.878  29.629  27.944  1.00  0.00     0.016 A 
ATOM     29  C   UNL A   1      35.358  31.990  27.999  1.00  0.00     0.016 A 
ATOM     30  C   UNL A   1      36.049  29.378  28.661  1.00  0.00     0.010 A 
ATOM     31  C   UNL A   1      36.590  31.722  28.606  1.00  0.00     0.010 A 
ATOM     32  C   UNL A   1      36.936  30.415  28.986  1.00  0.00    -0.014 A 
BRANCH  32  33
ATOM     33  C   UNL A   1      38.201  30.149  29.734  1.00  0.00     0.031 A 
ATOM     34  C   UNL A   1      39.301  29.325  29.112  1.00  0.00     0.074 A 
ATOM     35  C   UNL A   1      38.383  30.639  30.976  1.00  0.00     0.049 A 
ATOM     36  N   UNL A   1      40.338  28.763  29.682  1.00  0.00    -0.248 NA
ATOM     37  C   UNL A   1      39.217  29.091  27.663  1.00  0.00     0.031 C 
ATOM     38  C   UNL A   1      37.448  31.505  31.695  1.00  0.00     0.029 A 
ATOM     39  N   UNL A   1      39.430  30.485  31.855  1.00  0.00    -0.354 N 
ATOM     40  C   UNL A   1      40.983  28.049  28.680  1.00  0.00     0.074 A 
ATOM     41  C   UNL A   1      40.233  28.262  27.461  1.00  0.00     0.031 C 
ATOM     42  C   UNL A   1      37.987  31.858  32.870  1.00  0.00     0.029 A 
ATOM     43  C   UNL A   1      39.252  31.153  33.041  1.00  0.00     0.049 A 
ATOM     44  H   UNL A   1      40.229  29.948  31.653  1.00  0.00     0.167 HD
ATOM     45  C   UNL A   1      42.094  27.279  28.776  1.00  0.00     0.037 A 
ATOM     46  C   UNL A   1      39.991  31.162  34.168  1.00  0.00     0.037 A 
ATOM     47  C   UNL A   1      42.887  27.135  29.971  1.00  0.00     0.049 A 
ATOM     48  C   UNL A   1      41.207  30.290  34.261  1.00  0.00     0.074 A 
ATOM     49  C   UNL A   1      44.027  26.374  30.165  1.00  0.00     0.029 A 
ATOM     50  N   UNL A   1      42.638  27.792  31.166  1.00  0.00    -0.354 N 
ATOM     51  N   UNL A   1      41.732  29.509  33.351  1.00  0.00    -0.248 NA
ATOM     52  C   UNL A   1      41.908  30.269  35.553  1.00  0.00     0.031 C 
ATOM     53  C   UNL A   1      44.458  26.557  31.483  1.00  0.00     0.029 A 
ATOM     54  C   UNL A   1      43.604  27.455  32.100  1.00  0.00     0.049 A 
ATOM     55  H   UNL A   1      41.886  28.407  31.327  1.00  0.00     0.167 HD
ATOM     56  C   UNL A   1      42.816  28.893  33.959  1.00  0.00     0.074 A 
ATOM     57  C   UNL A   1      42.892  29.412  35.309  1.00  0.00     0.031 C 
ATOM     58  C   UNL A   1      43.662  27.970  33.444  1.00  0.00     0.037 A 
BRANCH  45  59
ATOM     59  C   UNL A   1      42.515  26.498  27.567  1.00  0.00     0.064 A 
ATOM     60  C   UNL A   1      41.983  25.218  27.339  1.00  0.00     0.173 A 
ATOM     61  C   UNL A   1      43.488  26.973  26.677  1.00  0.00     0.173 A 
ATOM     62  F   UNL A   1      41.057  24.715  28.168  1.00  0.00    -0.203 F 
ATOM     63  C   UNL A   1      42.420  24.439  26.272  1.00  0.00     0.198 A 
ATOM     64  C   UNL A   1      43.905  26.200  25.596  1.00  0.00     0.198 A 
ATOM     65  F   UNL A   1      44.020  28.192  26.847  1.00  0.00    -0.203 F 
ATOM     66  F   UNL A   1      41.921  23.208  26.093  1.00  0.00    -0.200 F 
ATOM     67  C   UNL A   1      43.378  24.931  25.400  1.00  0.00     0.200 A 
ATOM     68  F   UNL A   1      44.821  26.682  24.743  1.00  0.00    -0.200 F 
ATOM     69  F   UNL A   1      43.796  24.182  24.369  1.00  0.00    -0.200 F 
ENDBRANCH  45  59
BRANCH  46  70
ATOM     70  C   UNL A   1      39.554  32.002  35.310  1.00  0.00     0.064 A 
ATOM     71  C   UNL A   1      38.633  31.527  36.257  1.00  0.00     0.173 A 
ATOM     72  C   UNL A   1      40.001  33.323  35.437  1.00  0.00     0.173 A 
ATOM     73  F   UNL A   1      38.178  30.268  36.176  1.00  0.00    -0.203 F 
ATOM     74  C   UNL A   1      38.144  32.355  37.262  1.00  0.00     0.198 A 
ATOM     75  C   UNL A   1      39.530  34.144  36.459  1.00  0.00     0.198 A 
ATOM     76  F   UNL A   1      40.902  33.811  34.571  1.00  0.00    -0.203 F 
ATOM     77  F   UNL A   1      37.225  31.894  38.121  1.00  0.00    -0.200 F 
ATOM     78  C   UNL A   1      38.592  33.664  37.363  1.00  0.00     0.200 A 
ATOM     79  F   UNL A   1      39.982  35.401  36.568  1.00  0.00    -0.200 F 
ATOM     80  F   UNL A   1      38.119  34.463  38.329  1.00  0.00    -0.200 F 
ENDBRANCH  46  70
BRANCH  58  81
ATOM     81  C   UNL A   1      44.744  27.455  34.341  1.00  0.00     0.064 A 
ATOM     82  C   UNL A   1      44.527  26.331  35.149  1.00  0.00     0.173 A 
ATOM     83  C   UNL A   1      45.980  28.111  34.436  1.00  0.00     0.173 A 
ATOM     84  F   UNL A   1      43.360  25.674  35.094  1.00  0.00    -0.203 F 
ATOM     85  C   UNL A   1      45.509  25.885  36.030  1.00  0.00     0.198 A 
ATOM     86  C   UNL A   1      46.966  27.652  35.304  1.00  0.00     0.198 A 
ATOM     87  F   UNL A   1      46.236  29.182  33.670  1.00  0.00    -0.203 F 
ATOM     88  F   UNL A   1      45.276  24.819  36.807  1.00  0.00    -0.200 F 
ATOM     89  C   UNL A   1      46.728  26.543  36.105  1.00  0.00     0.200 A 
ATOM     90  F   UNL A   1      48.150  28.276  35.362  1.00  0.00    -0.200 F 
ATOM     91  F   UNL A   1      47.675  26.106  36.945  1.00  0.00    -0.200 F 
ENDBRANCH  58  81
ENDBRANCH  32  33
ENDBRANCH  25  27
ENDBRANCH  24  25
ENDBRANCH  23  24
ENDBRANCH   1  23
TORSDOF 14
ENDMDL
