MODEL 1
REMARK VINA RESULT:     -12.4      0.000      0.000
REMARK SMILES O=C(CC1CC[NH+](C[C@@H]2Cc3ccccc32)CC1)OCCOC(=O)c1ccc(-c2c3nc(c(-c4c(F)c(F)c(F)c(F)c4F)c4ccc([nH]4)c(-c4c(F)c(F)c(F)c(F)c4F)c4nc(c(-c5c(F)c(F)c(F)c(F)c5F)c5ccc2[nH]5)C=C4)C=C3)cc1
REMARK SMILES IDX 20 1 19 2 2 3 1 4 3 5 4 6 5 7 18 8 6 9 17 10 7 11 8 13 9 14
REMARK SMILES IDX 10 15 16 16 11 17 15 18 12 19 14 20 13 21 21 22 22 23 23 24
REMARK SMILES IDX 24 25 25 26 26 27 87 28 27 29 86 30 28 31 29 32 30 33 80 34
REMARK SMILES IDX 31 35 85 36 79 37 81 38 32 39 84 40 78 41 77 42 33 44 65 45
REMARK SMILES IDX 45 46 64 47 46 48 49 49 63 50 82 51 47 52 48 53 62 55 83 56
REMARK SMILES IDX 50 57 34 58 35 59 43 60 36 61 37 62 41 63 44 64 38 65 39 66
REMARK SMILES IDX 42 67 40 68 66 69 67 70 75 71 68 72 69 73 73 74 76 75 70 76
REMARK SMILES IDX 71 77 74 78 72 79 51 80 52 81 60 82 53 83 54 84 58 85 61 86
REMARK SMILES IDX 55 87 56 88 59 89 57 90
REMARK H PARENT 7 12 81 43 49 54
REMARK Flexibility Score: inf
ROOT
ATOM      1  C   UNL A   1      41.996  20.195  26.336  1.00  0.00     0.274 C 
ENDROOT
BRANCH   1   2
ATOM      2  O   UNL A   1      40.719  20.818  26.556  1.00  0.00    -0.462 OA
BRANCH   2   3
ATOM      3  C   UNL A   1      39.622  20.429  25.875  1.00  0.00     0.306 C 
ATOM      4  O   UNL A   1      39.515  19.270  25.489  1.00  0.00    -0.252 OA
BRANCH   3   5
ATOM      5  C   UNL A   1      38.519  21.442  25.657  1.00  0.00     0.126 C 
BRANCH   5   6
ATOM      6  C   UNL A   1      37.434  21.158  24.605  1.00  0.00     0.011 C 
ATOM      7  C   UNL A   1      37.053  22.310  23.676  1.00  0.00     0.066 C 
ATOM      8  C   UNL A   1      36.143  20.679  25.294  1.00  0.00     0.066 C 
ATOM      9  C   UNL A   1      36.337  23.443  24.410  1.00  0.00     0.262 C 
ATOM     10  C   UNL A   1      35.461  21.817  26.066  1.00  0.00     0.262 C 
ATOM     11  N   UNL A   1      35.228  22.997  25.243  1.00  0.00    -0.334 N 
ATOM     12  H   UNL A   1      34.573  22.635  24.551  1.00  0.00     0.348 HD
BRANCH  11  13
ATOM     13  C   UNL A   1      34.501  24.086  25.920  1.00  0.00     0.270 C 
BRANCH  13  14
ATOM     14  C   UNL A   1      33.441  24.947  25.204  1.00  0.00     0.079 C 
ATOM     15  C   UNL A   1      33.200  25.050  23.650  1.00  0.00     0.050 C 
ATOM     16  C   UNL A   1      33.580  26.451  25.177  1.00  0.00    -0.036 A 
ATOM     17  C   UNL A   1      33.360  26.533  23.823  1.00  0.00    -0.043 A 
ATOM     18  C   UNL A   1      33.747  27.578  25.949  1.00  0.00     0.004 A 
ATOM     19  C   UNL A   1      33.328  27.734  23.152  1.00  0.00     0.004 A 
ATOM     20  C   UNL A   1      33.698  28.817  25.300  1.00  0.00     0.000 A 
ATOM     21  C   UNL A   1      33.494  28.894  23.909  1.00  0.00     0.000 A 
ENDBRANCH  13  14
ENDBRANCH  11  13
ENDBRANCH   5   6
ENDBRANCH   3   5
ENDBRANCH   2   3
ENDBRANCH   1   2
BRANCH   1  22
ATOM     22  C   UNL A   1      42.999  21.175  25.713  1.00  0.00     0.275 C 
BRANCH  22  23
ATOM     23  O   UNL A   1      42.319  22.362  25.255  1.00  0.00    -0.458 OA
BRANCH  23  24
ATOM     24  C   UNL A   1      43.069  23.489  25.133  1.00  0.00     0.338 C 
ATOM     25  O   UNL A   1      43.971  23.689  24.351  1.00  0.00    -0.246 OA
BRANCH  24  26
ATOM     26  C   UNL A   1      42.498  24.534  26.018  1.00  0.00     0.060 A 
ATOM     27  C   UNL A   1      43.080  25.805  26.001  1.00  0.00     0.016 A 
ATOM     28  C   UNL A   1      41.414  24.274  26.858  1.00  0.00     0.016 A 
ATOM     29  C   UNL A   1      42.594  26.815  26.837  1.00  0.00     0.010 A 
ATOM     30  C   UNL A   1      40.943  25.281  27.710  1.00  0.00     0.010 A 
ATOM     31  C   UNL A   1      41.547  26.552  27.725  1.00  0.00    -0.014 A 
BRANCH  31  32
ATOM     32  C   UNL A   1      41.229  27.519  28.811  1.00  0.00     0.031 A 
ATOM     33  C   UNL A   1      42.075  27.490  30.055  1.00  0.00     0.074 A 
ATOM     34  C   UNL A   1      40.243  28.427  28.705  1.00  0.00     0.049 A 
ATOM     35  N   UNL A   1      41.914  28.115  31.193  1.00  0.00    -0.248 NA
ATOM     36  C   UNL A   1      43.271  26.636  30.000  1.00  0.00     0.031 C 
ATOM     37  C   UNL A   1      39.412  28.647  27.525  1.00  0.00     0.029 A 
ATOM     38  N   UNL A   1      39.771  29.337  29.624  1.00  0.00    -0.354 N 
ATOM     39  C   UNL A   1      42.967  27.706  31.999  1.00  0.00     0.074 A 
ATOM     40  C   UNL A   1      43.755  26.770  31.225  1.00  0.00     0.031 C 
ATOM     41  C   UNL A   1      38.519  29.616  27.797  1.00  0.00     0.029 A 
ATOM     42  C   UNL A   1      38.681  30.049  29.185  1.00  0.00     0.049 A 
ATOM     43  H   UNL A   1      40.177  29.465  30.512  1.00  0.00     0.167 HD
ATOM     44  C   UNL A   1      43.256  28.073  33.270  1.00  0.00     0.037 A 
ATOM     45  C   UNL A   1      37.883  30.917  29.842  1.00  0.00     0.037 A 
ATOM     46  C   UNL A   1      42.484  29.014  34.038  1.00  0.00     0.049 A 
ATOM     47  C   UNL A   1      38.160  31.236  31.292  1.00  0.00     0.074 A 
ATOM     48  C   UNL A   1      42.690  29.442  35.338  1.00  0.00     0.029 A 
ATOM     49  N   UNL A   1      41.357  29.674  33.574  1.00  0.00    -0.354 N 
ATOM     50  N   UNL A   1      39.132  30.816  32.066  1.00  0.00    -0.248 NA
ATOM     51  C   UNL A   1      37.218  32.145  31.965  1.00  0.00     0.031 C 
ATOM     52  C   UNL A   1      41.654  30.317  35.680  1.00  0.00     0.029 A 
ATOM     53  C   UNL A   1      40.841  30.487  34.571  1.00  0.00     0.049 A 
ATOM     54  H   UNL A   1      40.977  29.580  32.670  1.00  0.00     0.167 HD
ATOM     55  C   UNL A   1      38.941  31.434  33.297  1.00  0.00     0.074 A 
ATOM     56  C   UNL A   1      37.762  32.264  33.168  1.00  0.00     0.031 C 
ATOM     57  C   UNL A   1      39.677  31.326  34.430  1.00  0.00     0.037 A 
BRANCH  44  58
ATOM     58  C   UNL A   1      44.429  27.407  33.928  1.00  0.00     0.064 A 
ATOM     59  C   UNL A   1      45.716  27.963  33.895  1.00  0.00     0.173 A 
ATOM     60  C   UNL A   1      44.256  26.190  34.605  1.00  0.00     0.173 A 
ATOM     61  F   UNL A   1      45.938  29.115  33.244  1.00  0.00    -0.203 F 
ATOM     62  C   UNL A   1      46.794  27.306  34.483  1.00  0.00     0.198 A 
ATOM     63  C   UNL A   1      45.329  25.555  35.222  1.00  0.00     0.198 A 
ATOM     64  F   UNL A   1      43.045  25.617  34.670  1.00  0.00    -0.203 F 
ATOM     65  F   UNL A   1      48.026  27.824  34.386  1.00  0.00    -0.200 F 
ATOM     66  C   UNL A   1      46.599  26.106  35.151  1.00  0.00     0.200 A 
ATOM     67  F   UNL A   1      45.134  24.402  35.877  1.00  0.00    -0.200 F 
ATOM     68  F   UNL A   1      47.636  25.475  35.717  1.00  0.00    -0.200 F 
ENDBRANCH  44  58
BRANCH  45  69
ATOM     69  C   UNL A   1      36.713  31.525  29.152  1.00  0.00     0.064 A 
ATOM     70  C   UNL A   1      36.686  32.889  28.831  1.00  0.00     0.173 A 
ATOM     71  C   UNL A   1      35.579  30.761  28.834  1.00  0.00     0.173 A 
ATOM     72  F   UNL A   1      37.730  33.671  29.144  1.00  0.00    -0.203 F 
ATOM     73  C   UNL A   1      35.567  33.469  28.235  1.00  0.00     0.198 A 
ATOM     74  C   UNL A   1      34.473  31.335  28.210  1.00  0.00     0.198 A 
ATOM     75  F   UNL A   1      35.544  29.454  29.131  1.00  0.00    -0.203 F 
ATOM     76  F   UNL A   1      35.548  34.786  27.989  1.00  0.00    -0.200 F 
ATOM     77  C   UNL A   1      34.464  32.690  27.918  1.00  0.00     0.200 A 
ATOM     78  F   UNL A   1      33.413  30.576  27.900  1.00  0.00    -0.200 F 
ATOM     79  F   UNL A   1      33.390  33.247  27.344  1.00  0.00    -0.200 F 
ENDBRANCH  45  69
BRANCH  57  80
ATOM     80  C   UNL A   1      39.276  32.162  35.614  1.00  0.00     0.064 A 
ATOM     81  C   UNL A   1      38.438  31.666  36.624  1.00  0.00     0.173 A 
ATOM     82  C   UNL A   1      39.789  33.459  35.768  1.00  0.00     0.173 A 
ATOM     83  F   UNL A   1      37.910  30.437  36.521  1.00  0.00    -0.203 F 
ATOM     84  C   UNL A   1      38.115  32.446  37.732  1.00  0.00     0.198 A 
ATOM     85  C   UNL A   1      39.490  34.224  36.892  1.00  0.00     0.198 A 
ATOM     86  F   UNL A   1      40.602  33.980  34.836  1.00  0.00    -0.203 F 
ATOM     87  F   UNL A   1      37.279  31.967  38.664  1.00  0.00    -0.200 F 
ATOM     88  C   UNL A   1      38.648  33.719  37.870  1.00  0.00     0.200 A 
ATOM     89  F   UNL A   1      40.020  35.447  37.031  1.00  0.00    -0.200 F 
ATOM     90  F   UNL A   1      38.346  34.461  38.944  1.00  0.00    -0.200 F 
ENDBRANCH  57  80
ENDBRANCH  31  32
ENDBRANCH  24  26
ENDBRANCH  23  24
ENDBRANCH  22  23
ENDBRANCH   1  22
TORSDOF 14
ENDMDL
MODEL 2
REMARK VINA RESULT:     -12.0      4.980     11.107
REMARK SMILES O=C(CC1CC[NH+](C[C@@H]2Cc3ccccc32)CC1)OCCOC(=O)c1ccc(-c2c3nc(c(-c4c(F)c(F)c(F)c(F)c4F)c4ccc([nH]4)c(-c4c(F)c(F)c(F)c(F)c4F)c4nc(c(-c5c(F)c(F)c(F)c(F)c5F)c5ccc2[nH]5)C=C4)C=C3)cc1
REMARK SMILES IDX 20 1 19 2 2 3 1 4 3 5 4 6 5 7 18 8 6 9 17 10 7 11 8 13 9 14
REMARK SMILES IDX 10 15 16 16 11 17 15 18 12 19 14 20 13 21 21 22 22 23 23 24
REMARK SMILES IDX 24 25 25 26 26 27 87 28 27 29 86 30 28 31 29 32 30 33 80 34
REMARK SMILES IDX 31 35 85 36 79 37 81 38 32 39 84 40 78 41 77 42 33 44 65 45
REMARK SMILES IDX 45 46 64 47 46 48 49 49 63 50 82 51 47 52 48 53 62 55 83 56
REMARK SMILES IDX 50 57 34 58 35 59 43 60 36 61 37 62 41 63 44 64 38 65 39 66
REMARK SMILES IDX 42 67 40 68 66 69 67 70 75 71 68 72 69 73 73 74 76 75 70 76
REMARK SMILES IDX 71 77 74 78 72 79 51 80 52 81 60 82 53 83 54 84 58 85 61 86
REMARK SMILES IDX 55 87 56 88 59 89 57 90
REMARK H PARENT 7 12 81 43 49 54
REMARK Flexibility Score: inf
ROOT
ATOM      1  C   UNL A   1      33.750  34.564  28.871  1.00  0.00     0.274 C 
ENDROOT
BRANCH   1   2
ATOM      2  O   UNL A   1      32.692  34.975  29.754  1.00  0.00    -0.462 OA
BRANCH   2   3
ATOM      3  C   UNL A   1      32.923  35.817  30.782  1.00  0.00     0.306 C 
ATOM      4  O   UNL A   1      32.103  36.684  31.065  1.00  0.00    -0.252 OA
BRANCH   3   5
ATOM      5  C   UNL A   1      34.184  35.623  31.596  1.00  0.00     0.126 C 
BRANCH   5   6
ATOM      6  C   UNL A   1      34.078  35.075  33.029  1.00  0.00     0.011 C 
ATOM      7  C   UNL A   1      35.348  35.104  33.876  1.00  0.00     0.066 C 
ATOM      8  C   UNL A   1      33.577  33.620  33.001  1.00  0.00     0.066 C 
ATOM      9  C   UNL A   1      36.416  34.137  33.365  1.00  0.00     0.262 C 
ATOM     10  C   UNL A   1      34.644  32.668  32.441  1.00  0.00     0.262 C 
ATOM     11  N   UNL A   1      35.923  32.787  33.128  1.00  0.00    -0.334 N 
ATOM     12  H   UNL A   1      35.677  32.481  34.069  1.00  0.00     0.348 HD
BRANCH  11  13
ATOM     13  C   UNL A   1      36.955  31.835  32.679  1.00  0.00     0.270 C 
BRANCH  13  14
ATOM     14  C   UNL A   1      37.767  30.965  33.660  1.00  0.00     0.079 C 
ATOM     15  C   UNL A   1      39.167  31.316  34.295  1.00  0.00     0.050 C 
ATOM     16  C   UNL A   1      38.423  29.693  33.178  1.00  0.00    -0.036 A 
ATOM     17  C   UNL A   1      39.636  30.002  33.744  1.00  0.00    -0.043 A 
ATOM     18  C   UNL A   1      38.212  28.494  32.536  1.00  0.00     0.004 A 
ATOM     19  C   UNL A   1      40.720  29.156  33.674  1.00  0.00     0.004 A 
ATOM     20  C   UNL A   1      39.288  27.601  32.467  1.00  0.00     0.000 A 
ATOM     21  C   UNL A   1      40.535  27.932  33.030  1.00  0.00     0.000 A 
ENDBRANCH  13  14
ENDBRANCH  11  13
ENDBRANCH   5   6
ENDBRANCH   3   5
ENDBRANCH   2   3
ENDBRANCH   1   2
BRANCH   1  22
ATOM     22  C   UNL A   1      33.358  33.316  28.068  1.00  0.00     0.275 C 
BRANCH  22  23
ATOM     23  O   UNL A   1      34.520  32.496  27.823  1.00  0.00    -0.458 OA
BRANCH  23  24
ATOM     24  C   UNL A   1      34.337  31.150  27.860  1.00  0.00     0.338 C 
ATOM     25  O   UNL A   1      33.316  30.540  27.633  1.00  0.00    -0.246 OA
BRANCH  24  26
ATOM     26  C   UNL A   1      35.655  30.501  28.069  1.00  0.00     0.060 A 
ATOM     27  C   UNL A   1      35.931  29.953  29.326  1.00  0.00     0.016 A 
ATOM     28  C   UNL A   1      36.610  30.434  27.054  1.00  0.00     0.016 A 
ATOM     29  C   UNL A   1      37.169  29.355  29.579  1.00  0.00     0.010 A 
ATOM     30  C   UNL A   1      37.858  29.853  27.315  1.00  0.00     0.010 A 
ATOM     31  C   UNL A   1      38.157  29.333  28.589  1.00  0.00    -0.014 A 
BRANCH  31  32
ATOM     32  C   UNL A   1      39.557  28.972  28.941  1.00  0.00     0.031 A 
ATOM     33  C   UNL A   1      40.364  29.961  29.737  1.00  0.00     0.074 A 
ATOM     34  C   UNL A   1      40.108  27.793  28.601  1.00  0.00     0.049 A 
ATOM     35  N   UNL A   1      41.638  29.955  30.039  1.00  0.00    -0.248 NA
ATOM     36  C   UNL A   1      39.625  31.117  30.268  1.00  0.00     0.031 C 
ATOM     37  C   UNL A   1      39.420  26.697  27.926  1.00  0.00     0.029 A 
ATOM     38  N   UNL A   1      41.391  27.328  28.779  1.00  0.00    -0.354 N 
ATOM     39  C   UNL A   1      41.857  31.117  30.765  1.00  0.00     0.074 A 
ATOM     40  C   UNL A   1      40.590  31.811  30.849  1.00  0.00     0.031 C 
ATOM     41  C   UNL A   1      40.294  25.692  27.730  1.00  0.00     0.029 A 
ATOM     42  C   UNL A   1      41.613  26.094  28.218  1.00  0.00     0.049 A 
ATOM     43  H   UNL A   1      42.084  27.833  29.263  1.00  0.00     0.167 HD
ATOM     44  C   UNL A   1      43.010  31.570  31.313  1.00  0.00     0.037 A 
ATOM     45  C   UNL A   1      42.756  25.392  28.078  1.00  0.00     0.037 A 
ATOM     46  C   UNL A   1      44.269  30.877  31.245  1.00  0.00     0.049 A 
ATOM     47  C   UNL A   1      44.053  25.961  28.606  1.00  0.00     0.074 A 
ATOM     48  C   UNL A   1      45.495  31.260  31.759  1.00  0.00     0.029 A 
ATOM     49  N   UNL A   1      44.463  29.653  30.622  1.00  0.00    -0.354 N 
ATOM     50  N   UNL A   1      44.267  27.080  29.255  1.00  0.00    -0.248 NA
ATOM     51  C   UNL A   1      45.271  25.170  28.370  1.00  0.00     0.031 C 
ATOM     52  C   UNL A   1      46.442  30.297  31.399  1.00  0.00     0.029 A 
ATOM     53  C   UNL A   1      45.794  29.279  30.718  1.00  0.00     0.049 A 
ATOM     54  H   UNL A   1      43.758  29.127  30.177  1.00  0.00     0.167 HD
ATOM     55  C   UNL A   1      45.629  27.109  29.536  1.00  0.00     0.074 A 
ATOM     56  C   UNL A   1      46.194  25.893  28.991  1.00  0.00     0.031 C 
ATOM     57  C   UNL A   1      46.345  28.057  30.188  1.00  0.00     0.037 A 
BRANCH  44  58
ATOM     58  C   UNL A   1      42.970  32.910  31.988  1.00  0.00     0.064 A 
ATOM     59  C   UNL A   1      42.708  33.047  33.358  1.00  0.00     0.173 A 
ATOM     60  C   UNL A   1      43.200  34.077  31.243  1.00  0.00     0.173 A 
ATOM     61  F   UNL A   1      42.462  31.964  34.111  1.00  0.00    -0.203 F 
ATOM     62  C   UNL A   1      42.641  34.306  33.951  1.00  0.00     0.198 A 
ATOM     63  C   UNL A   1      43.168  35.331  31.847  1.00  0.00     0.198 A 
ATOM     64  F   UNL A   1      43.459  34.003  29.929  1.00  0.00    -0.203 F 
ATOM     65  F   UNL A   1      42.327  34.416  35.250  1.00  0.00    -0.200 F 
ATOM     66  C   UNL A   1      42.877  35.445  33.197  1.00  0.00     0.200 A 
ATOM     67  F   UNL A   1      43.408  36.429  31.117  1.00  0.00    -0.200 F 
ATOM     68  F   UNL A   1      42.813  36.655  33.769  1.00  0.00    -0.200 F 
ENDBRANCH  44  58
BRANCH  45  69
ATOM     69  C   UNL A   1      42.747  24.081  27.372  1.00  0.00     0.064 A 
ATOM     70  C   UNL A   1      42.394  22.899  28.038  1.00  0.00     0.173 A 
ATOM     71  C   UNL A   1      43.129  23.979  26.026  1.00  0.00     0.173 A 
ATOM     72  F   UNL A   1      42.055  22.937  29.335  1.00  0.00    -0.203 F 
ATOM     73  C   UNL A   1      42.440  21.665  27.391  1.00  0.00     0.198 A 
ATOM     74  C   UNL A   1      43.144  22.749  25.371  1.00  0.00     0.198 A 
ATOM     75  F   UNL A   1      43.490  25.076  25.344  1.00  0.00    -0.203 F 
ATOM     76  F   UNL A   1      42.150  20.545  28.067  1.00  0.00    -0.200 F 
ATOM     77  C   UNL A   1      42.807  21.592  26.056  1.00  0.00     0.200 A 
ATOM     78  F   UNL A   1      43.493  22.685  24.078  1.00  0.00    -0.200 F 
ATOM     79  F   UNL A   1      42.849  20.406  25.434  1.00  0.00    -0.200 F 
ENDBRANCH  45  69
BRANCH  57  80
ATOM     80  C   UNL A   1      47.812  27.805  30.407  1.00  0.00     0.064 A 
ATOM     81  C   UNL A   1      48.789  28.283  29.522  1.00  0.00     0.173 A 
ATOM     82  C   UNL A   1      48.247  27.127  31.557  1.00  0.00     0.173 A 
ATOM     83  F   UNL A   1      48.427  28.928  28.402  1.00  0.00    -0.203 F 
ATOM     84  C   UNL A   1      50.143  28.074  29.769  1.00  0.00     0.198 A 
ATOM     85  C   UNL A   1      49.603  26.947  31.817  1.00  0.00     0.198 A 
ATOM     86  F   UNL A   1      47.355  26.656  32.442  1.00  0.00    -0.203 F 
ATOM     87  F   UNL A   1      51.057  28.503  28.887  1.00  0.00    -0.200 F 
ATOM     88  C   UNL A   1      50.550  27.415  30.920  1.00  0.00     0.200 A 
ATOM     89  F   UNL A   1      49.992  26.325  32.939  1.00  0.00    -0.200 F 
ATOM     90  F   UNL A   1      51.854  27.227  31.161  1.00  0.00    -0.200 F 
ENDBRANCH  57  80
ENDBRANCH  31  32
ENDBRANCH  24  26
ENDBRANCH  23  24
ENDBRANCH  22  23
ENDBRANCH   1  22
TORSDOF 14
ENDMDL
MODEL 3
REMARK VINA RESULT:     -12.0      4.928     11.013
REMARK SMILES O=C(CC1CC[NH+](C[C@@H]2Cc3ccccc32)CC1)OCCOC(=O)c1ccc(-c2c3nc(c(-c4c(F)c(F)c(F)c(F)c4F)c4ccc([nH]4)c(-c4c(F)c(F)c(F)c(F)c4F)c4nc(c(-c5c(F)c(F)c(F)c(F)c5F)c5ccc2[nH]5)C=C4)C=C3)cc1
REMARK SMILES IDX 20 1 19 2 2 3 1 4 3 5 4 6 5 7 18 8 6 9 17 10 7 11 8 13 9 14
REMARK SMILES IDX 10 15 16 16 11 17 15 18 12 19 14 20 13 21 21 22 22 23 23 24
REMARK SMILES IDX 24 25 25 26 26 27 87 28 27 29 86 30 28 31 29 32 30 33 80 34
REMARK SMILES IDX 31 35 85 36 79 37 81 38 32 39 84 40 78 41 77 42 33 44 65 45
REMARK SMILES IDX 45 46 64 47 46 48 49 49 63 50 82 51 47 52 48 53 62 55 83 56
REMARK SMILES IDX 50 57 34 58 35 59 43 60 36 61 37 62 41 63 44 64 38 65 39 66
REMARK SMILES IDX 42 67 40 68 66 69 67 70 75 71 68 72 69 73 73 74 76 75 70 76
REMARK SMILES IDX 71 77 74 78 72 79 51 80 52 81 60 82 53 83 54 84 58 85 61 86
REMARK SMILES IDX 55 87 56 88 59 89 57 90
REMARK H PARENT 7 12 81 43 49 54
REMARK Flexibility Score: inf
ROOT
ATOM      1  C   UNL A   1      33.726  33.596  27.982  1.00  0.00     0.274 C 
ENDROOT
BRANCH   1   2
ATOM      2  O   UNL A   1      32.728  34.246  28.789  1.00  0.00    -0.462 OA
BRANCH   2   3
ATOM      3  C   UNL A   1      33.041  35.283  29.592  1.00  0.00     0.306 C 
ATOM      4  O   UNL A   1      32.526  36.380  29.411  1.00  0.00    -0.252 OA
BRANCH   3   5
ATOM      5  C   UNL A   1      33.992  35.034  30.742  1.00  0.00     0.126 C 
BRANCH   5   6
ATOM      6  C   UNL A   1      33.511  35.275  32.183  1.00  0.00     0.011 C 
ATOM      7  C   UNL A   1      34.437  36.077  33.096  1.00  0.00     0.066 C 
ATOM      8  C   UNL A   1      33.234  33.930  32.878  1.00  0.00     0.066 C 
ATOM      9  C   UNL A   1      35.725  35.326  33.432  1.00  0.00     0.262 C 
ATOM     10  C   UNL A   1      34.534  33.166  33.165  1.00  0.00     0.262 C 
ATOM     11  N   UNL A   1      35.507  33.964  33.901  1.00  0.00    -0.334 N 
ATOM     12  H   UNL A   1      35.018  34.118  34.783  1.00  0.00     0.348 HD
BRANCH  11  13
ATOM     13  C   UNL A   1      36.739  33.245  34.272  1.00  0.00     0.270 C 
BRANCH  13  14
ATOM     14  C   UNL A   1      37.950  33.129  33.324  1.00  0.00     0.079 C 
ATOM     15  C   UNL A   1      39.084  34.202  33.105  1.00  0.00     0.050 C 
ATOM     16  C   UNL A   1      37.749  33.190  31.829  1.00  0.00    -0.036 A 
ATOM     17  C   UNL A   1      38.746  34.117  31.645  1.00  0.00    -0.043 A 
ATOM     18  C   UNL A   1      37.064  32.649  30.764  1.00  0.00     0.004 A 
ATOM     19  C   UNL A   1      39.095  34.590  30.401  1.00  0.00     0.004 A 
ATOM     20  C   UNL A   1      37.411  33.092  29.483  1.00  0.00     0.000 A 
ATOM     21  C   UNL A   1      38.418  34.059  29.302  1.00  0.00     0.000 A 
ENDBRANCH  13  14
ENDBRANCH  11  13
ENDBRANCH   5   6
ENDBRANCH   3   5
ENDBRANCH   2   3
ENDBRANCH   1   2
BRANCH   1  22
ATOM     22  C   UNL A   1      34.045  32.190  28.508  1.00  0.00     0.275 C 
BRANCH  22  23
ATOM     23  O   UNL A   1      34.482  31.341  27.426  1.00  0.00    -0.458 OA
BRANCH  23  24
ATOM     24  C   UNL A   1      34.637  30.021  27.710  1.00  0.00     0.338 C 
ATOM     25  O   UNL A   1      33.853  29.125  27.492  1.00  0.00    -0.246 OA
BRANCH  24  26
ATOM     26  C   UNL A   1      36.022  29.802  28.195  1.00  0.00     0.060 A 
ATOM     27  C   UNL A   1      37.080  30.079  27.322  1.00  0.00     0.016 A 
ATOM     28  C   UNL A   1      36.285  29.328  29.480  1.00  0.00     0.016 A 
ATOM     29  C   UNL A   1      38.401  29.863  27.724  1.00  0.00     0.010 A 
ATOM     30  C   UNL A   1      37.608  29.092  29.874  1.00  0.00     0.010 A 
ATOM     31  C   UNL A   1      38.676  29.333  28.989  1.00  0.00    -0.014 A 
BRANCH  31  32
ATOM     32  C   UNL A   1      40.040  28.828  29.306  1.00  0.00     0.031 A 
ATOM     33  C   UNL A   1      40.940  29.700  30.139  1.00  0.00     0.074 A 
ATOM     34  C   UNL A   1      40.477  27.621  28.906  1.00  0.00     0.049 A 
ATOM     35  N   UNL A   1      42.210  29.562  30.424  1.00  0.00    -0.248 NA
ATOM     36  C   UNL A   1      40.314  30.891  30.732  1.00  0.00     0.031 C 
ATOM     37  C   UNL A   1      39.685  26.626  28.188  1.00  0.00     0.029 A 
ATOM     38  N   UNL A   1      41.713  27.033  29.045  1.00  0.00    -0.354 N 
ATOM     39  C   UNL A   1      42.541  30.664  31.202  1.00  0.00     0.074 A 
ATOM     40  C   UNL A   1      41.344  31.466  31.334  1.00  0.00     0.031 C 
ATOM     41  C   UNL A   1      40.461  25.556  27.934  1.00  0.00     0.029 A 
ATOM     42  C   UNL A   1      41.816  25.812  28.424  1.00  0.00     0.049 A 
ATOM     43  H   UNL A   1      42.454  27.448  29.544  1.00  0.00     0.167 HD
ATOM     44  C   UNL A   1      43.735  30.982  31.757  1.00  0.00     0.037 A 
ATOM     45  C   UNL A   1      42.889  25.015  28.238  1.00  0.00     0.037 A 
ATOM     46  C   UNL A   1      44.924  30.180  31.641  1.00  0.00     0.049 A 
ATOM     47  C   UNL A   1      44.236  25.437  28.777  1.00  0.00     0.074 A 
ATOM     48  C   UNL A   1      46.184  30.425  32.158  1.00  0.00     0.029 A 
ATOM     49  N   UNL A   1      45.000  28.975  30.959  1.00  0.00    -0.354 N 
ATOM     50  N   UNL A   1      44.557  26.499  29.475  1.00  0.00    -0.248 NA
ATOM     51  C   UNL A   1      45.375  24.550  28.489  1.00  0.00     0.031 C 
ATOM     52  C   UNL A   1      47.036  29.397  31.741  1.00  0.00     0.029 A 
ATOM     53  C   UNL A   1      46.291  28.477  31.021  1.00  0.00     0.049 A 
ATOM     54  H   UNL A   1      44.246  28.538  30.498  1.00  0.00     0.167 HD
ATOM     55  C   UNL A   1      45.918  26.390  29.740  1.00  0.00     0.074 A 
ATOM     56  C   UNL A   1      46.364  25.155  29.132  1.00  0.00     0.031 C 
ATOM     57  C   UNL A   1      46.724  27.236  30.428  1.00  0.00     0.037 A 
BRANCH  44  58
ATOM     58  C   UNL A   1      43.824  32.286  32.494  1.00  0.00     0.064 A 
ATOM     59  C   UNL A   1      43.585  32.381  33.872  1.00  0.00     0.173 A 
ATOM     60  C   UNL A   1      44.156  33.461  31.803  1.00  0.00     0.173 A 
ATOM     61  F   UNL A   1      43.246  31.290  34.576  1.00  0.00    -0.203 F 
ATOM     62  C   UNL A   1      43.639  33.610  34.525  1.00  0.00     0.198 A 
ATOM     63  C   UNL A   1      44.244  34.682  32.465  1.00  0.00     0.198 A 
ATOM     64  F   UNL A   1      44.397  33.426  30.483  1.00  0.00    -0.203 F 
ATOM     65  F   UNL A   1      43.346  33.687  35.830  1.00  0.00    -0.200 F 
ATOM     66  C   UNL A   1      43.974  34.758  33.823  1.00  0.00     0.200 A 
ATOM     67  F   UNL A   1      44.580  35.788  31.785  1.00  0.00    -0.200 F 
ATOM     68  F   UNL A   1      44.026  35.940  34.451  1.00  0.00    -0.200 F 
ENDBRANCH  44  58
BRANCH  45  69
ATOM     69  C   UNL A   1      42.753  23.746  27.471  1.00  0.00     0.064 A 
ATOM     70  C   UNL A   1      42.291  22.573  28.083  1.00  0.00     0.173 A 
ATOM     71  C   UNL A   1      43.121  23.672  26.119  1.00  0.00     0.173 A 
ATOM     72  F   UNL A   1      41.961  22.581  29.383  1.00  0.00    -0.203 F 
ATOM     73  C   UNL A   1      42.218  21.372  27.379  1.00  0.00     0.198 A 
ATOM     74  C   UNL A   1      43.016  22.479  25.407  1.00  0.00     0.198 A 
ATOM     75  F   UNL A   1      43.582  24.761  25.487  1.00  0.00    -0.203 F 
ATOM     76  F   UNL A   1      41.824  20.254  28.004  1.00  0.00    -0.200 F 
ATOM     77  C   UNL A   1      42.573  21.327  26.039  1.00  0.00     0.200 A 
ATOM     78  F   UNL A   1      43.354  22.443  24.111  1.00  0.00    -0.200 F 
ATOM     79  F   UNL A   1      42.500  20.174  25.362  1.00  0.00    -0.200 F 
ENDBRANCH  45  69
BRANCH  57  80
ATOM     80  C   UNL A   1      48.163  26.841  30.617  1.00  0.00     0.064 A 
ATOM     81  C   UNL A   1      48.571  25.998  31.661  1.00  0.00     0.173 A 
ATOM     82  C   UNL A   1      49.137  27.264  29.699  1.00  0.00     0.173 A 
ATOM     83  F   UNL A   1      47.683  25.574  32.574  1.00  0.00    -0.203 F 
ATOM     84  C   UNL A   1      49.903  25.612  31.791  1.00  0.00     0.198 A 
ATOM     85  C   UNL A   1      50.462  26.850  29.813  1.00  0.00     0.198 A 
ATOM     86  F   UNL A   1      48.800  28.064  28.676  1.00  0.00    -0.203 F 
ATOM     87  F   UNL A   1      50.277  24.840  32.821  1.00  0.00    -0.200 F 
ATOM     88  C   UNL A   1      50.845  26.030  30.862  1.00  0.00     0.200 A 
ATOM     89  F   UNL A   1      51.365  27.242  28.904  1.00  0.00    -0.200 F 
ATOM     90  F   UNL A   1      52.123  25.645  30.981  1.00  0.00    -0.200 F 
ENDBRANCH  57  80
ENDBRANCH  31  32
ENDBRANCH  24  26
ENDBRANCH  23  24
ENDBRANCH  22  23
ENDBRANCH   1  22
TORSDOF 14
ENDMDL
