MODEL 1
REMARK VINA RESULT:      -9.6      0.000      0.000
REMARK SMILES C[C@H](Nc1ccc(N(C)C)cc1)[C@@H](C)C(=O)OCCOC(=O)c1ccc(-c2c3nc(c(-c4c(F)c(F)c(F)c(F)c4F)c4ccc([nH]4)c(-c4c(F)c(F)c(F)c(F)c4F)c4nc(c(-c5c(F)c(F)c(F)c(F)c5F)c5ccc2[nH]5)C=C4)C=C3)cc1
REMARK SMILES IDX 18 1 17 2 15 3 16 4 13 5 14 6 2 7 1 8 3 9 4 11 5 12 12 13
REMARK SMILES IDX 6 14 11 15 7 16 8 17 9 18 10 19 19 20 20 21 21 22 22 23
REMARK SMILES IDX 23 24 24 25 85 26 25 27 84 28 26 29 27 30 28 31 78 32 29 33
REMARK SMILES IDX 83 34 77 35 79 36 30 37 82 38 76 39 75 40 31 42 63 43 43 44
REMARK SMILES IDX 62 45 44 46 47 47 61 48 80 49 45 50 46 51 60 53 81 54 48 55
REMARK SMILES IDX 32 56 33 57 41 58 34 59 35 60 39 61 42 62 36 63 37 64 40 65
REMARK SMILES IDX 38 66 64 67 65 68 73 69 66 70 67 71 71 72 74 73 68 74 69 75
REMARK SMILES IDX 72 76 70 77 49 78 50 79 58 80 51 81 52 82 56 83 59 84 53 85
REMARK SMILES IDX 54 86 57 87 55 88
REMARK H PARENT 3 10 79 41 47 52
REMARK Flexibility Score: inf
ROOT
ATOM      1  C   UNL A   1      33.649  35.037  28.743  1.00  0.00     0.274 C 
ENDROOT
BRANCH   1   2
ATOM      2  O   UNL A   1      33.968  34.713  30.114  1.00  0.00    -0.462 OA
BRANCH   2   3
ATOM      3  C   UNL A   1      33.355  35.494  31.038  1.00  0.00     0.310 C 
ATOM      4  O   UNL A   1      32.537  36.372  30.779  1.00  0.00    -0.252 OA
BRANCH   3   5
ATOM      5  C   UNL A   1      33.819  35.246  32.456  1.00  0.00     0.118 C 
ATOM      6  C   UNL A   1      34.044  36.616  33.098  1.00  0.00     0.022 C 
BRANCH   5   7
ATOM      7  C   UNL A   1      35.023  34.286  32.653  1.00  0.00     0.090 C 
ATOM      8  C   UNL A   1      35.060  33.700  34.073  1.00  0.00     0.031 C 
BRANCH   7   9
ATOM      9  N   UNL A   1      36.246  35.076  32.423  1.00  0.00    -0.382 N 
ATOM     10  H   UNL A   1      36.177  36.045  32.584  1.00  0.00     0.160 HD
BRANCH   9  11
ATOM     11  C   UNL A   1      37.474  34.608  32.007  1.00  0.00     0.034 A 
ATOM     12  C   UNL A   1      37.618  34.212  30.677  1.00  0.00     0.028 A 
ATOM     13  C   UNL A   1      38.614  34.580  32.796  1.00  0.00     0.028 A 
ATOM     14  C   UNL A   1      38.868  33.860  30.141  1.00  0.00     0.028 A 
ATOM     15  C   UNL A   1      39.865  34.224  32.255  1.00  0.00     0.028 A 
ATOM     16  C   UNL A   1      40.042  33.880  30.903  1.00  0.00     0.036 A 
BRANCH  16  17
ATOM     17  N   UNL A   1      41.290  33.578  30.376  1.00  0.00    -0.378 N 
ATOM     18  C   UNL A   1      42.329  34.572  30.122  1.00  0.00     0.143 C 
ATOM     19  C   UNL A   1      41.717  32.188  30.246  1.00  0.00     0.143 C 
ENDBRANCH  16  17
ENDBRANCH   9  11
ENDBRANCH   7   9
ENDBRANCH   5   7
ENDBRANCH   3   5
ENDBRANCH   2   3
ENDBRANCH   1   2
BRANCH   1  20
ATOM     20  C   UNL A   1      32.909  33.883  28.065  1.00  0.00     0.275 C 
BRANCH  20  21
ATOM     21  O   UNL A   1      33.814  33.144  27.226  1.00  0.00    -0.458 OA
BRANCH  21  22
ATOM     22  C   UNL A   1      33.671  31.800  27.262  1.00  0.00     0.338 C 
ATOM     23  O   UNL A   1      32.713  31.157  26.870  1.00  0.00    -0.246 OA
BRANCH  22  24
ATOM     24  C   UNL A   1      34.863  31.173  27.873  1.00  0.00     0.060 A 
ATOM     25  C   UNL A   1      34.826  29.877  28.397  1.00  0.00     0.016 A 
ATOM     26  C   UNL A   1      36.019  31.943  28.008  1.00  0.00     0.016 A 
ATOM     27  C   UNL A   1      35.915  29.378  29.114  1.00  0.00     0.010 A 
ATOM     28  C   UNL A   1      37.136  31.416  28.661  1.00  0.00     0.010 A 
ATOM     29  C   UNL A   1      37.084  30.141  29.248  1.00  0.00    -0.014 A 
BRANCH  29  30
ATOM     30  C   UNL A   1      38.249  29.637  30.023  1.00  0.00     0.031 A 
ATOM     31  C   UNL A   1      38.484  30.121  31.428  1.00  0.00     0.074 A 
ATOM     32  C   UNL A   1      39.116  28.775  29.460  1.00  0.00     0.049 A 
ATOM     33  N   UNL A   1      39.529  29.957  32.200  1.00  0.00    -0.248 NA
ATOM     34  C   UNL A   1      37.402  30.907  32.041  1.00  0.00     0.031 C 
ATOM     35  C   UNL A   1      38.992  28.202  28.120  1.00  0.00     0.029 A 
ATOM     36  N   UNL A   1      40.284  28.239  29.945  1.00  0.00    -0.354 N 
ATOM     37  C   UNL A   1      39.249  30.652  33.369  1.00  0.00     0.074 A 
ATOM     38  C   UNL A   1      37.939  31.246  33.205  1.00  0.00     0.031 C 
ATOM     39  C   UNL A   1      40.035  27.388  27.893  1.00  0.00     0.029 A 
ATOM     40  C   UNL A   1      40.931  27.431  29.044  1.00  0.00     0.049 A 
ATOM     41  H   UNL A   1      40.624  28.418  30.852  1.00  0.00     0.167 HD
ATOM     42  C   UNL A   1      40.016  30.783  34.479  1.00  0.00     0.037 A 
ATOM     43  C   UNL A   1      42.130  26.823  29.120  1.00  0.00     0.037 A 
ATOM     44  C   UNL A   1      41.301  30.158  34.658  1.00  0.00     0.049 A 
ATOM     45  C   UNL A   1      42.973  27.002  30.351  1.00  0.00     0.074 A 
ATOM     46  C   UNL A   1      42.144  30.215  35.753  1.00  0.00     0.029 A 
ATOM     47  N   UNL A   1      41.921  29.349  33.718  1.00  0.00    -0.354 N 
ATOM     48  N   UNL A   1      42.716  27.688  31.437  1.00  0.00    -0.248 NA
ATOM     49  C   UNL A   1      44.280  26.330  30.361  1.00  0.00     0.031 C 
ATOM     50  C   UNL A   1      43.289  29.463  35.466  1.00  0.00     0.029 A 
ATOM     51  C   UNL A   1      43.141  28.908  34.205  1.00  0.00     0.049 A 
ATOM     52  H   UNL A   1      41.550  29.122  32.834  1.00  0.00     0.167 HD
ATOM     53  C   UNL A   1      43.817  27.521  32.264  1.00  0.00     0.074 A 
ATOM     54  C   UNL A   1      44.741  26.655  31.560  1.00  0.00     0.031 C 
ATOM     55  C   UNL A   1      44.045  28.043  33.494  1.00  0.00     0.037 A 
BRANCH  42  56
ATOM     56  C   UNL A   1      39.497  31.657  35.581  1.00  0.00     0.064 A 
ATOM     57  C   UNL A   1      38.489  31.224  36.454  1.00  0.00     0.173 A 
ATOM     58  C   UNL A   1      40.046  32.932  35.791  1.00  0.00     0.173 A 
ATOM     59  F   UNL A   1      37.924  30.019  36.288  1.00  0.00    -0.203 F 
ATOM     60  C   UNL A   1      38.035  32.045  37.485  1.00  0.00     0.198 A 
ATOM     61  C   UNL A   1      39.607  33.739  36.836  1.00  0.00     0.198 A 
ATOM     62  F   UNL A   1      41.018  33.389  34.987  1.00  0.00    -0.203 F 
ATOM     63  F   UNL A   1      37.044  31.626  38.285  1.00  0.00    -0.200 F 
ATOM     64  C   UNL A   1      38.598  33.297  37.678  1.00  0.00     0.200 A 
ATOM     65  F   UNL A   1      40.160  34.945  37.028  1.00  0.00    -0.200 F 
ATOM     66  F   UNL A   1      38.163  34.082  38.674  1.00  0.00    -0.200 F 
ENDBRANCH  42  56
BRANCH  43  67
ATOM     67  C   UNL A   1      42.612  26.003  27.981  1.00  0.00     0.064 A 
ATOM     68  C   UNL A   1      43.457  26.550  27.007  1.00  0.00     0.173 A 
ATOM     69  C   UNL A   1      42.246  24.655  27.847  1.00  0.00     0.173 A 
ATOM     70  F   UNL A   1      43.813  27.842  27.080  1.00  0.00    -0.203 F 
ATOM     71  C   UNL A   1      43.913  25.783  25.937  1.00  0.00     0.198 A 
ATOM     72  C   UNL A   1      42.721  23.882  26.791  1.00  0.00     0.198 A 
ATOM     73  F   UNL A   1      41.436  24.087  28.754  1.00  0.00    -0.203 F 
ATOM     74  F   UNL A   1      44.692  26.340  25.000  1.00  0.00    -0.200 F 
ATOM     75  C   UNL A   1      43.550  24.448  25.835  1.00  0.00     0.200 A 
ATOM     76  F   UNL A   1      42.378  22.590  26.701  1.00  0.00    -0.200 F 
ATOM     77  F   UNL A   1      43.995  23.709  24.809  1.00  0.00    -0.200 F 
ENDBRANCH  43  67
BRANCH  55  78
ATOM     78  C   UNL A   1      45.330  27.665  34.166  1.00  0.00     0.064 A 
ATOM     79  C   UNL A   1      45.423  26.531  34.984  1.00  0.00     0.173 A 
ATOM     80  C   UNL A   1      46.488  28.432  33.968  1.00  0.00     0.173 A 
ATOM     81  F   UNL A   1      44.338  25.776  35.216  1.00  0.00    -0.203 F 
ATOM     82  C   UNL A   1      46.624  26.189  35.598  1.00  0.00     0.198 A 
ATOM     83  C   UNL A   1      47.693  28.075  34.565  1.00  0.00     0.198 A 
ATOM     84  F   UNL A   1      46.450  29.525  33.190  1.00  0.00    -0.203 F 
ATOM     85  F   UNL A   1      46.681  25.124  36.410  1.00  0.00    -0.200 F 
ATOM     86  C   UNL A   1      47.759  26.958  35.384  1.00  0.00     0.200 A 
ATOM     87  F   UNL A   1      48.790  28.815  34.352  1.00  0.00    -0.200 F 
ATOM     88  F   UNL A   1      48.916  26.628  35.976  1.00  0.00    -0.200 F 
ENDBRANCH  55  78
ENDBRANCH  29  30
ENDBRANCH  22  24
ENDBRANCH  21  22
ENDBRANCH  20  21
ENDBRANCH   1  20
TORSDOF 15
ENDMDL
MODEL 2
REMARK VINA RESULT:      -9.5      6.681     12.688
REMARK SMILES C[C@H](Nc1ccc(N(C)C)cc1)[C@@H](C)C(=O)OCCOC(=O)c1ccc(-c2c3nc(c(-c4c(F)c(F)c(F)c(F)c4F)c4ccc([nH]4)c(-c4c(F)c(F)c(F)c(F)c4F)c4nc(c(-c5c(F)c(F)c(F)c(F)c5F)c5ccc2[nH]5)C=C4)C=C3)cc1
REMARK SMILES IDX 18 1 17 2 15 3 16 4 13 5 14 6 2 7 1 8 3 9 4 11 5 12 12 13
REMARK SMILES IDX 6 14 11 15 7 16 8 17 9 18 10 19 19 20 20 21 21 22 22 23
REMARK SMILES IDX 23 24 24 25 85 26 25 27 84 28 26 29 27 30 28 31 78 32 29 33
REMARK SMILES IDX 83 34 77 35 79 36 30 37 82 38 76 39 75 40 31 42 63 43 43 44
REMARK SMILES IDX 62 45 44 46 47 47 61 48 80 49 45 50 46 51 60 53 81 54 48 55
REMARK SMILES IDX 32 56 33 57 41 58 34 59 35 60 39 61 42 62 36 63 37 64 40 65
REMARK SMILES IDX 38 66 64 67 65 68 73 69 66 70 67 71 71 72 74 73 68 74 69 75
REMARK SMILES IDX 72 76 70 77 49 78 50 79 58 80 51 81 52 82 56 83 59 84 53 85
REMARK SMILES IDX 54 86 57 87 55 88
REMARK H PARENT 3 10 79 41 47 52
REMARK Flexibility Score: inf
ROOT
ATOM      1  C   UNL A   1      42.242  18.372  26.121  1.00  0.00     0.274 C 
ENDROOT
BRANCH   1   2
ATOM      2  O   UNL A   1      41.571  19.628  25.876  1.00  0.00    -0.462 OA
BRANCH   2   3
ATOM      3  C   UNL A   1      41.285  20.344  26.991  1.00  0.00     0.310 C 
ATOM      4  O   UNL A   1      40.780  19.882  28.011  1.00  0.00    -0.252 OA
BRANCH   3   5
ATOM      5  C   UNL A   1      41.579  21.823  26.862  1.00  0.00     0.118 C 
ATOM      6  C   UNL A   1      42.512  22.195  28.016  1.00  0.00     0.022 C 
BRANCH   5   7
ATOM      7  C   UNL A   1      40.365  22.781  26.740  1.00  0.00     0.090 C 
ATOM      8  C   UNL A   1      40.157  23.606  28.021  1.00  0.00     0.031 C 
BRANCH   7   9
ATOM      9  N   UNL A   1      39.176  21.942  26.505  1.00  0.00    -0.382 N 
ATOM     10  H   UNL A   1      39.177  21.054  26.929  1.00  0.00     0.160 HD
BRANCH   9  11
ATOM     11  C   UNL A   1      38.063  22.265  25.759  1.00  0.00     0.034 A 
ATOM     12  C   UNL A   1      37.401  21.243  25.077  1.00  0.00     0.028 A 
ATOM     13  C   UNL A   1      37.494  23.528  25.700  1.00  0.00     0.028 A 
ATOM     14  C   UNL A   1      36.182  21.464  24.414  1.00  0.00     0.028 A 
ATOM     15  C   UNL A   1      36.273  23.746  25.030  1.00  0.00     0.028 A 
ATOM     16  C   UNL A   1      35.560  22.717  24.390  1.00  0.00     0.036 A 
BRANCH  16  17
ATOM     17  N   UNL A   1      34.335  22.941  23.776  1.00  0.00    -0.378 N 
ATOM     18  C   UNL A   1      33.202  22.024  23.861  1.00  0.00     0.143 C 
ATOM     19  C   UNL A   1      34.038  24.240  23.178  1.00  0.00     0.143 C 
ENDBRANCH  16  17
ENDBRANCH   9  11
ENDBRANCH   7   9
ENDBRANCH   5   7
ENDBRANCH   3   5
ENDBRANCH   2   3
ENDBRANCH   1   2
BRANCH   1  20
ATOM     20  C   UNL A   1      43.727  18.466  25.767  1.00  0.00     0.275 C 
BRANCH  20  21
ATOM     21  O   UNL A   1      43.881  18.933  24.416  1.00  0.00    -0.458 OA
BRANCH  21  22
ATOM     22  C   UNL A   1      45.060  19.535  24.141  1.00  0.00     0.338 C 
ATOM     23  O   UNL A   1      46.037  19.024  23.622  1.00  0.00    -0.246 OA
BRANCH  22  24
ATOM     24  C   UNL A   1      45.029  20.947  24.579  1.00  0.00     0.060 A 
ATOM     25  C   UNL A   1      44.509  21.959  23.765  1.00  0.00     0.016 A 
ATOM     26  C   UNL A   1      45.624  21.275  25.798  1.00  0.00     0.016 A 
ATOM     27  C   UNL A   1      44.646  23.298  24.134  1.00  0.00     0.010 A 
ATOM     28  C   UNL A   1      45.694  22.610  26.202  1.00  0.00     0.010 A 
ATOM     29  C   UNL A   1      45.235  23.637  25.361  1.00  0.00    -0.014 A 
BRANCH  29  30
ATOM     30  C   UNL A   1      45.408  25.057  25.767  1.00  0.00     0.031 A 
ATOM     31  C   UNL A   1      46.756  25.715  25.649  1.00  0.00     0.074 A 
ATOM     32  C   UNL A   1      44.370  25.749  26.273  1.00  0.00     0.049 A 
ATOM     33  N   UNL A   1      47.162  26.868  26.118  1.00  0.00    -0.248 NA
ATOM     34  C   UNL A   1      47.789  24.966  24.916  1.00  0.00     0.031 C 
ATOM     35  C   UNL A   1      43.004  25.245  26.415  1.00  0.00     0.029 A 
ATOM     36  N   UNL A   1      44.308  27.025  26.777  1.00  0.00    -0.354 N 
ATOM     37  C   UNL A   1      48.505  26.964  25.775  1.00  0.00     0.074 A 
ATOM     38  C   UNL A   1      48.848  25.751  25.064  1.00  0.00     0.031 C 
ATOM     39  C   UNL A   1      42.237  26.203  26.957  1.00  0.00     0.029 A 
ATOM     40  C   UNL A   1      43.069  27.364  27.260  1.00  0.00     0.049 A 
ATOM     41  H   UNL A   1      45.079  27.638  26.789  1.00  0.00     0.167 HD
ATOM     42  C   UNL A   1      49.372  27.974  26.031  1.00  0.00     0.037 A 
ATOM     43  C   UNL A   1      42.656  28.468  27.910  1.00  0.00     0.037 A 
ATOM     44  C   UNL A   1      49.020  29.198  26.702  1.00  0.00     0.049 A 
ATOM     45  C   UNL A   1      43.642  29.565  28.202  1.00  0.00     0.074 A 
ATOM     46  C   UNL A   1      49.823  30.288  26.989  1.00  0.00     0.029 A 
ATOM     47  N   UNL A   1      47.753  29.499  27.178  1.00  0.00    -0.354 N 
ATOM     48  N   UNL A   1      44.916  29.633  27.905  1.00  0.00    -0.248 NA
ATOM     49  C   UNL A   1      43.133  30.734  28.934  1.00  0.00     0.031 C 
ATOM     50  C   UNL A   1      49.048  31.238  27.666  1.00  0.00     0.029 A 
ATOM     51  C   UNL A   1      47.754  30.754  27.766  1.00  0.00     0.049 A 
ATOM     52  H   UNL A   1      46.968  28.908  27.109  1.00  0.00     0.167 HD
ATOM     53  C   UNL A   1      45.358  30.853  28.397  1.00  0.00     0.074 A 
ATOM     54  C   UNL A   1      44.212  31.501  29.000  1.00  0.00     0.031 C 
ATOM     55  C   UNL A   1      46.604  31.385  28.357  1.00  0.00     0.037 A 
BRANCH  42  56
ATOM     56  C   UNL A   1      50.797  27.788  25.604  1.00  0.00     0.064 A 
ATOM     57  C   UNL A   1      51.210  28.023  24.285  1.00  0.00     0.173 A 
ATOM     58  C   UNL A   1      51.771  27.408  26.541  1.00  0.00     0.173 A 
ATOM     59  F   UNL A   1      50.315  28.376  23.350  1.00  0.00    -0.203 F 
ATOM     60  C   UNL A   1      52.544  27.863  23.915  1.00  0.00     0.198 A 
ATOM     61  C   UNL A   1      53.106  27.273  26.172  1.00  0.00     0.198 A 
ATOM     62  F   UNL A   1      51.429  27.179  27.818  1.00  0.00    -0.203 F 
ATOM     63  F   UNL A   1      52.911  28.056  22.640  1.00  0.00    -0.200 F 
ATOM     64  C   UNL A   1      53.491  27.495  24.859  1.00  0.00     0.200 A 
ATOM     65  F   UNL A   1      54.022  26.929  27.089  1.00  0.00    -0.200 F 
ATOM     66  F   UNL A   1      54.774  27.348  24.500  1.00  0.00    -0.200 F 
ENDBRANCH  42  56
BRANCH  43  67
ATOM     67  C   UNL A   1      41.242  28.581  28.345  1.00  0.00     0.064 A 
ATOM     68  C   UNL A   1      40.864  28.253  29.653  1.00  0.00     0.173 A 
ATOM     69  C   UNL A   1      40.243  29.027  27.467  1.00  0.00     0.173 A 
ATOM     70  F   UNL A   1      41.781  27.797  30.519  1.00  0.00    -0.203 F 
ATOM     71  C   UNL A   1      39.538  28.358  30.065  1.00  0.00     0.198 A 
ATOM     72  C   UNL A   1      38.922  29.156  27.887  1.00  0.00     0.198 A 
ATOM     73  F   UNL A   1      40.556  29.352  26.203  1.00  0.00    -0.203 F 
ATOM     74  F   UNL A   1      39.195  28.004  31.312  1.00  0.00    -0.200 F 
ATOM     75  C   UNL A   1      38.570  28.816  29.184  1.00  0.00     0.200 A 
ATOM     76  F   UNL A   1      37.991  29.610  27.036  1.00  0.00    -0.200 F 
ATOM     77  F   UNL A   1      37.295  28.925  29.584  1.00  0.00    -0.200 F 
ENDBRANCH  43  67
BRANCH  55  78
ATOM     78  C   UNL A   1      46.781  32.748  28.956  1.00  0.00     0.064 A 
ATOM     79  C   UNL A   1      47.145  32.915  30.299  1.00  0.00     0.173 A 
ATOM     80  C   UNL A   1      46.610  33.897  28.170  1.00  0.00     0.173 A 
ATOM     81  F   UNL A   1      47.304  31.846  31.094  1.00  0.00    -0.203 F 
ATOM     82  C   UNL A   1      47.311  34.187  30.840  1.00  0.00     0.198 A 
ATOM     83  C   UNL A   1      46.799  35.166  28.708  1.00  0.00     0.198 A 
ATOM     84  F   UNL A   1      46.265  33.786  26.878  1.00  0.00    -0.203 F 
ATOM     85  F   UNL A   1      47.620  34.326  32.138  1.00  0.00    -0.200 F 
ATOM     86  C   UNL A   1      47.144  35.311  30.044  1.00  0.00     0.200 A 
ATOM     87  F   UNL A   1      46.643  36.251  27.936  1.00  0.00    -0.200 F 
ATOM     88  F   UNL A   1      47.304  36.534  30.567  1.00  0.00    -0.200 F 
ENDBRANCH  55  78
ENDBRANCH  29  30
ENDBRANCH  22  24
ENDBRANCH  21  22
ENDBRANCH  20  21
ENDBRANCH   1  20
TORSDOF 15
ENDMDL
MODEL 3
REMARK VINA RESULT:      -9.5      2.573      4.124
REMARK SMILES C[C@H](Nc1ccc(N(C)C)cc1)[C@@H](C)C(=O)OCCOC(=O)c1ccc(-c2c3nc(c(-c4c(F)c(F)c(F)c(F)c4F)c4ccc([nH]4)c(-c4c(F)c(F)c(F)c(F)c4F)c4nc(c(-c5c(F)c(F)c(F)c(F)c5F)c5ccc2[nH]5)C=C4)C=C3)cc1
REMARK SMILES IDX 18 1 17 2 15 3 16 4 13 5 14 6 2 7 1 8 3 9 4 11 5 12 12 13
REMARK SMILES IDX 6 14 11 15 7 16 8 17 9 18 10 19 19 20 20 21 21 22 22 23
REMARK SMILES IDX 23 24 24 25 85 26 25 27 84 28 26 29 27 30 28 31 78 32 29 33
REMARK SMILES IDX 83 34 77 35 79 36 30 37 82 38 76 39 75 40 31 42 63 43 43 44
REMARK SMILES IDX 62 45 44 46 47 47 61 48 80 49 45 50 46 51 60 53 81 54 48 55
REMARK SMILES IDX 32 56 33 57 41 58 34 59 35 60 39 61 42 62 36 63 37 64 40 65
REMARK SMILES IDX 38 66 64 67 65 68 73 69 66 70 67 71 71 72 74 73 68 74 69 75
REMARK SMILES IDX 72 76 70 77 49 78 50 79 58 80 51 81 52 82 56 83 59 84 53 85
REMARK SMILES IDX 54 86 57 87 55 88
REMARK H PARENT 3 10 79 41 47 52
REMARK Flexibility Score: inf
ROOT
ATOM      1  C   UNL A   1      34.033  34.272  28.809  1.00  0.00     0.274 C 
ENDROOT
BRANCH   1   2
ATOM      2  O   UNL A   1      33.573  34.214  30.177  1.00  0.00    -0.462 OA
BRANCH   2   3
ATOM      3  C   UNL A   1      32.922  35.325  30.603  1.00  0.00     0.310 C 
ATOM      4  O   UNL A   1      32.466  36.195  29.866  1.00  0.00    -0.252 OA
BRANCH   3   5
ATOM      5  C   UNL A   1      32.856  35.459  32.109  1.00  0.00     0.118 C 
ATOM      6  C   UNL A   1      31.501  36.086  32.443  1.00  0.00     0.022 C 
BRANCH   5   7
ATOM      7  C   UNL A   1      34.039  36.176  32.811  1.00  0.00     0.090 C 
ATOM      8  C   UNL A   1      33.986  37.699  32.606  1.00  0.00     0.031 C 
BRANCH   7   9
ATOM      9  N   UNL A   1      35.279  35.649  32.215  1.00  0.00    -0.382 N 
ATOM     10  H   UNL A   1      35.608  36.110  31.410  1.00  0.00     0.160 HD
BRANCH   9  11
ATOM     11  C   UNL A   1      36.028  34.581  32.660  1.00  0.00     0.034 A 
ATOM     12  C   UNL A   1      36.261  34.456  34.030  1.00  0.00     0.028 A 
ATOM     13  C   UNL A   1      36.503  33.561  31.849  1.00  0.00     0.028 A 
ATOM     14  C   UNL A   1      36.891  33.325  34.574  1.00  0.00     0.028 A 
ATOM     15  C   UNL A   1      37.137  32.429  32.399  1.00  0.00     0.028 A 
ATOM     16  C   UNL A   1      37.326  32.257  33.781  1.00  0.00     0.036 A 
BRANCH  16  17
ATOM     17  N   UNL A   1      37.910  31.113  34.309  1.00  0.00    -0.378 N 
ATOM     18  C   UNL A   1      38.321  30.977  35.703  1.00  0.00     0.143 C 
ATOM     19  C   UNL A   1      37.946  29.879  33.529  1.00  0.00     0.143 C 
ENDBRANCH  16  17
ENDBRANCH   9  11
ENDBRANCH   7   9
ENDBRANCH   5   7
ENDBRANCH   3   5
ENDBRANCH   2   3
ENDBRANCH   1   2
BRANCH   1  20
ATOM     20  C   UNL A   1      33.741  32.961  28.077  1.00  0.00     0.275 C 
BRANCH  20  21
ATOM     21  O   UNL A   1      34.959  32.215  27.902  1.00  0.00    -0.458 OA
BRANCH  21  22
ATOM     22  C   UNL A   1      34.823  30.870  27.926  1.00  0.00     0.338 C 
ATOM     23  O   UNL A   1      33.811  30.234  27.686  1.00  0.00    -0.246 OA
BRANCH  22  24
ATOM     24  C   UNL A   1      36.101  30.232  28.309  1.00  0.00     0.060 A 
ATOM     25  C   UNL A   1      36.290  29.665  29.574  1.00  0.00     0.016 A 
ATOM     26  C   UNL A   1      37.165  30.289  27.408  1.00  0.00     0.016 A 
ATOM     27  C   UNL A   1      37.556  29.221  29.962  1.00  0.00     0.010 A 
ATOM     28  C   UNL A   1      38.413  29.776  27.770  1.00  0.00     0.010 A 
ATOM     29  C   UNL A   1      38.629  29.267  29.061  1.00  0.00    -0.014 A 
BRANCH  29  30
ATOM     30  C   UNL A   1      39.989  28.817  29.458  1.00  0.00     0.031 A 
ATOM     31  C   UNL A   1      40.845  29.691  30.334  1.00  0.00     0.074 A 
ATOM     32  C   UNL A   1      40.474  27.644  29.010  1.00  0.00     0.049 A 
ATOM     33  N   UNL A   1      42.114  29.576  30.638  1.00  0.00    -0.248 NA
ATOM     34  C   UNL A   1      40.186  30.860  30.939  1.00  0.00     0.031 C 
ATOM     35  C   UNL A   1      39.742  26.686  28.182  1.00  0.00     0.029 A 
ATOM     36  N   UNL A   1      41.707  27.063  29.179  1.00  0.00    -0.354 N 
ATOM     37  C   UNL A   1      42.415  30.676  31.430  1.00  0.00     0.074 A 
ATOM     38  C   UNL A   1      41.199  31.452  31.557  1.00  0.00     0.031 C 
ATOM     39  C   UNL A   1      40.534  25.634  27.924  1.00  0.00     0.029 A 
ATOM     40  C   UNL A   1      41.847  25.872  28.513  1.00  0.00     0.049 A 
ATOM     41  H   UNL A   1      42.421  27.464  29.726  1.00  0.00     0.167 HD
ATOM     42  C   UNL A   1      43.599  31.009  31.999  1.00  0.00     0.037 A 
ATOM     43  C   UNL A   1      42.924  25.078  28.361  1.00  0.00     0.037 A 
ATOM     44  C   UNL A   1      44.797  30.216  31.907  1.00  0.00     0.049 A 
ATOM     45  C   UNL A   1      44.233  25.480  28.983  1.00  0.00     0.074 A 
ATOM     46  C   UNL A   1      46.040  30.459  32.466  1.00  0.00     0.029 A 
ATOM     47  N   UNL A   1      44.897  29.016  31.219  1.00  0.00    -0.354 N 
ATOM     48  N   UNL A   1      44.517  26.537  29.701  1.00  0.00    -0.248 NA
ATOM     49  C   UNL A   1      45.374  24.580  28.760  1.00  0.00     0.031 C 
ATOM     50  C   UNL A   1      46.900  29.420  32.092  1.00  0.00     0.029 A 
ATOM     51  C   UNL A   1      46.182  28.511  31.331  1.00  0.00     0.049 A 
ATOM     52  H   UNL A   1      44.162  28.586  30.723  1.00  0.00     0.167 HD
ATOM     53  C   UNL A   1      45.860  26.426  30.029  1.00  0.00     0.074 A 
ATOM     54  C   UNL A   1      46.333  25.188  29.443  1.00  0.00     0.031 C 
ATOM     55  C   UNL A   1      46.634  27.276  30.747  1.00  0.00     0.037 A 
BRANCH  42  56
ATOM     56  C   UNL A   1      43.665  32.301  32.756  1.00  0.00     0.064 A 
ATOM     57  C   UNL A   1      43.986  33.512  32.125  1.00  0.00     0.173 A 
ATOM     58  C   UNL A   1      43.363  32.334  34.127  1.00  0.00     0.173 A 
ATOM     59  F   UNL A   1      44.295  33.531  30.820  1.00  0.00    -0.203 F 
ATOM     60  C   UNL A   1      44.023  34.705  32.844  1.00  0.00     0.198 A 
ATOM     61  C   UNL A   1      43.377  33.531  34.836  1.00  0.00     0.198 A 
ATOM     62  F   UNL A   1      43.042  31.204  34.775  1.00  0.00    -0.203 F 
ATOM     63  F   UNL A   1      44.369  35.845  32.229  1.00  0.00    -0.200 F 
ATOM     64  C   UNL A   1      43.713  34.714  34.195  1.00  0.00     0.200 A 
ATOM     65  F   UNL A   1      43.065  33.540  36.140  1.00  0.00    -0.200 F 
ATOM     66  F   UNL A   1      43.742  35.865  34.883  1.00  0.00    -0.200 F 
ENDBRANCH  42  56
BRANCH  43  67
ATOM     67  C   UNL A   1      42.811  23.829  27.566  1.00  0.00     0.064 A 
ATOM     68  C   UNL A   1      42.434  22.624  28.171  1.00  0.00     0.173 A 
ATOM     69  C   UNL A   1      43.067  23.818  26.187  1.00  0.00     0.173 A 
ATOM     70  F   UNL A   1      42.205  22.582  29.492  1.00  0.00    -0.203 F 
ATOM     71  C   UNL A   1      42.326  21.450  27.429  1.00  0.00     0.198 A 
ATOM     72  C   UNL A   1      42.935  22.650  25.441  1.00  0.00     0.198 A 
ATOM     73  F   UNL A   1      43.433  24.948  25.563  1.00  0.00    -0.203 F 
ATOM     74  F   UNL A   1      41.998  20.302  28.037  1.00  0.00    -0.200 F 
ATOM     75  C   UNL A   1      42.569  21.466  26.063  1.00  0.00     0.200 A 
ATOM     76  F   UNL A   1      43.160  22.671  24.120  1.00  0.00    -0.200 F 
ATOM     77  F   UNL A   1      42.457  20.338  25.348  1.00  0.00    -0.200 F 
ENDBRANCH  43  67
BRANCH  55  78
ATOM     78  C   UNL A   1      48.063  26.878  30.962  1.00  0.00     0.064 A 
ATOM     79  C   UNL A   1      48.439  26.044  32.023  1.00  0.00     0.173 A 
ATOM     80  C   UNL A   1      49.063  27.316  30.080  1.00  0.00     0.173 A 
ATOM     81  F   UNL A   1      47.520  25.614  32.902  1.00  0.00    -0.203 F 
ATOM     82  C   UNL A   1      49.770  25.679  32.208  1.00  0.00     0.198 A 
ATOM     83  C   UNL A   1      50.388  26.931  30.254  1.00  0.00     0.198 A 
ATOM     84  F   UNL A   1      48.750  28.113  29.047  1.00  0.00    -0.203 F 
ATOM     85  F   UNL A   1      50.114  24.914  33.253  1.00  0.00    -0.200 F 
ATOM     86  C   UNL A   1      50.742  26.118  31.321  1.00  0.00     0.200 A 
ATOM     87  F   UNL A   1      51.326  27.351  29.393  1.00  0.00    -0.200 F 
ATOM     88  F   UNL A   1      52.023  25.766  31.500  1.00  0.00    -0.200 F 
ENDBRANCH  55  78
ENDBRANCH  29  30
ENDBRANCH  22  24
ENDBRANCH  21  22
ENDBRANCH  20  21
ENDBRANCH   1  20
TORSDOF 15
ENDMDL
