MODEL 1
REMARK VINA RESULT:     -13.2      0.000      0.000
REMARK SMILES Cc1cc(=O)c(Oc2ccc(C(=O)OCCOC(=O)c3ccc(-c4c5nc(c(-c6c(F)c(F)c(F)c(F)c6F)c6ccc([nH]6)c(-c6c(F)c(F)c(F)c(F)c6F)c6nc(c(-c7c(F)c(F)c(F)c(F)c7F)c7ccc4[nH]7)C=C6)C=C5)cc3)cc2)c(-c2ccc(S(C)(=O)=O)cc2)o1
REMARK SMILES IDX 15 1 14 2 12 3 13 4 11 5 8 6 9 7 84 8 10 9 83 10 7 11 6 12
REMARK SMILES IDX 1 13 2 14 3 15 96 16 4 17 85 18 5 19 86 20 87 21 95 22 88 23
REMARK SMILES IDX 94 24 89 25 90 26 91 27 92 28 93 29 16 30 17 31 18 32 19 33
REMARK SMILES IDX 20 34 21 35 82 36 22 37 81 38 23 39 24 40 25 41 75 42 26 43
REMARK SMILES IDX 80 44 74 45 76 46 27 47 79 48 73 49 72 50 28 52 60 53 40 54
REMARK SMILES IDX 59 55 41 56 44 57 58 58 77 59 42 60 43 61 57 63 78 64 45 65
REMARK SMILES IDX 29 66 30 67 38 68 31 69 32 70 36 71 39 72 33 73 34 74 37 75
REMARK SMILES IDX 35 76 61 77 62 78 70 79 63 80 64 81 68 82 71 83 65 84 66 85
REMARK SMILES IDX 69 86 67 87 46 88 47 89 55 90 48 91 49 92 53 93 56 94 50 95
REMARK SMILES IDX 51 96 54 97 52 98
REMARK H PARENT 76 51 44 62
REMARK Flexibility Score: inf
ROOT
ATOM      1  C   UNL A   1      31.985  31.894  27.072  1.00  0.00     0.275 C 
ENDROOT
BRANCH   1   2
ATOM      2  O   UNL A   1      32.577  30.998  26.110  1.00  0.00    -0.458 OA
BRANCH   2   3
ATOM      3  C   UNL A   1      33.449  30.074  26.595  1.00  0.00     0.338 C 
ATOM      4  O   UNL A   1      34.488  30.304  27.182  1.00  0.00    -0.246 OA
BRANCH   3   5
ATOM      5  C   UNL A   1      32.863  28.707  26.472  1.00  0.00     0.060 A 
ATOM      6  C   UNL A   1      31.998  26.052  26.585  1.00  0.00     0.127 A 
ATOM      7  C   UNL A   1      33.277  26.332  26.116  1.00  0.00     0.048 A 
ATOM      8  C   UNL A   1      31.117  27.093  26.892  1.00  0.00     0.048 A 
ATOM      9  C   UNL A   1      33.700  27.664  26.043  1.00  0.00     0.019 A 
ATOM     10  C   UNL A   1      31.553  28.418  26.864  1.00  0.00     0.019 A 
BRANCH   6  11
ATOM     11  O   UNL A   1      31.486  24.787  26.666  1.00  0.00    -0.449 OA
BRANCH  11  12
ATOM     12  C   UNL A   1      31.405  23.940  25.572  1.00  0.00     0.217 A 
ATOM     13  C   UNL A   1      32.129  21.364  22.194  1.00  0.00     0.088 C 
ATOM     14  C   UNL A   1      31.853  22.116  23.455  1.00  0.00     0.105 A 
ATOM     15  C   UNL A   1      32.292  21.733  24.656  1.00  0.00     0.098 A 
ATOM     16  O   UNL A   1      31.108  23.261  23.276  1.00  0.00    -0.457 OA
ATOM     17  C   UNL A   1      32.005  22.589  25.818  1.00  0.00     0.228 A 
ATOM     18  C   UNL A   1      31.003  24.201  24.303  1.00  0.00     0.180 A 
ATOM     19  O   UNL A   1      32.302  22.195  26.942  1.00  0.00    -0.285 OA
BRANCH  18  20
ATOM     20  C   UNL A   1      30.488  25.468  23.744  1.00  0.00     0.021 A 
ATOM     21  C   UNL A   1      31.366  26.314  23.042  1.00  0.00     0.013 A 
ATOM     22  C   UNL A   1      29.211  25.944  24.059  1.00  0.00     0.013 A 
ATOM     23  C   UNL A   1      30.989  27.614  22.686  1.00  0.00     0.021 A 
ATOM     24  C   UNL A   1      28.820  27.237  23.691  1.00  0.00     0.021 A 
ATOM     25  C   UNL A   1      29.717  28.077  23.024  1.00  0.00     0.067 A 
BRANCH  25  26
ATOM     26  S   UNL A   1      29.242  29.763  22.699  1.00  0.00     0.175 S 
ATOM     27  C   UNL A   1      27.478  29.788  22.831  1.00  0.00     0.163 C 
ATOM     28  O   UNL A   1      29.757  30.607  23.760  1.00  0.00    -0.224 OA
ATOM     29  O   UNL A   1      29.558  30.041  21.309  1.00  0.00    -0.224 OA
ENDBRANCH  25  26
ENDBRANCH  18  20
ENDBRANCH  11  12
ENDBRANCH   6  11
ENDBRANCH   3   5
ENDBRANCH   2   3
ENDBRANCH   1   2
BRANCH   1  30
ATOM     30  C   UNL A   1      32.826  33.166  27.263  1.00  0.00     0.275 C 
BRANCH  30  31
ATOM     31  O   UNL A   1      32.169  34.172  28.061  1.00  0.00    -0.458 OA
BRANCH  31  32
ATOM     32  C   UNL A   1      33.015  35.029  28.674  1.00  0.00     0.338 C 
ATOM     33  O   UNL A   1      32.845  36.227  28.841  1.00  0.00    -0.246 OA
BRANCH  32  34
ATOM     34  C   UNL A   1      34.209  34.348  29.208  1.00  0.00     0.060 A 
ATOM     35  C   UNL A   1      35.495  34.606  28.728  1.00  0.00     0.016 A 
ATOM     36  C   UNL A   1      34.029  33.531  30.328  1.00  0.00     0.016 A 
ATOM     37  C   UNL A   1      36.599  34.018  29.359  1.00  0.00     0.010 A 
ATOM     38  C   UNL A   1      35.122  32.953  30.961  1.00  0.00     0.010 A 
ATOM     39  C   UNL A   1      36.414  33.174  30.466  1.00  0.00    -0.014 A 
BRANCH  39  40
ATOM     40  C   UNL A   1      37.529  32.388  31.041  1.00  0.00     0.031 A 
ATOM     41  C   UNL A   1      38.007  32.742  32.422  1.00  0.00     0.074 A 
ATOM     42  C   UNL A   1      38.151  31.435  30.324  1.00  0.00     0.049 A 
ATOM     43  N   UNL A   1      39.004  32.246  33.109  1.00  0.00    -0.248 NA
ATOM     44  C   UNL A   1      37.281  33.824  33.107  1.00  0.00     0.031 C 
ATOM     45  C   UNL A   1      37.811  31.044  28.957  1.00  0.00     0.029 A 
ATOM     46  N   UNL A   1      39.216  30.631  30.647  1.00  0.00    -0.354 N 
ATOM     47  C   UNL A   1      39.025  32.960  34.299  1.00  0.00     0.074 A 
ATOM     48  C   UNL A   1      37.981  33.958  34.222  1.00  0.00     0.031 C 
ATOM     49  C   UNL A   1      38.646  30.067  28.560  1.00  0.00     0.029 A 
ATOM     50  C   UNL A   1      39.585  29.771  29.642  1.00  0.00     0.049 A 
ATOM     51  H   UNL A   1      39.674  30.668  31.517  1.00  0.00     0.167 HD
ATOM     52  C   UNL A   1      39.826  32.782  35.375  1.00  0.00     0.037 A 
ATOM     53  C   UNL A   1      40.564  28.845  29.611  1.00  0.00     0.037 A 
ATOM     54  C   UNL A   1      40.844  31.772  35.460  1.00  0.00     0.049 A 
ATOM     55  C   UNL A   1      41.427  28.646  30.832  1.00  0.00     0.074 A 
ATOM     56  C   UNL A   1      41.678  31.474  36.521  1.00  0.00     0.029 A 
ATOM     57  N   UNL A   1      41.156  30.889  34.437  1.00  0.00    -0.354 N 
ATOM     58  N   UNL A   1      41.393  29.277  31.979  1.00  0.00    -0.248 NA
ATOM     59  C   UNL A   1      42.457  27.597  30.757  1.00  0.00     0.031 C 
ATOM     60  C   UNL A   1      42.512  30.421  36.133  1.00  0.00     0.029 A 
ATOM     61  C   UNL A   1      42.175  30.045  34.841  1.00  0.00     0.049 A 
ATOM     62  H   UNL A   1      40.719  30.865  33.556  1.00  0.00     0.167 HD
ATOM     63  C   UNL A   1      42.374  28.691  32.769  1.00  0.00     0.074 A 
ATOM     64  C   UNL A   1      42.978  27.642  31.975  1.00  0.00     0.031 C 
ATOM     65  C   UNL A   1      42.744  28.996  34.037  1.00  0.00     0.037 A 
BRANCH  52  66
ATOM     66  C   UNL A   1      39.611  33.683  36.552  1.00  0.00     0.064 A 
ATOM     67  C   UNL A   1      38.807  33.286  37.632  1.00  0.00     0.173 A 
ATOM     68  C   UNL A   1      40.232  34.938  36.620  1.00  0.00     0.173 A 
ATOM     69  F   UNL A   1      38.181  32.100  37.607  1.00  0.00    -0.203 F 
ATOM     70  C   UNL A   1      38.612  34.124  38.725  1.00  0.00     0.198 A 
ATOM     71  C   UNL A   1      40.056  35.764  37.727  1.00  0.00     0.198 A 
ATOM     72  F   UNL A   1      41.013  35.361  35.615  1.00  0.00    -0.203 F 
ATOM     73  F   UNL A   1      37.806  33.742  39.725  1.00  0.00    -0.200 F 
ATOM     74  C   UNL A   1      39.242  35.360  38.775  1.00  0.00     0.200 A 
ATOM     75  F   UNL A   1      40.672  36.953  37.779  1.00  0.00    -0.200 F 
ATOM     76  F   UNL A   1      39.059  36.164  39.831  1.00  0.00    -0.200 F 
ENDBRANCH  52  66
BRANCH  53  77
ATOM     77  C   UNL A   1      40.753  27.996  28.405  1.00  0.00     0.064 A 
ATOM     78  C   UNL A   1      40.138  26.739  28.311  1.00  0.00     0.173 A 
ATOM     79  C   UNL A   1      41.551  28.412  27.331  1.00  0.00     0.173 A 
ATOM     80  F   UNL A   1      39.381  26.290  29.322  1.00  0.00    -0.203 F 
ATOM     81  C   UNL A   1      40.331  25.922  27.198  1.00  0.00     0.198 A 
ATOM     82  C   UNL A   1      41.726  27.605  26.208  1.00  0.00     0.198 A 
ATOM     83  F   UNL A   1      42.158  29.609  27.367  1.00  0.00    -0.203 F 
ATOM     84  F   UNL A   1      39.764  24.709  27.154  1.00  0.00    -0.200 F 
ATOM     85  C   UNL A   1      41.121  26.358  26.146  1.00  0.00     0.200 A 
ATOM     86  F   UNL A   1      42.481  28.032  25.186  1.00  0.00    -0.200 F 
ATOM     87  F   UNL A   1      41.305  25.574  25.075  1.00  0.00    -0.200 F 
ENDBRANCH  53  77
BRANCH  65  88
ATOM     88  C   UNL A   1      43.835  28.179  34.661  1.00  0.00     0.064 A 
ATOM     89  C   UNL A   1      43.558  26.960  35.294  1.00  0.00     0.173 A 
ATOM     90  C   UNL A   1      45.176  28.569  34.531  1.00  0.00     0.173 A 
ATOM     91  F   UNL A   1      42.290  26.553  35.450  1.00  0.00    -0.203 F 
ATOM     92  C   UNL A   1      44.589  26.160  35.779  1.00  0.00     0.198 A 
ATOM     93  C   UNL A   1      46.204  27.756  34.997  1.00  0.00     0.198 A 
ATOM     94  F   UNL A   1      45.488  29.725  33.924  1.00  0.00    -0.203 F 
ATOM     95  F   UNL A   1      44.304  25.005  36.397  1.00  0.00    -0.200 F 
ATOM     96  C   UNL A   1      45.910  26.553  35.620  1.00  0.00     0.200 A 
ATOM     97  F   UNL A   1      47.480  28.129  34.829  1.00  0.00    -0.200 F 
ATOM     98  F   UNL A   1      46.902  25.770  36.068  1.00  0.00    -0.200 F 
ENDBRANCH  65  88
ENDBRANCH  39  40
ENDBRANCH  32  34
ENDBRANCH  31  32
ENDBRANCH  30  31
ENDBRANCH   1  30
TORSDOF 15
ENDMDL
MODEL 2
REMARK VINA RESULT:     -13.2      0.876      7.178
REMARK SMILES Cc1cc(=O)c(Oc2ccc(C(=O)OCCOC(=O)c3ccc(-c4c5nc(c(-c6c(F)c(F)c(F)c(F)c6F)c6ccc([nH]6)c(-c6c(F)c(F)c(F)c(F)c6F)c6nc(c(-c7c(F)c(F)c(F)c(F)c7F)c7ccc4[nH]7)C=C6)C=C5)cc3)cc2)c(-c2ccc(S(C)(=O)=O)cc2)o1
REMARK SMILES IDX 15 1 14 2 12 3 13 4 11 5 8 6 9 7 84 8 10 9 83 10 7 11 6 12
REMARK SMILES IDX 1 13 2 14 3 15 96 16 4 17 85 18 5 19 86 20 87 21 95 22 88 23
REMARK SMILES IDX 94 24 89 25 90 26 91 27 92 28 93 29 16 30 17 31 18 32 19 33
REMARK SMILES IDX 20 34 21 35 82 36 22 37 81 38 23 39 24 40 25 41 75 42 26 43
REMARK SMILES IDX 80 44 74 45 76 46 27 47 79 48 73 49 72 50 28 52 60 53 40 54
REMARK SMILES IDX 59 55 41 56 44 57 58 58 77 59 42 60 43 61 57 63 78 64 45 65
REMARK SMILES IDX 29 66 30 67 38 68 31 69 32 70 36 71 39 72 33 73 34 74 37 75
REMARK SMILES IDX 35 76 61 77 62 78 70 79 63 80 64 81 68 82 71 83 65 84 66 85
REMARK SMILES IDX 69 86 67 87 46 88 47 89 55 90 48 91 49 92 53 93 56 94 50 95
REMARK SMILES IDX 51 96 54 97 52 98
REMARK H PARENT 76 51 44 62
REMARK Flexibility Score: inf
ROOT
ATOM      1  C   UNL A   1      33.333  31.979  27.804  1.00  0.00     0.275 C 
ENDROOT
BRANCH   1   2
ATOM      2  O   UNL A   1      33.466  31.065  26.698  1.00  0.00    -0.458 OA
BRANCH   2   3
ATOM      3  C   UNL A   1      34.190  29.936  26.923  1.00  0.00     0.338 C 
ATOM      4  O   UNL A   1      35.321  29.884  27.364  1.00  0.00    -0.246 OA
BRANCH   3   5
ATOM      5  C   UNL A   1      33.331  28.732  26.726  1.00  0.00     0.060 A 
ATOM      6  C   UNL A   1      31.952  26.302  26.669  1.00  0.00     0.127 A 
ATOM      7  C   UNL A   1      33.231  26.372  26.125  1.00  0.00     0.048 A 
ATOM      8  C   UNL A   1      31.322  27.458  27.139  1.00  0.00     0.048 A 
ATOM      9  C   UNL A   1      33.911  27.595  26.138  1.00  0.00     0.019 A 
ATOM     10  C   UNL A   1      32.017  28.667  27.195  1.00  0.00     0.019 A 
BRANCH   6  11
ATOM     11  O   UNL A   1      31.200  25.161  26.677  1.00  0.00    -0.449 OA
BRANCH  11  12
ATOM     12  C   UNL A   1      31.176  24.272  25.615  1.00  0.00     0.217 A 
ATOM     13  C   UNL A   1      32.070  21.653  22.311  1.00  0.00     0.088 C 
ATOM     14  C   UNL A   1      31.749  22.422  23.552  1.00  0.00     0.105 A 
ATOM     15  C   UNL A   1      32.247  22.125  24.754  1.00  0.00     0.098 A 
ATOM     16  O   UNL A   1      30.898  23.485  23.351  1.00  0.00    -0.457 OA
ATOM     17  C   UNL A   1      31.905  22.992  25.893  1.00  0.00     0.228 A 
ATOM     18  C   UNL A   1      30.726  24.447  24.348  1.00  0.00     0.180 A 
ATOM     19  O   UNL A   1      32.259  22.668  27.023  1.00  0.00    -0.285 OA
BRANCH  18  20
ATOM     20  C   UNL A   1      30.083  25.641  23.758  1.00  0.00     0.021 A 
ATOM     21  C   UNL A   1      30.871  26.560  23.042  1.00  0.00     0.013 A 
ATOM     22  C   UNL A   1      28.760  25.984  24.057  1.00  0.00     0.013 A 
ATOM     23  C   UNL A   1      30.361  27.804  22.656  1.00  0.00     0.021 A 
ATOM     24  C   UNL A   1      28.237  27.221  23.658  1.00  0.00     0.021 A 
ATOM     25  C   UNL A   1      29.045  28.137  22.977  1.00  0.00     0.067 A 
BRANCH  25  26
ATOM     26  S   UNL A   1      28.396  29.756  22.612  1.00  0.00     0.175 S 
ATOM     27  C   UNL A   1      29.328  30.873  23.620  1.00  0.00     0.163 C 
ATOM     28  O   UNL A   1      28.699  30.081  21.232  1.00  0.00    -0.224 OA
ATOM     29  O   UNL A   1      27.030  29.795  23.103  1.00  0.00    -0.224 OA
ENDBRANCH  25  26
ENDBRANCH  18  20
ENDBRANCH  11  12
ENDBRANCH   6  11
ENDBRANCH   3   5
ENDBRANCH   2   3
ENDBRANCH   1   2
BRANCH   1  30
ATOM     30  C   UNL A   1      32.781  33.342  27.358  1.00  0.00     0.275 C 
BRANCH  30  31
ATOM     31  O   UNL A   1      32.340  34.167  28.455  1.00  0.00    -0.458 OA
BRANCH  31  32
ATOM     32  C   UNL A   1      33.238  35.103  28.838  1.00  0.00     0.338 C 
ATOM     33  O   UNL A   1      33.119  36.314  28.732  1.00  0.00    -0.246 OA
BRANCH  32  34
ATOM     34  C   UNL A   1      34.423  34.508  29.482  1.00  0.00     0.060 A 
ATOM     35  C   UNL A   1      35.709  34.638  28.952  1.00  0.00     0.016 A 
ATOM     36  C   UNL A   1      34.239  33.925  30.739  1.00  0.00     0.016 A 
ATOM     37  C   UNL A   1      36.807  34.155  29.674  1.00  0.00     0.010 A 
ATOM     38  C   UNL A   1      35.327  33.451  31.463  1.00  0.00     0.010 A 
ATOM     39  C   UNL A   1      36.617  33.542  30.924  1.00  0.00    -0.014 A 
BRANCH  39  40
ATOM     40  C   UNL A   1      37.721  32.854  31.630  1.00  0.00     0.031 A 
ATOM     41  C   UNL A   1      38.355  31.664  30.964  1.00  0.00     0.074 A 
ATOM     42  C   UNL A   1      38.099  33.229  32.865  1.00  0.00     0.049 A 
ATOM     43  N   UNL A   1      39.288  30.862  31.408  1.00  0.00    -0.248 NA
ATOM     44  C   UNL A   1      37.844  31.315  29.628  1.00  0.00     0.031 C 
ATOM     45  C   UNL A   1      37.520  34.332  33.631  1.00  0.00     0.029 A 
ATOM     46  N   UNL A   1      39.056  32.708  33.700  1.00  0.00    -0.354 N 
ATOM     47  C   UNL A   1      39.467  29.913  30.410  1.00  0.00     0.074 A 
ATOM     48  C   UNL A   1      38.514  30.204  29.363  1.00  0.00     0.031 C 
ATOM     49  C   UNL A   1      38.140  34.411  34.822  1.00  0.00     0.029 A 
ATOM     50  C   UNL A   1      39.153  33.360  34.905  1.00  0.00     0.049 A 
ATOM     51  H   UNL A   1      39.620  31.939  33.458  1.00  0.00     0.167 HD
ATOM     52  C   UNL A   1      40.368  28.905  30.358  1.00  0.00     0.037 A 
ATOM     53  C   UNL A   1      39.977  33.133  35.948  1.00  0.00     0.037 A 
ATOM     54  C   UNL A   1      41.333  28.636  31.387  1.00  0.00     0.049 A 
ATOM     55  C   UNL A   1      40.991  32.019  35.855  1.00  0.00     0.074 A 
ATOM     56  C   UNL A   1      42.322  27.671  31.412  1.00  0.00     0.029 A 
ATOM     57  N   UNL A   1      41.430  29.347  32.573  1.00  0.00    -0.354 N 
ATOM     58  N   UNL A   1      41.201  31.172  34.878  1.00  0.00    -0.248 NA
ATOM     59  C   UNL A   1      41.890  31.838  37.006  1.00  0.00     0.031 C 
ATOM     60  C   UNL A   1      43.007  27.785  32.626  1.00  0.00     0.029 A 
ATOM     61  C   UNL A   1      42.463  28.840  33.341  1.00  0.00     0.049 A 
ATOM     62  H   UNL A   1      40.851  30.101  32.831  1.00  0.00     0.167 HD
ATOM     63  C   UNL A   1      42.266  30.377  35.282  1.00  0.00     0.074 A 
ATOM     64  C   UNL A   1      42.669  30.851  36.589  1.00  0.00     0.031 C 
ATOM     65  C   UNL A   1      42.855  29.344  34.631  1.00  0.00     0.037 A 
BRANCH  52  66
ATOM     66  C   UNL A   1      40.365  28.039  29.135  1.00  0.00     0.064 A 
ATOM     67  C   UNL A   1      41.138  28.368  28.011  1.00  0.00     0.173 A 
ATOM     68  C   UNL A   1      39.609  26.860  29.091  1.00  0.00     0.173 A 
ATOM     69  F   UNL A   1      41.867  29.495  28.000  1.00  0.00    -0.203 F 
ATOM     70  C   UNL A   1      41.135  27.561  26.879  1.00  0.00     0.198 A 
ATOM     71  C   UNL A   1      39.627  26.040  27.966  1.00  0.00     0.198 A 
ATOM     72  F   UNL A   1      38.855  26.500  30.142  1.00  0.00    -0.203 F 
ATOM     73  F   UNL A   1      41.848  27.917  25.801  1.00  0.00    -0.200 F 
ATOM     74  C   UNL A   1      40.385  26.394  26.859  1.00  0.00     0.200 A 
ATOM     75  F   UNL A   1      38.910  24.908  27.952  1.00  0.00    -0.200 F 
ATOM     76  F   UNL A   1      40.387  25.613  25.770  1.00  0.00    -0.200 F 
ENDBRANCH  52  66
BRANCH  53  77
ATOM     77  C   UNL A   1      39.919  34.004  37.150  1.00  0.00     0.064 A 
ATOM     78  C   UNL A   1      39.070  33.690  38.221  1.00  0.00     0.173 A 
ATOM     79  C   UNL A   1      40.696  35.167  37.255  1.00  0.00     0.173 A 
ATOM     80  F   UNL A   1      38.293  32.599  38.158  1.00  0.00    -0.203 F 
ATOM     81  C   UNL A   1      38.985  34.515  39.341  1.00  0.00     0.198 A 
ATOM     82  C   UNL A   1      40.627  35.979  38.385  1.00  0.00     0.198 A 
ATOM     83  F   UNL A   1      41.528  35.510  36.261  1.00  0.00    -0.203 F 
ATOM     84  F   UNL A   1      38.135  34.210  40.332  1.00  0.00    -0.200 F 
ATOM     85  C   UNL A   1      39.767  35.656  39.425  1.00  0.00     0.200 A 
ATOM     86  F   UNL A   1      41.393  37.076  38.468  1.00  0.00    -0.200 F 
ATOM     87  F   UNL A   1      39.687  36.448  40.502  1.00  0.00    -0.200 F 
ENDBRANCH  53  77
BRANCH  65  88
ATOM     88  C   UNL A   1      44.011  28.665  35.301  1.00  0.00     0.064 A 
ATOM     89  C   UNL A   1      45.330  29.082  35.076  1.00  0.00     0.173 A 
ATOM     90  C   UNL A   1      43.787  27.661  36.255  1.00  0.00     0.173 A 
ATOM     91  F   UNL A   1      45.591  30.032  34.166  1.00  0.00    -0.203 F 
ATOM     92  C   UNL A   1      46.387  28.514  35.781  1.00  0.00     0.198 A 
ATOM     93  C   UNL A   1      44.844  27.111  36.974  1.00  0.00     0.198 A 
ATOM     94  F   UNL A   1      42.540  27.236  36.509  1.00  0.00    -0.203 F 
ATOM     95  F   UNL A   1      47.642  28.914  35.539  1.00  0.00    -0.200 F 
ATOM     96  C   UNL A   1      46.142  27.538  36.736  1.00  0.00     0.200 A 
ATOM     97  F   UNL A   1      44.605  26.179  37.906  1.00  0.00    -0.200 F 
ATOM     98  F   UNL A   1      47.159  27.008  37.430  1.00  0.00    -0.200 F 
ENDBRANCH  65  88
ENDBRANCH  39  40
ENDBRANCH  32  34
ENDBRANCH  31  32
ENDBRANCH  30  31
ENDBRANCH   1  30
TORSDOF 15
ENDMDL
MODEL 3
REMARK VINA RESULT:     -13.1      0.862      1.996
REMARK SMILES Cc1cc(=O)c(Oc2ccc(C(=O)OCCOC(=O)c3ccc(-c4c5nc(c(-c6c(F)c(F)c(F)c(F)c6F)c6ccc([nH]6)c(-c6c(F)c(F)c(F)c(F)c6F)c6nc(c(-c7c(F)c(F)c(F)c(F)c7F)c7ccc4[nH]7)C=C6)C=C5)cc3)cc2)c(-c2ccc(S(C)(=O)=O)cc2)o1
REMARK SMILES IDX 15 1 14 2 12 3 13 4 11 5 8 6 9 7 84 8 10 9 83 10 7 11 6 12
REMARK SMILES IDX 1 13 2 14 3 15 96 16 4 17 85 18 5 19 86 20 87 21 95 22 88 23
REMARK SMILES IDX 94 24 89 25 90 26 91 27 92 28 93 29 16 30 17 31 18 32 19 33
REMARK SMILES IDX 20 34 21 35 82 36 22 37 81 38 23 39 24 40 25 41 75 42 26 43
REMARK SMILES IDX 80 44 74 45 76 46 27 47 79 48 73 49 72 50 28 52 60 53 40 54
REMARK SMILES IDX 59 55 41 56 44 57 58 58 77 59 42 60 43 61 57 63 78 64 45 65
REMARK SMILES IDX 29 66 30 67 38 68 31 69 32 70 36 71 39 72 33 73 34 74 37 75
REMARK SMILES IDX 35 76 61 77 62 78 70 79 63 80 64 81 68 82 71 83 65 84 66 85
REMARK SMILES IDX 69 86 67 87 46 88 47 89 55 90 48 91 49 92 53 93 56 94 50 95
REMARK SMILES IDX 51 96 54 97 52 98
REMARK H PARENT 76 51 44 62
REMARK Flexibility Score: inf
ROOT
ATOM      1  C   UNL A   1      31.718  32.416  27.253  1.00  0.00     0.275 C 
ENDROOT
BRANCH   1   2
ATOM      2  O   UNL A   1      32.383  31.370  26.517  1.00  0.00    -0.458 OA
BRANCH   2   3
ATOM      3  C   UNL A   1      33.343  30.672  27.183  1.00  0.00     0.338 C 
ATOM      4  O   UNL A   1      34.178  31.136  27.934  1.00  0.00    -0.246 OA
BRANCH   3   5
ATOM      5  C   UNL A   1      33.119  29.206  27.011  1.00  0.00     0.060 A 
ATOM      6  C   UNL A   1      32.448  26.572  26.365  1.00  0.00     0.127 A 
ATOM      7  C   UNL A   1      31.516  27.371  27.021  1.00  0.00     0.048 A 
ATOM      8  C   UNL A   1      33.741  27.046  26.131  1.00  0.00     0.048 A 
ATOM      9  C   UNL A   1      31.862  28.684  27.360  1.00  0.00     0.019 A 
ATOM     10  C   UNL A   1      34.072  28.369  26.426  1.00  0.00     0.019 A 
BRANCH   6  11
ATOM     11  O   UNL A   1      32.211  25.271  26.019  1.00  0.00    -0.449 OA
BRANCH  11  12
ATOM     12  C   UNL A   1      32.238  24.828  24.707  1.00  0.00     0.217 A 
ATOM     13  C   UNL A   1      33.260  23.717  20.670  1.00  0.00     0.088 C 
ATOM     14  C   UNL A   1      32.918  23.938  22.108  1.00  0.00     0.105 A 
ATOM     15  C   UNL A   1      33.514  23.298  23.116  1.00  0.00     0.098 A 
ATOM     16  O   UNL A   1      31.933  24.878  22.314  1.00  0.00    -0.457 OA
ATOM     17  C   UNL A   1      33.132  23.644  24.494  1.00  0.00     0.228 A 
ATOM     18  C   UNL A   1      31.700  25.385  23.594  1.00  0.00     0.180 A 
ATOM     19  O   UNL A   1      33.585  22.986  25.427  1.00  0.00    -0.285 OA
BRANCH  18  20
ATOM     20  C   UNL A   1      30.885  26.614  23.482  1.00  0.00     0.021 A 
ATOM     21  C   UNL A   1      29.514  26.557  23.793  1.00  0.00     0.013 A 
ATOM     22  C   UNL A   1      31.389  27.777  22.891  1.00  0.00     0.013 A 
ATOM     23  C   UNL A   1      28.660  27.626  23.497  1.00  0.00     0.021 A 
ATOM     24  C   UNL A   1      30.544  28.857  22.607  1.00  0.00     0.021 A 
ATOM     25  C   UNL A   1      29.177  28.771  22.891  1.00  0.00     0.067 A 
BRANCH  25  26
ATOM     26  S   UNL A   1      28.105  30.101  22.386  1.00  0.00     0.175 S 
ATOM     27  C   UNL A   1      28.943  31.586  22.863  1.00  0.00     0.163 C 
ATOM     28  O   UNL A   1      28.021  30.111  20.939  1.00  0.00    -0.224 OA
ATOM     29  O   UNL A   1      26.905  30.023  23.200  1.00  0.00    -0.224 OA
ENDBRANCH  25  26
ENDBRANCH  18  20
ENDBRANCH  11  12
ENDBRANCH   6  11
ENDBRANCH   3   5
ENDBRANCH   2   3
ENDBRANCH   1   2
BRANCH   1  30
ATOM     30  C   UNL A   1      32.530  33.721  27.253  1.00  0.00     0.275 C 
BRANCH  30  31
ATOM     31  O   UNL A   1      32.215  34.590  28.360  1.00  0.00    -0.458 OA
BRANCH  31  32
ATOM     32  C   UNL A   1      33.262  35.322  28.801  1.00  0.00     0.338 C 
ATOM     33  O   UNL A   1      33.369  36.538  28.763  1.00  0.00    -0.246 OA
BRANCH  32  34
ATOM     34  C   UNL A   1      34.305  34.485  29.422  1.00  0.00     0.060 A 
ATOM     35  C   UNL A   1      34.027  33.580  30.449  1.00  0.00     0.016 A 
ATOM     36  C   UNL A   1      35.577  34.518  28.843  1.00  0.00     0.016 A 
ATOM     37  C   UNL A   1      35.037  32.728  30.913  1.00  0.00     0.010 A 
ATOM     38  C   UNL A   1      36.580  33.669  29.294  1.00  0.00     0.010 A 
ATOM     39  C   UNL A   1      36.323  32.784  30.349  1.00  0.00    -0.014 A 
BRANCH  39  40
ATOM     40  C   UNL A   1      37.462  32.040  30.933  1.00  0.00     0.031 A 
ATOM     41  C   UNL A   1      37.938  32.434  32.303  1.00  0.00     0.074 A 
ATOM     42  C   UNL A   1      38.105  31.089  30.231  1.00  0.00     0.049 A 
ATOM     43  N   UNL A   1      38.952  31.978  32.994  1.00  0.00    -0.248 NA
ATOM     44  C   UNL A   1      37.187  33.510  32.971  1.00  0.00     0.031 C 
ATOM     45  C   UNL A   1      37.767  30.662  28.874  1.00  0.00     0.029 A 
ATOM     46  N   UNL A   1      39.193  30.320  30.563  1.00  0.00    -0.354 N 
ATOM     47  C   UNL A   1      38.961  32.717  34.170  1.00  0.00     0.074 A 
ATOM     48  C   UNL A   1      37.890  33.684  34.079  1.00  0.00     0.031 C 
ATOM     49  C   UNL A   1      38.626  29.699  28.492  1.00  0.00     0.029 A 
ATOM     50  C   UNL A   1      39.578  29.450  29.573  1.00  0.00     0.049 A 
ATOM     51  H   UNL A   1      39.654  30.387  31.430  1.00  0.00     0.167 HD
ATOM     52  C   UNL A   1      39.772  32.581  35.244  1.00  0.00     0.037 A 
ATOM     53  C   UNL A   1      40.581  28.550  29.555  1.00  0.00     0.037 A 
ATOM     54  C   UNL A   1      40.816  31.600  35.343  1.00  0.00     0.049 A 
ATOM     55  C   UNL A   1      41.456  28.398  30.774  1.00  0.00     0.074 A 
ATOM     56  C   UNL A   1      41.664  31.346  36.404  1.00  0.00     0.029 A 
ATOM     57  N   UNL A   1      41.146  30.706  34.336  1.00  0.00    -0.354 N 
ATOM     58  N   UNL A   1      41.412  29.052  31.909  1.00  0.00    -0.248 NA
ATOM     59  C   UNL A   1      42.513  27.376  30.715  1.00  0.00     0.031 C 
ATOM     60  C   UNL A   1      42.523  30.307  36.032  1.00  0.00     0.029 A 
ATOM     61  C   UNL A   1      42.189  29.897  34.751  1.00  0.00     0.049 A 
ATOM     62  H   UNL A   1      40.705  30.653  33.458  1.00  0.00     0.167 HD
ATOM     63  C   UNL A   1      42.412  28.507  32.705  1.00  0.00     0.074 A 
ATOM     64  C   UNL A   1      43.039  27.459  31.928  1.00  0.00     0.031 C 
ATOM     65  C   UNL A   1      42.781  28.847  33.964  1.00  0.00     0.037 A 
BRANCH  52  66
ATOM     66  C   UNL A   1      39.540  33.500  36.405  1.00  0.00     0.064 A 
ATOM     67  C   UNL A   1      38.734  33.112  37.486  1.00  0.00     0.173 A 
ATOM     68  C   UNL A   1      40.146  34.762  36.454  1.00  0.00     0.173 A 
ATOM     69  F   UNL A   1      38.120  31.919  37.477  1.00  0.00    -0.203 F 
ATOM     70  C   UNL A   1      38.523  33.967  38.564  1.00  0.00     0.198 A 
ATOM     71  C   UNL A   1      39.954  35.605  37.546  1.00  0.00     0.198 A 
ATOM     72  F   UNL A   1      40.929  35.177  35.447  1.00  0.00    -0.203 F 
ATOM     73  F   UNL A   1      37.715  33.593  39.565  1.00  0.00    -0.200 F 
ATOM     74  C   UNL A   1      39.138  35.210  38.596  1.00  0.00     0.200 A 
ATOM     75  F   UNL A   1      40.557  36.801  37.581  1.00  0.00    -0.200 F 
ATOM     76  F   UNL A   1      38.940  36.029  39.637  1.00  0.00    -0.200 F 
ENDBRANCH  52  66
BRANCH  53  77
ATOM     77  C   UNL A   1      40.786  27.683  28.365  1.00  0.00     0.064 A 
ATOM     78  C   UNL A   1      41.611  28.098  27.310  1.00  0.00     0.173 A 
ATOM     79  C   UNL A   1      40.161  26.433  28.249  1.00  0.00     0.173 A 
ATOM     80  F   UNL A   1      42.215  29.294  27.367  1.00  0.00    -0.203 F 
ATOM     81  C   UNL A   1      41.788  27.307  26.177  1.00  0.00     0.198 A 
ATOM     82  C   UNL A   1      40.356  25.632  27.125  1.00  0.00     0.198 A 
ATOM     83  F   UNL A   1      39.365  25.986  29.232  1.00  0.00    -0.203 F 
ATOM     84  F   UNL A   1      42.552  27.748  25.168  1.00  0.00    -0.200 F 
ATOM     85  C   UNL A   1      41.164  26.073  26.087  1.00  0.00     0.200 A 
ATOM     86  F   UNL A   1      39.760  24.434  27.045  1.00  0.00    -0.200 F 
ATOM     87  F   UNL A   1      41.335  25.311  24.998  1.00  0.00    -0.200 F 
ENDBRANCH  53  77
BRANCH  65  88
ATOM     88  C   UNL A   1      43.897  28.072  34.597  1.00  0.00     0.064 A 
ATOM     89  C   UNL A   1      45.227  28.502  34.501  1.00  0.00     0.173 A 
ATOM     90  C   UNL A   1      43.619  26.950  35.392  1.00  0.00     0.173 A 
ATOM     91  F   UNL A   1      45.540  29.564  33.745  1.00  0.00    -0.203 F 
ATOM     92  C   UNL A   1      46.242  27.833  35.179  1.00  0.00     0.198 A 
ATOM     93  C   UNL A   1      44.633  26.297  36.085  1.00  0.00     0.198 A 
ATOM     94  F   UNL A   1      42.359  26.507  35.519  1.00  0.00    -0.203 F 
ATOM     95  F   UNL A   1      47.511  28.249  35.061  1.00  0.00    -0.200 F 
ATOM     96  C   UNL A   1      45.943  26.739  35.978  1.00  0.00     0.200 A 
ATOM     97  F   UNL A   1      44.341  25.249  36.868  1.00  0.00    -0.200 F 
ATOM     98  F   UNL A   1      46.920  26.109  36.647  1.00  0.00    -0.200 F 
ENDBRANCH  65  88
ENDBRANCH  39  40
ENDBRANCH  32  34
ENDBRANCH  31  32
ENDBRANCH  30  31
ENDBRANCH   1  30
TORSDOF 15
ENDMDL
