MODEL 1
REMARK VINA RESULT:     -12.7      0.000      0.000
REMARK SMILES Cc1ccc2[nH]c3c(=O)n(CC(=O)OCCOC(=O)c4ccc(-c5c6nc(c(-c7c(F)c(F)c(F)c(F)c7F)c7ccc([nH]7)c(-c7c(F)c(F)c(F)c(F)c7F)c7nc(c(-c8c(F)c(F)c(F)c(F)c8F)c8ccc5[nH]8)C=C7)C=C6)cc4)cnc3c2c1
REMARK SMILES IDX 16 1 15 2 14 3 12 4 13 5 11 6 10 7 1 8 2 9 3 10 87 11 4 12
REMARK SMILES IDX 86 13 5 14 85 15 6 16 7 17 84 18 8 20 83 21 9 22 17 23 18 24
REMARK SMILES IDX 19 25 20 26 21 27 82 28 22 29 81 30 23 31 24 32 25 33 75 34
REMARK SMILES IDX 26 35 80 36 74 37 76 38 27 39 79 40 73 41 72 42 28 44 60 45
REMARK SMILES IDX 40 46 59 47 41 48 44 49 58 50 77 51 42 52 43 53 57 55 78 56
REMARK SMILES IDX 45 57 29 58 30 59 38 60 31 61 32 62 36 63 39 64 33 65 34 66
REMARK SMILES IDX 37 67 35 68 61 69 62 70 70 71 63 72 64 73 68 74 71 75 65 76
REMARK SMILES IDX 66 77 69 78 67 79 46 80 47 81 55 82 48 83 49 84 53 85 56 86
REMARK SMILES IDX 50 87 51 88 54 89 52 90
REMARK H PARENT 6 19 76 43 44 54
REMARK Flexibility Score: inf
ROOT
ATOM      1  C   UNL A   1      43.576  19.109  25.494  1.00  0.00     0.275 C 
ENDROOT
BRANCH   1   2
ATOM      2  C   UNL A   1      42.126  19.462  25.854  1.00  0.00     0.274 C 
BRANCH   2   3
ATOM      3  O   UNL A   1      42.061  20.317  27.022  1.00  0.00    -0.461 OA
BRANCH   3   4
ATOM      4  C   UNL A   1      40.949  21.089  27.163  1.00  0.00     0.326 C 
ATOM      5  O   UNL A   1      40.463  21.421  28.240  1.00  0.00    -0.250 OA
BRANCH   4   6
ATOM      6  C   UNL A   1      40.335  21.546  25.840  1.00  0.00     0.249 C 
BRANCH   6   7
ATOM      7  N   UNL A   1      38.888  21.683  25.789  1.00  0.00    -0.286 N 
ATOM      8  C   UNL A   1      31.426  23.640  24.967  1.00  0.00     0.044 C 
ATOM      9  C   UNL A   1      32.495  22.599  25.114  1.00  0.00    -0.050 A 
ATOM     10  C   UNL A   1      32.204  21.237  24.968  1.00  0.00     0.005 A 
ATOM     11  C   UNL A   1      33.814  23.012  25.358  1.00  0.00     0.016 A 
ATOM     12  C   UNL A   1      33.209  20.265  25.004  1.00  0.00     0.027 A 
ATOM     13  C   UNL A   1      34.841  22.056  25.398  1.00  0.00     0.026 A 
ATOM     14  C   UNL A   1      34.522  20.708  25.184  1.00  0.00     0.048 A 
ATOM     15  C   UNL A   1      36.232  22.108  25.599  1.00  0.00     0.103 A 
ATOM     16  N   UNL A   1      35.709  20.003  25.173  1.00  0.00    -0.349 N 
ATOM     17  C   UNL A   1      36.744  20.868  25.381  1.00  0.00     0.132 A 
ATOM     18  N   UNL A   1      37.031  23.209  25.910  1.00  0.00    -0.236 NA
ATOM     19  H   UNL A   1      35.795  19.032  25.037  1.00  0.00     0.167 HD
ATOM     20  C   UNL A   1      38.134  20.605  25.355  1.00  0.00     0.278 A 
ATOM     21  C   UNL A   1      38.292  22.915  26.010  1.00  0.00     0.203 A 
ATOM     22  O   UNL A   1      38.590  19.560  24.926  1.00  0.00    -0.267 OA
ENDBRANCH   6   7
ENDBRANCH   4   6
ENDBRANCH   3   4
ENDBRANCH   2   3
ENDBRANCH   1   2
BRANCH   1  23
ATOM     23  O   UNL A   1      44.012  19.988  24.450  1.00  0.00    -0.458 OA
BRANCH  23  24
ATOM     24  C   UNL A   1      45.245  20.527  24.609  1.00  0.00     0.338 C 
ATOM     25  O   UNL A   1      46.287  20.142  24.112  1.00  0.00    -0.246 OA
BRANCH  24  26
ATOM     26  C   UNL A   1      45.005  21.874  25.168  1.00  0.00     0.060 A 
ATOM     27  C   UNL A   1      45.609  22.313  26.347  1.00  0.00     0.016 A 
ATOM     28  C   UNL A   1      43.954  22.594  24.608  1.00  0.00     0.016 A 
ATOM     29  C   UNL A   1      45.071  23.411  27.013  1.00  0.00     0.010 A 
ATOM     30  C   UNL A   1      43.354  23.619  25.317  1.00  0.00     0.010 A 
ATOM     31  C   UNL A   1      43.904  24.023  26.529  1.00  0.00    -0.014 A 
BRANCH  31  32
ATOM     32  C   UNL A   1      43.494  25.307  27.086  1.00  0.00     0.031 A 
ATOM     33  C   UNL A   1      44.466  26.376  26.763  1.00  0.00     0.074 A 
ATOM     34  C   UNL A   1      42.361  25.635  27.735  1.00  0.00     0.049 A 
ATOM     35  N   UNL A   1      45.368  26.856  27.551  1.00  0.00    -0.248 NA
ATOM     36  C   UNL A   1      44.547  26.864  25.379  1.00  0.00     0.031 C 
ATOM     37  C   UNL A   1      41.122  24.872  27.858  1.00  0.00     0.029 A 
ATOM     38  N   UNL A   1      42.081  26.807  28.394  1.00  0.00    -0.354 N 
ATOM     39  C   UNL A   1      46.018  27.837  26.816  1.00  0.00     0.074 A 
ATOM     40  C   UNL A   1      45.608  27.670  25.449  1.00  0.00     0.031 C 
ATOM     41  C   UNL A   1      40.166  25.664  28.407  1.00  0.00     0.029 A 
ATOM     42  C   UNL A   1      40.767  26.928  28.817  1.00  0.00     0.049 A 
ATOM     43  H   UNL A   1      42.759  27.503  28.551  1.00  0.00     0.167 HD
ATOM     44  C   UNL A   1      46.626  28.875  27.447  1.00  0.00     0.037 A 
ATOM     45  C   UNL A   1      40.221  27.987  29.466  1.00  0.00     0.037 A 
ATOM     46  C   UNL A   1      46.741  28.627  28.861  1.00  0.00     0.049 A 
ATOM     47  C   UNL A   1      41.313  28.710  30.163  1.00  0.00     0.074 A 
ATOM     48  C   UNL A   1      47.555  27.892  29.694  1.00  0.00     0.029 A 
ATOM     49  N   UNL A   1      45.625  28.963  29.576  1.00  0.00    -0.354 N 
ATOM     50  N   UNL A   1      41.954  28.235  31.194  1.00  0.00    -0.248 NA
ATOM     51  C   UNL A   1      41.874  29.927  29.584  1.00  0.00     0.031 C 
ATOM     52  C   UNL A   1      46.819  27.684  30.900  1.00  0.00     0.029 A 
ATOM     53  C   UNL A   1      45.575  28.296  30.772  1.00  0.00     0.049 A 
ATOM     54  H   UNL A   1      44.942  29.602  29.270  1.00  0.00     0.167 HD
ATOM     55  C   UNL A   1      43.194  28.830  31.121  1.00  0.00     0.074 A 
ATOM     56  C   UNL A   1      43.023  29.990  30.261  1.00  0.00     0.031 C 
ATOM     57  C   UNL A   1      44.316  28.138  31.463  1.00  0.00     0.037 A 
BRANCH  44  58
ATOM     58  C   UNL A   1      46.697  30.284  26.910  1.00  0.00     0.064 A 
ATOM     59  C   UNL A   1      47.930  30.966  26.966  1.00  0.00     0.173 A 
ATOM     60  C   UNL A   1      45.570  31.090  26.642  1.00  0.00     0.173 A 
ATOM     61  F   UNL A   1      49.065  30.304  27.241  1.00  0.00    -0.203 F 
ATOM     62  C   UNL A   1      48.016  32.352  26.827  1.00  0.00     0.198 A 
ATOM     63  C   UNL A   1      45.667  32.466  26.445  1.00  0.00     0.198 A 
ATOM     64  F   UNL A   1      44.321  30.608  26.675  1.00  0.00    -0.203 F 
ATOM     65  F   UNL A   1      49.191  32.968  27.010  1.00  0.00    -0.200 F 
ATOM     66  C   UNL A   1      46.883  33.102  26.568  1.00  0.00     0.200 A 
ATOM     67  F   UNL A   1      44.554  33.180  26.220  1.00  0.00    -0.200 F 
ATOM     68  F   UNL A   1      46.954  34.437  26.487  1.00  0.00    -0.200 F 
ENDBRANCH  44  58
BRANCH  45  69
ATOM     69  C   UNL A   1      38.834  28.509  29.509  1.00  0.00     0.064 A 
ATOM     70  C   UNL A   1      38.137  28.607  30.731  1.00  0.00     0.173 A 
ATOM     71  C   UNL A   1      38.282  29.204  28.420  1.00  0.00     0.173 A 
ATOM     72  F   UNL A   1      38.602  27.996  31.830  1.00  0.00    -0.203 F 
ATOM     73  C   UNL A   1      36.998  29.403  30.868  1.00  0.00     0.198 A 
ATOM     74  C   UNL A   1      37.135  29.989  28.557  1.00  0.00     0.198 A 
ATOM     75  F   UNL A   1      38.899  29.212  27.229  1.00  0.00    -0.203 F 
ATOM     76  F   UNL A   1      36.419  29.538  32.069  1.00  0.00    -0.200 F 
ATOM     77  C   UNL A   1      36.507  30.107  29.785  1.00  0.00     0.200 A 
ATOM     78  F   UNL A   1      36.680  30.689  27.507  1.00  0.00    -0.200 F 
ATOM     79  F   UNL A   1      35.458  30.929  29.932  1.00  0.00    -0.200 F 
ENDBRANCH  45  69
BRANCH  57  80
ATOM     80  C   UNL A   1      44.170  27.028  32.453  1.00  0.00     0.064 A 
ATOM     81  C   UNL A   1      44.152  25.665  32.120  1.00  0.00     0.173 A 
ATOM     82  C   UNL A   1      44.106  27.367  33.811  1.00  0.00     0.173 A 
ATOM     83  F   UNL A   1      44.280  25.262  30.848  1.00  0.00    -0.203 F 
ATOM     84  C   UNL A   1      44.038  24.688  33.108  1.00  0.00     0.198 A 
ATOM     85  C   UNL A   1      44.031  26.390  34.797  1.00  0.00     0.198 A 
ATOM     86  F   UNL A   1      44.149  28.656  34.186  1.00  0.00    -0.203 F 
ATOM     87  F   UNL A   1      43.999  23.391  32.769  1.00  0.00    -0.200 F 
ATOM     88  C   UNL A   1      43.987  25.051  34.445  1.00  0.00     0.200 A 
ATOM     89  F   UNL A   1      44.021  26.745  36.089  1.00  0.00    -0.200 F 
ATOM     90  F   UNL A   1      43.915  24.110  35.396  1.00  0.00    -0.200 F 
ENDBRANCH  57  80
ENDBRANCH  31  32
ENDBRANCH  24  26
ENDBRANCH  23  24
ENDBRANCH   1  23
TORSDOF 12
ENDMDL
MODEL 2
REMARK VINA RESULT:     -12.4      3.237      6.064
REMARK SMILES Cc1ccc2[nH]c3c(=O)n(CC(=O)OCCOC(=O)c4ccc(-c5c6nc(c(-c7c(F)c(F)c(F)c(F)c7F)c7ccc([nH]7)c(-c7c(F)c(F)c(F)c(F)c7F)c7nc(c(-c8c(F)c(F)c(F)c(F)c8F)c8ccc5[nH]8)C=C7)C=C6)cc4)cnc3c2c1
REMARK SMILES IDX 16 1 15 2 14 3 12 4 13 5 11 6 10 7 1 8 2 9 3 10 87 11 4 12
REMARK SMILES IDX 86 13 5 14 85 15 6 16 7 17 84 18 8 20 83 21 9 22 17 23 18 24
REMARK SMILES IDX 19 25 20 26 21 27 82 28 22 29 81 30 23 31 24 32 25 33 75 34
REMARK SMILES IDX 26 35 80 36 74 37 76 38 27 39 79 40 73 41 72 42 28 44 60 45
REMARK SMILES IDX 40 46 59 47 41 48 44 49 58 50 77 51 42 52 43 53 57 55 78 56
REMARK SMILES IDX 45 57 29 58 30 59 38 60 31 61 32 62 36 63 39 64 33 65 34 66
REMARK SMILES IDX 37 67 35 68 61 69 62 70 70 71 63 72 64 73 68 74 71 75 65 76
REMARK SMILES IDX 66 77 69 78 67 79 46 80 47 81 55 82 48 83 49 84 53 85 56 86
REMARK SMILES IDX 50 87 51 88 54 89 52 90
REMARK H PARENT 6 19 76 43 44 54
REMARK Flexibility Score: inf
ROOT
ATOM      1  C   UNL A   1      40.879  20.268  27.381  1.00  0.00     0.275 C 
ENDROOT
BRANCH   1   2
ATOM      2  C   UNL A   1      41.686  19.639  26.237  1.00  0.00     0.274 C 
BRANCH   2   3
ATOM      3  O   UNL A   1      43.031  19.301  26.658  1.00  0.00    -0.461 OA
BRANCH   3   4
ATOM      4  C   UNL A   1      43.917  18.958  25.684  1.00  0.00     0.326 C 
ATOM      5  O   UNL A   1      44.640  17.966  25.716  1.00  0.00    -0.250 OA
BRANCH   4   6
ATOM      6  C   UNL A   1      43.942  19.919  24.496  1.00  0.00     0.249 C 
BRANCH   6   7
ATOM      7  N   UNL A   1      44.669  21.168  24.663  1.00  0.00    -0.286 N 
ATOM      8  C   UNL A   1      49.368  27.339  24.574  1.00  0.00     0.044 C 
ATOM      9  C   UNL A   1      48.041  26.713  24.878  1.00  0.00    -0.050 A 
ATOM     10  C   UNL A   1      46.945  27.492  25.269  1.00  0.00     0.005 A 
ATOM     11  C   UNL A   1      47.895  25.326  24.721  1.00  0.00     0.016 A 
ATOM     12  C   UNL A   1      45.678  26.931  25.458  1.00  0.00     0.027 A 
ATOM     13  C   UNL A   1      46.632  24.740  24.904  1.00  0.00     0.026 A 
ATOM     14  C   UNL A   1      45.544  25.559  25.233  1.00  0.00     0.048 A 
ATOM     15  C   UNL A   1      46.130  23.428  24.820  1.00  0.00     0.103 A 
ATOM     16  N   UNL A   1      44.420  24.759  25.253  1.00  0.00    -0.349 N 
ATOM     17  C   UNL A   1      44.779  23.476  24.958  1.00  0.00     0.132 A 
ATOM     18  N   UNL A   1      46.822  22.240  24.579  1.00  0.00    -0.236 NA
ATOM     19  H   UNL A   1      43.505  25.064  25.450  1.00  0.00     0.167 HD
ATOM     20  C   UNL A   1      43.948  22.346  24.774  1.00  0.00     0.278 A 
ATOM     21  C   UNL A   1      46.050  21.196  24.546  1.00  0.00     0.203 A 
ATOM     22  O   UNL A   1      42.739  22.439  24.660  1.00  0.00    -0.267 OA
ENDBRANCH   6   7
ENDBRANCH   4   6
ENDBRANCH   3   4
ENDBRANCH   2   3
ENDBRANCH   1   2
BRANCH   1  23
ATOM     23  O   UNL A   1      41.086  21.686  27.359  1.00  0.00    -0.458 OA
BRANCH  23  24
ATOM     24  C   UNL A   1      40.115  22.415  26.757  1.00  0.00     0.338 C 
ATOM     25  O   UNL A   1      39.066  22.004  26.296  1.00  0.00    -0.246 OA
BRANCH  24  26
ATOM     26  C   UNL A   1      40.403  23.816  27.127  1.00  0.00     0.060 A 
ATOM     27  C   UNL A   1      41.512  24.175  27.894  1.00  0.00     0.016 A 
ATOM     28  C   UNL A   1      39.384  24.735  26.894  1.00  0.00     0.016 A 
ATOM     29  C   UNL A   1      41.529  25.420  28.517  1.00  0.00     0.010 A 
ATOM     30  C   UNL A   1      39.348  25.929  27.592  1.00  0.00     0.010 A 
ATOM     31  C   UNL A   1      40.416  26.270  28.416  1.00  0.00    -0.014 A 
BRANCH  31  32
ATOM     32  C   UNL A   1      40.539  27.654  28.860  1.00  0.00     0.031 A 
ATOM     33  C   UNL A   1      41.716  28.316  28.254  1.00  0.00     0.074 A 
ATOM     34  C   UNL A   1      39.708  28.383  29.628  1.00  0.00     0.049 A 
ATOM     35  N   UNL A   1      42.854  28.528  28.824  1.00  0.00    -0.248 NA
ATOM     36  C   UNL A   1      41.683  28.649  26.823  1.00  0.00     0.031 C 
ATOM     37  C   UNL A   1      38.340  28.082  30.039  1.00  0.00     0.029 A 
ATOM     38  N   UNL A   1      39.937  29.625  30.165  1.00  0.00    -0.354 N 
ATOM     39  C   UNL A   1      43.627  29.184  27.878  1.00  0.00     0.074 A 
ATOM     40  C   UNL A   1      42.935  29.063  26.623  1.00  0.00     0.031 C 
ATOM     41  C   UNL A   1      37.799  29.181  30.622  1.00  0.00     0.029 A 
ATOM     42  C   UNL A   1      38.830  30.203  30.768  1.00  0.00     0.049 A 
ATOM     43  H   UNL A   1      40.815  30.069  30.124  1.00  0.00     0.167 HD
ATOM     44  C   UNL A   1      44.636  30.007  28.267  1.00  0.00     0.037 A 
ATOM     45  C   UNL A   1      38.774  31.427  31.351  1.00  0.00     0.037 A 
ATOM     46  C   UNL A   1      44.931  29.837  29.667  1.00  0.00     0.049 A 
ATOM     47  C   UNL A   1      40.148  31.797  31.771  1.00  0.00     0.074 A 
ATOM     48  C   UNL A   1      45.618  28.937  30.451  1.00  0.00     0.029 A 
ATOM     49  N   UNL A   1      44.131  30.572  30.496  1.00  0.00    -0.354 N 
ATOM     50  N   UNL A   1      40.791  31.213  32.743  1.00  0.00    -0.248 NA
ATOM     51  C   UNL A   1      40.941  32.717  30.960  1.00  0.00     0.031 C 
ATOM     52  C   UNL A   1      45.094  29.071  31.773  1.00  0.00     0.029 A 
ATOM     53  C   UNL A   1      44.103  30.047  31.761  1.00  0.00     0.049 A 
ATOM     54  H   UNL A   1      43.637  31.377  30.219  1.00  0.00     0.167 HD
ATOM     55  C   UNL A   1      42.117  31.360  32.403  1.00  0.00     0.074 A 
ATOM     56  C   UNL A   1      42.157  32.446  31.437  1.00  0.00     0.031 C 
ATOM     57  C   UNL A   1      43.011  30.363  32.653  1.00  0.00     0.037 A 
BRANCH  44  58
ATOM     58  C   UNL A   1      45.040  31.271  27.548  1.00  0.00     0.064 A 
ATOM     59  C   UNL A   1      46.348  31.363  27.031  1.00  0.00     0.173 A 
ATOM     60  C   UNL A   1      44.327  32.487  27.618  1.00  0.00     0.173 A 
ATOM     61  F   UNL A   1      47.127  30.274  26.943  1.00  0.00    -0.203 F 
ATOM     62  C   UNL A   1      46.918  32.587  26.673  1.00  0.00     0.198 A 
ATOM     63  C   UNL A   1      44.878  33.699  27.205  1.00  0.00     0.198 A 
ATOM     64  F   UNL A   1      43.123  32.579  28.195  1.00  0.00    -0.203 F 
ATOM     65  F   UNL A   1      48.204  32.640  26.303  1.00  0.00    -0.200 F 
ATOM     66  C   UNL A   1      46.182  33.755  26.762  1.00  0.00     0.200 A 
ATOM     67  F   UNL A   1      44.158  34.824  27.322  1.00  0.00    -0.200 F 
ATOM     68  F   UNL A   1      46.741  34.936  26.470  1.00  0.00    -0.200 F 
ENDBRANCH  44  58
BRANCH  45  69
ATOM     69  C   UNL A   1      37.653  32.378  31.541  1.00  0.00     0.064 A 
ATOM     70  C   UNL A   1      37.137  33.112  30.453  1.00  0.00     0.173 A 
ATOM     71  C   UNL A   1      36.868  32.358  32.706  1.00  0.00     0.173 A 
ATOM     72  F   UNL A   1      37.807  33.169  29.292  1.00  0.00    -0.203 F 
ATOM     73  C   UNL A   1      35.887  33.731  30.508  1.00  0.00     0.198 A 
ATOM     74  C   UNL A   1      35.623  32.988  32.763  1.00  0.00     0.198 A 
ATOM     75  F   UNL A   1      37.249  31.646  33.777  1.00  0.00    -0.203 F 
ATOM     76  F   UNL A   1      35.397  34.343  29.421  1.00  0.00    -0.200 F 
ATOM     77  C   UNL A   1      35.123  33.655  31.657  1.00  0.00     0.200 A 
ATOM     78  F   UNL A   1      34.877  32.888  33.872  1.00  0.00    -0.200 F 
ATOM     79  F   UNL A   1      33.891  34.184  31.687  1.00  0.00    -0.200 F 
ENDBRANCH  45  69
BRANCH  57  80
ATOM     80  C   UNL A   1      42.715  29.438  33.789  1.00  0.00     0.064 A 
ATOM     81  C   UNL A   1      41.953  28.264  33.678  1.00  0.00     0.173 A 
ATOM     82  C   UNL A   1      43.286  29.729  35.035  1.00  0.00     0.173 A 
ATOM     83  F   UNL A   1      41.435  27.884  32.502  1.00  0.00    -0.203 F 
ATOM     84  C   UNL A   1      41.745  27.439  34.783  1.00  0.00     0.198 A 
ATOM     85  C   UNL A   1      43.109  28.884  36.125  1.00  0.00     0.198 A 
ATOM     86  F   UNL A   1      44.048  30.824  35.187  1.00  0.00    -0.203 F 
ATOM     87  F   UNL A   1      40.995  26.334  34.664  1.00  0.00    -0.200 F 
ATOM     88  C   UNL A   1      42.330  27.746  36.002  1.00  0.00     0.200 A 
ATOM     89  F   UNL A   1      43.708  29.165  37.291  1.00  0.00    -0.200 F 
ATOM     90  F   UNL A   1      42.161  26.933  37.054  1.00  0.00    -0.200 F 
ENDBRANCH  57  80
ENDBRANCH  31  32
ENDBRANCH  24  26
ENDBRANCH  23  24
ENDBRANCH   1  23
TORSDOF 12
ENDMDL
MODEL 3
REMARK VINA RESULT:     -12.3      3.099      4.757
REMARK SMILES Cc1ccc2[nH]c3c(=O)n(CC(=O)OCCOC(=O)c4ccc(-c5c6nc(c(-c7c(F)c(F)c(F)c(F)c7F)c7ccc([nH]7)c(-c7c(F)c(F)c(F)c(F)c7F)c7nc(c(-c8c(F)c(F)c(F)c(F)c8F)c8ccc5[nH]8)C=C7)C=C6)cc4)cnc3c2c1
REMARK SMILES IDX 16 1 15 2 14 3 12 4 13 5 11 6 10 7 1 8 2 9 3 10 87 11 4 12
REMARK SMILES IDX 86 13 5 14 85 15 6 16 7 17 84 18 8 20 83 21 9 22 17 23 18 24
REMARK SMILES IDX 19 25 20 26 21 27 82 28 22 29 81 30 23 31 24 32 25 33 75 34
REMARK SMILES IDX 26 35 80 36 74 37 76 38 27 39 79 40 73 41 72 42 28 44 60 45
REMARK SMILES IDX 40 46 59 47 41 48 44 49 58 50 77 51 42 52 43 53 57 55 78 56
REMARK SMILES IDX 45 57 29 58 30 59 38 60 31 61 32 62 36 63 39 64 33 65 34 66
REMARK SMILES IDX 37 67 35 68 61 69 62 70 70 71 63 72 64 73 68 74 71 75 65 76
REMARK SMILES IDX 66 77 69 78 67 79 46 80 47 81 55 82 48 83 49 84 53 85 56 86
REMARK SMILES IDX 50 87 51 88 54 89 52 90
REMARK H PARENT 6 19 76 43 44 54
REMARK Flexibility Score: inf
ROOT
ATOM      1  C   UNL A   1      38.944  21.567  25.851  1.00  0.00     0.275 C 
ENDROOT
BRANCH   1   2
ATOM      2  C   UNL A   1      37.550  22.142  25.569  1.00  0.00     0.274 C 
BRANCH   2   3
ATOM      3  O   UNL A   1      37.030  21.679  24.298  1.00  0.00    -0.461 OA
BRANCH   3   4
ATOM      4  C   UNL A   1      36.294  22.561  23.571  1.00  0.00     0.326 C 
ATOM      5  O   UNL A   1      36.755  23.329  22.731  1.00  0.00    -0.250 OA
BRANCH   4   6
ATOM      6  C   UNL A   1      34.795  22.519  23.869  1.00  0.00     0.249 C 
BRANCH   6   7
ATOM      7  N   UNL A   1      34.137  23.782  24.161  1.00  0.00    -0.286 N 
ATOM      8  C   UNL A   1      31.778  30.827  26.393  1.00  0.00     0.044 C 
ATOM      9  C   UNL A   1      31.693  29.656  25.461  1.00  0.00    -0.050 A 
ATOM     10  C   UNL A   1      30.914  29.710  24.298  1.00  0.00     0.005 A 
ATOM     11  C   UNL A   1      32.447  28.507  25.747  1.00  0.00     0.016 A 
ATOM     12  C   UNL A   1      30.906  28.662  23.373  1.00  0.00     0.027 A 
ATOM     13  C   UNL A   1      32.456  27.442  24.833  1.00  0.00     0.026 A 
ATOM     14  C   UNL A   1      31.715  27.557  23.649  1.00  0.00     0.048 A 
ATOM     15  C   UNL A   1      33.085  26.185  24.787  1.00  0.00     0.103 A 
ATOM     16  N   UNL A   1      31.976  26.432  22.892  1.00  0.00    -0.349 N 
ATOM     17  C   UNL A   1      32.843  25.627  23.571  1.00  0.00     0.132 A 
ATOM     18  N   UNL A   1      33.885  25.571  25.752  1.00  0.00    -0.236 NA
ATOM     19  H   UNL A   1      31.597  26.242  22.004  1.00  0.00     0.167 HD
ATOM     20  C   UNL A   1      33.455  24.427  23.142  1.00  0.00     0.278 A 
ATOM     21  C   UNL A   1      34.329  24.407  25.383  1.00  0.00     0.203 A 
ATOM     22  O   UNL A   1      33.426  24.062  21.980  1.00  0.00    -0.267 OA
ENDBRANCH   6   7
ENDBRANCH   4   6
ENDBRANCH   3   4
ENDBRANCH   2   3
ENDBRANCH   1   2
BRANCH   1  23
ATOM     23  O   UNL A   1      39.569  22.365  26.865  1.00  0.00    -0.458 OA
BRANCH  23  24
ATOM     24  C   UNL A   1      40.887  22.625  26.682  1.00  0.00     0.338 C 
ATOM     25  O   UNL A   1      41.691  21.952  26.065  1.00  0.00    -0.246 OA
BRANCH  24  26
ATOM     26  C   UNL A   1      41.049  24.051  27.034  1.00  0.00     0.060 A 
ATOM     27  C   UNL A   1      41.918  24.479  28.039  1.00  0.00     0.016 A 
ATOM     28  C   UNL A   1      40.111  24.927  26.496  1.00  0.00     0.016 A 
ATOM     29  C   UNL A   1      41.755  25.755  28.573  1.00  0.00     0.010 A 
ATOM     30  C   UNL A   1      39.879  26.153  27.093  1.00  0.00     0.010 A 
ATOM     31  C   UNL A   1      40.693  26.566  28.143  1.00  0.00    -0.014 A 
BRANCH  31  32
ATOM     32  C   UNL A   1      40.678  27.974  28.525  1.00  0.00     0.031 A 
ATOM     33  C   UNL A   1      41.852  28.696  27.987  1.00  0.00     0.074 A 
ATOM     34  C   UNL A   1      39.733  28.671  29.183  1.00  0.00     0.049 A 
ATOM     35  N   UNL A   1      42.918  29.019  28.638  1.00  0.00    -0.248 NA
ATOM     36  C   UNL A   1      41.920  28.962  26.542  1.00  0.00     0.031 C 
ATOM     37  C   UNL A   1      38.359  28.285  29.494  1.00  0.00     0.029 A 
ATOM     38  N   UNL A   1      39.824  29.949  29.674  1.00  0.00    -0.354 N 
ATOM     39  C   UNL A   1      43.721  29.690  27.727  1.00  0.00     0.074 A 
ATOM     40  C   UNL A   1      43.151  29.461  26.427  1.00  0.00     0.031 C 
ATOM     41  C   UNL A   1      37.693  29.365  29.974  1.00  0.00     0.029 A 
ATOM     42  C   UNL A   1      38.631  30.468  30.153  1.00  0.00     0.049 A 
ATOM     43  H   UNL A   1      40.669  30.457  29.684  1.00  0.00     0.167 HD
ATOM     44  C   UNL A   1      44.630  30.603  28.157  1.00  0.00     0.037 A 
ATOM     45  C   UNL A   1      38.437  31.708  30.667  1.00  0.00     0.037 A 
ATOM     46  C   UNL A   1      44.815  30.517  29.583  1.00  0.00     0.049 A 
ATOM     47  C   UNL A   1      39.738  32.200  31.180  1.00  0.00     0.074 A 
ATOM     48  C   UNL A   1      45.494  29.708  30.466  1.00  0.00     0.029 A 
ATOM     49  N   UNL A   1      43.895  31.226  30.305  1.00  0.00    -0.354 N 
ATOM     50  N   UNL A   1      40.335  31.710  32.231  1.00  0.00    -0.248 NA
ATOM     51  C   UNL A   1      40.530  33.141  30.393  1.00  0.00     0.031 C 
ATOM     52  C   UNL A   1      44.850  29.860  31.731  1.00  0.00     0.029 A 
ATOM     53  C   UNL A   1      43.795  30.757  31.588  1.00  0.00     0.049 A 
ATOM     54  H   UNL A   1      43.370  31.978  29.947  1.00  0.00     0.167 HD
ATOM     55  C   UNL A   1      41.672  31.942  31.995  1.00  0.00     0.074 A 
ATOM     56  C   UNL A   1      41.717  32.984  30.982  1.00  0.00     0.031 C 
ATOM     57  C   UNL A   1      42.610  31.028  32.369  1.00  0.00     0.037 A 
BRANCH  44  58
ATOM     58  C   UNL A   1      45.004  31.861  27.411  1.00  0.00     0.064 A 
ATOM     59  C   UNL A   1      46.307  31.972  26.886  1.00  0.00     0.173 A 
ATOM     60  C   UNL A   1      44.264  33.062  27.460  1.00  0.00     0.173 A 
ATOM     61  F   UNL A   1      47.111  30.899  26.818  1.00  0.00    -0.203 F 
ATOM     62  C   UNL A   1      46.848  33.200  26.502  1.00  0.00     0.198 A 
ATOM     63  C   UNL A   1      44.786  34.277  27.020  1.00  0.00     0.198 A 
ATOM     64  F   UNL A   1      43.060  33.138  28.039  1.00  0.00    -0.203 F 
ATOM     65  F   UNL A   1      48.131  33.275  26.125  1.00  0.00    -0.200 F 
ATOM     66  C   UNL A   1      46.086  34.353  26.570  1.00  0.00     0.200 A 
ATOM     67  F   UNL A   1      44.041  35.388  27.118  1.00  0.00    -0.200 F 
ATOM     68  F   UNL A   1      46.618  35.540  26.252  1.00  0.00    -0.200 F 
ENDBRANCH  44  58
BRANCH  45  69
ATOM     69  C   UNL A   1      37.238  32.579  30.714  1.00  0.00     0.064 A 
ATOM     70  C   UNL A   1      36.897  33.399  29.619  1.00  0.00     0.173 A 
ATOM     71  C   UNL A   1      36.241  32.397  31.689  1.00  0.00     0.173 A 
ATOM     72  F   UNL A   1      37.777  33.611  28.629  1.00  0.00    -0.203 F 
ATOM     73  C   UNL A   1      35.621  33.948  29.477  1.00  0.00     0.198 A 
ATOM     74  C   UNL A   1      34.970  32.958  31.551  1.00  0.00     0.198 A 
ATOM     75  F   UNL A   1      36.453  31.594  32.742  1.00  0.00    -0.203 F 
ATOM     76  F   UNL A   1      35.315  34.648  28.376  1.00  0.00    -0.200 F 
ATOM     77  C   UNL A   1      34.653  33.713  30.435  1.00  0.00     0.200 A 
ATOM     78  F   UNL A   1      34.029  32.704  32.472  1.00  0.00    -0.200 F 
ATOM     79  F   UNL A   1      33.406  34.176  30.264  1.00  0.00    -0.200 F 
ENDBRANCH  45  69
BRANCH  57  80
ATOM     80  C   UNL A   1      42.284  30.134  33.521  1.00  0.00     0.064 A 
ATOM     81  C   UNL A   1      41.782  28.830  33.396  1.00  0.00     0.173 A 
ATOM     82  C   UNL A   1      42.554  30.607  34.813  1.00  0.00     0.173 A 
ATOM     83  F   UNL A   1      41.567  28.284  32.191  1.00  0.00    -0.203 F 
ATOM     84  C   UNL A   1      41.528  28.049  34.524  1.00  0.00     0.198 A 
ATOM     85  C   UNL A   1      42.336  29.813  35.933  1.00  0.00     0.198 A 
ATOM     86  F   UNL A   1      43.063  31.838  34.986  1.00  0.00    -0.203 F 
ATOM     87  F   UNL A   1      41.027  26.813  34.386  1.00  0.00    -0.200 F 
ATOM     88  C   UNL A   1      41.814  28.539  35.789  1.00  0.00     0.200 A 
ATOM     89  F   UNL A   1      42.650  30.277  37.150  1.00  0.00    -0.200 F 
ATOM     90  F   UNL A   1      41.605  27.774  36.870  1.00  0.00    -0.200 F 
ENDBRANCH  57  80
ENDBRANCH  31  32
ENDBRANCH  24  26
ENDBRANCH  23  24
ENDBRANCH   1  23
TORSDOF 12
ENDMDL
