MODEL 1
REMARK VINA RESULT:     -13.4      0.000      0.000
REMARK SMILES NS(=O)(=O)c1ccc(-n2nc(C(=O)NCCCC(=O)OCCOC(=O)c3ccc(-c4c5nc(c(-c6c(F)c(F)c(F)c(F)c6F)c6ccc([nH]6)c(-c6c(F)c(F)c(F)c(F)c6F)c6nc(c(-c7c(F)c(F)c(F)c(F)c7F)c7ccc4[nH]7)C=C6)C=C5)cc3)cc2-c2ccccc2)cc1
REMARK SMILES IDX 18 1 19 2 17 3 16 4 15 5 14 6 12 7 13 8 11 10 9 11 10 12
REMARK SMILES IDX 90 13 89 14 8 15 5 16 6 17 98 18 7 19 97 20 2 21 3 22 4 23
REMARK SMILES IDX 1 24 91 27 92 28 96 29 93 30 95 31 94 32 20 33 21 34 22 35
REMARK SMILES IDX 23 36 24 37 25 38 26 39 27 40 88 41 28 42 87 43 29 44 30 45
REMARK SMILES IDX 31 46 81 47 32 48 86 49 80 50 82 51 33 52 85 53 79 54 78 55
REMARK SMILES IDX 34 57 66 58 46 59 65 60 47 61 50 62 64 63 83 64 48 65 49 66
REMARK SMILES IDX 63 68 84 69 51 70 35 71 36 72 44 73 37 74 38 75 42 76 45 77
REMARK SMILES IDX 39 78 40 79 43 80 41 81 67 82 68 83 76 84 69 85 70 86 74 87
REMARK SMILES IDX 77 88 71 89 72 90 75 91 73 92 52 93 53 94 61 95 54 96 55 97
REMARK SMILES IDX 59 98 62 99 56 100 57 101 60 102 58 103
REMARK H PARENT 14 9 1 25 1 26 82 56 50 67
REMARK Flexibility Score: inf
ROOT
ATOM      1  C   UNL A   1      32.180  29.162  24.828  1.00  0.00     0.305 C 
ATOM      2  O   UNL A   1      33.291  28.646  24.821  1.00  0.00    -0.252 OA
ENDROOT
BRANCH   1   3
ATOM      3  C   UNL A   1      31.171  28.961  23.721  1.00  0.00     0.124 C 
BRANCH   3   4
ATOM      4  C   UNL A   1      31.239  27.647  22.946  1.00  0.00     0.033 C 
BRANCH   4   5
ATOM      5  C   UNL A   1      30.076  26.672  23.111  1.00  0.00     0.117 C 
BRANCH   5   6
ATOM      6  N   UNL A   1      29.683  26.506  24.498  1.00  0.00    -0.351 N 
ATOM      7  C   UNL A   1      30.069  25.585  25.447  1.00  0.00     0.271 C 
ATOM      8  O   UNL A   1      29.433  25.584  26.503  1.00  0.00    -0.267 OA
ATOM      9  H   UNL A   1      29.025  27.166  24.817  1.00  0.00     0.163 HD
BRANCH   7  10
ATOM     10  C   UNL A   1      31.211  24.675  25.208  1.00  0.00     0.151 A 
ATOM     11  N   UNL A   1      32.236  22.847  24.762  1.00  0.00    -0.232 N 
ATOM     12  N   UNL A   1      31.029  23.449  24.671  1.00  0.00    -0.162 NA
ATOM     13  C   UNL A   1      33.246  23.756  25.038  1.00  0.00     0.075 A 
ATOM     14  C   UNL A   1      32.586  24.875  25.497  1.00  0.00     0.065 A 
BRANCH  11  15
ATOM     15  C   UNL A   1      32.383  21.447  24.587  1.00  0.00     0.065 A 
ATOM     16  C   UNL A   1      33.010  18.768  24.216  1.00  0.00     0.082 A 
ATOM     17  C   UNL A   1      33.074  19.314  25.500  1.00  0.00     0.024 A 
ATOM     18  C   UNL A   1      32.574  19.537  23.129  1.00  0.00     0.024 A 
ATOM     19  C   UNL A   1      32.769  20.658  25.684  1.00  0.00     0.030 A 
ATOM     20  C   UNL A   1      32.229  20.879  23.321  1.00  0.00     0.030 A 
BRANCH  16  21
ATOM     21  S   UNL A   1      33.496  17.080  24.032  1.00  0.00     0.238 S 
ATOM     22  O   UNL A   1      34.682  16.860  24.832  1.00  0.00    -0.207 OA
ATOM     23  O   UNL A   1      33.422  16.738  22.636  1.00  0.00    -0.207 OA
BRANCH  21  24
ATOM     24  N   UNL A   1      32.282  16.201  24.788  1.00  0.00    -0.225 NA
ATOM     25  H   UNL A   1      32.552  15.218  24.831  1.00  0.00     0.137 HD
ATOM     26  H   UNL A   1      31.416  16.292  24.259  1.00  0.00     0.137 HD
ENDBRANCH  21  24
ENDBRANCH  16  21
ENDBRANCH  11  15
BRANCH  13  27
ATOM     27  C   UNL A   1      34.678  23.535  24.828  1.00  0.00     0.000 A 
ATOM     28  C   UNL A   1      35.181  23.234  23.551  1.00  0.00     0.010 A 
ATOM     29  C   UNL A   1      35.575  23.654  25.894  1.00  0.00     0.010 A 
ATOM     30  C   UNL A   1      36.545  23.019  23.353  1.00  0.00     0.001 A 
ATOM     31  C   UNL A   1      36.942  23.448  25.694  1.00  0.00     0.001 A 
ATOM     32  C   UNL A   1      37.425  23.126  24.427  1.00  0.00     0.000 A 
ENDBRANCH  13  27
ENDBRANCH   7  10
ENDBRANCH   5   6
ENDBRANCH   4   5
ENDBRANCH   3   4
ENDBRANCH   1   3
BRANCH   1  33
ATOM     33  O   UNL A   1      31.728  30.021  25.779  1.00  0.00    -0.462 OA
BRANCH  33  34
ATOM     34  C   UNL A   1      32.302  29.889  27.093  1.00  0.00     0.274 C 
BRANCH  34  35
ATOM     35  C   UNL A   1      33.213  31.061  27.439  1.00  0.00     0.275 C 
BRANCH  35  36
ATOM     36  O   UNL A   1      34.588  30.732  27.244  1.00  0.00    -0.458 OA
BRANCH  36  37
ATOM     37  C   UNL A   1      35.457  31.626  27.761  1.00  0.00     0.338 C 
ATOM     38  O   UNL A   1      35.490  32.828  27.565  1.00  0.00    -0.246 OA
BRANCH  37  39
ATOM     39  C   UNL A   1      36.531  30.918  28.455  1.00  0.00     0.060 A 
ATOM     40  C   UNL A   1      37.522  31.665  29.103  1.00  0.00     0.016 A 
ATOM     41  C   UNL A   1      36.679  29.551  28.197  1.00  0.00     0.016 A 
ATOM     42  C   UNL A   1      38.732  31.057  29.377  1.00  0.00     0.010 A 
ATOM     43  C   UNL A   1      37.889  28.957  28.447  1.00  0.00     0.010 A 
ATOM     44  C   UNL A   1      38.921  29.731  28.976  1.00  0.00    -0.014 A 
BRANCH  44  45
ATOM     45  C   UNL A   1      40.192  29.082  29.229  1.00  0.00     0.031 A 
ATOM     46  C   UNL A   1      40.476  28.896  30.673  1.00  0.00     0.074 A 
ATOM     47  C   UNL A   1      40.909  28.529  28.230  1.00  0.00     0.049 A 
ATOM     48  N   UNL A   1      41.493  29.329  31.341  1.00  0.00    -0.248 NA
ATOM     49  C   UNL A   1      39.436  28.270  31.509  1.00  0.00     0.031 C 
ATOM     50  C   UNL A   1      40.559  28.429  26.810  1.00  0.00     0.029 A 
ATOM     51  N   UNL A   1      42.071  27.827  28.301  1.00  0.00    -0.354 N 
ATOM     52  C   UNL A   1      41.312  28.875  32.644  1.00  0.00     0.074 A 
ATOM     53  C   UNL A   1      39.962  28.387  32.728  1.00  0.00     0.031 C 
ATOM     54  C   UNL A   1      41.364  27.519  26.214  1.00  0.00     0.029 A 
ATOM     55  C   UNL A   1      42.355  27.064  27.174  1.00  0.00     0.049 A 
ATOM     56  H   UNL A   1      42.664  27.858  29.086  1.00  0.00     0.167 HD
ATOM     57  C   UNL A   1      42.372  28.703  33.478  1.00  0.00     0.037 A 
ATOM     58  C   UNL A   1      43.294  26.087  27.081  1.00  0.00     0.037 A 
ATOM     59  C   UNL A   1      43.514  29.455  33.027  1.00  0.00     0.049 A 
ATOM     60  C   UNL A   1      44.236  26.271  28.216  1.00  0.00     0.074 A 
ATOM     61  C   UNL A   1      43.755  30.798  32.808  1.00  0.00     0.029 A 
ATOM     62  N   UNL A   1      44.507  28.786  32.355  1.00  0.00    -0.354 N 
ATOM     63  N   UNL A   1      45.071  27.267  28.302  1.00  0.00    -0.248 NA
ATOM     64  C   UNL A   1      43.910  25.617  29.476  1.00  0.00     0.031 C 
ATOM     65  C   UNL A   1      44.558  30.842  31.630  1.00  0.00     0.029 A 
ATOM     66  C   UNL A   1      44.821  29.528  31.246  1.00  0.00     0.049 A 
ATOM     67  H   UNL A   1      44.916  27.931  32.621  1.00  0.00     0.167 HD
ATOM     68  C   UNL A   1      45.021  27.650  29.633  1.00  0.00     0.074 A 
ATOM     69  C   UNL A   1      44.351  26.549  30.325  1.00  0.00     0.031 C 
ATOM     70  C   UNL A   1      45.251  28.944  29.999  1.00  0.00     0.037 A 
BRANCH  57  71
ATOM     71  C   UNL A   1      42.485  27.567  34.464  1.00  0.00     0.064 A 
ATOM     72  C   UNL A   1      42.981  26.326  34.022  1.00  0.00     0.173 A 
ATOM     73  C   UNL A   1      41.849  27.555  35.726  1.00  0.00     0.173 A 
ATOM     74  F   UNL A   1      43.584  26.219  32.829  1.00  0.00    -0.203 F 
ATOM     75  C   UNL A   1      42.780  25.151  34.751  1.00  0.00     0.198 A 
ATOM     76  C   UNL A   1      41.700  26.390  36.476  1.00  0.00     0.198 A 
ATOM     77  F   UNL A   1      41.242  28.633  36.235  1.00  0.00    -0.203 F 
ATOM     78  F   UNL A   1      43.152  23.975  34.228  1.00  0.00    -0.200 F 
ATOM     79  C   UNL A   1      42.134  25.183  35.973  1.00  0.00     0.200 A 
ATOM     80  F   UNL A   1      41.053  26.440  37.649  1.00  0.00    -0.200 F 
ATOM     81  F   UNL A   1      41.883  24.050  36.641  1.00  0.00    -0.200 F 
ENDBRANCH  57  71
BRANCH  58  82
ATOM     82  C   UNL A   1      43.279  24.842  26.274  1.00  0.00     0.064 A 
ATOM     83  C   UNL A   1      44.182  24.654  25.212  1.00  0.00     0.173 A 
ATOM     84  C   UNL A   1      42.577  23.699  26.704  1.00  0.00     0.173 A 
ATOM     85  F   UNL A   1      44.923  25.679  24.767  1.00  0.00    -0.203 F 
ATOM     86  C   UNL A   1      44.391  23.395  24.638  1.00  0.00     0.198 A 
ATOM     87  C   UNL A   1      42.783  22.445  26.125  1.00  0.00     0.198 A 
ATOM     88  F   UNL A   1      41.750  23.756  27.757  1.00  0.00    -0.203 F 
ATOM     89  F   UNL A   1      45.308  23.244  23.671  1.00  0.00    -0.200 F 
ATOM     90  C   UNL A   1      43.699  22.290  25.104  1.00  0.00     0.200 A 
ATOM     91  F   UNL A   1      42.133  21.377  26.610  1.00  0.00    -0.200 F 
ATOM     92  F   UNL A   1      43.946  21.072  24.599  1.00  0.00    -0.200 F 
ENDBRANCH  58  82
BRANCH  70  93
ATOM     93  C   UNL A   1      45.789  29.878  28.949  1.00  0.00     0.064 A 
ATOM     94  C   UNL A   1      44.987  30.587  28.036  1.00  0.00     0.173 A 
ATOM     95  C   UNL A   1      47.161  30.151  28.942  1.00  0.00     0.173 A 
ATOM     96  F   UNL A   1      43.653  30.471  28.053  1.00  0.00    -0.203 F 
ATOM     97  C   UNL A   1      45.543  31.476  27.119  1.00  0.00     0.198 A 
ATOM     98  C   UNL A   1      47.711  31.071  28.052  1.00  0.00     0.198 A 
ATOM     99  F   UNL A   1      47.971  29.553  29.831  1.00  0.00    -0.203 F 
ATOM    100  F   UNL A   1      44.757  32.119  26.243  1.00  0.00    -0.200 F 
ATOM    101  C   UNL A   1      46.906  31.720  27.131  1.00  0.00     0.200 A 
ATOM    102  F   UNL A   1      49.022  31.343  28.105  1.00  0.00    -0.200 F 
ATOM    103  F   UNL A   1      47.440  32.599  26.271  1.00  0.00    -0.200 F 
ENDBRANCH  70  93
ENDBRANCH  44  45
ENDBRANCH  37  39
ENDBRANCH  36  37
ENDBRANCH  35  36
ENDBRANCH  34  35
ENDBRANCH  33  34
ENDBRANCH   1  33
TORSDOF 19
ENDMDL
MODEL 2
REMARK VINA RESULT:     -13.2      5.542      8.573
REMARK SMILES NS(=O)(=O)c1ccc(-n2nc(C(=O)NCCCC(=O)OCCOC(=O)c3ccc(-c4c5nc(c(-c6c(F)c(F)c(F)c(F)c6F)c6ccc([nH]6)c(-c6c(F)c(F)c(F)c(F)c6F)c6nc(c(-c7c(F)c(F)c(F)c(F)c7F)c7ccc4[nH]7)C=C6)C=C5)cc3)cc2-c2ccccc2)cc1
REMARK SMILES IDX 18 1 19 2 17 3 16 4 15 5 14 6 12 7 13 8 11 10 9 11 10 12
REMARK SMILES IDX 90 13 89 14 8 15 5 16 6 17 98 18 7 19 97 20 2 21 3 22 4 23
REMARK SMILES IDX 1 24 91 27 92 28 96 29 93 30 95 31 94 32 20 33 21 34 22 35
REMARK SMILES IDX 23 36 24 37 25 38 26 39 27 40 88 41 28 42 87 43 29 44 30 45
REMARK SMILES IDX 31 46 81 47 32 48 86 49 80 50 82 51 33 52 85 53 79 54 78 55
REMARK SMILES IDX 34 57 66 58 46 59 65 60 47 61 50 62 64 63 83 64 48 65 49 66
REMARK SMILES IDX 63 68 84 69 51 70 35 71 36 72 44 73 37 74 38 75 42 76 45 77
REMARK SMILES IDX 39 78 40 79 43 80 41 81 67 82 68 83 76 84 69 85 70 86 74 87
REMARK SMILES IDX 77 88 71 89 72 90 75 91 73 92 52 93 53 94 61 95 54 96 55 97
REMARK SMILES IDX 59 98 62 99 56 100 57 101 60 102 58 103
REMARK H PARENT 14 9 1 25 1 26 82 56 50 67
REMARK Flexibility Score: inf
ROOT
ATOM      1  C   UNL A   1      32.899  36.192  30.109  1.00  0.00     0.305 C 
ATOM      2  O   UNL A   1      33.026  37.040  29.234  1.00  0.00    -0.252 OA
ENDROOT
BRANCH   1   3
ATOM      3  C   UNL A   1      32.552  36.530  31.541  1.00  0.00     0.124 C 
BRANCH   3   4
ATOM      4  C   UNL A   1      33.686  37.027  32.434  1.00  0.00     0.033 C 
BRANCH   4   5
ATOM      5  C   UNL A   1      34.234  36.059  33.480  1.00  0.00     0.117 C 
BRANCH   5   6
ATOM      6  N   UNL A   1      33.809  34.692  33.247  1.00  0.00    -0.351 N 
ATOM      7  C   UNL A   1      34.502  33.591  32.791  1.00  0.00     0.271 C 
ATOM      8  O   UNL A   1      33.832  32.590  32.528  1.00  0.00    -0.267 OA
ATOM      9  H   UNL A   1      32.861  34.519  33.451  1.00  0.00     0.163 HD
BRANCH   7  10
ATOM     10  C   UNL A   1      35.975  33.616  32.661  1.00  0.00     0.151 A 
ATOM     11  N   UNL A   1      38.025  33.370  33.232  1.00  0.00    -0.232 N 
ATOM     12  N   UNL A   1      36.768  32.995  33.560  1.00  0.00    -0.162 NA
ATOM     13  C   UNL A   1      38.081  33.939  31.969  1.00  0.00     0.075 A 
ATOM     14  C   UNL A   1      36.773  34.262  31.679  1.00  0.00     0.065 A 
BRANCH  11  15
ATOM     15  C   UNL A   1      39.114  33.176  34.120  1.00  0.00     0.065 A 
ATOM     16  C   UNL A   1      41.015  32.664  36.078  1.00  0.00     0.082 A 
ATOM     17  C   UNL A   1      40.667  31.652  35.180  1.00  0.00     0.024 A 
ATOM     18  C   UNL A   1      40.464  33.947  35.963  1.00  0.00     0.024 A 
ATOM     19  C   UNL A   1      39.708  31.907  34.205  1.00  0.00     0.030 A 
ATOM     20  C   UNL A   1      39.529  34.214  34.957  1.00  0.00     0.030 A 
BRANCH  16  21
ATOM     21  S   UNL A   1      42.170  32.253  37.349  1.00  0.00     0.238 S 
ATOM     22  O   UNL A   1      42.978  31.143  36.887  1.00  0.00    -0.207 OA
ATOM     23  O   UNL A   1      41.471  32.238  38.607  1.00  0.00    -0.207 OA
BRANCH  21  24
ATOM     24  N   UNL A   1      43.216  33.564  37.416  1.00  0.00    -0.225 NA
ATOM     25  H   UNL A   1      42.980  34.145  38.221  1.00  0.00     0.137 HD
ATOM     26  H   UNL A   1      43.128  34.113  36.562  1.00  0.00     0.137 HD
ENDBRANCH  21  24
ENDBRANCH  16  21
ENDBRANCH  11  15
BRANCH  13  27
ATOM     27  C   UNL A   1      39.286  34.099  31.153  1.00  0.00     0.000 A 
ATOM     28  C   UNL A   1      40.499  33.502  31.536  1.00  0.00     0.010 A 
ATOM     29  C   UNL A   1      39.239  34.823  29.957  1.00  0.00     0.010 A 
ATOM     30  C   UNL A   1      41.648  33.659  30.760  1.00  0.00     0.001 A 
ATOM     31  C   UNL A   1      40.387  34.971  29.176  1.00  0.00     0.001 A 
ATOM     32  C   UNL A   1      41.590  34.396  29.580  1.00  0.00     0.000 A 
ENDBRANCH  13  27
ENDBRANCH   7  10
ENDBRANCH   5   6
ENDBRANCH   4   5
ENDBRANCH   3   4
ENDBRANCH   1   3
BRANCH   1  33
ATOM     33  O   UNL A   1      33.110  34.860  29.936  1.00  0.00    -0.462 OA
BRANCH  33  34
ATOM     34  C   UNL A   1      34.293  34.483  29.208  1.00  0.00     0.274 C 
BRANCH  34  35
ATOM     35  C   UNL A   1      33.999  33.425  28.152  1.00  0.00     0.275 C 
BRANCH  35  36
ATOM     36  O   UNL A   1      35.191  32.764  27.726  1.00  0.00    -0.458 OA
BRANCH  36  37
ATOM     37  C   UNL A   1      35.104  31.418  27.691  1.00  0.00     0.338 C 
ATOM     38  O   UNL A   1      34.161  30.745  27.313  1.00  0.00    -0.246 OA
BRANCH  37  39
ATOM     39  C   UNL A   1      36.252  30.835  28.383  1.00  0.00     0.060 A 
ATOM     40  C   UNL A   1      37.241  31.689  28.884  1.00  0.00     0.016 A 
ATOM     41  C   UNL A   1      36.451  29.457  28.260  1.00  0.00     0.016 A 
ATOM     42  C   UNL A   1      38.494  31.167  29.142  1.00  0.00     0.010 A 
ATOM     43  C   UNL A   1      37.702  28.945  28.491  1.00  0.00     0.010 A 
ATOM     44  C   UNL A   1      38.725  29.815  28.868  1.00  0.00    -0.014 A 
BRANCH  44  45
ATOM     45  C   UNL A   1      40.039  29.253  29.105  1.00  0.00     0.031 A 
ATOM     46  C   UNL A   1      40.339  29.052  30.544  1.00  0.00     0.074 A 
ATOM     47  C   UNL A   1      40.791  28.777  28.093  1.00  0.00     0.049 A 
ATOM     48  N   UNL A   1      41.324  29.540  31.221  1.00  0.00    -0.248 NA
ATOM     49  C   UNL A   1      39.348  28.333  31.365  1.00  0.00     0.031 C 
ATOM     50  C   UNL A   1      40.446  28.686  26.671  1.00  0.00     0.029 A 
ATOM     51  N   UNL A   1      42.001  28.158  28.145  1.00  0.00    -0.354 N 
ATOM     52  C   UNL A   1      41.179  29.042  32.513  1.00  0.00     0.074 A 
ATOM     53  C   UNL A   1      39.868  28.458  32.586  1.00  0.00     0.031 C 
ATOM     54  C   UNL A   1      41.312  27.852  26.051  1.00  0.00     0.029 A 
ATOM     55  C   UNL A   1      42.335  27.445  26.999  1.00  0.00     0.049 A 
ATOM     56  H   UNL A   1      42.591  28.212  28.930  1.00  0.00     0.167 HD
ATOM     57  C   UNL A   1      42.251  28.926  33.343  1.00  0.00     0.037 A 
ATOM     58  C   UNL A   1      43.342  26.540  26.882  1.00  0.00     0.037 A 
ATOM     59  C   UNL A   1      43.335  29.769  32.909  1.00  0.00     0.049 A 
ATOM     60  C   UNL A   1      44.271  26.763  28.020  1.00  0.00     0.074 A 
ATOM     61  C   UNL A   1      43.479  31.130  32.723  1.00  0.00     0.029 A 
ATOM     62  N   UNL A   1      44.371  29.189  32.220  1.00  0.00    -0.354 N 
ATOM     63  N   UNL A   1      45.033  27.814  28.131  1.00  0.00    -0.248 NA
ATOM     64  C   UNL A   1      43.995  26.056  29.264  1.00  0.00     0.031 C 
ATOM     65  C   UNL A   1      44.274  31.260  31.546  1.00  0.00     0.029 A 
ATOM     66  C   UNL A   1      44.629  29.978  31.129  1.00  0.00     0.049 A 
ATOM     67  H   UNL A   1      44.841  28.359  32.465  1.00  0.00     0.167 HD
ATOM     68  C   UNL A   1      44.958  28.159  29.471  1.00  0.00     0.074 A 
ATOM     69  C   UNL A   1      44.371  26.997  30.136  1.00  0.00     0.031 C 
ATOM     70  C   UNL A   1      45.097  29.457  29.868  1.00  0.00     0.037 A 
BRANCH  57  71
ATOM     71  C   UNL A   1      42.446  27.778  34.300  1.00  0.00     0.064 A 
ATOM     72  C   UNL A   1      43.009  26.579  33.822  1.00  0.00     0.173 A 
ATOM     73  C   UNL A   1      41.831  27.698  35.570  1.00  0.00     0.173 A 
ATOM     74  F   UNL A   1      43.600  26.535  32.619  1.00  0.00    -0.203 F 
ATOM     75  C   UNL A   1      42.890  25.378  34.526  1.00  0.00     0.198 A 
ATOM     76  C   UNL A   1      41.765  26.510  36.294  1.00  0.00     0.198 A 
ATOM     77  F   UNL A   1      41.170  28.727  36.112  1.00  0.00    -0.203 F 
ATOM     78  F   UNL A   1      43.324  24.238  33.971  1.00  0.00    -0.200 F 
ATOM     79  C   UNL A   1      42.263  25.343  35.757  1.00  0.00     0.200 A 
ATOM     80  F   UNL A   1      41.134  26.495  37.477  1.00  0.00    -0.200 F 
ATOM     81  F   UNL A   1      42.090  24.183  36.403  1.00  0.00    -0.200 F 
ENDBRANCH  57  71
BRANCH  58  82
ATOM     82  C   UNL A   1      43.414  25.317  26.045  1.00  0.00     0.064 A 
ATOM     83  C   UNL A   1      44.527  25.064  25.225  1.00  0.00     0.173 A 
ATOM     84  C   UNL A   1      42.531  24.239  26.246  1.00  0.00     0.173 A 
ATOM     85  F   UNL A   1      45.442  26.021  25.013  1.00  0.00    -0.203 F 
ATOM     86  C   UNL A   1      44.759  23.802  24.666  1.00  0.00     0.198 A 
ATOM     87  C   UNL A   1      42.759  22.982  25.683  1.00  0.00     0.198 A 
ATOM     88  F   UNL A   1      41.480  24.355  27.071  1.00  0.00    -0.203 F 
ATOM     89  F   UNL A   1      45.866  23.581  23.943  1.00  0.00    -0.200 F 
ATOM     90  C   UNL A   1      43.880  22.758  24.906  1.00  0.00     0.200 A 
ATOM     91  F   UNL A   1      41.920  21.972  25.953  1.00  0.00    -0.200 F 
ATOM     92  F   UNL A   1      44.133  21.533  24.426  1.00  0.00    -0.200 F 
ENDBRANCH  58  82
BRANCH  70  93
ATOM     93  C   UNL A   1      45.564  30.452  28.841  1.00  0.00     0.064 A 
ATOM     94  C   UNL A   1      44.708  31.150  27.970  1.00  0.00     0.173 A 
ATOM     95  C   UNL A   1      46.920  30.796  28.817  1.00  0.00     0.173 A 
ATOM     96  F   UNL A   1      43.383  30.965  28.008  1.00  0.00    -0.203 F 
ATOM     97  C   UNL A   1      45.199  32.097  27.074  1.00  0.00     0.198 A 
ATOM     98  C   UNL A   1      47.404  31.772  27.949  1.00  0.00     0.198 A 
ATOM     99  F   UNL A   1      47.778  30.210  29.668  1.00  0.00    -0.203 F 
ATOM    100  F   UNL A   1      44.363  32.728  26.236  1.00  0.00    -0.200 F 
ATOM    101  C   UNL A   1      46.548  32.410  27.067  1.00  0.00     0.200 A 
ATOM    102  F   UNL A   1      48.701  32.109  27.985  1.00  0.00    -0.200 F 
ATOM    103  F   UNL A   1      47.018  33.344  26.229  1.00  0.00    -0.200 F 
ENDBRANCH  70  93
ENDBRANCH  44  45
ENDBRANCH  37  39
ENDBRANCH  36  37
ENDBRANCH  35  36
ENDBRANCH  34  35
ENDBRANCH  33  34
ENDBRANCH   1  33
TORSDOF 19
ENDMDL
MODEL 3
REMARK VINA RESULT:     -12.7      3.581      9.195
REMARK SMILES NS(=O)(=O)c1ccc(-n2nc(C(=O)NCCCC(=O)OCCOC(=O)c3ccc(-c4c5nc(c(-c6c(F)c(F)c(F)c(F)c6F)c6ccc([nH]6)c(-c6c(F)c(F)c(F)c(F)c6F)c6nc(c(-c7c(F)c(F)c(F)c(F)c7F)c7ccc4[nH]7)C=C6)C=C5)cc3)cc2-c2ccccc2)cc1
REMARK SMILES IDX 18 1 19 2 17 3 16 4 15 5 14 6 12 7 13 8 11 10 9 11 10 12
REMARK SMILES IDX 90 13 89 14 8 15 5 16 6 17 98 18 7 19 97 20 2 21 3 22 4 23
REMARK SMILES IDX 1 24 91 27 92 28 96 29 93 30 95 31 94 32 20 33 21 34 22 35
REMARK SMILES IDX 23 36 24 37 25 38 26 39 27 40 88 41 28 42 87 43 29 44 30 45
REMARK SMILES IDX 31 46 81 47 32 48 86 49 80 50 82 51 33 52 85 53 79 54 78 55
REMARK SMILES IDX 34 57 66 58 46 59 65 60 47 61 50 62 64 63 83 64 48 65 49 66
REMARK SMILES IDX 63 68 84 69 51 70 35 71 36 72 44 73 37 74 38 75 42 76 45 77
REMARK SMILES IDX 39 78 40 79 43 80 41 81 67 82 68 83 76 84 69 85 70 86 74 87
REMARK SMILES IDX 77 88 71 89 72 90 75 91 73 92 52 93 53 94 61 95 54 96 55 97
REMARK SMILES IDX 59 98 62 99 56 100 57 101 60 102 58 103
REMARK H PARENT 14 9 1 25 1 26 82 56 50 67
REMARK Flexibility Score: inf
ROOT
ATOM      1  C   UNL A   1      38.942  22.720  26.489  1.00  0.00     0.305 C 
ATOM      2  O   UNL A   1      38.691  23.908  26.648  1.00  0.00    -0.252 OA
ENDROOT
BRANCH   1   3
ATOM      3  C   UNL A   1      38.157  21.829  25.554  1.00  0.00     0.124 C 
BRANCH   3   4
ATOM      4  C   UNL A   1      36.639  21.988  25.551  1.00  0.00     0.033 C 
BRANCH   4   5
ATOM      5  C   UNL A   1      36.035  22.955  24.536  1.00  0.00     0.117 C 
BRANCH   5   6
ATOM      6  N   UNL A   1      34.949  22.361  23.781  1.00  0.00    -0.351 N 
ATOM      7  C   UNL A   1      33.644  22.765  23.596  1.00  0.00     0.271 C 
ATOM      8  O   UNL A   1      32.894  21.961  23.037  1.00  0.00    -0.267 OA
ATOM      9  H   UNL A   1      35.184  21.522  23.320  1.00  0.00     0.163 HD
BRANCH   7  10
ATOM     10  C   UNL A   1      33.193  24.107  24.021  1.00  0.00     0.151 A 
ATOM     11  N   UNL A   1      32.001  25.888  24.047  1.00  0.00    -0.232 N 
ATOM     12  N   UNL A   1      31.999  24.602  23.627  1.00  0.00    -0.162 NA
ATOM     13  C   UNL A   1      33.008  26.128  24.969  1.00  0.00     0.075 A 
ATOM     14  C   UNL A   1      33.871  25.064  24.821  1.00  0.00     0.065 A 
BRANCH  11  15
ATOM     15  C   UNL A   1      31.057  26.829  23.562  1.00  0.00     0.065 A 
ATOM     16  C   UNL A   1      29.247  28.832  22.914  1.00  0.00     0.082 A 
ATOM     17  C   UNL A   1      30.610  29.043  22.691  1.00  0.00     0.024 A 
ATOM     18  C   UNL A   1      28.780  27.604  23.400  1.00  0.00     0.024 A 
ATOM     19  C   UNL A   1      31.516  28.042  23.024  1.00  0.00     0.030 A 
ATOM     20  C   UNL A   1      29.689  26.583  23.698  1.00  0.00     0.030 A 
BRANCH  16  21
ATOM     21  S   UNL A   1      28.154  30.173  22.556  1.00  0.00     0.238 S 
ATOM     22  O   UNL A   1      28.884  31.412  22.729  1.00  0.00    -0.207 OA
ATOM     23  O   UNL A   1      26.894  29.913  23.202  1.00  0.00    -0.207 OA
BRANCH  21  24
ATOM     24  N   UNL A   1      27.862  30.057  20.908  1.00  0.00    -0.225 NA
ATOM     25  H   UNL A   1      28.351  30.810  20.422  1.00  0.00     0.137 HD
ATOM     26  H   UNL A   1      26.860  30.135  20.734  1.00  0.00     0.137 HD
ENDBRANCH  21  24
ENDBRANCH  16  21
ENDBRANCH  11  15
BRANCH  13  27
ATOM     27  C   UNL A   1      33.067  27.258  25.898  1.00  0.00     0.000 A 
ATOM     28  C   UNL A   1      31.994  27.538  26.761  1.00  0.00     0.010 A 
ATOM     29  C   UNL A   1      34.212  28.059  25.965  1.00  0.00     0.010 A 
ATOM     30  C   UNL A   1      32.050  28.619  27.642  1.00  0.00     0.001 A 
ATOM     31  C   UNL A   1      34.271  29.134  26.854  1.00  0.00     0.001 A 
ATOM     32  C   UNL A   1      33.190  29.417  27.686  1.00  0.00     0.000 A 
ENDBRANCH  13  27
ENDBRANCH   7  10
ENDBRANCH   5   6
ENDBRANCH   4   5
ENDBRANCH   3   4
ENDBRANCH   1   3
BRANCH   1  33
ATOM     33  O   UNL A   1      39.902  22.032  27.162  1.00  0.00    -0.462 OA
BRANCH  33  34
ATOM     34  C   UNL A   1      40.467  20.890  26.492  1.00  0.00     0.274 C 
BRANCH  34  35
ATOM     35  C   UNL A   1      41.950  21.078  26.196  1.00  0.00     0.275 C 
BRANCH  35  36
ATOM     36  O   UNL A   1      42.165  22.096  25.219  1.00  0.00    -0.458 OA
BRANCH  36  37
ATOM     37  C   UNL A   1      43.130  22.985  25.537  1.00  0.00     0.338 C 
ATOM     38  O   UNL A   1      44.324  22.896  25.312  1.00  0.00    -0.246 OA
BRANCH  37  39
ATOM     39  C   UNL A   1      42.575  24.020  26.407  1.00  0.00     0.060 A 
ATOM     40  C   UNL A   1      41.809  25.042  25.835  1.00  0.00     0.016 A 
ATOM     41  C   UNL A   1      43.069  24.102  27.713  1.00  0.00     0.016 A 
ATOM     42  C   UNL A   1      41.649  26.220  26.540  1.00  0.00     0.010 A 
ATOM     43  C   UNL A   1      42.931  25.280  28.400  1.00  0.00     0.010 A 
ATOM     44  C   UNL A   1      42.278  26.346  27.783  1.00  0.00    -0.014 A 
BRANCH  44  45
ATOM     45  C   UNL A   1      42.146  27.583  28.527  1.00  0.00     0.031 A 
ATOM     46  C   UNL A   1      43.237  28.550  28.252  1.00  0.00     0.074 A 
ATOM     47  C   UNL A   1      41.025  27.869  29.218  1.00  0.00     0.049 A 
ATOM     48  N   UNL A   1      44.053  29.082  29.099  1.00  0.00    -0.248 NA
ATOM     49  C   UNL A   1      43.550  28.861  26.845  1.00  0.00     0.031 C 
ATOM     50  C   UNL A   1      39.790  27.083  29.310  1.00  0.00     0.029 A 
ATOM     51  N   UNL A   1      40.709  29.000  29.903  1.00  0.00    -0.354 N 
ATOM     52  C   UNL A   1      44.866  29.935  28.357  1.00  0.00     0.074 A 
ATOM     53  C   UNL A   1      44.631  29.629  26.972  1.00  0.00     0.031 C 
ATOM     54  C   UNL A   1      38.801  27.861  29.807  1.00  0.00     0.029 A 
ATOM     55  C   UNL A   1      39.355  29.153  30.175  1.00  0.00     0.049 A 
ATOM     56  H   UNL A   1      41.386  29.658  30.183  1.00  0.00     0.167 HD
ATOM     57  C   UNL A   1      45.478  31.000  28.940  1.00  0.00     0.037 A 
ATOM     58  C   UNL A   1      38.744  30.288  30.604  1.00  0.00     0.037 A 
ATOM     59  C   UNL A   1      45.556  30.836  30.368  1.00  0.00     0.049 A 
ATOM     60  C   UNL A   1      39.803  31.182  31.142  1.00  0.00     0.074 A 
ATOM     61  C   UNL A   1      46.140  29.898  31.198  1.00  0.00     0.029 A 
ATOM     62  N   UNL A   1      44.644  31.503  31.148  1.00  0.00    -0.354 N 
ATOM     63  N   UNL A   1      40.456  30.943  32.244  1.00  0.00    -0.248 NA
ATOM     64  C   UNL A   1      40.464  32.082  30.206  1.00  0.00     0.031 C 
ATOM     65  C   UNL A   1      45.211  29.717  32.264  1.00  0.00     0.029 A 
ATOM     66  C   UNL A   1      44.156  30.606  32.064  1.00  0.00     0.049 A 
ATOM     67  H   UNL A   1      44.387  32.450  31.064  1.00  0.00     0.167 HD
ATOM     68  C   UNL A   1      41.768  31.279  31.951  1.00  0.00     0.074 A 
ATOM     69  C   UNL A   1      41.701  32.049  30.710  1.00  0.00     0.031 C 
ATOM     70  C   UNL A   1      42.807  30.649  32.573  1.00  0.00     0.037 A 
BRANCH  57  71
ATOM     71  C   UNL A   1      45.650  32.338  28.265  1.00  0.00     0.064 A 
ATOM     72  C   UNL A   1      44.515  32.994  27.752  1.00  0.00     0.173 A 
ATOM     73  C   UNL A   1      46.895  32.848  27.835  1.00  0.00     0.173 A 
ATOM     74  F   UNL A   1      43.281  32.580  28.078  1.00  0.00    -0.203 F 
ATOM     75  C   UNL A   1      44.622  34.026  26.816  1.00  0.00     0.198 A 
ATOM     76  C   UNL A   1      46.997  33.915  26.944  1.00  0.00     0.198 A 
ATOM     77  F   UNL A   1      48.058  32.271  28.158  1.00  0.00    -0.203 F 
ATOM     78  F   UNL A   1      43.514  34.530  26.255  1.00  0.00    -0.200 F 
ATOM     79  C   UNL A   1      45.862  34.481  26.408  1.00  0.00     0.200 A 
ATOM     80  F   UNL A   1      48.210  34.326  26.547  1.00  0.00    -0.200 F 
ATOM     81  F   UNL A   1      45.966  35.424  25.463  1.00  0.00    -0.200 F 
ENDBRANCH  57  71
BRANCH  58  82
ATOM     82  C   UNL A   1      37.374  30.783  30.323  1.00  0.00     0.064 A 
ATOM     83  C   UNL A   1      36.526  31.201  31.364  1.00  0.00     0.173 A 
ATOM     84  C   UNL A   1      36.972  31.124  29.018  1.00  0.00     0.173 A 
ATOM     85  F   UNL A   1      36.852  30.955  32.641  1.00  0.00    -0.203 F 
ATOM     86  C   UNL A   1      35.365  31.941  31.115  1.00  0.00     0.198 A 
ATOM     87  C   UNL A   1      35.810  31.857  28.771  1.00  0.00     0.198 A 
ATOM     88  F   UNL A   1      37.749  30.839  27.963  1.00  0.00    -0.203 F 
ATOM     89  F   UNL A   1      34.615  32.377  32.138  1.00  0.00    -0.200 F 
ATOM     90  C   UNL A   1      35.014  32.278  29.818  1.00  0.00     0.200 A 
ATOM     91  F   UNL A   1      35.503  32.208  27.513  1.00  0.00    -0.200 F 
ATOM     92  F   UNL A   1      33.938  33.042  29.583  1.00  0.00    -0.200 F 
ENDBRANCH  58  82
BRANCH  70  93
ATOM     93  C   UNL A   1      42.481  29.759  33.741  1.00  0.00     0.064 A 
ATOM     94  C   UNL A   1      42.060  28.422  33.623  1.00  0.00     0.173 A 
ATOM     95  C   UNL A   1      42.715  30.244  35.032  1.00  0.00     0.173 A 
ATOM     96  F   UNL A   1      41.924  27.843  32.423  1.00  0.00    -0.203 F 
ATOM     97  C   UNL A   1      41.822  27.634  34.747  1.00  0.00     0.198 A 
ATOM     98  C   UNL A   1      42.516  29.443  36.153  1.00  0.00     0.198 A 
ATOM     99  F   UNL A   1      43.178  31.493  35.208  1.00  0.00    -0.203 F 
ATOM    100  F   UNL A   1      41.396  26.370  34.605  1.00  0.00    -0.200 F 
ATOM    101  C   UNL A   1      42.054  28.145  36.012  1.00  0.00     0.200 A 
ATOM    102  F   UNL A   1      42.794  29.926  37.373  1.00  0.00    -0.200 F 
ATOM    103  F   UNL A   1      41.857  27.379  37.094  1.00  0.00    -0.200 F 
ENDBRANCH  70  93
ENDBRANCH  44  45
ENDBRANCH  37  39
ENDBRANCH  36  37
ENDBRANCH  35  36
ENDBRANCH  34  35
ENDBRANCH  33  34
ENDBRANCH   1  33
TORSDOF 19
ENDMDL
