MODEL 1
REMARK VINA RESULT:     -11.7      0.000      0.000
REMARK SMILES CC(C)C[C@H](CNC(=O)Nc1ccccc1Br)C(=O)OCCOC(=O)c1ccc(-c2c3nc(c(-c4c(F)c(F)c(F)c(F)c4F)c4ccc([nH]4)c(-c4c(F)c(F)c(F)c(F)c4F)c4nc(c(-c5c(F)c(F)c(F)c(F)c5F)c5ccc2[nH]5)C=C4)C=C3)cc1
REMARK SMILES IDX 21 1 20 2 18 3 19 4 5 5 4 6 2 7 1 8 3 9 6 10 7 11 8 12 9 14
REMARK SMILES IDX 10 15 11 17 12 18 16 19 13 20 15 21 17 22 14 23 22 24 23 25
REMARK SMILES IDX 24 26 25 27 26 28 27 29 88 30 28 31 87 32 29 33 30 34 31 35
REMARK SMILES IDX 81 36 32 37 86 38 80 39 82 40 33 41 85 42 79 43 78 44 34 46
REMARK SMILES IDX 66 47 46 48 65 49 47 50 50 51 64 52 83 53 48 54 49 55 63 57
REMARK SMILES IDX 84 58 51 59 35 60 36 61 44 62 37 63 38 64 42 65 45 66 39 67
REMARK SMILES IDX 40 68 43 69 41 70 67 71 68 72 76 73 69 74 70 75 74 76 77 77
REMARK SMILES IDX 71 78 72 79 75 80 73 81 52 82 53 83 61 84 54 85 55 86 59 87
REMARK SMILES IDX 62 88 56 89 57 90 60 91 58 92
REMARK H PARENT 7 13 10 16 82 45 50 56
REMARK Flexibility Score: inf
ROOT
ATOM      1  C   UNL A   1      31.419  29.340  25.370  1.00  0.00     0.274 C 
ENDROOT
BRANCH   1   2
ATOM      2  O   UNL A   1      32.282  28.206  25.589  1.00  0.00    -0.462 OA
BRANCH   2   3
ATOM      3  C   UNL A   1      31.682  27.095  26.088  1.00  0.00     0.310 C 
ATOM      4  O   UNL A   1      31.033  27.058  27.129  1.00  0.00    -0.252 OA
BRANCH   3   5
ATOM      5  C   UNL A   1      31.853  25.877  25.210  1.00  0.00     0.119 C 
BRANCH   5   6
ATOM      6  C   UNL A   1      32.615  26.011  23.882  1.00  0.00     0.020 C 
BRANCH   6   7
ATOM      7  C   UNL A   1      31.849  25.988  22.551  1.00  0.00    -0.017 C 
ATOM      8  C   UNL A   1      31.078  27.282  22.281  1.00  0.00     0.007 C 
ATOM      9  C   UNL A   1      32.866  25.785  21.417  1.00  0.00     0.007 C 
ENDBRANCH   6   7
ENDBRANCH   5   6
BRANCH   5  10
ATOM     10  C   UNL A   1      30.579  25.029  25.099  1.00  0.00     0.133 C 
BRANCH  10  11
ATOM     11  N   UNL A   1      30.120  24.414  26.332  1.00  0.00    -0.337 N 
ATOM     12  C   UNL A   1      30.231  23.162  26.826  1.00  0.00     0.319 C 
ATOM     13  H   UNL A   1      29.632  25.031  26.924  1.00  0.00     0.165 HD
ATOM     14  O   UNL A   1      29.564  22.867  27.819  1.00  0.00    -0.249 OA
ATOM     15  N   UNL A   1      30.937  22.194  26.197  1.00  0.00    -0.307 N 
ATOM     16  H   UNL A   1      30.653  21.277  26.416  1.00  0.00     0.171 HD
BRANCH  15  17
ATOM     17  C   UNL A   1      32.004  22.267  25.286  1.00  0.00     0.057 A 
ATOM     18  C   UNL A   1      31.665  22.100  23.936  1.00  0.00     0.027 A 
ATOM     19  C   UNL A   1      33.340  22.535  25.630  1.00  0.00     0.041 A 
ATOM     20  C   UNL A   1      32.612  22.331  22.938  1.00  0.00     0.002 A 
ATOM     21  C   UNL A   1      34.288  22.756  24.623  1.00  0.00     0.018 A 
ATOM     22  Br  UNL A   1      33.972  22.514  27.422  1.00  0.00    -0.049 Br
ATOM     23  C   UNL A   1      33.917  22.679  23.280  1.00  0.00     0.001 A 
ENDBRANCH  15  17
ENDBRANCH  10  11
ENDBRANCH   5  10
ENDBRANCH   3   5
ENDBRANCH   2   3
ENDBRANCH   1   2
BRANCH   1  24
ATOM     24  C   UNL A   1      31.778  30.521  26.277  1.00  0.00     0.275 C 
BRANCH  24  25
ATOM     25  O   UNL A   1      33.203  30.642  26.452  1.00  0.00    -0.458 OA
BRANCH  25  26
ATOM     26  C   UNL A   1      33.607  31.660  27.246  1.00  0.00     0.338 C 
ATOM     27  O   UNL A   1      32.991  32.672  27.530  1.00  0.00    -0.246 OA
BRANCH  26  28
ATOM     28  C   UNL A   1      34.902  31.327  27.856  1.00  0.00     0.060 A 
ATOM     29  C   UNL A   1      35.079  30.039  28.373  1.00  0.00     0.016 A 
ATOM     30  C   UNL A   1      35.897  32.292  28.002  1.00  0.00     0.016 A 
ATOM     31  C   UNL A   1      36.260  29.700  29.025  1.00  0.00     0.010 A 
ATOM     32  C   UNL A   1      37.079  31.955  28.664  1.00  0.00     0.010 A 
ATOM     33  C   UNL A   1      37.265  30.660  29.182  1.00  0.00    -0.014 A 
BRANCH  33  34
ATOM     34  C   UNL A   1      38.494  30.335  29.938  1.00  0.00     0.031 A 
ATOM     35  C   UNL A   1      39.485  29.373  29.360  1.00  0.00     0.074 A 
ATOM     36  C   UNL A   1      38.703  30.882  31.148  1.00  0.00     0.049 A 
ATOM     37  N   UNL A   1      40.528  28.818  29.920  1.00  0.00    -0.248 NA
ATOM     38  C   UNL A   1      39.269  28.979  27.960  1.00  0.00     0.031 C 
ATOM     39  C   UNL A   1      37.835  31.870  31.787  1.00  0.00     0.029 A 
ATOM     40  N   UNL A   1      39.698  30.662  32.067  1.00  0.00    -0.354 N 
ATOM     41  C   UNL A   1      41.073  27.982  28.955  1.00  0.00     0.074 A 
ATOM     42  C   UNL A   1      40.248  28.105  27.772  1.00  0.00     0.031 C 
ATOM     43  C   UNL A   1      38.318  32.148  33.008  1.00  0.00     0.029 A 
ATOM     44  C   UNL A   1      39.496  31.321  33.254  1.00  0.00     0.049 A 
ATOM     45  H   UNL A   1      40.478  30.088  31.892  1.00  0.00     0.167 HD
ATOM     46  C   UNL A   1      42.160  27.181  29.058  1.00  0.00     0.037 A 
ATOM     47  C   UNL A   1      40.157  31.225  34.423  1.00  0.00     0.037 A 
ATOM     48  C   UNL A   1      42.982  27.080  30.235  1.00  0.00     0.049 A 
ATOM     49  C   UNL A   1      41.329  30.290  34.532  1.00  0.00     0.074 A 
ATOM     50  C   UNL A   1      44.123  26.323  30.430  1.00  0.00     0.029 A 
ATOM     51  N   UNL A   1      42.743  27.760  31.421  1.00  0.00    -0.354 N 
ATOM     52  N   UNL A   1      41.841  29.498  33.621  1.00  0.00    -0.248 NA
ATOM     53  C   UNL A   1      42.012  30.227  35.832  1.00  0.00     0.031 C 
ATOM     54  C   UNL A   1      44.551  26.512  31.748  1.00  0.00     0.029 A 
ATOM     55  C   UNL A   1      43.702  27.419  32.362  1.00  0.00     0.049 A 
ATOM     56  H   UNL A   1      42.002  28.390  31.572  1.00  0.00     0.167 HD
ATOM     57  C   UNL A   1      42.909  28.854  34.228  1.00  0.00     0.074 A 
ATOM     58  C   UNL A   1      42.980  29.354  35.586  1.00  0.00     0.031 C 
ATOM     59  C   UNL A   1      43.755  27.931  33.707  1.00  0.00     0.037 A 
BRANCH  46  60
ATOM     60  C   UNL A   1      42.490  26.316  27.879  1.00  0.00     0.064 A 
ATOM     61  C   UNL A   1      41.876  25.072  27.678  1.00  0.00     0.173 A 
ATOM     62  C   UNL A   1      43.428  26.748  26.930  1.00  0.00     0.173 A 
ATOM     63  F   UNL A   1      40.985  24.607  28.566  1.00  0.00    -0.203 F 
ATOM     64  C   UNL A   1      42.209  24.280  26.581  1.00  0.00     0.198 A 
ATOM     65  C   UNL A   1      43.740  25.966  25.823  1.00  0.00     0.198 A 
ATOM     66  F   UNL A   1      44.042  27.933  27.077  1.00  0.00    -0.203 F 
ATOM     67  F   UNL A   1      41.645  23.074  26.433  1.00  0.00    -0.200 F 
ATOM     68  C   UNL A   1      43.138  24.729  25.653  1.00  0.00     0.200 A 
ATOM     69  F   UNL A   1      44.632  26.404  24.923  1.00  0.00    -0.200 F 
ATOM     70  F   UNL A   1      43.458  23.965  24.600  1.00  0.00    -0.200 F 
ENDBRANCH  46  60
BRANCH  47  71
ATOM     71  C   UNL A   1      39.685  32.008  35.592  1.00  0.00     0.064 A 
ATOM     72  C   UNL A   1      40.201  33.280  35.869  1.00  0.00     0.173 A 
ATOM     73  C   UNL A   1      38.686  31.508  36.442  1.00  0.00     0.173 A 
ATOM     74  F   UNL A   1      41.174  33.789  35.100  1.00  0.00    -0.203 F 
ATOM     75  C   UNL A   1      39.736  34.023  36.953  1.00  0.00     0.198 A 
ATOM     76  C   UNL A   1      38.205  32.261  37.509  1.00  0.00     0.198 A 
ATOM     77  F   UNL A   1      38.161  30.294  36.218  1.00  0.00    -0.203 F 
ATOM     78  F   UNL A   1      40.264  35.227  37.212  1.00  0.00    -0.200 F 
ATOM     79  C   UNL A   1      38.732  33.517  37.766  1.00  0.00     0.200 A 
ATOM     80  F   UNL A   1      37.227  31.772  38.285  1.00  0.00    -0.200 F 
ATOM     81  F   UNL A   1      38.277  34.238  38.799  1.00  0.00    -0.200 F 
ENDBRANCH  47  71
BRANCH  59  82
ATOM     82  C   UNL A   1      44.847  27.420  34.598  1.00  0.00     0.064 A 
ATOM     83  C   UNL A   1      44.680  26.257  35.365  1.00  0.00     0.173 A 
ATOM     84  C   UNL A   1      46.092  28.062  34.634  1.00  0.00     0.173 A 
ATOM     85  F   UNL A   1      43.500  25.618  35.375  1.00  0.00    -0.203 F 
ATOM     86  C   UNL A   1      45.722  25.762  36.144  1.00  0.00     0.198 A 
ATOM     87  C   UNL A   1      47.138  27.552  35.396  1.00  0.00     0.198 A 
ATOM     88  F   UNL A   1      46.300  29.174  33.912  1.00  0.00    -0.203 F 
ATOM     89  F   UNL A   1      45.534  24.666  36.892  1.00  0.00    -0.200 F 
ATOM     90  C   UNL A   1      46.951  26.405  36.153  1.00  0.00     0.200 A 
ATOM     91  F   UNL A   1      48.329  28.167  35.395  1.00  0.00    -0.200 F 
ATOM     92  F   UNL A   1      47.957  25.920  36.894  1.00  0.00    -0.200 F 
ENDBRANCH  59  82
ENDBRANCH  33  34
ENDBRANCH  26  28
ENDBRANCH  25  26
ENDBRANCH  24  25
ENDBRANCH   1  24
TORSDOF 16
ENDMDL
MODEL 2
REMARK VINA RESULT:     -11.6      4.587      9.686
REMARK SMILES CC(C)C[C@H](CNC(=O)Nc1ccccc1Br)C(=O)OCCOC(=O)c1ccc(-c2c3nc(c(-c4c(F)c(F)c(F)c(F)c4F)c4ccc([nH]4)c(-c4c(F)c(F)c(F)c(F)c4F)c4nc(c(-c5c(F)c(F)c(F)c(F)c5F)c5ccc2[nH]5)C=C4)C=C3)cc1
REMARK SMILES IDX 21 1 20 2 18 3 19 4 5 5 4 6 2 7 1 8 3 9 6 10 7 11 8 12 9 14
REMARK SMILES IDX 10 15 11 17 12 18 16 19 13 20 15 21 17 22 14 23 22 24 23 25
REMARK SMILES IDX 24 26 25 27 26 28 27 29 88 30 28 31 87 32 29 33 30 34 31 35
REMARK SMILES IDX 81 36 32 37 86 38 80 39 82 40 33 41 85 42 79 43 78 44 34 46
REMARK SMILES IDX 66 47 46 48 65 49 47 50 50 51 64 52 83 53 48 54 49 55 63 57
REMARK SMILES IDX 84 58 51 59 35 60 36 61 44 62 37 63 38 64 42 65 45 66 39 67
REMARK SMILES IDX 40 68 43 69 41 70 67 71 68 72 76 73 69 74 70 75 74 76 77 77
REMARK SMILES IDX 71 78 72 79 75 80 73 81 52 82 53 83 61 84 54 85 55 86 59 87
REMARK SMILES IDX 62 88 56 89 57 90 60 91 58 92
REMARK H PARENT 7 13 10 16 82 45 50 56
REMARK Flexibility Score: inf
ROOT
ATOM      1  C   UNL A   1      36.088  20.186  25.015  1.00  0.00     0.274 C 
ENDROOT
BRANCH   1   2
ATOM      2  O   UNL A   1      34.966  21.068  24.811  1.00  0.00    -0.462 OA
BRANCH   2   3
ATOM      3  C   UNL A   1      33.976  20.987  25.737  1.00  0.00     0.310 C 
ATOM      4  O   UNL A   1      34.126  21.174  26.940  1.00  0.00    -0.252 OA
BRANCH   3   5
ATOM      5  C   UNL A   1      32.623  20.673  25.139  1.00  0.00     0.119 C 
BRANCH   5   6
ATOM      6  C   UNL A   1      32.532  19.677  23.972  1.00  0.00     0.020 C 
BRANCH   6   7
ATOM      7  C   UNL A   1      32.637  18.168  24.241  1.00  0.00    -0.017 C 
ATOM      8  C   UNL A   1      33.910  17.544  23.665  1.00  0.00     0.007 C 
ATOM      9  C   UNL A   1      32.639  17.952  25.763  1.00  0.00     0.007 C 
ENDBRANCH   6   7
ENDBRANCH   5   6
BRANCH   5  10
ATOM     10  C   UNL A   1      31.743  21.916  24.951  1.00  0.00     0.133 C 
BRANCH  10  11
ATOM     11  N   UNL A   1      30.725  22.128  25.965  1.00  0.00    -0.337 N 
ATOM     12  C   UNL A   1      30.544  23.096  26.889  1.00  0.00     0.319 C 
ATOM     13  H   UNL A   1      30.032  21.429  25.983  1.00  0.00     0.165 HD
ATOM     14  O   UNL A   1      29.694  22.915  27.763  1.00  0.00    -0.249 OA
ATOM     15  N   UNL A   1      31.345  24.184  26.968  1.00  0.00    -0.307 N 
ATOM     16  H   UNL A   1      31.372  24.604  27.858  1.00  0.00     0.171 HD
BRANCH  15  17
ATOM     17  C   UNL A   1      32.146  24.818  26.004  1.00  0.00     0.057 A 
ATOM     18  C   UNL A   1      33.529  24.636  26.145  1.00  0.00     0.027 A 
ATOM     19  C   UNL A   1      31.659  25.560  24.914  1.00  0.00     0.041 A 
ATOM     20  C   UNL A   1      34.402  25.070  25.147  1.00  0.00     0.002 A 
ATOM     21  C   UNL A   1      32.542  26.001  23.921  1.00  0.00     0.018 A 
ATOM     22  Br  UNL A   1      29.844  26.102  24.760  1.00  0.00    -0.049 Br
ATOM     23  C   UNL A   1      33.908  25.732  24.026  1.00  0.00     0.001 A 
ENDBRANCH  15  17
ENDBRANCH  10  11
ENDBRANCH   5  10
ENDBRANCH   3   5
ENDBRANCH   2   3
ENDBRANCH   1   2
BRANCH   1  24
ATOM     24  C   UNL A   1      37.422  20.866  24.690  1.00  0.00     0.275 C 
BRANCH  24  25
ATOM     25  O   UNL A   1      37.893  21.666  25.793  1.00  0.00    -0.458 OA
BRANCH  25  26
ATOM     26  C   UNL A   1      39.145  21.385  26.221  1.00  0.00     0.338 C 
ATOM     27  O   UNL A   1      39.742  20.326  26.132  1.00  0.00    -0.246 OA
BRANCH  26  28
ATOM     28  C   UNL A   1      39.780  22.609  26.729  1.00  0.00     0.060 A 
ATOM     29  C   UNL A   1      39.396  23.834  26.174  1.00  0.00     0.016 A 
ATOM     30  C   UNL A   1      40.802  22.548  27.675  1.00  0.00     0.016 A 
ATOM     31  C   UNL A   1      40.021  25.012  26.570  1.00  0.00     0.010 A 
ATOM     32  C   UNL A   1      41.436  23.729  28.067  1.00  0.00     0.010 A 
ATOM     33  C   UNL A   1      41.052  24.965  27.514  1.00  0.00    -0.014 A 
BRANCH  33  34
ATOM     34  C   UNL A   1      41.775  26.200  27.890  1.00  0.00     0.031 A 
ATOM     35  C   UNL A   1      41.063  27.269  28.659  1.00  0.00     0.074 A 
ATOM     36  C   UNL A   1      43.056  26.367  27.518  1.00  0.00     0.049 A 
ATOM     37  N   UNL A   1      41.446  28.489  28.935  1.00  0.00    -0.248 NA
ATOM     38  C   UNL A   1      39.735  26.918  29.184  1.00  0.00     0.031 C 
ATOM     39  C   UNL A   1      43.866  25.374  26.814  1.00  0.00     0.029 A 
ATOM     40  N   UNL A   1      43.891  27.448  27.657  1.00  0.00    -0.354 N 
ATOM     41  C   UNL A   1      40.394  29.062  29.635  1.00  0.00     0.074 A 
ATOM     42  C   UNL A   1      39.358  28.058  29.745  1.00  0.00     0.031 C 
ATOM     43  C   UNL A   1      45.073  25.901  26.555  1.00  0.00     0.029 A 
ATOM     44  C   UNL A   1      45.100  27.283  27.028  1.00  0.00     0.049 A 
ATOM     45  H   UNL A   1      43.648  28.258  28.158  1.00  0.00     0.167 HD
ATOM     46  C   UNL A   1      40.305  30.319  30.131  1.00  0.00     0.037 A 
ATOM     47  C   UNL A   1      46.092  28.166  26.811  1.00  0.00     0.037 A 
ATOM     48  C   UNL A   1      41.349  31.305  30.029  1.00  0.00     0.049 A 
ATOM     49  C   UNL A   1      45.952  29.572  27.324  1.00  0.00     0.074 A 
ATOM     50  C   UNL A   1      41.371  32.596  30.526  1.00  0.00     0.029 A 
ATOM     51  N   UNL A   1      42.559  31.104  29.379  1.00  0.00    -0.354 N 
ATOM     52  N   UNL A   1      44.956  30.116  27.983  1.00  0.00    -0.248 NA
ATOM     53  C   UNL A   1      47.067  30.493  27.058  1.00  0.00     0.031 C 
ATOM     54  C   UNL A   1      42.577  33.190  30.140  1.00  0.00     0.029 A 
ATOM     55  C   UNL A   1      43.325  32.257  29.439  1.00  0.00     0.049 A 
ATOM     56  H   UNL A   1      42.832  30.266  28.939  1.00  0.00     0.167 HD
ATOM     57  C   UNL A   1      45.326  31.431  28.222  1.00  0.00     0.074 A 
ATOM     58  C   UNL A   1      46.644  31.605  27.646  1.00  0.00     0.031 C 
ATOM     59  C   UNL A   1      44.636  32.407  28.861  1.00  0.00     0.037 A 
BRANCH  46  60
ATOM     60  C   UNL A   1      39.015  30.711  30.786  1.00  0.00     0.064 A 
ATOM     61  C   UNL A   1      37.930  31.205  30.048  1.00  0.00     0.173 A 
ATOM     62  C   UNL A   1      38.860  30.575  32.173  1.00  0.00     0.173 A 
ATOM     63  F   UNL A   1      38.034  31.369  28.721  1.00  0.00    -0.203 F 
ATOM     64  C   UNL A   1      36.745  31.575  30.681  1.00  0.00     0.198 A 
ATOM     65  C   UNL A   1      37.667  30.922  32.799  1.00  0.00     0.198 A 
ATOM     66  F   UNL A   1      39.869  30.105  32.923  1.00  0.00    -0.203 F 
ATOM     67  F   UNL A   1      35.737  32.089  29.964  1.00  0.00    -0.200 F 
ATOM     68  C   UNL A   1      36.614  31.429  32.055  1.00  0.00     0.200 A 
ATOM     69  F   UNL A   1      37.539  30.774  34.125  1.00  0.00    -0.200 F 
ATOM     70  F   UNL A   1      35.473  31.787  32.662  1.00  0.00    -0.200 F 
ENDBRANCH  46  60
BRANCH  47  71
ATOM     71  C   UNL A   1      47.283  27.747  26.030  1.00  0.00     0.064 A 
ATOM     72  C   UNL A   1      48.452  27.313  26.667  1.00  0.00     0.173 A 
ATOM     73  C   UNL A   1      47.262  27.747  24.626  1.00  0.00     0.173 A 
ATOM     74  F   UNL A   1      48.527  27.319  28.005  1.00  0.00    -0.203 F 
ATOM     75  C   UNL A   1      49.558  26.895  25.928  1.00  0.00     0.198 A 
ATOM     76  C   UNL A   1      48.359  27.306  23.890  1.00  0.00     0.198 A 
ATOM     77  F   UNL A   1      46.166  28.155  23.971  1.00  0.00    -0.203 F 
ATOM     78  F   UNL A   1      50.674  26.509  26.560  1.00  0.00    -0.200 F 
ATOM     79  C   UNL A   1      49.507  26.883  24.542  1.00  0.00     0.200 A 
ATOM     80  F   UNL A   1      48.301  27.286  22.552  1.00  0.00    -0.200 F 
ATOM     81  F   UNL A   1      50.567  26.468  23.834  1.00  0.00    -0.200 F 
ENDBRANCH  47  71
BRANCH  59  82
ATOM     82  C   UNL A   1      45.301  33.744  28.995  1.00  0.00     0.064 A 
ATOM     83  C   UNL A   1      46.139  34.038  30.080  1.00  0.00     0.173 A 
ATOM     84  C   UNL A   1      45.149  34.715  27.995  1.00  0.00     0.173 A 
ATOM     85  F   UNL A   1      46.302  33.146  31.069  1.00  0.00    -0.203 F 
ATOM     86  C   UNL A   1      46.795  35.264  30.162  1.00  0.00     0.198 A 
ATOM     87  C   UNL A   1      45.823  35.929  28.069  1.00  0.00     0.198 A 
ATOM     88  F   UNL A   1      44.361  34.475  26.935  1.00  0.00    -0.203 F 
ATOM     89  F   UNL A   1      47.570  35.537  31.221  1.00  0.00    -0.200 F 
ATOM     90  C   UNL A   1      46.643  36.204  29.154  1.00  0.00     0.200 A 
ATOM     91  F   UNL A   1      45.684  36.833  27.089  1.00  0.00    -0.200 F 
ATOM     92  F   UNL A   1      47.284  37.378  29.228  1.00  0.00    -0.200 F 
ENDBRANCH  59  82
ENDBRANCH  33  34
ENDBRANCH  26  28
ENDBRANCH  25  26
ENDBRANCH  24  25
ENDBRANCH   1  24
TORSDOF 16
ENDMDL
MODEL 3
REMARK VINA RESULT:     -11.3      1.534      2.308
REMARK SMILES CC(C)C[C@H](CNC(=O)Nc1ccccc1Br)C(=O)OCCOC(=O)c1ccc(-c2c3nc(c(-c4c(F)c(F)c(F)c(F)c4F)c4ccc([nH]4)c(-c4c(F)c(F)c(F)c(F)c4F)c4nc(c(-c5c(F)c(F)c(F)c(F)c5F)c5ccc2[nH]5)C=C4)C=C3)cc1
REMARK SMILES IDX 21 1 20 2 18 3 19 4 5 5 4 6 2 7 1 8 3 9 6 10 7 11 8 12 9 14
REMARK SMILES IDX 10 15 11 17 12 18 16 19 13 20 15 21 17 22 14 23 22 24 23 25
REMARK SMILES IDX 24 26 25 27 26 28 27 29 88 30 28 31 87 32 29 33 30 34 31 35
REMARK SMILES IDX 81 36 32 37 86 38 80 39 82 40 33 41 85 42 79 43 78 44 34 46
REMARK SMILES IDX 66 47 46 48 65 49 47 50 50 51 64 52 83 53 48 54 49 55 63 57
REMARK SMILES IDX 84 58 51 59 35 60 36 61 44 62 37 63 38 64 42 65 45 66 39 67
REMARK SMILES IDX 40 68 43 69 41 70 67 71 68 72 76 73 69 74 70 75 74 76 77 77
REMARK SMILES IDX 71 78 72 79 75 80 73 81 52 82 53 83 61 84 54 85 55 86 59 87
REMARK SMILES IDX 62 88 56 89 57 90 60 91 58 92
REMARK H PARENT 7 13 10 16 82 45 50 56
REMARK Flexibility Score: inf
ROOT
ATOM      1  C   UNL A   1      31.669  29.487  25.806  1.00  0.00     0.274 C 
ENDROOT
BRANCH   1   2
ATOM      2  O   UNL A   1      30.976  29.728  24.565  1.00  0.00    -0.462 OA
BRANCH   2   3
ATOM      3  C   UNL A   1      31.415  29.015  23.496  1.00  0.00     0.310 C 
ATOM      4  O   UNL A   1      32.585  28.945  23.134  1.00  0.00    -0.252 OA
BRANCH   3   5
ATOM      5  C   UNL A   1      30.313  28.260  22.788  1.00  0.00     0.119 C 
BRANCH   5   6
ATOM      6  C   UNL A   1      28.849  28.552  23.154  1.00  0.00     0.020 C 
BRANCH   6   7
ATOM      7  C   UNL A   1      28.108  29.717  22.482  1.00  0.00    -0.017 C 
ATOM      8  C   UNL A   1      27.668  30.799  23.472  1.00  0.00     0.007 C 
ATOM      9  C   UNL A   1      29.055  30.358  21.455  1.00  0.00     0.007 C 
ENDBRANCH   6   7
ENDBRANCH   5   6
BRANCH   5  10
ATOM     10  C   UNL A   1      30.614  26.765  22.625  1.00  0.00     0.133 C 
BRANCH  10  11
ATOM     11  N   UNL A   1      31.466  26.411  21.503  1.00  0.00    -0.337 N 
ATOM     12  C   UNL A   1      32.729  25.940  21.427  1.00  0.00     0.319 C 
ATOM     13  H   UNL A   1      31.039  26.540  20.626  1.00  0.00     0.165 HD
ATOM     14  O   UNL A   1      33.277  25.918  20.324  1.00  0.00    -0.249 OA
ATOM     15  N   UNL A   1      33.452  25.620  22.526  1.00  0.00    -0.307 N 
ATOM     16  H   UNL A   1      34.427  25.657  22.395  1.00  0.00     0.171 HD
BRANCH  15  17
ATOM     17  C   UNL A   1      33.056  25.246  23.820  1.00  0.00     0.057 A 
ATOM     18  C   UNL A   1      33.290  26.193  24.827  1.00  0.00     0.027 A 
ATOM     19  C   UNL A   1      32.415  24.038  24.150  1.00  0.00     0.041 A 
ATOM     20  C   UNL A   1      32.776  26.000  26.110  1.00  0.00     0.002 A 
ATOM     21  C   UNL A   1      31.911  23.848  25.441  1.00  0.00     0.018 A 
ATOM     22  Br  UNL A   1      32.283  22.575  22.944  1.00  0.00    -0.049 Br
ATOM     23  C   UNL A   1      32.069  24.839  26.412  1.00  0.00     0.001 A 
ENDBRANCH  15  17
ENDBRANCH  10  11
ENDBRANCH   5  10
ENDBRANCH   3   5
ENDBRANCH   2   3
ENDBRANCH   1   2
BRANCH   1  24
ATOM     24  C   UNL A   1      31.908  30.780  26.593  1.00  0.00     0.275 C 
BRANCH  24  25
ATOM     25  O   UNL A   1      33.273  31.226  26.482  1.00  0.00    -0.458 OA
BRANCH  25  26
ATOM     26  C   UNL A   1      33.657  32.155  27.386  1.00  0.00     0.338 C 
ATOM     27  O   UNL A   1      33.036  33.137  27.754  1.00  0.00    -0.246 OA
BRANCH  26  28
ATOM     28  C   UNL A   1      34.932  31.754  27.996  1.00  0.00     0.060 A 
ATOM     29  C   UNL A   1      35.025  30.475  28.556  1.00  0.00     0.016 A 
ATOM     30  C   UNL A   1      35.993  32.652  28.098  1.00  0.00     0.016 A 
ATOM     31  C   UNL A   1      36.187  30.078  29.210  1.00  0.00     0.010 A 
ATOM     32  C   UNL A   1      37.157  32.257  28.761  1.00  0.00     0.010 A 
ATOM     33  C   UNL A   1      37.258  30.970  29.323  1.00  0.00    -0.014 A 
BRANCH  33  34
ATOM     34  C   UNL A   1      38.471  30.586  30.079  1.00  0.00     0.031 A 
ATOM     35  C   UNL A   1      39.438  29.612  29.481  1.00  0.00     0.074 A 
ATOM     36  C   UNL A   1      38.685  31.092  31.306  1.00  0.00     0.049 A 
ATOM     37  N   UNL A   1      40.459  29.010  30.033  1.00  0.00    -0.248 NA
ATOM     38  C   UNL A   1      39.222  29.265  28.068  1.00  0.00     0.031 C 
ATOM     39  C   UNL A   1      37.841  32.087  31.966  1.00  0.00     0.029 A 
ATOM     40  N   UNL A   1      39.665  30.815  32.226  1.00  0.00    -0.354 N 
ATOM     41  C   UNL A   1      40.986  28.187  29.049  1.00  0.00     0.074 A 
ATOM     42  C   UNL A   1      40.176  28.368  27.863  1.00  0.00     0.031 C 
ATOM     43  C   UNL A   1      38.322  32.315  33.199  1.00  0.00     0.029 A 
ATOM     44  C   UNL A   1      39.473  31.446  33.430  1.00  0.00     0.049 A 
ATOM     45  H   UNL A   1      40.429  30.224  32.041  1.00  0.00     0.167 HD
ATOM     46  C   UNL A   1      42.048  27.350  29.136  1.00  0.00     0.037 A 
ATOM     47  C   UNL A   1      40.120  31.296  34.601  1.00  0.00     0.037 A 
ATOM     48  C   UNL A   1      42.856  27.191  30.316  1.00  0.00     0.049 A 
ATOM     49  C   UNL A   1      41.262  30.324  34.692  1.00  0.00     0.074 A 
ATOM     50  C   UNL A   1      43.972  26.394  30.498  1.00  0.00     0.029 A 
ATOM     51  N   UNL A   1      42.627  27.843  31.520  1.00  0.00    -0.354 N 
ATOM     52  N   UNL A   1      41.758  29.543  33.762  1.00  0.00    -0.248 NA
ATOM     53  C   UNL A   1      41.932  30.202  35.995  1.00  0.00     0.031 C 
ATOM     54  C   UNL A   1      44.394  26.532  31.825  1.00  0.00     0.029 A 
ATOM     55  C   UNL A   1      43.567  27.447  32.458  1.00  0.00     0.049 A 
ATOM     56  H   UNL A   1      41.904  28.491  31.684  1.00  0.00     0.167 HD
ATOM     57  C   UNL A   1      42.801  28.850  34.358  1.00  0.00     0.074 A 
ATOM     58  C   UNL A   1      42.876  29.309  35.731  1.00  0.00     0.031 C 
ATOM     59  C   UNL A   1      43.624  27.918  33.818  1.00  0.00     0.037 A 
BRANCH  46  60
ATOM     60  C   UNL A   1      42.362  26.510  27.936  1.00  0.00     0.064 A 
ATOM     61  C   UNL A   1      41.744  25.271  27.716  1.00  0.00     0.173 A 
ATOM     62  C   UNL A   1      43.289  26.961  26.984  1.00  0.00     0.173 A 
ATOM     63  F   UNL A   1      40.863  24.789  28.605  1.00  0.00    -0.203 F 
ATOM     64  C   UNL A   1      42.063  24.502  26.598  1.00  0.00     0.198 A 
ATOM     65  C   UNL A   1      43.587  26.202  25.857  1.00  0.00     0.198 A 
ATOM     66  F   UNL A   1      43.907  28.141  27.149  1.00  0.00    -0.203 F 
ATOM     67  F   UNL A   1      41.495  23.300  26.431  1.00  0.00    -0.200 F 
ATOM     68  C   UNL A   1      42.980  24.970  25.669  1.00  0.00     0.200 A 
ATOM     69  F   UNL A   1      44.468  26.658  24.956  1.00  0.00    -0.200 F 
ATOM     70  F   UNL A   1      43.286  24.227  24.596  1.00  0.00    -0.200 F 
ENDBRANCH  46  60
BRANCH  47  71
ATOM     71  C   UNL A   1      39.662  32.059  35.789  1.00  0.00     0.064 A 
ATOM     72  C   UNL A   1      40.219  33.303  36.111  1.00  0.00     0.173 A 
ATOM     73  C   UNL A   1      38.635  31.569  36.611  1.00  0.00     0.173 A 
ATOM     74  F   UNL A   1      41.218  33.801  35.369  1.00  0.00    -0.203 F 
ATOM     75  C   UNL A   1      39.766  34.029  37.212  1.00  0.00     0.198 A 
ATOM     76  C   UNL A   1      38.167  32.306  37.696  1.00  0.00     0.198 A 
ATOM     77  F   UNL A   1      38.071  30.382  36.344  1.00  0.00    -0.203 F 
ATOM     78  F   UNL A   1      40.333  35.204  37.515  1.00  0.00    -0.200 F 
ATOM     79  C   UNL A   1      38.735  33.534  37.998  1.00  0.00     0.200 A 
ATOM     80  F   UNL A   1      37.164  31.828  38.445  1.00  0.00    -0.200 F 
ATOM     81  F   UNL A   1      38.293  34.238  39.048  1.00  0.00    -0.200 F 
ENDBRANCH  47  71
BRANCH  59  82
ATOM     82  C   UNL A   1      44.692  27.348  34.702  1.00  0.00     0.064 A 
ATOM     83  C   UNL A   1      44.488  26.164  35.426  1.00  0.00     0.173 A 
ATOM     84  C   UNL A   1      45.953  27.956  34.773  1.00  0.00     0.173 A 
ATOM     85  F   UNL A   1      43.292  25.556  35.401  1.00  0.00    -0.203 F 
ATOM     86  C   UNL A   1      45.508  25.616  36.199  1.00  0.00     0.198 A 
ATOM     87  C   UNL A   1      46.977  27.394  35.529  1.00  0.00     0.198 A 
ATOM     88  F   UNL A   1      46.197  29.087  34.093  1.00  0.00    -0.203 F 
ATOM     89  F   UNL A   1      45.284  24.500  36.906  1.00  0.00    -0.200 F 
ATOM     90  C   UNL A   1      46.752  26.226  36.243  1.00  0.00     0.200 A 
ATOM     91  F   UNL A   1      48.183  27.978  35.562  1.00  0.00    -0.200 F 
ATOM     92  F   UNL A   1      47.737  25.691  36.978  1.00  0.00    -0.200 F 
ENDBRANCH  59  82
ENDBRANCH  33  34
ENDBRANCH  26  28
ENDBRANCH  25  26
ENDBRANCH  24  25
ENDBRANCH   1  24
TORSDOF 16
ENDMDL
