MODEL 1
REMARK VINA RESULT:     -13.1      0.000      0.000
REMARK SMILES Cc1ccccc1C[C@@H](CC(F)(F)F)C(=O)OCCOC(=O)c1ccc(-c2c3nc(c(-c4c(F)c(F)c(F)c(F)c4F)c4ccc([nH]4)c(-c4c(F)c(F)c(F)c(F)c4F)c4nc(c(-c5c(F)c(F)c(F)c(F)c5F)c5ccc2[nH]5)C=C4)C=C3)cc1
REMARK SMILES IDX 18 1 17 2 15 3 16 4 9 5 8 6 7 7 1 8 2 9 3 10 4 11 6 12 5 13
REMARK SMILES IDX 10 14 11 15 12 16 13 17 14 18 19 19 20 20 21 21 22 22 23 23
REMARK SMILES IDX 24 24 85 25 25 26 84 27 26 28 27 29 28 30 78 31 29 32 83 33
REMARK SMILES IDX 77 34 79 35 30 36 82 37 76 38 75 39 31 41 63 42 43 43 62 44
REMARK SMILES IDX 44 45 47 46 61 47 80 48 45 49 46 50 60 52 81 53 48 54 32 55
REMARK SMILES IDX 33 56 41 57 34 58 35 59 39 60 42 61 36 62 37 63 40 64 38 65
REMARK SMILES IDX 64 66 65 67 73 68 66 69 67 70 71 71 74 72 68 73 69 74 72 75
REMARK SMILES IDX 70 76 49 77 50 78 58 79 51 80 52 81 56 82 59 83 53 84 54 85
REMARK SMILES IDX 57 86 55 87
REMARK H PARENT 79 40 47 51
REMARK Flexibility Score: inf
ROOT
ATOM      1  C   UNL A   1      34.211  29.412  26.875  1.00  0.00     0.274 C 
ENDROOT
BRANCH   1   2
ATOM      2  O   UNL A   1      32.818  29.134  27.122  1.00  0.00    -0.462 OA
BRANCH   2   3
ATOM      3  C   UNL A   1      32.209  27.825  27.055  1.00  0.00     0.309 C 
ATOM      4  O   UNL A   1      31.411  27.843  28.027  1.00  0.00    -0.252 OA
BRANCH   3   5
ATOM      5  C   UNL A   1      32.717  26.303  25.535  1.00  0.00     0.112 C 
BRANCH   5   6
ATOM      6  C   UNL A   1      33.086  24.523  25.714  1.00  0.00     0.051 C 
BRANCH   6   7
ATOM      7  C   UNL A   1      34.396  23.891  25.153  1.00  0.00    -0.044 A 
ATOM      8  C   UNL A   1      33.202  22.686  23.183  1.00  0.00     0.044 C 
ATOM      9  C   UNL A   1      34.404  23.044  24.020  1.00  0.00    -0.048 A 
ATOM     10  C   UNL A   1      35.632  22.537  23.517  1.00  0.00     0.004 A 
ATOM     11  C   UNL A   1      36.857  22.847  24.093  1.00  0.00     0.000 A 
ATOM     12  C   UNL A   1      35.678  24.236  25.646  1.00  0.00     0.004 A 
ATOM     13  C   UNL A   1      36.880  23.713  25.159  1.00  0.00     0.000 A 
ENDBRANCH   6   7
ENDBRANCH   5   6
BRANCH   5  14
ATOM     14  C   UNL A   1      32.094  26.076  23.886  1.00  0.00     0.131 C 
BRANCH  14  15
ATOM     15  C   UNL A   1      32.840  26.640  22.649  1.00  0.00     0.389 C 
ATOM     16  F   UNL A   1      33.315  27.892  22.799  1.00  0.00    -0.171 F 
ATOM     17  F   UNL A   1      33.915  25.847  22.406  1.00  0.00    -0.171 F 
ATOM     18  F   UNL A   1      32.138  26.677  21.506  1.00  0.00    -0.171 F 
ENDBRANCH  14  15
ENDBRANCH   5  14
ENDBRANCH   3   5
ENDBRANCH   2   3
ENDBRANCH   1   2
BRANCH   1  19
ATOM     19  C   UNL A   1      34.973  30.400  27.777  1.00  0.00     0.275 C 
BRANCH  19  20
ATOM     20  O   UNL A   1      34.805  31.810  27.525  1.00  0.00    -0.458 OA
BRANCH  20  21
ATOM     21  C   UNL A   1      34.276  32.670  28.443  1.00  0.00     0.338 C 
ATOM     22  O   UNL A   1      33.262  33.325  28.271  1.00  0.00    -0.246 OA
BRANCH  21  23
ATOM     23  C   UNL A   1      35.227  33.034  29.514  1.00  0.00     0.060 A 
ATOM     24  C   UNL A   1      36.636  34.025  28.986  1.00  0.00     0.016 A 
ATOM     25  C   UNL A   1      35.390  31.898  30.901  1.00  0.00     0.016 A 
ATOM     26  C   UNL A   1      38.283  33.667  29.666  1.00  0.00     0.010 A 
ATOM     27  C   UNL A   1      37.021  31.571  31.580  1.00  0.00     0.010 A 
ATOM     28  C   UNL A   1      38.482  32.386  30.888  1.00  0.00    -0.014 A 
BRANCH  28  29
ATOM     29  C   UNL A   1      39.722  31.616  31.102  1.00  0.00     0.031 A 
ATOM     30  C   UNL A   1      39.882  30.333  30.370  1.00  0.00     0.074 A 
ATOM     31  C   UNL A   1      40.747  32.216  31.746  1.00  0.00     0.049 A 
ATOM     32  N   UNL A   1      40.226  29.180  30.851  1.00  0.00    -0.248 NA
ATOM     33  C   UNL A   1      39.428  30.206  28.988  1.00  0.00     0.031 C 
ATOM     34  C   UNL A   1      42.170  31.912  31.646  1.00  0.00     0.029 A 
ATOM     35  N   UNL A   1      40.690  33.215  32.727  1.00  0.00    -0.354 N 
ATOM     36  C   UNL A   1      40.332  28.352  29.730  1.00  0.00     0.074 A 
ATOM     37  C   UNL A   1      39.432  28.898  28.777  1.00  0.00     0.031 C 
ATOM     38  C   UNL A   1      42.820  32.474  32.682  1.00  0.00     0.029 A 
ATOM     39  C   UNL A   1      41.821  33.056  33.556  1.00  0.00     0.049 A 
ATOM     40  H   UNL A   1      39.990  33.900  32.821  1.00  0.00     0.167 HD
ATOM     41  C   UNL A   1      41.498  27.706  29.420  1.00  0.00     0.037 A 
ATOM     42  C   UNL A   1      41.663  32.723  34.872  1.00  0.00     0.037 A 
ATOM     43  C   UNL A   1      42.502  28.068  30.402  1.00  0.00     0.049 A 
ATOM     44  C   UNL A   1      42.103  31.297  35.147  1.00  0.00     0.074 A 
ATOM     45  C   UNL A   1      43.594  28.919  30.403  1.00  0.00     0.029 A 
ATOM     46  N   UNL A   1      42.205  27.819  31.726  1.00  0.00    -0.354 N 
ATOM     47  N   UNL A   1      42.209  30.376  34.223  1.00  0.00    -0.248 NA
ATOM     48  C   UNL A   1      42.543  30.818  36.451  1.00  0.00     0.031 C 
ATOM     49  C   UNL A   1      43.977  29.127  31.761  1.00  0.00     0.029 A 
ATOM     50  C   UNL A   1      43.115  28.400  32.566  1.00  0.00     0.049 A 
ATOM     51  H   UNL A   1      41.433  27.289  32.028  1.00  0.00     0.167 HD
ATOM     52  C   UNL A   1      42.753  29.229  34.757  1.00  0.00     0.074 A 
ATOM     53  C   UNL A   1      42.942  29.567  36.155  1.00  0.00     0.031 C 
ATOM     54  C   UNL A   1      43.009  28.122  33.988  1.00  0.00     0.037 A 
BRANCH  41  55
ATOM     55  C   UNL A   1      41.817  27.037  28.086  1.00  0.00     0.064 A 
ATOM     56  C   UNL A   1      41.740  25.633  27.948  1.00  0.00     0.173 A 
ATOM     57  C   UNL A   1      42.152  27.713  26.890  1.00  0.00     0.173 A 
ATOM     58  F   UNL A   1      41.350  24.853  28.965  1.00  0.00    -0.203 F 
ATOM     59  C   UNL A   1      42.032  24.969  26.749  1.00  0.00     0.198 A 
ATOM     60  C   UNL A   1      42.501  27.046  25.707  1.00  0.00     0.198 A 
ATOM     61  F   UNL A   1      42.086  29.046  26.789  1.00  0.00    -0.203 F 
ATOM     62  F   UNL A   1      41.912  23.636  26.684  1.00  0.00    -0.200 F 
ATOM     63  C   UNL A   1      42.434  25.673  25.634  1.00  0.00     0.200 A 
ATOM     64  F   UNL A   1      42.877  27.753  24.630  1.00  0.00    -0.200 F 
ATOM     65  F   UNL A   1      42.718  25.037  24.490  1.00  0.00    -0.200 F 
ENDBRANCH  41  55
BRANCH  42  66
ATOM     66  C   UNL A   1      40.535  33.492  35.482  1.00  0.00     0.064 A 
ATOM     67  C   UNL A   1      39.375  32.745  35.796  1.00  0.00     0.173 A 
ATOM     68  C   UNL A   1      40.744  34.674  36.198  1.00  0.00     0.173 A 
ATOM     69  F   UNL A   1      39.093  31.632  35.098  1.00  0.00    -0.203 F 
ATOM     70  C   UNL A   1      38.603  33.036  36.919  1.00  0.00     0.198 A 
ATOM     71  C   UNL A   1      39.923  34.997  37.287  1.00  0.00     0.198 A 
ATOM     72  F   UNL A   1      41.817  35.437  35.951  1.00  0.00    -0.203 F 
ATOM     73  F   UNL A   1      37.630  32.193  37.298  1.00  0.00    -0.200 F 
ATOM     74  C   UNL A   1      38.904  34.143  37.689  1.00  0.00     0.200 A 
ATOM     75  F   UNL A   1      40.206  36.075  38.036  1.00  0.00    -0.200 F 
ATOM     76  F   UNL A   1      38.252  34.364  38.839  1.00  0.00    -0.200 F 
ENDBRANCH  42  66
BRANCH  54  77
ATOM     77  C   UNL A   1      43.198  26.660  34.424  1.00  0.00     0.064 A 
ATOM     78  C   UNL A   1      42.181  25.825  34.900  1.00  0.00     0.173 A 
ATOM     79  C   UNL A   1      44.452  25.991  34.254  1.00  0.00     0.173 A 
ATOM     80  F   UNL A   1      40.923  26.244  35.036  1.00  0.00    -0.203 F 
ATOM     81  C   UNL A   1      42.400  24.479  35.223  1.00  0.00     0.198 A 
ATOM     82  C   UNL A   1      44.643  24.630  34.490  1.00  0.00     0.198 A 
ATOM     83  F   UNL A   1      45.564  26.607  33.835  1.00  0.00    -0.203 F 
ATOM     84  F   UNL A   1      41.393  23.759  35.735  1.00  0.00    -0.200 F 
ATOM     85  C   UNL A   1      43.621  23.876  35.001  1.00  0.00     0.200 A 
ATOM     86  F   UNL A   1      45.826  24.067  34.203  1.00  0.00    -0.200 F 
ATOM     87  F   UNL A   1      43.807  22.579  35.271  1.00  0.00    -0.200 F 
ENDBRANCH  54  77
ENDBRANCH  28  29
ENDBRANCH  21  23
ENDBRANCH  20  21
ENDBRANCH  19  20
ENDBRANCH   1  19
TORSDOF 15
ENDMDL
MODEL 2
REMARK VINA RESULT:     -13.1      1.799      3.108
REMARK SMILES Cc1ccccc1C[C@@H](CC(F)(F)F)C(=O)OCCOC(=O)c1ccc(-c2c3nc(c(-c4c(F)c(F)c(F)c(F)c4F)c4ccc([nH]4)c(-c4c(F)c(F)c(F)c(F)c4F)c4nc(c(-c5c(F)c(F)c(F)c(F)c5F)c5ccc2[nH]5)C=C4)C=C3)cc1
REMARK SMILES IDX 18 1 17 2 15 3 16 4 9 5 8 6 7 7 1 8 2 9 3 10 4 11 6 12 5 13
REMARK SMILES IDX 10 14 11 15 12 16 13 17 14 18 19 19 20 20 21 21 22 22 23 23
REMARK SMILES IDX 24 24 85 25 25 26 84 27 26 28 27 29 28 30 78 31 29 32 83 33
REMARK SMILES IDX 77 34 79 35 30 36 82 37 76 38 75 39 31 41 63 42 43 43 62 44
REMARK SMILES IDX 44 45 47 46 61 47 80 48 45 49 46 50 60 52 81 53 48 54 32 55
REMARK SMILES IDX 33 56 41 57 34 58 35 59 39 60 42 61 36 62 37 63 40 64 38 65
REMARK SMILES IDX 64 66 65 67 73 68 66 69 67 70 71 71 74 72 68 73 69 74 72 75
REMARK SMILES IDX 70 76 49 77 50 78 58 79 51 80 52 81 56 82 59 83 53 84 54 85
REMARK SMILES IDX 57 86 55 87
REMARK H PARENT 79 40 47 51
REMARK Flexibility Score: inf
ROOT
ATOM      1  C   UNL A   1      33.504  28.967  27.435  1.00  0.00     0.274 C 
ENDROOT
BRANCH   1   2
ATOM      2  O   UNL A   1      32.821  27.918  26.720  1.00  0.00    -0.462 OA
BRANCH   2   3
ATOM      3  C   UNL A   1      31.443  27.533  26.927  1.00  0.00     0.309 C 
ATOM      4  O   UNL A   1      31.130  28.175  27.962  1.00  0.00    -0.252 OA
BRANCH   3   5
ATOM      5  C   UNL A   1      30.348  26.124  25.624  1.00  0.00     0.112 C 
BRANCH   5   6
ATOM      6  C   UNL A   1      29.247  26.434  24.199  1.00  0.00     0.051 C 
BRANCH   6   7
ATOM      7  C   UNL A   1      29.368  27.721  23.328  1.00  0.00    -0.044 A 
ATOM      8  C   UNL A   1      26.831  28.280  23.456  1.00  0.00     0.044 C 
ATOM      9  C   UNL A   1      28.246  28.516  22.992  1.00  0.00    -0.048 A 
ATOM     10  C   UNL A   1      28.417  29.709  22.240  1.00  0.00     0.004 A 
ATOM     11  C   UNL A   1      29.664  30.149  21.815  1.00  0.00     0.000 A 
ATOM     12  C   UNL A   1      30.617  28.262  22.938  1.00  0.00     0.004 A 
ATOM     13  C   UNL A   1      30.774  29.425  22.178  1.00  0.00     0.000 A 
ENDBRANCH   6   7
ENDBRANCH   5   6
BRANCH   5  14
ATOM     14  C   UNL A   1      30.832  24.536  24.988  1.00  0.00     0.131 C 
BRANCH  14  15
ATOM     15  C   UNL A   1      31.256  23.378  25.929  1.00  0.00     0.389 C 
ATOM     16  F   UNL A   1      32.578  23.312  26.182  1.00  0.00    -0.171 F 
ATOM     17  F   UNL A   1      30.644  23.561  27.127  1.00  0.00    -0.171 F 
ATOM     18  F   UNL A   1      30.924  22.142  25.525  1.00  0.00    -0.171 F 
ENDBRANCH  14  15
ENDBRANCH   5  14
ENDBRANCH   3   5
ENDBRANCH   2   3
ENDBRANCH   1   2
BRANCH   1  19
ATOM     19  C   UNL A   1      33.618  30.373  26.821  1.00  0.00     0.275 C 
BRANCH  19  20
ATOM     20  O   UNL A   1      34.511  31.314  27.453  1.00  0.00    -0.458 OA
BRANCH  20  21
ATOM     21  C   UNL A   1      34.070  32.378  28.185  1.00  0.00     0.338 C 
ATOM     22  O   UNL A   1      33.145  33.102  27.858  1.00  0.00    -0.246 OA
BRANCH  21  23
ATOM     23  C   UNL A   1      35.035  32.819  29.213  1.00  0.00     0.060 A 
ATOM     24  C   UNL A   1      36.438  33.767  28.595  1.00  0.00     0.016 A 
ATOM     25  C   UNL A   1      35.218  31.786  30.676  1.00  0.00     0.016 A 
ATOM     26  C   UNL A   1      38.094  33.458  29.276  1.00  0.00     0.010 A 
ATOM     27  C   UNL A   1      36.859  31.508  31.355  1.00  0.00     0.010 A 
ATOM     28  C   UNL A   1      38.309  32.269  30.585  1.00  0.00    -0.014 A 
BRANCH  28  29
ATOM     29  C   UNL A   1      39.553  31.514  30.837  1.00  0.00     0.031 A 
ATOM     30  C   UNL A   1      39.730  30.211  30.147  1.00  0.00     0.074 A 
ATOM     31  C   UNL A   1      40.565  32.142  31.475  1.00  0.00     0.049 A 
ATOM     32  N   UNL A   1      40.076  29.076  30.667  1.00  0.00    -0.248 NA
ATOM     33  C   UNL A   1      39.294  30.039  28.764  1.00  0.00     0.031 C 
ATOM     34  C   UNL A   1      41.991  31.845  31.401  1.00  0.00     0.029 A 
ATOM     35  N   UNL A   1      40.489  33.169  32.424  1.00  0.00    -0.354 N 
ATOM     36  C   UNL A   1      40.202  28.215  29.573  1.00  0.00     0.074 A 
ATOM     37  C   UNL A   1      39.310  28.726  28.593  1.00  0.00     0.031 C 
ATOM     38  C   UNL A   1      42.624  32.443  32.427  1.00  0.00     0.029 A 
ATOM     39  C   UNL A   1      41.611  33.044  33.271  1.00  0.00     0.049 A 
ATOM     40  H   UNL A   1      39.783  33.852  32.489  1.00  0.00     0.167 HD
ATOM     41  C   UNL A   1      41.377  27.569  29.297  1.00  0.00     0.037 A 
ATOM     42  C   UNL A   1      41.438  32.750  34.595  1.00  0.00     0.037 A 
ATOM     43  C   UNL A   1      42.366  27.968  30.279  1.00  0.00     0.049 A 
ATOM     44  C   UNL A   1      41.885  31.337  34.918  1.00  0.00     0.074 A 
ATOM     45  C   UNL A   1      43.452  28.827  30.268  1.00  0.00     0.029 A 
ATOM     46  N   UNL A   1      42.055  27.757  31.606  1.00  0.00    -0.354 N 
ATOM     47  N   UNL A   1      42.010  30.388  34.024  1.00  0.00    -0.248 NA
ATOM     48  C   UNL A   1      42.314  30.901  36.241  1.00  0.00     0.031 C 
ATOM     49  C   UNL A   1      43.816  29.079  31.623  1.00  0.00     0.029 A 
ATOM     50  C   UNL A   1      42.950  28.370  32.439  1.00  0.00     0.049 A 
ATOM     51  H   UNL A   1      41.283  27.231  31.915  1.00  0.00     0.167 HD
ATOM     52  C   UNL A   1      42.555  29.263  34.600  1.00  0.00     0.074 A 
ATOM     53  C   UNL A   1      42.725  29.644  35.988  1.00  0.00     0.031 C 
ATOM     54  C   UNL A   1      42.828  28.135  33.868  1.00  0.00     0.037 A 
BRANCH  41  55
ATOM     55  C   UNL A   1      41.717  26.862  27.988  1.00  0.00     0.064 A 
ATOM     56  C   UNL A   1      42.084  27.603  26.843  1.00  0.00     0.173 A 
ATOM     57  C   UNL A   1      41.757  25.460  27.801  1.00  0.00     0.173 A 
ATOM     58  F   UNL A   1      42.181  28.938  26.878  1.00  0.00    -0.203 F 
ATOM     59  C   UNL A   1      42.396  27.002  25.615  1.00  0.00     0.198 A 
ATOM     60  C   UNL A   1      42.012  24.862  26.559  1.00  0.00     0.198 A 
ATOM     61  F   UNL A   1      41.625  24.607  28.823  1.00  0.00    -0.203 F 
ATOM     62  F   UNL A   1      42.761  27.767  24.577  1.00  0.00    -0.200 F 
ATOM     63  C   UNL A   1      42.338  25.634  25.466  1.00  0.00     0.200 A 
ATOM     64  F   UNL A   1      41.963  23.526  26.441  1.00  0.00    -0.200 F 
ATOM     65  F   UNL A   1      42.631  25.060  24.292  1.00  0.00    -0.200 F 
ENDBRANCH  41  55
BRANCH  42  66
ATOM     66  C   UNL A   1      40.298  33.529  35.168  1.00  0.00     0.064 A 
ATOM     67  C   UNL A   1      39.159  32.776  35.538  1.00  0.00     0.173 A 
ATOM     68  C   UNL A   1      40.484  34.757  35.807  1.00  0.00     0.173 A 
ATOM     69  F   UNL A   1      38.897  31.615  34.913  1.00  0.00    -0.203 F 
ATOM     70  C   UNL A   1      38.389  33.117  36.649  1.00  0.00     0.198 A 
ATOM     71  C   UNL A   1      39.665  35.127  36.883  1.00  0.00     0.198 A 
ATOM     72  F   UNL A   1      41.537  35.528  35.503  1.00  0.00    -0.203 F 
ATOM     73  F   UNL A   1      37.441  32.277  37.089  1.00  0.00    -0.200 F 
ATOM     74  C   UNL A   1      38.671  34.276  37.346  1.00  0.00     0.200 A 
ATOM     75  F   UNL A   1      39.929  36.256  37.561  1.00  0.00    -0.200 F 
ATOM     76  F   UNL A   1      38.023  34.553  38.487  1.00  0.00    -0.200 F 
ENDBRANCH  42  66
BRANCH  54  77
ATOM     77  C   UNL A   1      43.023  26.689  34.350  1.00  0.00     0.064 A 
ATOM     78  C   UNL A   1      42.152  26.002  35.203  1.00  0.00     0.173 A 
ATOM     79  C   UNL A   1      44.087  25.873  33.846  1.00  0.00     0.173 A 
ATOM     80  F   UNL A   1      41.051  26.567  35.701  1.00  0.00    -0.203 F 
ATOM     81  C   UNL A   1      42.347  24.660  35.560  1.00  0.00     0.198 A 
ATOM     82  C   UNL A   1      44.225  24.516  34.130  1.00  0.00     0.198 A 
ATOM     83  F   UNL A   1      45.046  26.336  33.035  1.00  0.00    -0.203 F 
ATOM     84  F   UNL A   1      41.508  24.088  36.434  1.00  0.00    -0.200 F 
ATOM     85  C   UNL A   1      43.368  23.912  35.011  1.00  0.00     0.200 A 
ATOM     86  F   UNL A   1      45.193  23.807  33.528  1.00  0.00    -0.200 F 
ATOM     87  F   UNL A   1      43.519  22.620  35.323  1.00  0.00    -0.200 F 
ENDBRANCH  54  77
ENDBRANCH  28  29
ENDBRANCH  21  23
ENDBRANCH  20  21
ENDBRANCH  19  20
ENDBRANCH   1  19
TORSDOF 15
ENDMDL
MODEL 3
REMARK VINA RESULT:     -12.9      4.232      9.576
REMARK SMILES Cc1ccccc1C[C@@H](CC(F)(F)F)C(=O)OCCOC(=O)c1ccc(-c2c3nc(c(-c4c(F)c(F)c(F)c(F)c4F)c4ccc([nH]4)c(-c4c(F)c(F)c(F)c(F)c4F)c4nc(c(-c5c(F)c(F)c(F)c(F)c5F)c5ccc2[nH]5)C=C4)C=C3)cc1
REMARK SMILES IDX 18 1 17 2 15 3 16 4 9 5 8 6 7 7 1 8 2 9 3 10 4 11 6 12 5 13
REMARK SMILES IDX 10 14 11 15 12 16 13 17 14 18 19 19 20 20 21 21 22 22 23 23
REMARK SMILES IDX 24 24 85 25 25 26 84 27 26 28 27 29 28 30 78 31 29 32 83 33
REMARK SMILES IDX 77 34 79 35 30 36 82 37 76 38 75 39 31 41 63 42 43 43 62 44
REMARK SMILES IDX 44 45 47 46 61 47 80 48 45 49 46 50 60 52 81 53 48 54 32 55
REMARK SMILES IDX 33 56 41 57 34 58 35 59 39 60 42 61 36 62 37 63 40 64 38 65
REMARK SMILES IDX 64 66 65 67 73 68 66 69 67 70 71 71 74 72 68 73 69 74 72 75
REMARK SMILES IDX 70 76 49 77 50 78 58 79 51 80 52 81 56 82 59 83 53 84 54 85
REMARK SMILES IDX 57 86 55 87
REMARK H PARENT 79 40 47 51
REMARK Flexibility Score: inf
ROOT
ATOM      1  C   UNL A   1      38.135  21.778  25.621  1.00  0.00     0.274 C 
ENDROOT
BRANCH   1   2
ATOM      2  O   UNL A   1      37.080  20.844  25.315  1.00  0.00    -0.462 OA
BRANCH   2   3
ATOM      3  C   UNL A   1      35.822  21.188  24.691  1.00  0.00     0.309 C 
ATOM      4  O   UNL A   1      36.120  22.203  24.011  1.00  0.00    -0.252 OA
BRANCH   3   5
ATOM      5  C   UNL A   1      33.942  20.072  25.009  1.00  0.00     0.112 C 
BRANCH   5   6
ATOM      6  C   UNL A   1      32.202  20.617  24.890  1.00  0.00     0.051 C 
BRANCH   6   7
ATOM      7  C   UNL A   1      31.794  22.114  25.041  1.00  0.00    -0.044 A 
ATOM      8  C   UNL A   1      32.731  22.804  22.715  1.00  0.00     0.044 C 
ATOM      9  C   UNL A   1      32.075  23.079  24.045  1.00  0.00    -0.048 A 
ATOM     10  C   UNL A   1      31.635  24.420  24.207  1.00  0.00     0.004 A 
ATOM     11  C   UNL A   1      30.918  24.839  25.320  1.00  0.00     0.000 A 
ATOM     12  C   UNL A   1      30.993  22.581  26.111  1.00  0.00     0.004 A 
ATOM     13  C   UNL A   1      30.584  23.908  26.274  1.00  0.00     0.000 A 
ENDBRANCH   6   7
ENDBRANCH   5   6
BRANCH   5  14
ATOM     14  C   UNL A   1      33.515  18.398  24.587  1.00  0.00     0.131 C 
BRANCH  14  15
ATOM     15  C   UNL A   1      34.600  17.343  24.249  1.00  0.00     0.389 C 
ATOM     16  F   UNL A   1      34.606  16.930  22.966  1.00  0.00    -0.171 F 
ATOM     17  F   UNL A   1      35.818  17.899  24.480  1.00  0.00    -0.171 F 
ATOM     18  F   UNL A   1      34.564  16.212  24.971  1.00  0.00    -0.171 F 
ENDBRANCH  14  15
ENDBRANCH   5  14
ENDBRANCH   3   5
ENDBRANCH   2   3
ENDBRANCH   1   2
BRANCH   1  19
ATOM     19  C   UNL A   1      39.469  21.273  26.200  1.00  0.00     0.275 C 
BRANCH  19  20
ATOM     20  O   UNL A   1      40.664  22.017  25.885  1.00  0.00    -0.458 OA
BRANCH  20  21
ATOM     21  C   UNL A   1      41.179  22.975  26.709  1.00  0.00     0.338 C 
ATOM     22  O   UNL A   1      42.039  22.772  27.549  1.00  0.00    -0.246 OA
BRANCH  21  23
ATOM     23  C   UNL A   1      40.351  24.197  26.769  1.00  0.00     0.060 A 
ATOM     24  C   UNL A   1      40.994  25.607  25.849  1.00  0.00     0.016 A 
ATOM     25  C   UNL A   1      39.367  24.461  28.253  1.00  0.00     0.016 A 
ATOM     26  C   UNL A   1      40.889  27.270  26.574  1.00  0.00     0.010 A 
ATOM     27  C   UNL A   1      39.251  26.114  28.948  1.00  0.00     0.010 A 
ATOM     28  C   UNL A   1      40.102  27.502  28.156  1.00  0.00    -0.014 A 
BRANCH  28  29
ATOM     29  C   UNL A   1      40.419  28.592  29.099  1.00  0.00     0.031 A 
ATOM     30  C   UNL A   1      39.470  29.731  29.192  1.00  0.00     0.074 A 
ATOM     31  C   UNL A   1      41.405  28.395  30.000  1.00  0.00     0.049 A 
ATOM     32  N   UNL A   1      39.739  30.998  29.141  1.00  0.00    -0.248 NA
ATOM     33  C   UNL A   1      38.028  29.502  29.132  1.00  0.00     0.031 C 
ATOM     34  C   UNL A   1      41.575  29.036  31.299  1.00  0.00     0.029 A 
ATOM     35  N   UNL A   1      42.549  27.595  29.874  1.00  0.00    -0.354 N 
ATOM     36  C   UNL A   1      38.514  31.625  29.387  1.00  0.00     0.074 A 
ATOM     37  C   UNL A   1      37.528  30.712  28.926  1.00  0.00     0.031 C 
ATOM     38  C   UNL A   1      42.835  28.844  31.729  1.00  0.00     0.029 A 
ATOM     39  C   UNL A   1      43.560  28.178  30.666  1.00  0.00     0.049 A 
ATOM     40  H   UNL A   1      42.631  26.777  29.333  1.00  0.00     0.167 HD
ATOM     41  C   UNL A   1      38.346  32.489  30.435  1.00  0.00     0.037 A 
ATOM     42  C   UNL A   1      44.689  28.674  30.077  1.00  0.00     0.037 A 
ATOM     43  C   UNL A   1      39.593  32.570  31.172  1.00  0.00     0.049 A 
ATOM     44  C   UNL A   1      44.724  30.191  30.118  1.00  0.00     0.074 A 
ATOM     45  C   UNL A   1      40.047  32.044  32.369  1.00  0.00     0.029 A 
ATOM     46  N   UNL A   1      40.716  32.952  30.468  1.00  0.00    -0.354 N 
ATOM     47  N   UNL A   1      43.664  30.940  30.290  1.00  0.00    -0.248 NA
ATOM     48  C   UNL A   1      45.948  30.979  30.063  1.00  0.00     0.031 C 
ATOM     49  C   UNL A   1      41.467  32.173  32.386  1.00  0.00     0.029 A 
ATOM     50  C   UNL A   1      41.857  32.776  31.201  1.00  0.00     0.049 A 
ATOM     51  H   UNL A   1      40.698  33.306  29.550  1.00  0.00     0.167 HD
ATOM     52  C   UNL A   1      44.032  32.261  30.412  1.00  0.00     0.074 A 
ATOM     53  C   UNL A   1      45.474  32.223  30.263  1.00  0.00     0.031 C 
ATOM     54  C   UNL A   1      43.111  33.251  30.642  1.00  0.00     0.037 A 
BRANCH  41  55
ATOM     55  C   UNL A   1      37.007  32.985  30.974  1.00  0.00     0.064 A 
ATOM     56  C   UNL A   1      36.217  33.884  30.224  1.00  0.00     0.173 A 
ATOM     57  C   UNL A   1      36.414  32.579  32.192  1.00  0.00     0.173 A 
ATOM     58  F   UNL A   1      36.596  34.297  29.007  1.00  0.00    -0.203 F 
ATOM     59  C   UNL A   1      34.986  34.376  30.677  1.00  0.00     0.198 A 
ATOM     60  C   UNL A   1      35.211  33.116  32.672  1.00  0.00     0.198 A 
ATOM     61  F   UNL A   1      36.930  31.594  32.936  1.00  0.00    -0.203 F 
ATOM     62  F   UNL A   1      34.278  35.207  29.900  1.00  0.00    -0.200 F 
ATOM     63  C   UNL A   1      34.493  34.011  31.911  1.00  0.00     0.200 A 
ATOM     64  F   UNL A   1      34.744  32.735  33.871  1.00  0.00    -0.200 F 
ATOM     65  F   UNL A   1      33.319  34.486  32.347  1.00  0.00    -0.200 F 
ENDBRANCH  41  55
BRANCH  42  66
ATOM     66  C   UNL A   1      45.178  27.753  29.006  1.00  0.00     0.064 A 
ATOM     67  C   UNL A   1      45.627  26.483  29.439  1.00  0.00     0.173 A 
ATOM     68  C   UNL A   1      44.744  27.856  27.682  1.00  0.00     0.173 A 
ATOM     69  F   UNL A   1      46.112  26.338  30.684  1.00  0.00    -0.203 F 
ATOM     70  C   UNL A   1      45.426  25.338  28.671  1.00  0.00     0.198 A 
ATOM     71  C   UNL A   1      44.606  26.708  26.889  1.00  0.00     0.198 A 
ATOM     72  F   UNL A   1      44.311  29.029  27.199  1.00  0.00    -0.203 F 
ATOM     73  F   UNL A   1      45.682  24.129  29.192  1.00  0.00    -0.200 F 
ATOM     74  C   UNL A   1      44.876  25.449  27.408  1.00  0.00     0.200 A 
ATOM     75  F   UNL A   1      44.079  26.810  25.659  1.00  0.00    -0.200 F 
ATOM     76  F   UNL A   1      44.561  24.349  26.708  1.00  0.00    -0.200 F 
ENDBRANCH  42  66
BRANCH  54  77
ATOM     77  C   UNL A   1      43.230  34.764  30.396  1.00  0.00     0.064 A 
ATOM     78  C   UNL A   1      43.527  35.717  31.377  1.00  0.00     0.173 A 
ATOM     79  C   UNL A   1      43.161  35.310  29.074  1.00  0.00     0.173 A 
ATOM     80  F   UNL A   1      43.721  35.385  32.654  1.00  0.00    -0.203 F 
ATOM     81  C   UNL A   1      43.686  37.078  31.083  1.00  0.00     0.198 A 
ATOM     82  C   UNL A   1      43.410  36.648  28.774  1.00  0.00     0.198 A 
ATOM     83  F   UNL A   1      42.864  34.580  27.991  1.00  0.00    -0.203 F 
ATOM     84  F   UNL A   1      43.904  37.941  32.084  1.00  0.00    -0.200 F 
ATOM     85  C   UNL A   1      43.648  37.541  29.784  1.00  0.00     0.200 A 
ATOM     86  F   UNL A   1      43.426  37.049  27.493  1.00  0.00    -0.200 F 
ATOM     87  F   UNL A   1      43.846  38.836  29.508  1.00  0.00    -0.200 F 
ENDBRANCH  54  77
ENDBRANCH  28  29
ENDBRANCH  21  23
ENDBRANCH  20  21
ENDBRANCH  19  20
ENDBRANCH   1  19
TORSDOF 15
ENDMDL
