MODEL 1
REMARK VINA RESULT:     -14.1      0.000      0.000
REMARK SMILES O=C(OCCOC(=O)[C@H]1CCCCN1C(=O)c1nc(C2CC2)n[nH]1)c1ccc(-c2c3nc(c(-c4c(F)c(F)c(F)c(F)c4F)c4ccc([nH]4)c(-c4c(F)c(F)c(F)c(F)c4F)c4nc(c(-c5c(F)c(F)c(F)c(F)c5F)c5ccc2[nH]5)C=C4)C=C3)cc1
REMARK SMILES IDX 5 1 4 2 3 3 2 4 1 5 25 6 26 7 87 8 27 9 86 10 28 11 29 12
REMARK SMILES IDX 30 13 80 14 31 15 85 16 79 17 81 18 32 19 84 20 78 21 77 22
REMARK SMILES IDX 33 24 65 25 45 26 64 27 46 28 49 29 63 30 82 31 47 32 48 33
REMARK SMILES IDX 62 35 83 36 50 37 34 38 35 39 43 40 36 41 37 42 41 43 44 44
REMARK SMILES IDX 38 45 39 46 42 47 40 48 66 49 67 50 75 51 68 52 69 53 73 54
REMARK SMILES IDX 76 55 70 56 71 57 74 58 72 59 51 60 52 61 60 62 53 63 54 64
REMARK SMILES IDX 58 65 61 66 55 67 56 68 59 69 57 70 6 71 7 72 8 73 9 74
REMARK SMILES IDX 10 75 14 76 11 77 13 78 12 79 15 80 16 81 17 82 18 83 24 84
REMARK SMILES IDX 19 85 23 86 20 88 21 89 22 90
REMARK H PARENT 81 23 49 34 24 87
REMARK Flexibility Score: inf
ROOT
ATOM      1  C   UNL A   1      37.285  22.279  25.678  1.00  0.00     0.274 C 
ENDROOT
BRANCH   1   2
ATOM      2  C   UNL A   1      38.494  21.317  25.331  1.00  0.00     0.275 C 
BRANCH   2   3
ATOM      3  O   UNL A   1      39.629  21.334  26.245  1.00  0.00    -0.458 OA
BRANCH   3   4
ATOM      4  C   UNL A   1      40.725  22.168  26.139  1.00  0.00     0.338 C 
ATOM      5  O   UNL A   1      41.704  21.862  25.471  1.00  0.00    -0.246 OA
BRANCH   4   6
ATOM      6  C   UNL A   1      40.876  23.210  27.229  1.00  0.00     0.060 A 
ATOM      7  C   UNL A   1      42.364  23.931  27.156  1.00  0.00     0.016 A 
ATOM      8  C   UNL A   1      39.449  24.141  27.599  1.00  0.00     0.016 A 
ATOM      9  C   UNL A   1      42.515  25.663  27.326  1.00  0.00     0.010 A 
ATOM     10  C   UNL A   1      39.431  25.864  27.864  1.00  0.00     0.010 A 
ATOM     11  C   UNL A   1      40.965  26.776  27.781  1.00  0.00    -0.014 A 
BRANCH  11  12
ATOM     12  C   UNL A   1      40.639  27.953  28.965  1.00  0.00     0.031 A 
ATOM     13  C   UNL A   1      39.400  28.965  28.961  1.00  0.00     0.074 A 
ATOM     14  C   UNL A   1      41.374  28.050  30.086  1.00  0.00     0.049 A 
ATOM     15  N   UNL A   1      38.858  29.598  29.996  1.00  0.00    -0.248 NA
ATOM     16  C   UNL A   1      38.712  29.338  27.710  1.00  0.00     0.031 C 
ATOM     17  C   UNL A   1      42.659  27.427  30.228  1.00  0.00     0.029 A 
ATOM     18  N   UNL A   1      41.099  28.556  31.343  1.00  0.00    -0.354 N 
ATOM     19  C   UNL A   1      37.801  30.380  29.507  1.00  0.00     0.074 A 
ATOM     20  C   UNL A   1      37.717  30.119  28.100  1.00  0.00     0.031 C 
ATOM     21  C   UNL A   1      42.916  27.303  31.533  1.00  0.00     0.029 A 
ATOM     22  C   UNL A   1      41.951  28.058  32.306  1.00  0.00     0.049 A 
ATOM     23  H   UNL A   1      40.377  29.198  31.530  1.00  0.00     0.167 HD
ATOM     24  C   UNL A   1      37.006  31.301  30.114  1.00  0.00     0.037 A 
ATOM     25  C   UNL A   1      42.045  28.192  33.647  1.00  0.00     0.037 A 
ATOM     26  C   UNL A   1      37.134  31.725  31.483  1.00  0.00     0.049 A 
ATOM     27  C   UNL A   1      41.155  29.185  34.313  1.00  0.00     0.074 A 
ATOM     28  C   UNL A   1      36.402  32.689  32.158  1.00  0.00     0.029 A 
ATOM     29  N   UNL A   1      38.093  31.263  32.365  1.00  0.00    -0.354 N 
ATOM     30  N   UNL A   1      40.143  29.840  33.807  1.00  0.00    -0.248 NA
ATOM     31  C   UNL A   1      41.489  29.547  35.697  1.00  0.00     0.031 C 
ATOM     32  C   UNL A   1      36.979  32.876  33.418  1.00  0.00     0.029 A 
ATOM     33  C   UNL A   1      38.010  31.966  33.556  1.00  0.00     0.049 A 
ATOM     34  H   UNL A   1      38.737  30.543  32.175  1.00  0.00     0.167 HD
ATOM     35  C   UNL A   1      39.773  30.750  34.780  1.00  0.00     0.074 A 
ATOM     36  C   UNL A   1      40.602  30.499  35.940  1.00  0.00     0.031 C 
ATOM     37  C   UNL A   1      38.863  31.745  34.689  1.00  0.00     0.037 A 
BRANCH  24  38
ATOM     38  C   UNL A   1      35.975  32.036  29.282  1.00  0.00     0.064 A 
ATOM     39  C   UNL A   1      34.852  31.392  28.740  1.00  0.00     0.173 A 
ATOM     40  C   UNL A   1      36.064  33.430  29.121  1.00  0.00     0.173 A 
ATOM     41  F   UNL A   1      34.715  30.064  28.853  1.00  0.00    -0.203 F 
ATOM     42  C   UNL A   1      33.860  32.116  28.074  1.00  0.00     0.198 A 
ATOM     43  C   UNL A   1      35.061  34.151  28.476  1.00  0.00     0.198 A 
ATOM     44  F   UNL A   1      37.113  34.100  29.623  1.00  0.00    -0.203 F 
ATOM     45  F   UNL A   1      32.802  31.480  27.552  1.00  0.00    -0.200 F 
ATOM     46  C   UNL A   1      33.960  33.495  27.953  1.00  0.00     0.200 A 
ATOM     47  F   UNL A   1      35.156  35.485  28.376  1.00  0.00    -0.200 F 
ATOM     48  F   UNL A   1      32.995  34.190  27.333  1.00  0.00    -0.200 F 
ENDBRANCH  24  38
BRANCH  25  49
ATOM     49  C   UNL A   1      43.152  27.535  34.413  1.00  0.00     0.064 A 
ATOM     50  C   UNL A   1      42.982  26.314  35.083  1.00  0.00     0.173 A 
ATOM     51  C   UNL A   1      44.414  28.148  34.509  1.00  0.00     0.173 A 
ATOM     52  F   UNL A   1      41.788  25.702  35.078  1.00  0.00    -0.203 F 
ATOM     53  C   UNL A   1      44.030  25.739  35.806  1.00  0.00     0.198 A 
ATOM     54  C   UNL A   1      45.475  27.542  35.174  1.00  0.00     0.198 A 
ATOM     55  F   UNL A   1      44.631  29.332  33.918  1.00  0.00    -0.203 F 
ATOM     56  F   UNL A   1      43.828  24.599  36.484  1.00  0.00    -0.200 F 
ATOM     57  C   UNL A   1      45.280  26.342  35.832  1.00  0.00     0.200 A 
ATOM     58  F   UNL A   1      46.679  28.129  35.172  1.00  0.00    -0.200 F 
ATOM     59  F   UNL A   1      46.289  25.776  36.508  1.00  0.00    -0.200 F 
ENDBRANCH  25  49
BRANCH  37  60
ATOM     60  C   UNL A   1      38.741  32.646  35.873  1.00  0.00     0.064 A 
ATOM     61  C   UNL A   1      39.349  33.911  35.891  1.00  0.00     0.173 A 
ATOM     62  C   UNL A   1      38.036  32.231  37.010  1.00  0.00     0.173 A 
ATOM     63  F   UNL A   1      40.056  34.337  34.833  1.00  0.00    -0.203 F 
ATOM     64  C   UNL A   1      39.286  34.713  37.024  1.00  0.00     0.198 A 
ATOM     65  C   UNL A   1      37.948  33.050  38.128  1.00  0.00     0.198 A 
ATOM     66  F   UNL A   1      37.443  31.029  37.035  1.00  0.00    -0.203 F 
ATOM     67  F   UNL A   1      39.933  35.887  37.048  1.00  0.00    -0.200 F 
ATOM     68  C   UNL A   1      38.582  34.285  38.139  1.00  0.00     0.200 A 
ATOM     69  F   UNL A   1      37.261  32.639  39.202  1.00  0.00    -0.200 F 
ATOM     70  F   UNL A   1      38.529  35.055  39.235  1.00  0.00    -0.200 F 
ENDBRANCH  37  60
ENDBRANCH  11  12
ENDBRANCH   4   6
ENDBRANCH   3   4
ENDBRANCH   2   3
ENDBRANCH   1   2
BRANCH   1  71
ATOM     71  O   UNL A   1      37.078  23.479  24.868  1.00  0.00    -0.461 OA
BRANCH  71  72
ATOM     72  C   UNL A   1      35.886  23.603  24.208  1.00  0.00     0.328 C 
ATOM     73  O   UNL A   1      35.765  23.279  23.030  1.00  0.00    -0.250 OA
BRANCH  72  74
ATOM     74  C   UNL A   1      34.626  23.852  25.171  1.00  0.00     0.195 C 
ATOM     75  C   UNL A   1      34.379  25.691  25.245  1.00  0.00     0.037 C 
ATOM     76  N   UNL A   1      33.181  22.972  25.089  1.00  0.00    -0.322 N 
ATOM     77  C   UNL A   1      32.745  26.647  24.095  1.00  0.00     0.005 C 
ATOM     78  C   UNL A   1      31.677  23.439  24.186  1.00  0.00     0.121 C 
ATOM     79  C   UNL A   1      31.349  25.279  23.591  1.00  0.00     0.022 C 
BRANCH  76  80
ATOM     80  C   UNL A   1      33.344  21.846  25.943  1.00  0.00     0.291 C 
ATOM     81  O   UNL A   1      33.364  21.993  27.169  1.00  0.00    -0.265 OA
BRANCH  80  82
ATOM     82  C   UNL A   1      33.390  20.506  25.459  1.00  0.00     0.214 A 
ATOM     83  N   UNL A   1      34.416  19.830  25.001  1.00  0.00    -0.207 NA
ATOM     84  N   UNL A   1      32.307  19.670  25.553  1.00  0.00    -0.255 N 
ATOM     85  C   UNL A   1      33.862  18.608  24.717  1.00  0.00     0.154 A 
ATOM     86  N   UNL A   1      32.545  18.508  24.922  1.00  0.00    -0.158 NA
ATOM     87  H   UNL A   1      31.468  19.891  26.020  1.00  0.00     0.192 HD
BRANCH  85  88
ATOM     88  C   UNL A   1      34.671  17.469  24.159  1.00  0.00     0.060 C 
ATOM     89  C   UNL A   1      34.781  16.218  24.995  1.00  0.00     0.012 C 
ATOM     90  C   UNL A   1      33.972  16.205  23.735  1.00  0.00     0.012 C 
ENDBRANCH  85  88
ENDBRANCH  80  82
ENDBRANCH  76  80
ENDBRANCH  72  74
ENDBRANCH  71  72
ENDBRANCH   1  71
TORSDOF 14
ENDMDL
MODEL 2
REMARK VINA RESULT:     -13.7      5.718     11.115
REMARK SMILES O=C(OCCOC(=O)[C@H]1CCCCN1C(=O)c1nc(C2CC2)n[nH]1)c1ccc(-c2c3nc(c(-c4c(F)c(F)c(F)c(F)c4F)c4ccc([nH]4)c(-c4c(F)c(F)c(F)c(F)c4F)c4nc(c(-c5c(F)c(F)c(F)c(F)c5F)c5ccc2[nH]5)C=C4)C=C3)cc1
REMARK SMILES IDX 5 1 4 2 3 3 2 4 1 5 25 6 26 7 87 8 27 9 86 10 28 11 29 12
REMARK SMILES IDX 30 13 80 14 31 15 85 16 79 17 81 18 32 19 84 20 78 21 77 22
REMARK SMILES IDX 33 24 65 25 45 26 64 27 46 28 49 29 63 30 82 31 47 32 48 33
REMARK SMILES IDX 62 35 83 36 50 37 34 38 35 39 43 40 36 41 37 42 41 43 44 44
REMARK SMILES IDX 38 45 39 46 42 47 40 48 66 49 67 50 75 51 68 52 69 53 73 54
REMARK SMILES IDX 76 55 70 56 71 57 74 58 72 59 51 60 52 61 60 62 53 63 54 64
REMARK SMILES IDX 58 65 61 66 55 67 56 68 59 69 57 70 6 71 7 72 8 73 9 74
REMARK SMILES IDX 10 75 14 76 11 77 13 78 12 79 15 80 16 81 17 82 18 83 24 84
REMARK SMILES IDX 19 85 23 86 20 88 21 89 22 90
REMARK H PARENT 81 23 49 34 24 87
REMARK Flexibility Score: inf
ROOT
ATOM      1  C   UNL A   1      33.082  29.719  27.163  1.00  0.00     0.274 C 
ENDROOT
BRANCH   1   2
ATOM      2  C   UNL A   1      32.739  31.264  27.233  1.00  0.00     0.275 C 
BRANCH   2   3
ATOM      3  O   UNL A   1      33.828  32.161  27.596  1.00  0.00    -0.458 OA
BRANCH   3   4
ATOM      4  C   UNL A   1      34.509  32.143  28.798  1.00  0.00     0.338 C 
ATOM      5  O   UNL A   1      34.075  32.709  29.793  1.00  0.00    -0.246 OA
BRANCH   4   6
ATOM      6  C   UNL A   1      35.990  31.829  28.719  1.00  0.00     0.060 A 
ATOM      7  C   UNL A   1      36.741  32.160  30.156  1.00  0.00     0.016 A 
ATOM      8  C   UNL A   1      36.425  30.423  27.784  1.00  0.00     0.016 A 
ATOM      9  C   UNL A   1      37.899  31.035  30.825  1.00  0.00     0.010 A 
ATOM     10  C   UNL A   1      37.605  29.237  28.271  1.00  0.00     0.010 A 
ATOM     11  C   UNL A   1      38.471  29.450  29.819  1.00  0.00    -0.014 A 
BRANCH  11  12
ATOM     12  C   UNL A   1      39.973  28.787  29.378  1.00  0.00     0.031 A 
ATOM     13  C   UNL A   1      40.209  27.321  28.782  1.00  0.00     0.074 A 
ATOM     14  C   UNL A   1      41.102  29.515  29.405  1.00  0.00     0.049 A 
ATOM     15  N   UNL A   1      41.234  26.890  28.053  1.00  0.00    -0.248 NA
ATOM     16  C   UNL A   1      39.253  26.224  29.027  1.00  0.00     0.031 C 
ATOM     17  C   UNL A   1      41.205  30.763  30.107  1.00  0.00     0.029 A 
ATOM     18  N   UNL A   1      42.301  29.407  28.725  1.00  0.00    -0.354 N 
ATOM     19  C   UNL A   1      41.008  25.536  27.766  1.00  0.00     0.074 A 
ATOM     20  C   UNL A   1      39.734  25.205  28.333  1.00  0.00     0.031 C 
ATOM     21  C   UNL A   1      42.229  31.446  29.588  1.00  0.00     0.029 A 
ATOM     22  C   UNL A   1      43.004  30.593  28.710  1.00  0.00     0.049 A 
ATOM     23  H   UNL A   1      42.617  28.578  28.298  1.00  0.00     0.167 HD
ATOM     24  C   UNL A   1      41.791  24.600  27.166  1.00  0.00     0.037 A 
ATOM     25  C   UNL A   1      44.158  31.002  28.139  1.00  0.00     0.037 A 
ATOM     26  C   UNL A   1      43.137  24.821  26.711  1.00  0.00     0.049 A 
ATOM     27  C   UNL A   1      45.002  29.977  27.461  1.00  0.00     0.074 A 
ATOM     28  C   UNL A   1      44.014  23.912  26.140  1.00  0.00     0.029 A 
ATOM     29  N   UNL A   1      43.825  26.014  26.834  1.00  0.00    -0.354 N 
ATOM     30  N   UNL A   1      44.704  28.738  27.171  1.00  0.00    -0.248 NA
ATOM     31  C   UNL A   1      46.381  30.368  27.136  1.00  0.00     0.031 C 
ATOM     32  C   UNL A   1      45.261  24.530  26.006  1.00  0.00     0.029 A 
ATOM     33  C   UNL A   1      45.133  25.846  26.408  1.00  0.00     0.049 A 
ATOM     34  H   UNL A   1      43.443  26.855  27.174  1.00  0.00     0.167 HD
ATOM     35  C   UNL A   1      45.880  28.177  26.709  1.00  0.00     0.074 A 
ATOM     36  C   UNL A   1      46.870  29.232  26.664  1.00  0.00     0.031 C 
ATOM     37  C   UNL A   1      46.125  26.883  26.406  1.00  0.00     0.037 A 
BRANCH  24  38
ATOM     38  C   UNL A   1      41.275  23.180  27.058  1.00  0.00     0.064 A 
ATOM     39  C   UNL A   1      40.169  22.841  26.264  1.00  0.00     0.173 A 
ATOM     40  C   UNL A   1      41.974  22.128  27.679  1.00  0.00     0.173 A 
ATOM     41  F   UNL A   1      39.457  23.799  25.654  1.00  0.00    -0.203 F 
ATOM     42  C   UNL A   1      39.787  21.507  26.094  1.00  0.00     0.198 A 
ATOM     43  C   UNL A   1      41.603  20.799  27.489  1.00  0.00     0.198 A 
ATOM     44  F   UNL A   1      43.043  22.392  28.447  1.00  0.00    -0.203 F 
ATOM     45  F   UNL A   1      38.719  21.207  25.342  1.00  0.00    -0.200 F 
ATOM     46  C   UNL A   1      40.510  20.488  26.697  1.00  0.00     0.200 A 
ATOM     47  F   UNL A   1      42.315  19.817  28.061  1.00  0.00    -0.200 F 
ATOM     48  F   UNL A   1      40.155  19.209  26.514  1.00  0.00    -0.200 F 
ENDBRANCH  24  38
BRANCH  25  49
ATOM     49  C   UNL A   1      44.685  32.385  28.368  1.00  0.00     0.064 A 
ATOM     50  C   UNL A   1      44.489  33.426  27.448  1.00  0.00     0.173 A 
ATOM     51  C   UNL A   1      45.431  32.683  29.522  1.00  0.00     0.173 A 
ATOM     52  F   UNL A   1      43.833  33.198  26.300  1.00  0.00    -0.203 F 
ATOM     53  C   UNL A   1      45.012  34.701  27.682  1.00  0.00     0.198 A 
ATOM     54  C   UNL A   1      45.894  33.967  29.785  1.00  0.00     0.198 A 
ATOM     55  F   UNL A   1      45.681  31.722  30.425  1.00  0.00    -0.203 F 
ATOM     56  F   UNL A   1      44.860  35.665  26.763  1.00  0.00    -0.200 F 
ATOM     57  C   UNL A   1      45.695  34.974  28.860  1.00  0.00     0.200 A 
ATOM     58  F   UNL A   1      46.533  34.218  30.936  1.00  0.00    -0.200 F 
ATOM     59  F   UNL A   1      46.175  36.204  29.091  1.00  0.00    -0.200 F 
ENDBRANCH  25  49
BRANCH  37  60
ATOM     60  C   UNL A   1      47.528  26.542  26.025  1.00  0.00     0.064 A 
ATOM     61  C   UNL A   1      48.416  25.973  26.950  1.00  0.00     0.173 A 
ATOM     62  C   UNL A   1      47.995  26.813  24.732  1.00  0.00     0.173 A 
ATOM     63  F   UNL A   1      48.016  25.722  28.206  1.00  0.00    -0.203 F 
ATOM     64  C   UNL A   1      49.739  25.724  26.603  1.00  0.00     0.198 A 
ATOM     65  C   UNL A   1      49.309  26.530  24.380  1.00  0.00     0.198 A 
ATOM     66  F   UNL A   1      47.180  27.358  23.818  1.00  0.00    -0.203 F 
ATOM     67  F   UNL A   1      50.591  25.246  27.521  1.00  0.00    -0.200 F 
ATOM     68  C   UNL A   1      50.183  25.997  25.318  1.00  0.00     0.200 A 
ATOM     69  F   UNL A   1      49.735  26.787  23.137  1.00  0.00    -0.200 F 
ATOM     70  F   UNL A   1      51.460  25.764  24.987  1.00  0.00    -0.200 F 
ENDBRANCH  37  60
ENDBRANCH  11  12
ENDBRANCH   4   6
ENDBRANCH   3   4
ENDBRANCH   2   3
ENDBRANCH   1   2
BRANCH   1  71
ATOM     71  O   UNL A   1      32.875  29.003  25.905  1.00  0.00    -0.461 OA
BRANCH  71  72
ATOM     72  C   UNL A   1      32.124  27.859  25.941  1.00  0.00     0.328 C 
ATOM     73  O   UNL A   1      31.037  27.820  26.509  1.00  0.00    -0.250 OA
BRANCH  72  74
ATOM     74  C   UNL A   1      32.599  26.729  24.903  1.00  0.00     0.195 C 
ATOM     75  C   UNL A   1      33.705  25.580  25.853  1.00  0.00     0.037 C 
ATOM     76  N   UNL A   1      31.564  25.941  23.818  1.00  0.00    -0.322 N 
ATOM     77  C   UNL A   1      32.957  23.603  26.516  1.00  0.00     0.005 C 
ATOM     78  C   UNL A   1      30.737  24.346  24.076  1.00  0.00     0.121 C 
ATOM     79  C   UNL A   1      31.330  23.074  25.446  1.00  0.00     0.022 C 
BRANCH  76  80
ATOM     80  C   UNL A   1      31.548  26.725  22.632  1.00  0.00     0.291 C 
ATOM     81  O   UNL A   1      32.244  26.402  21.664  1.00  0.00    -0.265 OA
BRANCH  80  82
ATOM     82  C   UNL A   1      30.679  27.840  22.452  1.00  0.00     0.214 A 
ATOM     83  N   UNL A   1      29.431  27.982  22.827  1.00  0.00    -0.207 NA
ATOM     84  N   UNL A   1      31.135  29.032  21.947  1.00  0.00    -0.255 N 
ATOM     85  C   UNL A   1      29.139  29.256  22.410  1.00  0.00     0.154 A 
ATOM     86  N   UNL A   1      30.117  29.887  21.754  1.00  0.00    -0.158 NA
ATOM     87  H   UNL A   1      32.079  29.232  21.752  1.00  0.00     0.192 HD
BRANCH  85  88
ATOM     88  C   UNL A   1      27.790  29.884  22.629  1.00  0.00     0.060 C 
ATOM     89  C   UNL A   1      27.693  30.988  23.653  1.00  0.00     0.012 C 
ATOM     90  C   UNL A   1      27.559  31.307  22.196  1.00  0.00     0.012 C 
ENDBRANCH  85  88
ENDBRANCH  80  82
ENDBRANCH  76  80
ENDBRANCH  72  74
ENDBRANCH  71  72
ENDBRANCH   1  71
TORSDOF 14
ENDMDL
MODEL 3
REMARK VINA RESULT:     -13.5      0.447      1.671
REMARK SMILES O=C(OCCOC(=O)[C@H]1CCCCN1C(=O)c1nc(C2CC2)n[nH]1)c1ccc(-c2c3nc(c(-c4c(F)c(F)c(F)c(F)c4F)c4ccc([nH]4)c(-c4c(F)c(F)c(F)c(F)c4F)c4nc(c(-c5c(F)c(F)c(F)c(F)c5F)c5ccc2[nH]5)C=C4)C=C3)cc1
REMARK SMILES IDX 5 1 4 2 3 3 2 4 1 5 25 6 26 7 87 8 27 9 86 10 28 11 29 12
REMARK SMILES IDX 30 13 80 14 31 15 85 16 79 17 81 18 32 19 84 20 78 21 77 22
REMARK SMILES IDX 33 24 65 25 45 26 64 27 46 28 49 29 63 30 82 31 47 32 48 33
REMARK SMILES IDX 62 35 83 36 50 37 34 38 35 39 43 40 36 41 37 42 41 43 44 44
REMARK SMILES IDX 38 45 39 46 42 47 40 48 66 49 67 50 75 51 68 52 69 53 73 54
REMARK SMILES IDX 76 55 70 56 71 57 74 58 72 59 51 60 52 61 60 62 53 63 54 64
REMARK SMILES IDX 58 65 61 66 55 67 56 68 59 69 57 70 6 71 7 72 8 73 9 74
REMARK SMILES IDX 10 75 14 76 11 77 13 78 12 79 15 80 16 81 17 82 18 83 24 84
REMARK SMILES IDX 19 85 23 86 20 88 21 89 22 90
REMARK H PARENT 81 23 49 34 24 87
REMARK Flexibility Score: inf
ROOT
ATOM      1  C   UNL A   1      37.404  21.487  24.976  1.00  0.00     0.274 C 
ENDROOT
BRANCH   1   2
ATOM      2  C   UNL A   1      38.780  21.103  25.660  1.00  0.00     0.275 C 
BRANCH   2   3
ATOM      3  O   UNL A   1      39.897  22.012  25.439  1.00  0.00    -0.458 OA
BRANCH   3   4
ATOM      4  C   UNL A   1      41.088  21.997  26.139  1.00  0.00     0.338 C 
ATOM      5  O   UNL A   1      41.794  20.998  26.187  1.00  0.00    -0.246 OA
BRANCH   4   6
ATOM      6  C   UNL A   1      41.244  23.059  27.209  1.00  0.00     0.060 A 
ATOM      7  C   UNL A   1      42.675  23.872  27.030  1.00  0.00     0.016 A 
ATOM      8  C   UNL A   1      39.788  23.900  27.670  1.00  0.00     0.016 A 
ATOM      9  C   UNL A   1      42.724  25.613  27.177  1.00  0.00     0.010 A 
ATOM     10  C   UNL A   1      39.677  25.621  27.923  1.00  0.00     0.010 A 
ATOM     11  C   UNL A   1      41.139  26.629  27.730  1.00  0.00    -0.014 A 
BRANCH  11  12
ATOM     12  C   UNL A   1      40.819  27.796  28.925  1.00  0.00     0.031 A 
ATOM     13  C   UNL A   1      39.580  28.808  28.935  1.00  0.00     0.074 A 
ATOM     14  C   UNL A   1      41.559  27.882  30.043  1.00  0.00     0.049 A 
ATOM     15  N   UNL A   1      39.042  29.432  29.978  1.00  0.00    -0.248 NA
ATOM     16  C   UNL A   1      38.887  29.192  27.690  1.00  0.00     0.031 C 
ATOM     17  C   UNL A   1      42.845  27.258  30.175  1.00  0.00     0.029 A 
ATOM     18  N   UNL A   1      41.289  28.378  31.306  1.00  0.00    -0.354 N 
ATOM     19  C   UNL A   1      37.984  30.218  29.500  1.00  0.00     0.074 A 
ATOM     20  C   UNL A   1      37.894  29.969  28.091  1.00  0.00     0.031 C 
ATOM     21  C   UNL A   1      43.107  27.123  31.477  1.00  0.00     0.029 A 
ATOM     22  C   UNL A   1      42.145  27.871  32.261  1.00  0.00     0.049 A 
ATOM     23  H   UNL A   1      40.568  29.019  31.502  1.00  0.00     0.167 HD
ATOM     24  C   UNL A   1      37.191  31.134  30.119  1.00  0.00     0.037 A 
ATOM     25  C   UNL A   1      42.245  27.994  33.603  1.00  0.00     0.037 A 
ATOM     26  C   UNL A   1      37.326  31.546  31.491  1.00  0.00     0.049 A 
ATOM     27  C   UNL A   1      41.359  28.982  34.281  1.00  0.00     0.074 A 
ATOM     28  C   UNL A   1      36.597  32.504  32.178  1.00  0.00     0.029 A 
ATOM     29  N   UNL A   1      38.288  31.076  32.364  1.00  0.00    -0.354 N 
ATOM     30  N   UNL A   1      40.345  29.641  33.786  1.00  0.00    -0.248 NA
ATOM     31  C   UNL A   1      41.699  29.332  35.666  1.00  0.00     0.031 C 
ATOM     32  C   UNL A   1      37.179  32.680  33.436  1.00  0.00     0.029 A 
ATOM     33  C   UNL A   1      38.211  31.769  33.562  1.00  0.00     0.049 A 
ATOM     34  H   UNL A   1      38.931  30.358  32.166  1.00  0.00     0.167 HD
ATOM     35  C   UNL A   1      39.979  30.542  34.767  1.00  0.00     0.074 A 
ATOM     36  C   UNL A   1      40.813  30.281  35.921  1.00  0.00     0.031 C 
ATOM     37  C   UNL A   1      39.068  31.538  34.689  1.00  0.00     0.037 A 
BRANCH  24  38
ATOM     38  C   UNL A   1      36.157  31.876  29.298  1.00  0.00     0.064 A 
ATOM     39  C   UNL A   1      35.014  31.244  28.784  1.00  0.00     0.173 A 
ATOM     40  C   UNL A   1      36.264  33.267  29.121  1.00  0.00     0.173 A 
ATOM     41  F   UNL A   1      34.859  29.919  28.913  1.00  0.00    -0.203 F 
ATOM     42  C   UNL A   1      34.021  31.977  28.128  1.00  0.00     0.198 A 
ATOM     43  C   UNL A   1      35.261  33.997  28.486  1.00  0.00     0.198 A 
ATOM     44  F   UNL A   1      37.333  33.925  29.596  1.00  0.00    -0.203 F 
ATOM     45  F   UNL A   1      32.945  31.351  27.631  1.00  0.00    -0.200 F 
ATOM     46  C   UNL A   1      34.140  33.352  27.989  1.00  0.00     0.200 A 
ATOM     47  F   UNL A   1      35.374  35.328  28.370  1.00  0.00    -0.200 F 
ATOM     48  F   UNL A   1      33.176  34.056  27.380  1.00  0.00    -0.200 F 
ENDBRANCH  24  38
BRANCH  25  49
ATOM     49  C   UNL A   1      43.356  27.330  34.358  1.00  0.00     0.064 A 
ATOM     50  C   UNL A   1      44.624  27.913  34.495  1.00  0.00     0.173 A 
ATOM     51  C   UNL A   1      43.167  26.064  34.939  1.00  0.00     0.173 A 
ATOM     52  F   UNL A   1      44.891  29.095  33.919  1.00  0.00    -0.203 F 
ATOM     53  C   UNL A   1      45.646  27.258  35.188  1.00  0.00     0.198 A 
ATOM     54  C   UNL A   1      44.163  25.443  35.685  1.00  0.00     0.198 A 
ATOM     55  F   UNL A   1      41.986  25.438  34.815  1.00  0.00    -0.203 F 
ATOM     56  F   UNL A   1      46.866  27.809  35.260  1.00  0.00    -0.200 F 
ATOM     57  C   UNL A   1      45.407  26.034  35.799  1.00  0.00     0.200 A 
ATOM     58  F   UNL A   1      43.909  24.272  36.285  1.00  0.00    -0.200 F 
ATOM     59  F   UNL A   1      46.383  25.420  36.483  1.00  0.00    -0.200 F 
ENDBRANCH  25  49
BRANCH  37  60
ATOM     60  C   UNL A   1      38.952  32.429  35.882  1.00  0.00     0.064 A 
ATOM     61  C   UNL A   1      38.200  32.050  37.004  1.00  0.00     0.173 A 
ATOM     62  C   UNL A   1      39.576  33.683  35.892  1.00  0.00     0.173 A 
ATOM     63  F   UNL A   1      37.566  30.867  37.025  1.00  0.00    -0.203 F 
ATOM     64  C   UNL A   1      38.044  32.916  38.080  1.00  0.00     0.198 A 
ATOM     65  C   UNL A   1      39.444  34.532  36.984  1.00  0.00     0.198 A 
ATOM     66  F   UNL A   1      40.302  34.086  34.839  1.00  0.00    -0.203 F 
ATOM     67  F   UNL A   1      37.263  32.565  39.112  1.00  0.00    -0.200 F 
ATOM     68  C   UNL A   1      38.669  34.153  38.071  1.00  0.00     0.200 A 
ATOM     69  F   UNL A   1      40.055  35.724  36.978  1.00  0.00    -0.200 F 
ATOM     70  F   UNL A   1      38.512  34.991  39.105  1.00  0.00    -0.200 F 
ENDBRANCH  37  60
ENDBRANCH  11  12
ENDBRANCH   4   6
ENDBRANCH   3   4
ENDBRANCH   2   3
ENDBRANCH   1   2
BRANCH   1  71
ATOM     71  O   UNL A   1      36.741  22.731  25.364  1.00  0.00    -0.461 OA
BRANCH  71  72
ATOM     72  C   UNL A   1      35.953  23.350  24.431  1.00  0.00     0.328 C 
ATOM     73  O   UNL A   1      36.226  23.320  23.235  1.00  0.00    -0.250 OA
BRANCH  72  74
ATOM     74  C   UNL A   1      34.507  23.783  24.978  1.00  0.00     0.195 C 
ATOM     75  C   UNL A   1      34.420  25.631  24.819  1.00  0.00     0.037 C 
ATOM     76  N   UNL A   1      33.064  22.993  24.574  1.00  0.00    -0.322 N 
ATOM     77  C   UNL A   1      33.254  26.557  23.179  1.00  0.00     0.005 C 
ATOM     78  C   UNL A   1      31.911  23.454  23.249  1.00  0.00     0.121 C 
ATOM     79  C   UNL A   1      31.928  25.234  22.427  1.00  0.00     0.022 C 
BRANCH  76  80
ATOM     80  C   UNL A   1      32.884  21.960  25.535  1.00  0.00     0.291 C 
ATOM     81  O   UNL A   1      32.450  22.226  26.660  1.00  0.00    -0.265 OA
BRANCH  80  82
ATOM     82  C   UNL A   1      33.092  20.581  25.238  1.00  0.00     0.214 A 
ATOM     83  N   UNL A   1      34.167  19.990  24.778  1.00  0.00    -0.207 NA
ATOM     84  N   UNL A   1      32.156  19.629  25.555  1.00  0.00    -0.255 N 
ATOM     85  C   UNL A   1      33.781  18.675  24.722  1.00  0.00     0.154 A 
ATOM     86  N   UNL A   1      32.515  18.429  25.071  1.00  0.00    -0.158 NA
ATOM     87  H   UNL A   1      31.334  19.803  26.068  1.00  0.00     0.192 HD
BRANCH  85  88
ATOM     88  C   UNL A   1      34.705  17.586  24.250  1.00  0.00     0.060 C 
ATOM     89  C   UNL A   1      34.349  16.165  24.612  1.00  0.00     0.012 C 
ATOM     90  C   UNL A   1      34.232  16.625  23.192  1.00  0.00     0.012 C 
ENDBRANCH  85  88
ENDBRANCH  80  82
ENDBRANCH  76  80
ENDBRANCH  72  74
ENDBRANCH  71  72
ENDBRANCH   1  71
TORSDOF 14
ENDMDL
