MODEL 1
REMARK VINA RESULT:     -11.3      0.000      0.000
REMARK SMILES C[C@H]1[C@H](C(=O)OCCOC(=O)c2ccc(-c3c4nc(c(-c5c(F)c(F)c(F)c(F)c5F)c5ccc([nH]5)c(-c5c(F)c(F)c(F)c(F)c5F)c5nc(c(-c6c(F)c(F)c(F)c(F)c6F)c6ccc3[nH]6)C=C5)C=C4)cc2)CCN1C(=O)[C@](C)([NH3+])C1CC1
REMARK SMILES IDX 7 1 6 2 4 3 5 4 3 5 1 6 2 7 77 8 75 9 76 10 78 11 79 12
REMARK SMILES IDX 80 13 81 14 82 15 83 19 84 20 85 21 8 22 9 23 10 24 11 25
REMARK SMILES IDX 12 26 13 27 74 28 14 29 73 30 15 31 16 32 17 33 67 34 18 35
REMARK SMILES IDX 72 36 66 37 68 38 19 39 71 40 65 41 64 42 20 44 52 45 32 46
REMARK SMILES IDX 51 47 33 48 36 49 50 50 69 51 34 52 35 53 49 55 70 56 37 57
REMARK SMILES IDX 21 58 22 59 30 60 23 61 24 62 28 63 31 64 25 65 26 66 29 67
REMARK SMILES IDX 27 68 53 69 54 70 62 71 55 72 56 73 60 74 63 75 57 76 58 77
REMARK SMILES IDX 61 78 59 79 38 80 39 81 47 82 40 83 41 84 45 85 48 86 42 87
REMARK SMILES IDX 43 88 46 89 44 90
REMARK H PARENT 82 16 82 17 82 18 68 43 36 54
REMARK Flexibility Score: inf
ROOT
ATOM      1  C   UNL A   1      31.682  28.408  26.178  1.00  0.00     0.274 C 
ENDROOT
BRANCH   1   2
ATOM      2  O   UNL A   1      31.009  27.380  26.934  1.00  0.00    -0.462 OA
BRANCH   2   3
ATOM      3  C   UNL A   1      30.704  26.247  26.255  1.00  0.00     0.311 C 
ATOM      4  O   UNL A   1      29.768  25.502  26.527  1.00  0.00    -0.252 OA
BRANCH   3   5
ATOM      5  C   UNL A   1      31.674  25.928  25.140  1.00  0.00     0.123 C 
ATOM      6  C   UNL A   1      34.148  25.540  25.440  1.00  0.00     0.032 C 
ATOM      7  C   UNL A   1      32.766  24.878  25.464  1.00  0.00     0.096 C 
ATOM      8  N   UNL A   1      32.660  23.890  24.387  1.00  0.00    -0.334 N 
ATOM      9  C   UNL A   1      30.923  25.387  23.926  1.00  0.00     0.039 C 
ATOM     10  C   UNL A   1      31.922  24.460  23.273  1.00  0.00     0.121 C 
BRANCH   8  11
ATOM     11  C   UNL A   1      33.085  22.584  24.318  1.00  0.00     0.284 C 
ATOM     12  O   UNL A   1      33.905  22.276  23.432  1.00  0.00    -0.268 OA
BRANCH  11  13
ATOM     13  C   UNL A   1      32.661  21.438  25.318  1.00  0.00     0.174 C 
ATOM     14  C   UNL A   1      32.422  20.171  24.484  1.00  0.00     0.090 C 
BRANCH  13  15
ATOM     15  N   UNL A   1      31.318  21.846  25.846  1.00  0.00    -0.345 N 
ATOM     16  H   UNL A   1      31.202  21.487  26.794  1.00  0.00     0.345 HD
ATOM     17  H   UNL A   1      30.587  21.465  25.247  1.00  0.00     0.345 HD
ATOM     18  H   UNL A   1      31.253  22.864  25.857  1.00  0.00     0.345 HD
ENDBRANCH  13  15
BRANCH  13  19
ATOM     19  C   UNL A   1      33.451  21.218  26.596  1.00  0.00     0.060 C 
ATOM     20  C   UNL A   1      34.691  22.056  26.887  1.00  0.00     0.011 C 
ATOM     21  C   UNL A   1      33.503  22.158  27.787  1.00  0.00     0.011 C 
ENDBRANCH  13  19
ENDBRANCH  11  13
ENDBRANCH   8  11
ENDBRANCH   3   5
ENDBRANCH   2   3
ENDBRANCH   1   2
BRANCH   1  22
ATOM     22  C   UNL A   1      32.112  29.591  27.054  1.00  0.00     0.275 C 
BRANCH  22  23
ATOM     23  O   UNL A   1      33.163  30.368  26.449  1.00  0.00    -0.458 OA
BRANCH  23  24
ATOM     24  C   UNL A   1      33.600  31.402  27.203  1.00  0.00     0.338 C 
ATOM     25  O   UNL A   1      32.991  32.417  27.488  1.00  0.00    -0.246 OA
BRANCH  24  26
ATOM     26  C   UNL A   1      34.915  31.104  27.776  1.00  0.00     0.060 A 
ATOM     27  C   UNL A   1      35.137  29.816  28.275  1.00  0.00     0.016 A 
ATOM     28  C   UNL A   1      35.867  32.107  27.944  1.00  0.00     0.016 A 
ATOM     29  C   UNL A   1      36.304  29.529  28.972  1.00  0.00     0.010 A 
ATOM     30  C   UNL A   1      37.048  31.813  28.627  1.00  0.00     0.010 A 
ATOM     31  C   UNL A   1      37.265  30.527  29.156  1.00  0.00    -0.014 A 
BRANCH  31  32
ATOM     32  C   UNL A   1      38.502  30.239  29.913  1.00  0.00     0.031 A 
ATOM     33  C   UNL A   1      39.533  29.320  29.333  1.00  0.00     0.074 A 
ATOM     34  C   UNL A   1      38.679  30.791  31.125  1.00  0.00     0.049 A 
ATOM     35  N   UNL A   1      40.582  28.789  29.904  1.00  0.00    -0.248 NA
ATOM     36  C   UNL A   1      39.359  28.945  27.921  1.00  0.00     0.031 C 
ATOM     37  C   UNL A   1      37.772  31.750  31.756  1.00  0.00     0.029 A 
ATOM     38  N   UNL A   1      39.672  30.606  32.052  1.00  0.00    -0.354 N 
ATOM     39  C   UNL A   1      41.177  27.994  28.935  1.00  0.00     0.074 A 
ATOM     40  C   UNL A   1      40.373  28.111  27.736  1.00  0.00     0.031 C 
ATOM     41  C   UNL A   1      38.240  32.056  32.976  1.00  0.00     0.029 A 
ATOM     42  C   UNL A   1      39.443  31.269  33.232  1.00  0.00     0.049 A 
ATOM     43  H   UNL A   1      40.471  30.054  31.888  1.00  0.00     0.167 HD
ATOM     44  C   UNL A   1      42.288  27.230  29.047  1.00  0.00     0.037 A 
ATOM     45  C   UNL A   1      40.101  31.205  34.405  1.00  0.00     0.037 A 
ATOM     46  C   UNL A   1      43.085  27.136  30.242  1.00  0.00     0.049 A 
ATOM     47  C   UNL A   1      41.294  30.298  34.525  1.00  0.00     0.074 A 
ATOM     48  C   UNL A   1      44.232  26.393  30.462  1.00  0.00     0.029 A 
ATOM     49  N   UNL A   1      42.815  27.814  31.423  1.00  0.00    -0.354 N 
ATOM     50  N   UNL A   1      41.834  29.522  33.618  1.00  0.00    -0.248 NA
ATOM     51  C   UNL A   1      41.958  30.247  35.833  1.00  0.00     0.031 C 
ATOM     52  C   UNL A   1      44.636  26.594  31.785  1.00  0.00     0.029 A 
ATOM     53  C   UNL A   1      43.764  27.494  32.379  1.00  0.00     0.049 A 
ATOM     54  H   UNL A   1      42.060  28.430  31.561  1.00  0.00     0.167 HD
ATOM     55  C   UNL A   1      42.914  28.908  34.234  1.00  0.00     0.074 A 
ATOM     56  C   UNL A   1      42.956  29.405  35.595  1.00  0.00     0.031 C 
ATOM     57  C   UNL A   1      43.794  28.015  33.720  1.00  0.00     0.037 A 
BRANCH  44  58
ATOM     58  C   UNL A   1      42.687  26.405  27.862  1.00  0.00     0.064 A 
ATOM     59  C   UNL A   1      42.145  25.132  27.632  1.00  0.00     0.173 A 
ATOM     60  C   UNL A   1      43.596  26.914  26.921  1.00  0.00     0.173 A 
ATOM     61  F   UNL A   1      41.284  24.597  28.510  1.00  0.00    -0.203 F 
ATOM     62  C   UNL A   1      42.512  24.392  26.510  1.00  0.00     0.198 A 
ATOM     63  C   UNL A   1      43.942  26.180  25.791  1.00  0.00     0.198 A 
ATOM     64  F   UNL A   1      44.140  28.127  27.096  1.00  0.00    -0.203 F 
ATOM     65  F   UNL A   1      42.009  23.164  26.327  1.00  0.00    -0.200 F 
ATOM     66  C   UNL A   1      43.404  24.919  25.588  1.00  0.00     0.200 A 
ATOM     67  F   UNL A   1      44.798  26.695  24.896  1.00  0.00    -0.200 F 
ATOM     68  F   UNL A   1      43.751  24.207  24.507  1.00  0.00    -0.200 F 
ENDBRANCH  44  58
BRANCH  45  69
ATOM     69  C   UNL A   1      39.615  31.996  35.562  1.00  0.00     0.064 A 
ATOM     70  C   UNL A   1      40.114  33.280  35.818  1.00  0.00     0.173 A 
ATOM     71  C   UNL A   1      38.628  31.493  36.423  1.00  0.00     0.173 A 
ATOM     72  F   UNL A   1      41.074  33.793  35.034  1.00  0.00    -0.203 F 
ATOM     73  C   UNL A   1      39.648  34.029  36.896  1.00  0.00     0.198 A 
ATOM     74  C   UNL A   1      38.145  32.253  37.485  1.00  0.00     0.198 A 
ATOM     75  F   UNL A   1      38.119  30.269  36.220  1.00  0.00    -0.203 F 
ATOM     76  F   UNL A   1      40.163  35.242  37.138  1.00  0.00    -0.200 F 
ATOM     77  C   UNL A   1      38.659  33.518  37.725  1.00  0.00     0.200 A 
ATOM     78  F   UNL A   1      37.181  31.761  38.276  1.00  0.00    -0.200 F 
ATOM     79  F   UNL A   1      38.205  34.244  38.756  1.00  0.00    -0.200 F 
ENDBRANCH  45  69
BRANCH  57  80
ATOM     80  C   UNL A   1      44.902  27.552  34.615  1.00  0.00     0.064 A 
ATOM     81  C   UNL A   1      46.104  28.266  34.720  1.00  0.00     0.173 A 
ATOM     82  C   UNL A   1      44.730  26.420  35.424  1.00  0.00     0.173 A 
ATOM     83  F   UNL A   1      46.317  29.346  33.955  1.00  0.00    -0.203 F 
ATOM     84  C   UNL A   1      47.101  27.854  35.600  1.00  0.00     0.198 A 
ATOM     85  C   UNL A   1      45.721  26.022  36.316  1.00  0.00     0.198 A 
ATOM     86  F   UNL A   1      43.595  25.709  35.359  1.00  0.00    -0.203 F 
ATOM     87  F   UNL A   1      48.254  28.533  35.669  1.00  0.00    -0.200 F 
ATOM     88  C   UNL A   1      46.905  26.739  36.403  1.00  0.00     0.200 A 
ATOM     89  F   UNL A   1      45.527  24.950  37.097  1.00  0.00    -0.200 F 
ATOM     90  F   UNL A   1      47.862  26.351  37.257  1.00  0.00    -0.200 F 
ENDBRANCH  57  80
ENDBRANCH  31  32
ENDBRANCH  24  26
ENDBRANCH  23  24
ENDBRANCH  22  23
ENDBRANCH   1  22
TORSDOF 15
ENDMDL
MODEL 2
REMARK VINA RESULT:     -11.2      0.840      2.065
REMARK SMILES C[C@H]1[C@H](C(=O)OCCOC(=O)c2ccc(-c3c4nc(c(-c5c(F)c(F)c(F)c(F)c5F)c5ccc([nH]5)c(-c5c(F)c(F)c(F)c(F)c5F)c5nc(c(-c6c(F)c(F)c(F)c(F)c6F)c6ccc3[nH]6)C=C5)C=C4)cc2)CCN1C(=O)[C@](C)([NH3+])C1CC1
REMARK SMILES IDX 7 1 6 2 4 3 5 4 3 5 1 6 2 7 77 8 75 9 76 10 78 11 79 12
REMARK SMILES IDX 80 13 81 14 82 15 83 19 84 20 85 21 8 22 9 23 10 24 11 25
REMARK SMILES IDX 12 26 13 27 74 28 14 29 73 30 15 31 16 32 17 33 67 34 18 35
REMARK SMILES IDX 72 36 66 37 68 38 19 39 71 40 65 41 64 42 20 44 52 45 32 46
REMARK SMILES IDX 51 47 33 48 36 49 50 50 69 51 34 52 35 53 49 55 70 56 37 57
REMARK SMILES IDX 21 58 22 59 30 60 23 61 24 62 28 63 31 64 25 65 26 66 29 67
REMARK SMILES IDX 27 68 53 69 54 70 62 71 55 72 56 73 60 74 63 75 57 76 58 77
REMARK SMILES IDX 61 78 59 79 38 80 39 81 47 82 40 83 41 84 45 85 48 86 42 87
REMARK SMILES IDX 43 88 46 89 44 90
REMARK H PARENT 82 16 82 17 82 18 68 43 36 54
REMARK Flexibility Score: inf
ROOT
ATOM      1  C   UNL A   1      31.837  29.326  24.756  1.00  0.00     0.274 C 
ENDROOT
BRANCH   1   2
ATOM      2  O   UNL A   1      32.398  28.120  25.315  1.00  0.00    -0.462 OA
BRANCH   2   3
ATOM      3  C   UNL A   1      31.508  27.167  25.686  1.00  0.00     0.311 C 
ATOM      4  O   UNL A   1      31.028  27.060  26.809  1.00  0.00    -0.252 OA
BRANCH   3   5
ATOM      5  C   UNL A   1      31.189  26.176  24.589  1.00  0.00     0.123 C 
ATOM      6  C   UNL A   1      31.879  26.417  22.176  1.00  0.00     0.032 C 
ATOM      7  C   UNL A   1      32.314  25.916  23.556  1.00  0.00     0.096 C 
ATOM      8  N   UNL A   1      32.471  24.459  23.539  1.00  0.00    -0.334 N 
ATOM      9  C   UNL A   1      30.853  24.814  25.191  1.00  0.00     0.039 C 
ATOM     10  C   UNL A   1      31.298  23.835  24.128  1.00  0.00     0.121 C 
BRANCH   8  11
ATOM     11  C   UNL A   1      33.517  23.670  23.121  1.00  0.00     0.284 C 
ATOM     12  O   UNL A   1      33.652  23.466  21.900  1.00  0.00    -0.268 OA
BRANCH  11  13
ATOM     13  C   UNL A   1      34.613  23.041  24.069  1.00  0.00     0.174 C 
ATOM     14  C   UNL A   1      34.911  24.072  25.167  1.00  0.00     0.090 C 
BRANCH  13  15
ATOM     15  N   UNL A   1      35.857  22.950  23.236  1.00  0.00    -0.345 N 
ATOM     16  H   UNL A   1      35.824  22.104  22.667  1.00  0.00     0.345 HD
ATOM     17  H   UNL A   1      36.673  22.918  23.846  1.00  0.00     0.345 HD
ATOM     18  H   UNL A   1      35.918  23.767  22.628  1.00  0.00     0.345 HD
ENDBRANCH  13  15
BRANCH  13  19
ATOM     19  C   UNL A   1      34.456  21.613  24.562  1.00  0.00     0.060 C 
ATOM     20  C   UNL A   1      33.435  21.281  25.644  1.00  0.00     0.011 C 
ATOM     21  C   UNL A   1      33.282  20.694  24.279  1.00  0.00     0.011 C 
ENDBRANCH  13  19
ENDBRANCH  11  13
ENDBRANCH   8  11
ENDBRANCH   3   5
ENDBRANCH   2   3
ENDBRANCH   1   2
BRANCH   1  22
ATOM     22  C   UNL A   1      31.739  30.457  25.786  1.00  0.00     0.275 C 
BRANCH  22  23
ATOM     23  O   UNL A   1      32.670  30.293  26.873  1.00  0.00    -0.458 OA
BRANCH  23  24
ATOM     24  C   UNL A   1      33.295  31.430  27.251  1.00  0.00     0.338 C 
ATOM     25  O   UNL A   1      32.841  32.560  27.248  1.00  0.00    -0.246 OA
BRANCH  24  26
ATOM     26  C   UNL A   1      34.616  31.130  27.812  1.00  0.00     0.060 A 
ATOM     27  C   UNL A   1      34.856  29.830  28.267  1.00  0.00     0.016 A 
ATOM     28  C   UNL A   1      35.554  32.141  28.013  1.00  0.00     0.016 A 
ATOM     29  C   UNL A   1      36.027  29.535  28.953  1.00  0.00     0.010 A 
ATOM     30  C   UNL A   1      36.740  31.840  28.685  1.00  0.00     0.010 A 
ATOM     31  C   UNL A   1      36.975  30.540  29.170  1.00  0.00    -0.014 A 
BRANCH  31  32
ATOM     32  C   UNL A   1      38.217  30.243  29.915  1.00  0.00     0.031 A 
ATOM     33  C   UNL A   1      39.234  29.312  29.329  1.00  0.00     0.074 A 
ATOM     34  C   UNL A   1      38.411  30.798  31.124  1.00  0.00     0.049 A 
ATOM     35  N   UNL A   1      40.283  28.775  29.892  1.00  0.00    -0.248 NA
ATOM     36  C   UNL A   1      39.041  28.934  27.920  1.00  0.00     0.031 C 
ATOM     37  C   UNL A   1      37.519  31.768  31.760  1.00  0.00     0.029 A 
ATOM     38  N   UNL A   1      39.412  30.608  32.042  1.00  0.00    -0.354 N 
ATOM     39  C   UNL A   1      40.861  27.969  28.920  1.00  0.00     0.074 A 
ATOM     40  C   UNL A   1      40.046  28.090  27.729  1.00  0.00     0.031 C 
ATOM     41  C   UNL A   1      38.003  32.074  32.973  1.00  0.00     0.029 A 
ATOM     42  C   UNL A   1      39.201  31.277  33.221  1.00  0.00     0.049 A 
ATOM     43  H   UNL A   1      40.204  30.048  31.871  1.00  0.00     0.167 HD
ATOM     44  C   UNL A   1      41.966  27.196  29.024  1.00  0.00     0.037 A 
ATOM     45  C   UNL A   1      39.870  31.212  34.387  1.00  0.00     0.037 A 
ATOM     46  C   UNL A   1      42.774  27.099  30.211  1.00  0.00     0.049 A 
ATOM     47  C   UNL A   1      41.055  30.294  34.499  1.00  0.00     0.074 A 
ATOM     48  C   UNL A   1      43.916  26.347  30.422  1.00  0.00     0.029 A 
ATOM     49  N   UNL A   1      42.522  27.784  31.392  1.00  0.00    -0.354 N 
ATOM     50  N   UNL A   1      41.579  29.510  33.589  1.00  0.00    -0.248 NA
ATOM     51  C   UNL A   1      41.732  30.242  35.801  1.00  0.00     0.031 C 
ATOM     52  C   UNL A   1      44.335  26.549  31.740  1.00  0.00     0.029 A 
ATOM     53  C   UNL A   1      43.478  27.459  32.339  1.00  0.00     0.049 A 
ATOM     54  H   UNL A   1      41.774  28.408  31.535  1.00  0.00     0.167 HD
ATOM     55  C   UNL A   1      42.660  28.888  34.198  1.00  0.00     0.074 A 
ATOM     56  C   UNL A   1      42.720  29.390  35.556  1.00  0.00     0.031 C 
ATOM     57  C   UNL A   1      43.526  27.985  33.678  1.00  0.00     0.037 A 
BRANCH  44  58
ATOM     58  C   UNL A   1      42.346  26.363  27.838  1.00  0.00     0.064 A 
ATOM     59  C   UNL A   1      43.329  26.779  26.928  1.00  0.00     0.173 A 
ATOM     60  C   UNL A   1      41.746  25.111  27.633  1.00  0.00     0.173 A 
ATOM     61  F   UNL A   1      43.920  27.974  27.073  1.00  0.00    -0.203 F 
ATOM     62  C   UNL A   1      43.684  25.977  25.845  1.00  0.00     0.198 A 
ATOM     63  C   UNL A   1      42.120  24.304  26.563  1.00  0.00     0.198 A 
ATOM     64  F   UNL A   1      40.802  24.669  28.477  1.00  0.00    -0.203 F 
ATOM     65  F   UNL A   1      44.600  26.408  24.968  1.00  0.00    -0.200 F 
ATOM     66  C   UNL A   1      43.085  24.739  25.668  1.00  0.00     0.200 A 
ATOM     67  F   UNL A   1      41.546  23.104  26.398  1.00  0.00    -0.200 F 
ATOM     68  F   UNL A   1      43.433  23.967  24.629  1.00  0.00    -0.200 F 
ENDBRANCH  44  58
BRANCH  45  69
ATOM     69  C   UNL A   1      39.403  32.012  35.546  1.00  0.00     0.064 A 
ATOM     70  C   UNL A   1      38.499  31.479  36.473  1.00  0.00     0.173 A 
ATOM     71  C   UNL A   1      39.867  33.319  35.761  1.00  0.00     0.173 A 
ATOM     72  F   UNL A   1      38.011  30.242  36.296  1.00  0.00    -0.203 F 
ATOM     73  C   UNL A   1      38.071  32.224  37.569  1.00  0.00     0.198 A 
ATOM     74  C   UNL A   1      39.459  34.054  36.871  1.00  0.00     0.198 A 
ATOM     75  F   UNL A   1      40.734  33.874  34.902  1.00  0.00    -0.203 F 
ATOM     76  F   UNL A   1      37.182  31.703  38.425  1.00  0.00    -0.200 F 
ATOM     77  C   UNL A   1      38.557  33.508  37.772  1.00  0.00     0.200 A 
ATOM     78  F   UNL A   1      39.939  35.289  37.070  1.00  0.00    -0.200 F 
ATOM     79  F   UNL A   1      38.152  34.220  38.832  1.00  0.00    -0.200 F 
ENDBRANCH  45  69
BRANCH  57  80
ATOM     80  C   UNL A   1      44.639  27.515  34.563  1.00  0.00     0.064 A 
ATOM     81  C   UNL A   1      45.846  28.221  34.658  1.00  0.00     0.173 A 
ATOM     82  C   UNL A   1      44.467  26.385  35.374  1.00  0.00     0.173 A 
ATOM     83  F   UNL A   1      46.060  29.300  33.891  1.00  0.00    -0.203 F 
ATOM     84  C   UNL A   1      46.848  27.804  35.530  1.00  0.00     0.198 A 
ATOM     85  C   UNL A   1      45.462  25.981  36.258  1.00  0.00     0.198 A 
ATOM     86  F   UNL A   1      43.326  25.681  35.320  1.00  0.00    -0.203 F 
ATOM     87  F   UNL A   1      48.006  28.475  35.588  1.00  0.00    -0.200 F 
ATOM     88  C   UNL A   1      46.652  26.690  36.335  1.00  0.00     0.200 A 
ATOM     89  F   UNL A   1      45.268  24.911  37.042  1.00  0.00    -0.200 F 
ATOM     90  F   UNL A   1      47.614  26.296  37.181  1.00  0.00    -0.200 F 
ENDBRANCH  57  80
ENDBRANCH  31  32
ENDBRANCH  24  26
ENDBRANCH  23  24
ENDBRANCH  22  23
ENDBRANCH   1  22
TORSDOF 15
ENDMDL
MODEL 3
REMARK VINA RESULT:     -11.2      1.141      2.019
REMARK SMILES C[C@H]1[C@H](C(=O)OCCOC(=O)c2ccc(-c3c4nc(c(-c5c(F)c(F)c(F)c(F)c5F)c5ccc([nH]5)c(-c5c(F)c(F)c(F)c(F)c5F)c5nc(c(-c6c(F)c(F)c(F)c(F)c6F)c6ccc3[nH]6)C=C5)C=C4)cc2)CCN1C(=O)[C@](C)([NH3+])C1CC1
REMARK SMILES IDX 7 1 6 2 4 3 5 4 3 5 1 6 2 7 77 8 75 9 76 10 78 11 79 12
REMARK SMILES IDX 80 13 81 14 82 15 83 19 84 20 85 21 8 22 9 23 10 24 11 25
REMARK SMILES IDX 12 26 13 27 74 28 14 29 73 30 15 31 16 32 17 33 67 34 18 35
REMARK SMILES IDX 72 36 66 37 68 38 19 39 71 40 65 41 64 42 20 44 52 45 32 46
REMARK SMILES IDX 51 47 33 48 36 49 50 50 69 51 34 52 35 53 49 55 70 56 37 57
REMARK SMILES IDX 21 58 22 59 30 60 23 61 24 62 28 63 31 64 25 65 26 66 29 67
REMARK SMILES IDX 27 68 53 69 54 70 62 71 55 72 56 73 60 74 63 75 57 76 58 77
REMARK SMILES IDX 61 78 59 79 38 80 39 81 47 82 40 83 41 84 45 85 48 86 42 87
REMARK SMILES IDX 43 88 46 89 44 90
REMARK H PARENT 82 16 82 17 82 18 68 43 36 54
REMARK Flexibility Score: inf
ROOT
ATOM      1  C   UNL A   1      31.057  29.800  24.619  1.00  0.00     0.274 C 
ENDROOT
BRANCH   1   2
ATOM      2  O   UNL A   1      30.362  28.639  24.119  1.00  0.00    -0.462 OA
BRANCH   2   3
ATOM      3  C   UNL A   1      30.545  28.357  22.805  1.00  0.00     0.311 C 
ATOM      4  O   UNL A   1      30.533  29.189  21.905  1.00  0.00    -0.252 OA
BRANCH   3   5
ATOM      5  C   UNL A   1      30.709  26.881  22.519  1.00  0.00     0.123 C 
ATOM      6  C   UNL A   1      32.396  25.895  20.926  1.00  0.00     0.032 C 
ATOM      7  C   UNL A   1      32.164  26.374  22.362  1.00  0.00     0.096 C 
ATOM      8  N   UNL A   1      32.266  25.247  23.294  1.00  0.00    -0.334 N 
ATOM      9  C   UNL A   1      30.099  26.054  23.648  1.00  0.00     0.039 C 
ATOM     10  C   UNL A   1      30.935  24.794  23.658  1.00  0.00     0.121 C 
BRANCH   8  11
ATOM     11  C   UNL A   1      33.364  24.645  23.863  1.00  0.00     0.284 C 
ATOM     12  O   UNL A   1      34.116  23.975  23.131  1.00  0.00    -0.268 OA
BRANCH  11  13
ATOM     13  C   UNL A   1      33.790  24.783  25.377  1.00  0.00     0.174 C 
ATOM     14  C   UNL A   1      33.572  26.249  25.780  1.00  0.00     0.090 C 
BRANCH  13  15
ATOM     15  N   UNL A   1      35.274  24.564  25.396  1.00  0.00    -0.345 N 
ATOM     16  H   UNL A   1      35.478  23.650  25.802  1.00  0.00     0.345 HD
ATOM     17  H   UNL A   1      35.718  25.291  25.956  1.00  0.00     0.345 HD
ATOM     18  H   UNL A   1      35.634  24.601  24.442  1.00  0.00     0.345 HD
ENDBRANCH  13  15
BRANCH  13  19
ATOM     19  C   UNL A   1      33.306  23.765  26.394  1.00  0.00     0.060 C 
ATOM     20  C   UNL A   1      31.851  23.762  26.846  1.00  0.00     0.011 C 
ATOM     21  C   UNL A   1      32.399  22.582  26.112  1.00  0.00     0.011 C 
ENDBRANCH  13  19
ENDBRANCH  11  13
ENDBRANCH   8  11
ENDBRANCH   3   5
ENDBRANCH   2   3
ENDBRANCH   1   2
BRANCH   1  22
ATOM     22  C   UNL A   1      31.860  29.498  25.890  1.00  0.00     0.275 C 
BRANCH  22  23
ATOM     23  O   UNL A   1      33.174  30.087  25.863  1.00  0.00    -0.458 OA
BRANCH  23  24
ATOM     24  C   UNL A   1      33.410  30.974  26.856  1.00  0.00     0.338 C 
ATOM     25  O   UNL A   1      32.639  31.802  27.307  1.00  0.00    -0.246 OA
BRANCH  24  26
ATOM     26  C   UNL A   1      34.729  30.742  27.452  1.00  0.00     0.060 A 
ATOM     27  C   UNL A   1      35.040  29.445  27.872  1.00  0.00     0.016 A 
ATOM     28  C   UNL A   1      35.591  31.803  27.717  1.00  0.00     0.016 A 
ATOM     29  C   UNL A   1      36.205  29.203  28.588  1.00  0.00     0.010 A 
ATOM     30  C   UNL A   1      36.773  31.557  28.418  1.00  0.00     0.010 A 
ATOM     31  C   UNL A   1      37.078  30.259  28.869  1.00  0.00    -0.014 A 
BRANCH  31  32
ATOM     32  C   UNL A   1      38.312  30.018  29.647  1.00  0.00     0.031 A 
ATOM     33  C   UNL A   1      39.369  29.107  29.103  1.00  0.00     0.074 A 
ATOM     34  C   UNL A   1      38.463  30.606  30.846  1.00  0.00     0.049 A 
ATOM     35  N   UNL A   1      40.423  28.616  29.699  1.00  0.00    -0.248 NA
ATOM     36  C   UNL A   1      39.219  28.692  27.699  1.00  0.00     0.031 C 
ATOM     37  C   UNL A   1      37.528  31.561  31.442  1.00  0.00     0.029 A 
ATOM     38  N   UNL A   1      39.449  30.467  31.788  1.00  0.00    -0.354 N 
ATOM     39  C   UNL A   1      41.046  27.808  28.758  1.00  0.00     0.074 A 
ATOM     40  C   UNL A   1      40.253  27.876  27.548  1.00  0.00     0.031 C 
ATOM     41  C   UNL A   1      37.976  31.909  32.657  1.00  0.00     0.029 A 
ATOM     42  C   UNL A   1      39.193  31.156  32.947  1.00  0.00     0.049 A 
ATOM     43  H   UNL A   1      40.261  29.929  31.647  1.00  0.00     0.167 HD
ATOM     44  C   UNL A   1      42.172  27.072  28.902  1.00  0.00     0.037 A 
ATOM     45  C   UNL A   1      39.838  31.138  34.129  1.00  0.00     0.037 A 
ATOM     46  C   UNL A   1      42.957  27.027  30.107  1.00  0.00     0.049 A 
ATOM     47  C   UNL A   1      41.049  30.260  34.285  1.00  0.00     0.074 A 
ATOM     48  C   UNL A   1      44.117  26.316  30.359  1.00  0.00     0.029 A 
ATOM     49  N   UNL A   1      42.659  27.730  31.267  1.00  0.00    -0.354 N 
ATOM     50  N   UNL A   1      41.616  29.472  33.405  1.00  0.00    -0.248 NA
ATOM     51  C   UNL A   1      41.699  30.258  35.602  1.00  0.00     0.031 C 
ATOM     52  C   UNL A   1      44.502  26.560  31.680  1.00  0.00     0.029 A 
ATOM     53  C   UNL A   1      43.604  27.456  32.241  1.00  0.00     0.049 A 
ATOM     54  H   UNL A   1      41.889  28.333  31.380  1.00  0.00     0.167 HD
ATOM     55  C   UNL A   1      42.702  28.899  34.049  1.00  0.00     0.074 A 
ATOM     56  C   UNL A   1      42.718  29.433  35.397  1.00  0.00     0.031 C 
ATOM     57  C   UNL A   1      43.607  28.012  33.569  1.00  0.00     0.037 A 
BRANCH  44  58
ATOM     58  C   UNL A   1      42.603  26.225  27.743  1.00  0.00     0.064 A 
ATOM     59  C   UNL A   1      42.040  24.964  27.501  1.00  0.00     0.173 A 
ATOM     60  C   UNL A   1      43.564  26.702  26.839  1.00  0.00     0.173 A 
ATOM     61  F   UNL A   1      41.128  24.458  28.345  1.00  0.00    -0.203 F 
ATOM     62  C   UNL A   1      42.437  24.203  26.404  1.00  0.00     0.198 A 
ATOM     63  C   UNL A   1      43.941  25.949  25.732  1.00  0.00     0.198 A 
ATOM     64  F   UNL A   1      44.130  27.904  27.027  1.00  0.00    -0.203 F 
ATOM     65  F   UNL A   1      41.913  22.986  26.210  1.00  0.00    -0.200 F 
ATOM     66  C   UNL A   1      43.382  24.698  25.517  1.00  0.00     0.200 A 
ATOM     67  F   UNL A   1      44.849  26.432  24.871  1.00  0.00    -0.200 F 
ATOM     68  F   UNL A   1      43.758  23.967  24.459  1.00  0.00    -0.200 F 
ENDBRANCH  44  58
BRANCH  45  69
ATOM     69  C   UNL A   1      39.322  31.948  35.259  1.00  0.00     0.064 A 
ATOM     70  C   UNL A   1      39.619  33.313  35.362  1.00  0.00     0.173 A 
ATOM     71  C   UNL A   1      38.506  31.378  36.248  1.00  0.00     0.173 A 
ATOM     72  F   UNL A   1      40.413  33.895  34.452  1.00  0.00    -0.203 F 
ATOM     73  C   UNL A   1      39.123  34.078  36.415  1.00  0.00     0.198 A 
ATOM     74  C   UNL A   1      37.990  32.149  37.286  1.00  0.00     0.198 A 
ATOM     75  F   UNL A   1      38.193  30.075  36.193  1.00  0.00    -0.203 F 
ATOM     76  F   UNL A   1      39.447  35.374  36.509  1.00  0.00    -0.200 F 
ATOM     77  C   UNL A   1      38.303  33.497  37.373  1.00  0.00     0.200 A 
ATOM     78  F   UNL A   1      37.189  31.588  38.202  1.00  0.00    -0.200 F 
ATOM     79  F   UNL A   1      37.820  34.236  38.380  1.00  0.00    -0.200 F 
ENDBRANCH  45  69
BRANCH  57  80
ATOM     80  C   UNL A   1      44.715  27.598  34.487  1.00  0.00     0.064 A 
ATOM     81  C   UNL A   1      44.605  26.461  35.300  1.00  0.00     0.173 A 
ATOM     82  C   UNL A   1      45.924  28.308  34.500  1.00  0.00     0.173 A 
ATOM     83  F   UNL A   1      43.462  25.760  35.330  1.00  0.00    -0.203 F 
ATOM     84  C   UNL A   1      45.667  26.056  36.104  1.00  0.00     0.198 A 
ATOM     85  C   UNL A   1      46.990  27.890  35.290  1.00  0.00     0.198 A 
ATOM     86  F   UNL A   1      46.075  29.399  33.735  1.00  0.00    -0.203 F 
ATOM     87  F   UNL A   1      45.535  24.983  36.895  1.00  0.00    -0.200 F 
ATOM     88  C   UNL A   1      46.860  26.765  36.092  1.00  0.00     0.200 A 
ATOM     89  F   UNL A   1      48.145  28.570  35.271  1.00  0.00    -0.200 F 
ATOM     90  F   UNL A   1      47.885  26.367  36.858  1.00  0.00    -0.200 F 
ENDBRANCH  57  80
ENDBRANCH  31  32
ENDBRANCH  24  26
ENDBRANCH  23  24
ENDBRANCH  22  23
ENDBRANCH   1  22
TORSDOF 15
ENDMDL
