MODEL 1
REMARK VINA RESULT:     -12.3      0.000      0.000
REMARK SMILES C[C@@H](C(=O)OCCOC(=O)c1ccc(-c2c3nc(c(-c4c(F)c(F)c(F)c(F)c4F)c4ccc([nH]4)c(-c4c(F)c(F)c(F)c(F)c4F)c4nc(c(-c5c(F)c(F)c(F)c(F)c5F)c5ccc2[nH]5)C=C4)C=C3)cc1)c1ccccc1-c1ccn(C(F)F)c(=O)c1
REMARK SMILES IDX 6 1 5 2 3 3 4 4 2 5 1 6 74 7 75 8 79 9 76 10 78 11 77 12
REMARK SMILES IDX 80 13 81 14 89 15 82 16 87 17 83 18 88 19 84 20 85 21 86 22
REMARK SMILES IDX 7 23 8 24 9 25 10 26 11 27 12 28 73 29 13 30 72 31 14 32
REMARK SMILES IDX 15 33 16 34 66 35 17 36 71 37 65 38 67 39 18 40 70 41 64 42
REMARK SMILES IDX 63 43 19 45 51 46 31 47 50 48 32 49 35 50 49 51 68 52 33 53
REMARK SMILES IDX 34 54 48 56 69 57 36 58 20 59 21 60 29 61 22 62 23 63 27 64
REMARK SMILES IDX 30 65 24 66 25 67 28 68 26 69 52 70 53 71 61 72 54 73 55 74
REMARK SMILES IDX 59 75 62 76 56 77 57 78 60 79 58 80 37 81 38 82 46 83 39 84
REMARK SMILES IDX 40 85 44 86 47 87 41 88 42 89 45 90 43 91
REMARK H PARENT 67 44 35 55
REMARK Flexibility Score: inf
ROOT
ATOM      1  C   UNL A   1      31.689  31.514  26.729  1.00  0.00     0.274 C 
ENDROOT
BRANCH   1   2
ATOM      2  O   UNL A   1      32.776  30.660  27.160  1.00  0.00    -0.462 OA
BRANCH   2   3
ATOM      3  C   UNL A   1      32.503  29.327  27.067  1.00  0.00     0.313 C 
ATOM      4  O   UNL A   1      31.420  28.883  27.379  1.00  0.00    -0.252 OA
BRANCH   3   5
ATOM      5  C   UNL A   1      33.691  28.475  26.595  1.00  0.00     0.127 C 
ATOM      6  C   UNL A   1      34.988  29.200  27.007  1.00  0.00     0.025 C 
BRANCH   5   7
ATOM      7  C   UNL A   1      33.614  28.115  25.082  1.00  0.00    -0.026 A 
ATOM      8  C   UNL A   1      33.569  29.153  24.119  1.00  0.00     0.005 A 
ATOM      9  C   UNL A   1      33.558  26.775  24.592  1.00  0.00    -0.014 A 
ATOM     10  C   UNL A   1      33.459  28.894  22.749  1.00  0.00     0.000 A 
ATOM     11  C   UNL A   1      33.435  26.538  23.206  1.00  0.00     0.009 A 
ATOM     12  C   UNL A   1      33.390  27.587  22.292  1.00  0.00     0.001 A 
BRANCH   9  13
ATOM     13  C   UNL A   1      33.600  25.557  25.438  1.00  0.00    -0.011 A 
ATOM     14  C   UNL A   1      34.813  24.800  25.688  1.00  0.00     0.027 A 
ATOM     15  C   UNL A   1      32.471  25.160  26.047  1.00  0.00     0.080 A 
ATOM     16  C   UNL A   1      34.747  23.563  26.185  1.00  0.00     0.095 A 
ATOM     17  C   UNL A   1      32.435  23.874  26.803  1.00  0.00     0.255 A 
ATOM     18  N   UNL A   1      33.550  23.063  26.655  1.00  0.00    -0.258 N 
ATOM     19  O   UNL A   1      31.427  23.596  27.446  1.00  0.00    -0.269 OA
BRANCH  18  20
ATOM     20  C   UNL A   1      33.476  21.713  27.147  1.00  0.00     0.451 C 
ATOM     21  F   UNL A   1      32.828  20.910  26.272  1.00  0.00    -0.185 F 
ATOM     22  F   UNL A   1      34.709  21.192  27.367  1.00  0.00    -0.185 F 
ENDBRANCH  18  20
ENDBRANCH   9  13
ENDBRANCH   5   7
ENDBRANCH   3   5
ENDBRANCH   2   3
ENDBRANCH   1   2
BRANCH   1  23
ATOM     23  C   UNL A   1      31.967  33.027  26.856  1.00  0.00     0.275 C 
BRANCH  23  24
ATOM     24  O   UNL A   1      32.241  33.450  28.216  1.00  0.00    -0.458 OA
BRANCH  24  25
ATOM     25  C   UNL A   1      33.281  34.308  28.377  1.00  0.00     0.338 C 
ATOM     26  O   UNL A   1      33.218  35.527  28.420  1.00  0.00    -0.246 OA
BRANCH  25  27
ATOM     27  C   UNL A   1      34.531  33.583  28.707  1.00  0.00     0.060 A 
ATOM     28  C   UNL A   1      34.387  32.352  29.342  1.00  0.00     0.016 A 
ATOM     29  C   UNL A   1      35.810  34.115  28.542  1.00  0.00     0.016 A 
ATOM     30  C   UNL A   1      35.489  31.616  29.760  1.00  0.00     0.010 A 
ATOM     31  C   UNL A   1      36.931  33.389  29.005  1.00  0.00     0.010 A 
ATOM     32  C   UNL A   1      36.776  32.129  29.615  1.00  0.00    -0.014 A 
BRANCH  32  33
ATOM     33  C   UNL A   1      37.888  31.387  30.271  1.00  0.00     0.031 A 
ATOM     34  C   UNL A   1      38.120  31.574  31.744  1.00  0.00     0.074 A 
ATOM     35  C   UNL A   1      38.569  30.418  29.627  1.00  0.00     0.049 A 
ATOM     36  N   UNL A   1      39.064  31.089  32.510  1.00  0.00    -0.248 NA
ATOM     37  C   UNL A   1      37.129  32.395  32.457  1.00  0.00     0.031 C 
ATOM     38  C   UNL A   1      38.324  29.981  28.253  1.00  0.00     0.029 A 
ATOM     39  N   UNL A   1      39.593  29.604  30.057  1.00  0.00    -0.354 N 
ATOM     40  C   UNL A   1      38.806  31.579  33.783  1.00  0.00     0.074 A 
ATOM     41  C   UNL A   1      37.605  32.382  33.693  1.00  0.00     0.031 C 
ATOM     42  C   UNL A   1      39.171  28.979  27.955  1.00  0.00     0.029 A 
ATOM     43  C   UNL A   1      40.064  28.750  29.090  1.00  0.00     0.049 A 
ATOM     44  H   UNL A   1      39.952  29.632  30.973  1.00  0.00     0.167 HD
ATOM     45  C   UNL A   1      39.515  31.387  34.922  1.00  0.00     0.037 A 
ATOM     46  C   UNL A   1      41.123  27.914  29.103  1.00  0.00     0.037 A 
ATOM     47  C   UNL A   1      40.692  30.565  35.023  1.00  0.00     0.049 A 
ATOM     48  C   UNL A   1      41.985  27.829  30.340  1.00  0.00     0.074 A 
ATOM     49  C   UNL A   1      41.507  30.354  36.121  1.00  0.00     0.029 A 
ATOM     50  N   UNL A   1      41.220  29.812  33.984  1.00  0.00    -0.354 N 
ATOM     51  N   UNL A   1      41.808  28.381  31.515  1.00  0.00    -0.248 NA
ATOM     52  C   UNL A   1      43.211  27.020  30.243  1.00  0.00     0.031 C 
ATOM     53  C   UNL A   1      42.556  29.515  35.734  1.00  0.00     0.029 A 
ATOM     54  C   UNL A   1      42.364  29.156  34.410  1.00  0.00     0.049 A 
ATOM     55  H   UNL A   1      40.837  29.752  33.079  1.00  0.00     0.167 HD
ATOM     56  C   UNL A   1      42.880  27.970  32.299  1.00  0.00     0.074 A 
ATOM     57  C   UNL A   1      43.695  27.107  31.473  1.00  0.00     0.031 C 
ATOM     58  C   UNL A   1      43.164  28.286  33.587  1.00  0.00     0.037 A 
BRANCH  45  59
ATOM     59  C   UNL A   1      39.083  32.155  36.136  1.00  0.00     0.064 A 
ATOM     60  C   UNL A   1      39.526  33.459  36.397  1.00  0.00     0.173 A 
ATOM     61  C   UNL A   1      38.195  31.566  37.050  1.00  0.00     0.173 A 
ATOM     62  F   UNL A   1      40.391  34.058  35.565  1.00  0.00    -0.203 F 
ATOM     63  C   UNL A   1      39.114  34.136  37.543  1.00  0.00     0.198 A 
ATOM     64  C   UNL A   1      37.763  32.256  38.178  1.00  0.00     0.198 A 
ATOM     65  F   UNL A   1      37.741  30.320  36.844  1.00  0.00    -0.203 F 
ATOM     66  F   UNL A   1      39.588  35.363  37.802  1.00  0.00    -0.200 F 
ATOM     67  C   UNL A   1      38.229  33.537  38.429  1.00  0.00     0.200 A 
ATOM     68  F   UNL A   1      36.900  31.678  39.025  1.00  0.00    -0.200 F 
ATOM     69  F   UNL A   1      37.833  34.191  39.529  1.00  0.00    -0.200 F 
ENDBRANCH  45  59
BRANCH  46  70
ATOM     70  C   UNL A   1      41.492  27.142  27.882  1.00  0.00     0.064 A 
ATOM     71  C   UNL A   1      41.058  25.822  27.694  1.00  0.00     0.173 A 
ATOM     72  C   UNL A   1      42.346  27.688  26.911  1.00  0.00     0.173 A 
ATOM     73  F   UNL A   1      40.273  25.237  28.611  1.00  0.00    -0.203 F 
ATOM     74  C   UNL A   1      41.477  25.075  26.593  1.00  0.00     0.198 A 
ATOM     75  C   UNL A   1      42.735  26.953  25.794  1.00  0.00     0.198 A 
ATOM     76  F   UNL A   1      42.809  28.939  27.050  1.00  0.00    -0.203 F 
ATOM     77  F   UNL A   1      41.097  23.796  26.470  1.00  0.00    -0.200 F 
ATOM     78  C   UNL A   1      42.309  25.643  25.641  1.00  0.00     0.200 A 
ATOM     79  F   UNL A   1      43.536  27.510  24.875  1.00  0.00    -0.200 F 
ATOM     80  F   UNL A   1      42.716  24.923  24.586  1.00  0.00    -0.200 F 
ENDBRANCH  46  70
BRANCH  58  81
ATOM     81  C   UNL A   1      44.386  27.666  34.204  1.00  0.00     0.064 A 
ATOM     82  C   UNL A   1      45.625  28.324  34.214  1.00  0.00     0.173 A 
ATOM     83  C   UNL A   1      44.303  26.417  34.840  1.00  0.00     0.173 A 
ATOM     84  F   UNL A   1      45.762  29.513  33.607  1.00  0.00    -0.203 F 
ATOM     85  C   UNL A   1      46.739  27.745  34.816  1.00  0.00     0.198 A 
ATOM     86  C   UNL A   1      45.412  25.855  35.468  1.00  0.00     0.198 A 
ATOM     87  F   UNL A   1      43.141  25.748  34.868  1.00  0.00    -0.203 F 
ATOM     88  F   UNL A   1      47.924  28.372  34.773  1.00  0.00    -0.200 F 
ATOM     89  C   UNL A   1      46.630  26.515  35.450  1.00  0.00     0.200 A 
ATOM     90  F   UNL A   1      45.300  24.675  36.094  1.00  0.00    -0.200 F 
ATOM     91  F   UNL A   1      47.702  25.965  36.038  1.00  0.00    -0.200 F 
ENDBRANCH  58  81
ENDBRANCH  32  33
ENDBRANCH  25  27
ENDBRANCH  24  25
ENDBRANCH  23  24
ENDBRANCH   1  23
TORSDOF 14
ENDMDL
MODEL 2
REMARK VINA RESULT:     -12.2      2.788      8.088
REMARK SMILES C[C@@H](C(=O)OCCOC(=O)c1ccc(-c2c3nc(c(-c4c(F)c(F)c(F)c(F)c4F)c4ccc([nH]4)c(-c4c(F)c(F)c(F)c(F)c4F)c4nc(c(-c5c(F)c(F)c(F)c(F)c5F)c5ccc2[nH]5)C=C4)C=C3)cc1)c1ccccc1-c1ccn(C(F)F)c(=O)c1
REMARK SMILES IDX 6 1 5 2 3 3 4 4 2 5 1 6 74 7 75 8 79 9 76 10 78 11 77 12
REMARK SMILES IDX 80 13 81 14 89 15 82 16 87 17 83 18 88 19 84 20 85 21 86 22
REMARK SMILES IDX 7 23 8 24 9 25 10 26 11 27 12 28 73 29 13 30 72 31 14 32
REMARK SMILES IDX 15 33 16 34 66 35 17 36 71 37 65 38 67 39 18 40 70 41 64 42
REMARK SMILES IDX 63 43 19 45 51 46 31 47 50 48 32 49 35 50 49 51 68 52 33 53
REMARK SMILES IDX 34 54 48 56 69 57 36 58 20 59 21 60 29 61 22 62 23 63 27 64
REMARK SMILES IDX 30 65 24 66 25 67 28 68 26 69 52 70 53 71 61 72 54 73 55 74
REMARK SMILES IDX 59 75 62 76 56 77 57 78 60 79 58 80 37 81 38 82 46 83 39 84
REMARK SMILES IDX 40 85 44 86 47 87 41 88 42 89 45 90 43 91
REMARK H PARENT 67 44 35 55
REMARK Flexibility Score: inf
ROOT
ATOM      1  C   UNL A   1      31.384  30.392  25.343  1.00  0.00     0.274 C 
ENDROOT
BRANCH   1   2
ATOM      2  O   UNL A   1      32.634  29.812  24.900  1.00  0.00    -0.462 OA
BRANCH   2   3
ATOM      3  C   UNL A   1      32.836  28.536  25.334  1.00  0.00     0.313 C 
ATOM      4  O   UNL A   1      33.914  27.994  25.221  1.00  0.00    -0.252 OA
BRANCH   3   5
ATOM      5  C   UNL A   1      31.581  27.863  25.909  1.00  0.00     0.127 C 
ATOM      6  C   UNL A   1      31.737  27.801  27.442  1.00  0.00     0.025 C 
BRANCH   5   7
ATOM      7  C   UNL A   1      31.271  26.490  25.244  1.00  0.00    -0.026 A 
ATOM      8  C   UNL A   1      31.827  25.307  25.790  1.00  0.00     0.005 A 
ATOM      9  C   UNL A   1      30.464  26.345  24.074  1.00  0.00    -0.014 A 
ATOM     10  C   UNL A   1      31.618  24.050  25.214  1.00  0.00     0.000 A 
ATOM     11  C   UNL A   1      30.277  25.067  23.503  1.00  0.00     0.009 A 
ATOM     12  C   UNL A   1      30.846  23.929  24.070  1.00  0.00     0.001 A 
BRANCH   9  13
ATOM     13  C   UNL A   1      29.790  27.457  23.362  1.00  0.00    -0.011 A 
ATOM     14  C   UNL A   1      30.457  28.298  22.383  1.00  0.00     0.027 A 
ATOM     15  C   UNL A   1      28.485  27.670  23.591  1.00  0.00     0.080 A 
ATOM     16  C   UNL A   1      29.914  29.459  22.008  1.00  0.00     0.095 A 
ATOM     17  C   UNL A   1      27.796  28.852  22.995  1.00  0.00     0.255 A 
ATOM     18  N   UNL A   1      28.626  29.781  22.386  1.00  0.00    -0.258 N 
ATOM     19  O   UNL A   1      26.581  28.954  23.125  1.00  0.00    -0.269 OA
BRANCH  18  20
ATOM     20  C   UNL A   1      28.064  31.053  22.017  1.00  0.00     0.451 C 
ATOM     21  F   UNL A   1      28.930  32.060  22.269  1.00  0.00    -0.185 F 
ATOM     22  F   UNL A   1      27.739  31.093  20.701  1.00  0.00    -0.185 F 
ENDBRANCH  18  20
ENDBRANCH   9  13
ENDBRANCH   5   7
ENDBRANCH   3   5
ENDBRANCH   2   3
ENDBRANCH   1   2
BRANCH   1  23
ATOM     23  C   UNL A   1      31.530  31.537  26.368  1.00  0.00     0.275 C 
BRANCH  23  24
ATOM     24  O   UNL A   1      32.621  31.339  27.302  1.00  0.00    -0.458 OA
BRANCH  24  25
ATOM     25  C   UNL A   1      33.453  32.396  27.483  1.00  0.00     0.338 C 
ATOM     26  O   UNL A   1      33.163  33.578  27.375  1.00  0.00    -0.246 OA
BRANCH  25  27
ATOM     27  C   UNL A   1      34.758  31.965  28.039  1.00  0.00     0.060 A 
ATOM     28  C   UNL A   1      34.803  30.691  28.602  1.00  0.00     0.016 A 
ATOM     29  C   UNL A   1      35.874  32.794  28.149  1.00  0.00     0.016 A 
ATOM     30  C   UNL A   1      35.953  30.208  29.216  1.00  0.00     0.010 A 
ATOM     31  C   UNL A   1      37.031  32.321  28.810  1.00  0.00     0.010 A 
ATOM     32  C   UNL A   1      37.078  31.020  29.345  1.00  0.00    -0.014 A 
BRANCH  32  33
ATOM     33  C   UNL A   1      38.193  30.515  30.193  1.00  0.00     0.031 A 
ATOM     34  C   UNL A   1      39.230  29.618  29.575  1.00  0.00     0.074 A 
ATOM     35  C   UNL A   1      38.403  30.984  31.439  1.00  0.00     0.049 A 
ATOM     36  N   UNL A   1      40.245  29.006  30.131  1.00  0.00    -0.248 NA
ATOM     37  C   UNL A   1      39.125  29.412  28.122  1.00  0.00     0.031 C 
ATOM     38  C   UNL A   1      37.599  32.008  32.105  1.00  0.00     0.029 A 
ATOM     39  N   UNL A   1      39.380  30.677  32.359  1.00  0.00    -0.354 N 
ATOM     40  C   UNL A   1      40.873  28.310  29.108  1.00  0.00     0.074 A 
ATOM     41  C   UNL A   1      40.139  28.590  27.892  1.00  0.00     0.031 C 
ATOM     42  C   UNL A   1      38.116  32.245  33.324  1.00  0.00     0.029 A 
ATOM     43  C   UNL A   1      39.244  31.343  33.553  1.00  0.00     0.049 A 
ATOM     44  H   UNL A   1      40.109  30.040  32.177  1.00  0.00     0.167 HD
ATOM     45  C   UNL A   1      41.956  27.499  29.179  1.00  0.00     0.037 A 
ATOM     46  C   UNL A   1      39.921  31.207  34.712  1.00  0.00     0.037 A 
ATOM     47  C   UNL A   1      42.706  27.241  30.379  1.00  0.00     0.049 A 
ATOM     48  C   UNL A   1      41.031  30.187  34.807  1.00  0.00     0.074 A 
ATOM     49  C   UNL A   1      43.784  26.392  30.558  1.00  0.00     0.029 A 
ATOM     50  N   UNL A   1      42.459  27.836  31.607  1.00  0.00    -0.354 N 
ATOM     51  N   UNL A   1      41.556  29.441  33.865  1.00  0.00    -0.248 NA
ATOM     52  C   UNL A   1      41.629  29.975  36.135  1.00  0.00     0.031 C 
ATOM     53  C   UNL A   1      44.156  26.434  31.906  1.00  0.00     0.029 A 
ATOM     54  C   UNL A   1      43.348  27.353  32.554  1.00  0.00     0.049 A 
ATOM     55  H   UNL A   1      41.756  28.503  31.780  1.00  0.00     0.167 HD
ATOM     56  C   UNL A   1      42.554  28.693  34.479  1.00  0.00     0.074 A 
ATOM     57  C   UNL A   1      42.576  29.087  35.871  1.00  0.00     0.031 C 
ATOM     58  C   UNL A   1      43.374  27.760  33.936  1.00  0.00     0.037 A 
BRANCH  45  59
ATOM     59  C   UNL A   1      42.340  26.758  27.932  1.00  0.00     0.064 A 
ATOM     60  C   UNL A   1      43.297  27.245  27.033  1.00  0.00     0.173 A 
ATOM     61  C   UNL A   1      41.735  25.523  27.645  1.00  0.00     0.173 A 
ATOM     62  F   UNL A   1      43.888  28.430  27.251  1.00  0.00    -0.203 F 
ATOM     63  C   UNL A   1      43.618  26.535  25.877  1.00  0.00     0.198 A 
ATOM     64  C   UNL A   1      42.079  24.803  26.506  1.00  0.00     0.198 A 
ATOM     65  F   UNL A   1      40.813  25.013  28.476  1.00  0.00    -0.203 F 
ATOM     66  F   UNL A   1      44.499  27.042  25.004  1.00  0.00    -0.200 F 
ATOM     67  C   UNL A   1      43.014  25.313  25.618  1.00  0.00     0.200 A 
ATOM     68  F   UNL A   1      41.501  23.618  26.265  1.00  0.00    -0.200 F 
ATOM     69  F   UNL A   1      43.325  24.630  24.508  1.00  0.00    -0.200 F 
ENDBRANCH  45  59
BRANCH  46  70
ATOM     70  C   UNL A   1      39.526  31.992  35.916  1.00  0.00     0.064 A 
ATOM     71  C   UNL A   1      38.458  31.590  36.732  1.00  0.00     0.173 A 
ATOM     72  C   UNL A   1      40.166  33.199  36.235  1.00  0.00     0.173 A 
ATOM     73  F   UNL A   1      37.785  30.465  36.449  1.00  0.00    -0.203 F 
ATOM     74  C   UNL A   1      38.037  32.374  37.807  1.00  0.00     0.198 A 
ATOM     75  C   UNL A   1      39.768  33.963  37.330  1.00  0.00     0.198 A 
ATOM     76  F   UNL A   1      41.180  33.644  35.477  1.00  0.00    -0.203 F 
ATOM     77  F   UNL A   1      36.975  31.998  38.531  1.00  0.00    -0.200 F 
ATOM     78  C   UNL A   1      38.697  33.555  38.109  1.00  0.00     0.200 A 
ATOM     79  F   UNL A   1      40.413  35.102  37.619  1.00  0.00    -0.200 F 
ATOM     80  F   UNL A   1      38.289  34.310  39.137  1.00  0.00    -0.200 F 
ENDBRANCH  46  70
BRANCH  58  81
ATOM     81  C   UNL A   1      44.397  27.123  34.834  1.00  0.00     0.064 A 
ATOM     82  C   UNL A   1      44.127  25.942  35.542  1.00  0.00     0.173 A 
ATOM     83  C   UNL A   1      45.683  27.674  34.948  1.00  0.00     0.173 A 
ATOM     84  F   UNL A   1      42.910  25.382  35.480  1.00  0.00    -0.203 F 
ATOM     85  C   UNL A   1      45.098  25.351  36.348  1.00  0.00     0.198 A 
ATOM     86  C   UNL A   1      46.661  27.064  35.729  1.00  0.00     0.198 A 
ATOM     87  F   UNL A   1      45.998  28.798  34.285  1.00  0.00    -0.203 F 
ATOM     88  F   UNL A   1      44.803  24.249  37.050  1.00  0.00    -0.200 F 
ATOM     89  C   UNL A   1      46.367  25.908  36.434  1.00  0.00     0.200 A 
ATOM     90  F   UNL A   1      47.890  27.595  35.798  1.00  0.00    -0.200 F 
ATOM     91  F   UNL A   1      47.302  25.331  37.201  1.00  0.00    -0.200 F 
ENDBRANCH  58  81
ENDBRANCH  32  33
ENDBRANCH  25  27
ENDBRANCH  24  25
ENDBRANCH  23  24
ENDBRANCH   1  23
TORSDOF 14
ENDMDL
MODEL 3
REMARK VINA RESULT:     -12.2      4.866     10.041
REMARK SMILES C[C@@H](C(=O)OCCOC(=O)c1ccc(-c2c3nc(c(-c4c(F)c(F)c(F)c(F)c4F)c4ccc([nH]4)c(-c4c(F)c(F)c(F)c(F)c4F)c4nc(c(-c5c(F)c(F)c(F)c(F)c5F)c5ccc2[nH]5)C=C4)C=C3)cc1)c1ccccc1-c1ccn(C(F)F)c(=O)c1
REMARK SMILES IDX 6 1 5 2 3 3 4 4 2 5 1 6 74 7 75 8 79 9 76 10 78 11 77 12
REMARK SMILES IDX 80 13 81 14 89 15 82 16 87 17 83 18 88 19 84 20 85 21 86 22
REMARK SMILES IDX 7 23 8 24 9 25 10 26 11 27 12 28 73 29 13 30 72 31 14 32
REMARK SMILES IDX 15 33 16 34 66 35 17 36 71 37 65 38 67 39 18 40 70 41 64 42
REMARK SMILES IDX 63 43 19 45 51 46 31 47 50 48 32 49 35 50 49 51 68 52 33 53
REMARK SMILES IDX 34 54 48 56 69 57 36 58 20 59 21 60 29 61 22 62 23 63 27 64
REMARK SMILES IDX 30 65 24 66 25 67 28 68 26 69 52 70 53 71 61 72 54 73 55 74
REMARK SMILES IDX 59 75 62 76 56 77 57 78 60 79 58 80 37 81 38 82 46 83 39 84
REMARK SMILES IDX 40 85 44 86 47 87 41 88 42 89 45 90 43 91
REMARK H PARENT 67 44 35 55
REMARK Flexibility Score: inf
ROOT
ATOM      1  C   UNL A   1      36.308  20.199  24.990  1.00  0.00     0.274 C 
ENDROOT
BRANCH   1   2
ATOM      2  O   UNL A   1      35.864  21.136  26.000  1.00  0.00    -0.462 OA
BRANCH   2   3
ATOM      3  C   UNL A   1      35.551  22.370  25.510  1.00  0.00     0.313 C 
ATOM      4  O   UNL A   1      35.483  23.337  26.236  1.00  0.00    -0.252 OA
BRANCH   3   5
ATOM      5  C   UNL A   1      35.252  22.389  24.003  1.00  0.00     0.127 C 
ATOM      6  C   UNL A   1      36.415  23.117  23.299  1.00  0.00     0.025 C 
BRANCH   5   7
ATOM      7  C   UNL A   1      33.845  22.967  23.673  1.00  0.00    -0.026 A 
ATOM      8  C   UNL A   1      33.701  24.354  23.421  1.00  0.00     0.005 A 
ATOM      9  C   UNL A   1      32.657  22.175  23.632  1.00  0.00    -0.014 A 
ATOM     10  C   UNL A   1      32.457  24.938  23.158  1.00  0.00     0.000 A 
ATOM     11  C   UNL A   1      31.412  22.789  23.378  1.00  0.00     0.009 A 
ATOM     12  C   UNL A   1      31.312  24.157  23.139  1.00  0.00     0.001 A 
BRANCH   9  13
ATOM     13  C   UNL A   1      32.602  20.711  23.861  1.00  0.00    -0.011 A 
ATOM     14  C   UNL A   1      32.633  20.108  25.181  1.00  0.00     0.027 A 
ATOM     15  C   UNL A   1      32.465  19.900  22.799  1.00  0.00     0.080 A 
ATOM     16  C   UNL A   1      32.894  18.805  25.323  1.00  0.00     0.095 A 
ATOM     17  C   UNL A   1      32.532  18.419  22.967  1.00  0.00     0.255 A 
ATOM     18  N   UNL A   1      32.937  17.978  24.218  1.00  0.00    -0.258 N 
ATOM     19  O   UNL A   1      32.285  17.704  22.002  1.00  0.00    -0.269 OA
BRANCH  18  20
ATOM     20  C   UNL A   1      33.263  16.586  24.373  1.00  0.00     0.451 C 
ATOM     21  F   UNL A   1      34.389  16.271  23.693  1.00  0.00    -0.185 F 
ATOM     22  F   UNL A   1      33.449  16.258  25.676  1.00  0.00    -0.185 F 
ENDBRANCH  18  20
ENDBRANCH   9  13
ENDBRANCH   5   7
ENDBRANCH   3   5
ENDBRANCH   2   3
ENDBRANCH   1   2
BRANCH   1  23
ATOM     23  C   UNL A   1      37.823  19.902  25.005  1.00  0.00     0.275 C 
BRANCH  23  24
ATOM     24  O   UNL A   1      38.632  21.056  25.344  1.00  0.00    -0.458 OA
BRANCH  24  25
ATOM     25  C   UNL A   1      39.627  20.846  26.244  1.00  0.00     0.338 C 
ATOM     26  O   UNL A   1      40.217  19.795  26.445  1.00  0.00    -0.246 OA
BRANCH  25  27
ATOM     27  C   UNL A   1      40.083  22.120  26.850  1.00  0.00     0.060 A 
ATOM     28  C   UNL A   1      39.585  23.291  26.284  1.00  0.00     0.016 A 
ATOM     29  C   UNL A   1      41.063  22.208  27.838  1.00  0.00     0.016 A 
ATOM     30  C   UNL A   1      39.996  24.543  26.724  1.00  0.00     0.010 A 
ATOM     31  C   UNL A   1      41.515  23.480  28.259  1.00  0.00     0.010 A 
ATOM     32  C   UNL A   1      40.979  24.659  27.705  1.00  0.00    -0.014 A 
BRANCH  32  33
ATOM     33  C   UNL A   1      41.519  26.019  27.977  1.00  0.00     0.031 A 
ATOM     34  C   UNL A   1      42.894  26.371  27.479  1.00  0.00     0.074 A 
ATOM     35  C   UNL A   1      40.746  26.998  28.489  1.00  0.00     0.049 A 
ATOM     36  N   UNL A   1      43.593  27.463  27.657  1.00  0.00    -0.248 NA
ATOM     37  C   UNL A   1      43.555  25.362  26.637  1.00  0.00     0.031 C 
ATOM     38  C   UNL A   1      39.332  26.866  28.835  1.00  0.00     0.029 A 
ATOM     39  N   UNL A   1      41.040  28.311  28.780  1.00  0.00    -0.354 N 
ATOM     40  C   UNL A   1      44.791  27.257  26.986  1.00  0.00     0.074 A 
ATOM     41  C   UNL A   1      44.717  25.945  26.380  1.00  0.00     0.031 C 
ATOM     42  C   UNL A   1      38.881  28.050  29.289  1.00  0.00     0.029 A 
ATOM     43  C   UNL A   1      39.989  29.003  29.332  1.00  0.00     0.049 A 
ATOM     44  H   UNL A   1      41.920  28.716  28.608  1.00  0.00     0.167 HD
ATOM     45  C   UNL A   1      45.861  28.083  26.896  1.00  0.00     0.037 A 
ATOM     46  C   UNL A   1      39.938  30.246  29.855  1.00  0.00     0.037 A 
ATOM     47  C   UNL A   1      45.927  29.400  27.472  1.00  0.00     0.049 A 
ATOM     48  C   UNL A   1      41.189  31.093  29.874  1.00  0.00     0.074 A 
ATOM     49  C   UNL A   1      46.989  30.288  27.478  1.00  0.00     0.029 A 
ATOM     50  N   UNL A   1      44.884  30.022  28.141  1.00  0.00    -0.354 N 
ATOM     51  N   UNL A   1      42.361  30.856  29.338  1.00  0.00    -0.248 NA
ATOM     52  C   UNL A   1      41.114  32.375  30.593  1.00  0.00     0.031 C 
ATOM     53  C   UNL A   1      46.606  31.425  28.195  1.00  0.00     0.029 A 
ATOM     54  C   UNL A   1      45.286  31.272  28.586  1.00  0.00     0.049 A 
ATOM     55  H   UNL A   1      43.990  29.633  28.278  1.00  0.00     0.167 HD
ATOM     56  C   UNL A   1      43.151  31.961  29.633  1.00  0.00     0.074 A 
ATOM     57  C   UNL A   1      42.320  32.880  30.380  1.00  0.00     0.031 C 
ATOM     58  C   UNL A   1      44.449  32.189  29.317  1.00  0.00     0.037 A 
BRANCH  45  59
ATOM     59  C   UNL A   1      47.087  27.545  26.219  1.00  0.00     0.064 A 
ATOM     60  C   UNL A   1      48.049  26.786  26.899  1.00  0.00     0.173 A 
ATOM     61  C   UNL A   1      47.289  27.793  24.852  1.00  0.00     0.173 A 
ATOM     62  F   UNL A   1      47.912  26.540  28.211  1.00  0.00    -0.203 F 
ATOM     63  C   UNL A   1      49.183  26.315  26.240  1.00  0.00     0.198 A 
ATOM     64  C   UNL A   1      48.407  27.295  24.190  1.00  0.00     0.198 A 
ATOM     65  F   UNL A   1      46.396  28.512  24.156  1.00  0.00    -0.203 F 
ATOM     66  F   UNL A   1      50.117  25.634  26.918  1.00  0.00    -0.200 F 
ATOM     67  C   UNL A   1      49.358  26.565  24.885  1.00  0.00     0.200 A 
ATOM     68  F   UNL A   1      48.567  27.530  22.881  1.00  0.00    -0.200 F 
ATOM     69  F   UNL A   1      50.447  26.109  24.253  1.00  0.00    -0.200 F 
ENDBRANCH  45  59
BRANCH  46  70
ATOM     70  C   UNL A   1      38.686  30.752  30.485  1.00  0.00     0.064 A 
ATOM     71  C   UNL A   1      38.453  30.613  31.861  1.00  0.00     0.173 A 
ATOM     72  C   UNL A   1      37.666  31.324  29.710  1.00  0.00     0.173 A 
ATOM     73  F   UNL A   1      39.378  30.037  32.642  1.00  0.00    -0.203 F 
ATOM     74  C   UNL A   1      37.244  31.010  32.432  1.00  0.00     0.198 A 
ATOM     75  C   UNL A   1      36.472  31.752  30.287  1.00  0.00     0.198 A 
ATOM     76  F   UNL A   1      37.825  31.463  28.385  1.00  0.00    -0.203 F 
ATOM     77  F   UNL A   1      37.023  30.808  33.738  1.00  0.00    -0.200 F 
ATOM     78  C   UNL A   1      36.257  31.585  31.645  1.00  0.00     0.200 A 
ATOM     79  F   UNL A   1      35.525  32.312  29.521  1.00  0.00    -0.200 F 
ATOM     80  F   UNL A   1      35.094  31.961  32.193  1.00  0.00    -0.200 F 
ENDBRANCH  46  70
BRANCH  58  81
ATOM     81  C   UNL A   1      45.050  33.500  29.739  1.00  0.00     0.064 A 
ATOM     82  C   UNL A   1      45.741  33.641  30.952  1.00  0.00     0.173 A 
ATOM     83  C   UNL A   1      44.977  34.618  28.894  1.00  0.00     0.173 A 
ATOM     84  F   UNL A   1      45.828  32.608  31.803  1.00  0.00    -0.203 F 
ATOM     85  C   UNL A   1      46.315  34.858  31.313  1.00  0.00     0.198 A 
ATOM     86  C   UNL A   1      45.580  35.825  29.243  1.00  0.00     0.198 A 
ATOM     87  F   UNL A   1      44.336  34.537  27.718  1.00  0.00    -0.203 F 
ATOM     88  F   UNL A   1      46.932  34.981  32.497  1.00  0.00    -0.200 F 
ATOM     89  C   UNL A   1      46.242  35.946  30.454  1.00  0.00     0.200 A 
ATOM     90  F   UNL A   1      45.521  36.869  28.405  1.00  0.00    -0.200 F 
ATOM     91  F   UNL A   1      46.805  37.112  30.799  1.00  0.00    -0.200 F 
ENDBRANCH  58  81
ENDBRANCH  32  33
ENDBRANCH  25  27
ENDBRANCH  24  25
ENDBRANCH  23  24
ENDBRANCH   1  23
TORSDOF 14
ENDMDL
