MODEL 1
REMARK VINA RESULT:     -12.7      0.000      0.000
REMARK SMILES O=C(CC[NH+]1CCC(n2nccc2NC(=O)c2ccccc2Cl)CC1)OCCOC(=O)c1ccc(-c2c3nc(c(-c4c(F)c(F)c(F)c(F)c4F)c4ccc([nH]4)c(-c4c(F)c(F)c(F)c(F)c4F)c4nc(c(-c5c(F)c(F)c(F)c(F)c5F)c5ccc2[nH]5)C=C4)C=C3)cc1
REMARK SMILES IDX 26 1 2 2 1 3 3 4 4 5 5 6 6 7 25 8 7 10 24 11 8 12 9 13 10 14
REMARK SMILES IDX 13 15 11 16 12 17 14 18 15 19 16 21 17 22 18 23 22 24 19 25
REMARK SMILES IDX 21 26 23 27 20 28 27 29 28 30 29 31 30 32 31 33 32 34 33 35
REMARK SMILES IDX 94 36 34 37 93 38 35 39 36 40 37 41 87 42 38 43 92 44 86 45
REMARK SMILES IDX 88 46 39 47 91 48 85 49 84 50 40 52 72 53 52 54 71 55 53 56
REMARK SMILES IDX 56 57 70 58 89 59 54 60 55 61 69 63 90 64 57 65 41 66 42 67
REMARK SMILES IDX 50 68 43 69 44 70 48 71 51 72 45 73 46 74 49 75 47 76 73 77
REMARK SMILES IDX 74 78 82 79 75 80 76 81 80 82 83 83 77 84 78 85 81 86 79 87
REMARK SMILES IDX 58 88 59 89 67 90 60 91 61 92 65 93 68 94 62 95 63 96 66 97
REMARK SMILES IDX 64 98
REMARK H PARENT 5 9 14 20 88 51 56 62
REMARK Flexibility Score: inf
ROOT
ATOM      1  O   UNL A   1      41.198  20.782  25.930  1.00  0.00    -0.462 OA
ENDROOT
BRANCH   1   2
ATOM      2  C   UNL A   1      40.396  21.475  26.784  1.00  0.00     0.311 C 
ATOM      3  O   UNL A   1      40.485  21.326  27.997  1.00  0.00    -0.252 OA
BRANCH   2   4
ATOM      4  C   UNL A   1      39.294  22.307  26.165  1.00  0.00     0.184 C 
BRANCH   4   5
ATOM      5  C   UNL A   1      38.186  21.525  25.444  1.00  0.00     0.274 C 
BRANCH   5   6
ATOM      6  N   UNL A   1      36.791  21.975  25.624  1.00  0.00    -0.334 N 
ATOM      7  C   UNL A   1      36.608  23.374  25.269  1.00  0.00     0.264 C 
ATOM      8  C   UNL A   1      35.790  21.001  25.238  1.00  0.00     0.264 C 
ATOM      9  H   UNL A   1      36.591  21.998  26.624  1.00  0.00     0.348 HD
ATOM     10  C   UNL A   1      35.156  23.816  25.320  1.00  0.00     0.089 C 
ATOM     11  C   UNL A   1      34.395  21.503  24.868  1.00  0.00     0.089 C 
ATOM     12  C   UNL A   1      34.307  22.952  24.378  1.00  0.00     0.121 C 
BRANCH  12  13
ATOM     13  N   UNL A   1      32.944  23.469  24.239  1.00  0.00    -0.246 N 
ATOM     14  N   UNL A   1      32.042  23.093  25.171  1.00  0.00    -0.179 NA
ATOM     15  C   UNL A   1      32.405  24.360  23.323  1.00  0.00     0.131 A 
ATOM     16  C   UNL A   1      30.877  23.471  24.659  1.00  0.00     0.137 A 
ATOM     17  C   UNL A   1      31.044  24.189  23.463  1.00  0.00     0.069 A 
BRANCH  15  18
ATOM     18  N   UNL A   1      33.108  25.197  22.466  1.00  0.00    -0.307 N 
ATOM     19  C   UNL A   1      33.324  26.605  22.504  1.00  0.00     0.258 C 
ATOM     20  H   UNL A   1      33.530  24.740  21.703  1.00  0.00     0.171 HD
ATOM     21  O   UNL A   1      33.882  27.075  21.526  1.00  0.00    -0.269 OA
BRANCH  19  22
ATOM     22  C   UNL A   1      32.868  27.434  23.607  1.00  0.00     0.058 A 
ATOM     23  C   UNL A   1      33.760  27.660  24.661  1.00  0.00     0.015 A 
ATOM     24  C   UNL A   1      31.612  28.043  23.570  1.00  0.00     0.053 A 
ATOM     25  C   UNL A   1      33.421  28.584  25.644  1.00  0.00     0.001 A 
ATOM     26  C   UNL A   1      31.290  28.981  24.548  1.00  0.00     0.021 A 
ATOM     27  Cl  UNL A   1      30.474  27.732  22.311  1.00  0.00    -0.083 Cl
ATOM     28  C   UNL A   1      32.201  29.261  25.572  1.00  0.00     0.002 A 
ENDBRANCH  19  22
ENDBRANCH  15  18
ENDBRANCH  12  13
ENDBRANCH   5   6
ENDBRANCH   4   5
ENDBRANCH   2   4
ENDBRANCH   1   2
BRANCH   1  29
ATOM     29  C   UNL A   1      41.487  19.396  26.184  1.00  0.00     0.274 C 
BRANCH  29  30
ATOM     30  C   UNL A   1      42.929  18.983  25.911  1.00  0.00     0.275 C 
BRANCH  30  31
ATOM     31  O   UNL A   1      43.749  20.138  25.955  1.00  0.00    -0.458 OA
BRANCH  31  32
ATOM     32  C   UNL A   1      44.352  20.411  24.770  1.00  0.00     0.338 C 
ATOM     33  O   UNL A   1      44.658  19.629  23.898  1.00  0.00    -0.246 OA
BRANCH  32  34
ATOM     34  C   UNL A   1      44.703  21.833  24.780  1.00  0.00     0.060 A 
ATOM     35  C   UNL A   1      45.691  22.174  25.695  1.00  0.00     0.016 A 
ATOM     36  C   UNL A   1      43.843  22.778  24.193  1.00  0.00     0.016 A 
ATOM     37  C   UNL A   1      45.580  23.398  26.291  1.00  0.00     0.010 A 
ATOM     38  C   UNL A   1      43.742  24.007  24.780  1.00  0.00     0.010 A 
ATOM     39  C   UNL A   1      44.524  24.234  25.903  1.00  0.00    -0.014 A 
BRANCH  39  40
ATOM     40  C   UNL A   1      44.278  25.386  26.725  1.00  0.00     0.031 A 
ATOM     41  C   UNL A   1      45.329  26.405  26.570  1.00  0.00     0.074 A 
ATOM     42  C   UNL A   1      43.192  25.466  27.511  1.00  0.00     0.049 A 
ATOM     43  N   UNL A   1      46.189  26.789  27.450  1.00  0.00    -0.248 NA
ATOM     44  C   UNL A   1      45.585  26.897  25.207  1.00  0.00     0.031 C 
ATOM     45  C   UNL A   1      42.003  24.609  27.542  1.00  0.00     0.029 A 
ATOM     46  N   UNL A   1      42.899  26.426  28.422  1.00  0.00    -0.354 N 
ATOM     47  C   UNL A   1      46.985  27.722  26.799  1.00  0.00     0.074 A 
ATOM     48  C   UNL A   1      46.695  27.610  25.395  1.00  0.00     0.031 C 
ATOM     49  C   UNL A   1      41.030  25.224  28.255  1.00  0.00     0.029 A 
ATOM     50  C   UNL A   1      41.576  26.438  28.835  1.00  0.00     0.049 A 
ATOM     51  H   UNL A   1      43.570  27.060  28.763  1.00  0.00     0.167 HD
ATOM     52  C   UNL A   1      47.611  28.701  27.500  1.00  0.00     0.037 A 
ATOM     53  C   UNL A   1      40.989  27.459  29.503  1.00  0.00     0.037 A 
ATOM     54  C   UNL A   1      47.798  28.318  28.877  1.00  0.00     0.049 A 
ATOM     55  C   UNL A   1      42.082  28.260  30.127  1.00  0.00     0.074 A 
ATOM     56  C   UNL A   1      48.487  27.298  29.503  1.00  0.00     0.029 A 
ATOM     57  N   UNL A   1      46.914  28.797  29.814  1.00  0.00    -0.354 N 
ATOM     58  N   UNL A   1      42.844  27.809  31.087  1.00  0.00    -0.248 NA
ATOM     59  C   UNL A   1      42.644  29.357  29.349  1.00  0.00     0.031 C 
ATOM     60  C   UNL A   1      47.662  26.906  30.598  1.00  0.00     0.029 A 
ATOM     61  C   UNL A   1      46.544  27.742  30.609  1.00  0.00     0.049 A 
ATOM     62  H   UNL A   1      46.605  29.727  29.900  1.00  0.00     0.167 HD
ATOM     63  C   UNL A   1      44.117  28.274  30.784  1.00  0.00     0.074 A 
ATOM     64  C   UNL A   1      43.920  29.273  29.736  1.00  0.00     0.031 C 
ATOM     65  C   UNL A   1      45.233  27.604  31.199  1.00  0.00     0.037 A 
BRANCH  52  66
ATOM     66  C   UNL A   1      47.657  30.131  27.024  1.00  0.00     0.064 A 
ATOM     67  C   UNL A   1      48.878  30.825  27.089  1.00  0.00     0.173 A 
ATOM     68  C   UNL A   1      46.511  30.930  26.804  1.00  0.00     0.173 A 
ATOM     69  F   UNL A   1      50.027  30.167  27.303  1.00  0.00    -0.203 F 
ATOM     70  C   UNL A   1      48.932  32.220  27.038  1.00  0.00     0.198 A 
ATOM     71  C   UNL A   1      46.577  32.316  26.700  1.00  0.00     0.198 A 
ATOM     72  F   UNL A   1      45.270  30.431  26.793  1.00  0.00    -0.203 F 
ATOM     73  F   UNL A   1      50.100  32.845  27.242  1.00  0.00    -0.200 F 
ATOM     74  C   UNL A   1      47.781  32.963  26.855  1.00  0.00     0.200 A 
ATOM     75  F   UNL A   1      45.445  33.016  26.539  1.00  0.00    -0.200 F 
ATOM     76  F   UNL A   1      47.821  34.301  26.879  1.00  0.00    -0.200 F 
ENDBRANCH  52  66
BRANCH  53  77
ATOM     77  C   UNL A   1      39.626  27.995  29.271  1.00  0.00     0.064 A 
ATOM     78  C   UNL A   1      38.705  28.120  30.323  1.00  0.00     0.173 A 
ATOM     79  C   UNL A   1      39.287  28.639  28.062  1.00  0.00     0.173 A 
ATOM     80  F   UNL A   1      38.976  27.582  31.520  1.00  0.00    -0.203 F 
ATOM     81  C   UNL A   1      37.523  28.854  30.177  1.00  0.00     0.198 A 
ATOM     82  C   UNL A   1      38.105  29.364  27.916  1.00  0.00     0.198 A 
ATOM     83  F   UNL A   1      40.138  28.655  27.026  1.00  0.00    -0.203 F 
ATOM     84  F   UNL A   1      36.691  28.997  31.218  1.00  0.00    -0.200 F 
ATOM     85  C   UNL A   1      37.227  29.482  28.977  1.00  0.00     0.200 A 
ATOM     86  F   UNL A   1      37.852  29.994  26.760  1.00  0.00    -0.200 F 
ATOM     87  F   UNL A   1      36.122  30.228  28.852  1.00  0.00    -0.200 F 
ENDBRANCH  53  77
BRANCH  65  88
ATOM     88  C   UNL A   1      45.043  26.471  32.169  1.00  0.00     0.064 A 
ATOM     89  C   UNL A   1      44.973  26.643  33.563  1.00  0.00     0.173 A 
ATOM     90  C   UNL A   1      44.766  25.194  31.664  1.00  0.00     0.173 A 
ATOM     91  F   UNL A   1      45.119  27.854  34.115  1.00  0.00    -0.203 F 
ATOM     92  C   UNL A   1      44.684  25.575  34.412  1.00  0.00     0.198 A 
ATOM     93  C   UNL A   1      44.443  24.137  32.511  1.00  0.00     0.198 A 
ATOM     94  F   UNL A   1      44.758  24.985  30.338  1.00  0.00    -0.203 F 
ATOM     95  F   UNL A   1      44.631  25.766  35.739  1.00  0.00    -0.200 F 
ATOM     96  C   UNL A   1      44.412  24.325  33.884  1.00  0.00     0.200 A 
ATOM     97  F   UNL A   1      44.130  22.942  31.992  1.00  0.00    -0.200 F 
ATOM     98  F   UNL A   1      44.091  23.307  34.695  1.00  0.00    -0.200 F 
ENDBRANCH  65  88
ENDBRANCH  39  40
ENDBRANCH  32  34
ENDBRANCH  31  32
ENDBRANCH  30  31
ENDBRANCH  29  30
ENDBRANCH   1  29
TORSDOF 16
ENDMDL
MODEL 2
REMARK VINA RESULT:     -12.6      4.940     10.217
REMARK SMILES O=C(CC[NH+]1CCC(n2nccc2NC(=O)c2ccccc2Cl)CC1)OCCOC(=O)c1ccc(-c2c3nc(c(-c4c(F)c(F)c(F)c(F)c4F)c4ccc([nH]4)c(-c4c(F)c(F)c(F)c(F)c4F)c4nc(c(-c5c(F)c(F)c(F)c(F)c5F)c5ccc2[nH]5)C=C4)C=C3)cc1
REMARK SMILES IDX 26 1 2 2 1 3 3 4 4 5 5 6 6 7 25 8 7 10 24 11 8 12 9 13 10 14
REMARK SMILES IDX 13 15 11 16 12 17 14 18 15 19 16 21 17 22 18 23 22 24 19 25
REMARK SMILES IDX 21 26 23 27 20 28 27 29 28 30 29 31 30 32 31 33 32 34 33 35
REMARK SMILES IDX 94 36 34 37 93 38 35 39 36 40 37 41 87 42 38 43 92 44 86 45
REMARK SMILES IDX 88 46 39 47 91 48 85 49 84 50 40 52 72 53 52 54 71 55 53 56
REMARK SMILES IDX 56 57 70 58 89 59 54 60 55 61 69 63 90 64 57 65 41 66 42 67
REMARK SMILES IDX 50 68 43 69 44 70 48 71 51 72 45 73 46 74 49 75 47 76 73 77
REMARK SMILES IDX 74 78 82 79 75 80 76 81 80 82 83 83 77 84 78 85 81 86 79 87
REMARK SMILES IDX 58 88 59 89 67 90 60 91 61 92 65 93 68 94 62 95 63 96 66 97
REMARK SMILES IDX 64 98
REMARK H PARENT 5 9 14 20 88 51 56 62
REMARK Flexibility Score: inf
ROOT
ATOM      1  O   UNL A   1      34.736  34.840  28.555  1.00  0.00    -0.462 OA
ENDROOT
BRANCH   1   2
ATOM      2  C   UNL A   1      35.046  33.606  28.069  1.00  0.00     0.311 C 
ATOM      3  O   UNL A   1      36.004  33.441  27.324  1.00  0.00    -0.252 OA
BRANCH   2   4
ATOM      4  C   UNL A   1      34.066  32.490  28.361  1.00  0.00     0.184 C 
BRANCH   4   5
ATOM      5  C   UNL A   1      34.509  31.081  27.940  1.00  0.00     0.274 C 
BRANCH   5   6
ATOM      6  N   UNL A   1      33.815  30.448  26.800  1.00  0.00    -0.334 N 
ATOM      7  C   UNL A   1      34.139  29.037  26.665  1.00  0.00     0.264 C 
ATOM      8  C   UNL A   1      32.450  30.891  26.605  1.00  0.00     0.264 C 
ATOM      9  H   UNL A   1      34.212  30.824  25.939  1.00  0.00     0.348 HD
ATOM     10  C   UNL A   1      33.334  28.341  25.582  1.00  0.00     0.089 C 
ATOM     11  C   UNL A   1      31.489  29.971  25.854  1.00  0.00     0.089 C 
ATOM     12  C   UNL A   1      31.833  28.478  25.870  1.00  0.00     0.121 C 
BRANCH  12  13
ATOM     13  N   UNL A   1      31.025  27.654  24.969  1.00  0.00    -0.246 N 
ATOM     14  N   UNL A   1      30.888  28.082  23.695  1.00  0.00    -0.179 NA
ATOM     15  C   UNL A   1      30.401  26.433  25.177  1.00  0.00     0.131 A 
ATOM     16  C   UNL A   1      29.919  27.320  23.204  1.00  0.00     0.137 A 
ATOM     17  C   UNL A   1      29.521  26.331  24.120  1.00  0.00     0.069 A 
BRANCH  15  18
ATOM     18  N   UNL A   1      30.624  25.555  26.230  1.00  0.00    -0.307 N 
ATOM     19  C   UNL A   1      31.630  24.565  26.425  1.00  0.00     0.258 C 
ATOM     20  H   UNL A   1      29.977  25.630  26.969  1.00  0.00     0.171 HD
ATOM     21  O   UNL A   1      31.482  23.855  27.406  1.00  0.00    -0.269 OA
BRANCH  19  22
ATOM     22  C   UNL A   1      32.729  24.379  25.493  1.00  0.00     0.058 A 
ATOM     23  C   UNL A   1      33.986  24.868  25.866  1.00  0.00     0.015 A 
ATOM     24  C   UNL A   1      32.547  23.665  24.307  1.00  0.00     0.053 A 
ATOM     25  C   UNL A   1      35.090  24.555  25.081  1.00  0.00     0.001 A 
ATOM     26  C   UNL A   1      33.661  23.341  23.537  1.00  0.00     0.021 A 
ATOM     27  Cl  UNL A   1      30.996  23.104  23.800  1.00  0.00    -0.083 Cl
ATOM     28  C   UNL A   1      34.931  23.772  23.935  1.00  0.00     0.002 A 
ENDBRANCH  19  22
ENDBRANCH  15  18
ENDBRANCH  12  13
ENDBRANCH   5   6
ENDBRANCH   4   5
ENDBRANCH   2   4
ENDBRANCH   1   2
BRANCH   1  29
ATOM     29  C   UNL A   1      33.359  35.221  28.717  1.00  0.00     0.274 C 
BRANCH  29  30
ATOM     30  C   UNL A   1      33.021  35.839  30.068  1.00  0.00     0.275 C 
BRANCH  30  31
ATOM     31  O   UNL A   1      34.020  35.467  31.001  1.00  0.00    -0.458 OA
BRANCH  31  32
ATOM     32  C   UNL A   1      33.514  34.958  32.153  1.00  0.00     0.338 C 
ATOM     33  O   UNL A   1      32.396  35.101  32.597  1.00  0.00    -0.246 OA
BRANCH  32  34
ATOM     34  C   UNL A   1      34.616  34.300  32.859  1.00  0.00     0.060 A 
ATOM     35  C   UNL A   1      35.780  35.055  32.937  1.00  0.00     0.016 A 
ATOM     36  C   UNL A   1      34.588  32.911  33.077  1.00  0.00     0.016 A 
ATOM     37  C   UNL A   1      36.961  34.371  32.874  1.00  0.00     0.010 A 
ATOM     38  C   UNL A   1      35.770  32.229  33.028  1.00  0.00     0.010 A 
ATOM     39  C   UNL A   1      36.916  32.973  32.793  1.00  0.00    -0.014 A 
BRANCH  39  40
ATOM     40  C   UNL A   1      38.146  32.307  32.463  1.00  0.00     0.031 A 
ATOM     41  C   UNL A   1      39.037  32.190  33.629  1.00  0.00     0.074 A 
ATOM     42  C   UNL A   1      38.387  31.859  31.220  1.00  0.00     0.049 A 
ATOM     43  N   UNL A   1      40.175  32.767  33.811  1.00  0.00    -0.248 NA
ATOM     44  C   UNL A   1      38.492  31.519  34.820  1.00  0.00     0.031 C 
ATOM     45  C   UNL A   1      37.469  31.732  30.084  1.00  0.00     0.029 A 
ATOM     46  N   UNL A   1      39.539  31.330  30.740  1.00  0.00    -0.354 N 
ATOM     47  C   UNL A   1      40.583  32.375  35.079  1.00  0.00     0.074 A 
ATOM     48  C   UNL A   1      39.442  31.774  35.717  1.00  0.00     0.031 C 
ATOM     49  C   UNL A   1      38.040  30.954  29.135  1.00  0.00     0.029 A 
ATOM     50  C   UNL A   1      39.400  30.649  29.541  1.00  0.00     0.049 A 
ATOM     51  H   UNL A   1      40.402  31.424  31.204  1.00  0.00     0.167 HD
ATOM     52  C   UNL A   1      41.902  32.327  35.393  1.00  0.00     0.037 A 
ATOM     53  C   UNL A   1      40.328  29.809  29.022  1.00  0.00     0.037 A 
ATOM     54  C   UNL A   1      42.671  33.201  34.544  1.00  0.00     0.049 A 
ATOM     55  C   UNL A   1      41.632  30.147  29.662  1.00  0.00     0.074 A 
ATOM     56  C   UNL A   1      42.676  34.565  34.325  1.00  0.00     0.029 A 
ATOM     57  N   UNL A   1      43.340  32.653  33.476  1.00  0.00    -0.354 N 
ATOM     58  N   UNL A   1      42.256  31.277  29.464  1.00  0.00    -0.248 NA
ATOM     59  C   UNL A   1      41.980  29.451  30.894  1.00  0.00     0.031 C 
ATOM     60  C   UNL A   1      42.913  34.718  32.927  1.00  0.00     0.029 A 
ATOM     61  C   UNL A   1      43.092  33.445  32.384  1.00  0.00     0.049 A 
ATOM     62  H   UNL A   1      43.896  31.841  33.492  1.00  0.00     0.167 HD
ATOM     63  C   UNL A   1      42.762  31.632  30.708  1.00  0.00     0.074 A 
ATOM     64  C   UNL A   1      42.612  30.438  31.536  1.00  0.00     0.031 C 
ATOM     65  C   UNL A   1      42.984  32.940  31.035  1.00  0.00     0.037 A 
BRANCH  52  66
ATOM     66  C   UNL A   1      42.506  31.186  36.171  1.00  0.00     0.064 A 
ATOM     67  C   UNL A   1      43.373  31.481  37.238  1.00  0.00     0.173 A 
ATOM     68  C   UNL A   1      42.516  29.842  35.728  1.00  0.00     0.173 A 
ATOM     69  F   UNL A   1      43.450  32.725  37.732  1.00  0.00    -0.203 F 
ATOM     70  C   UNL A   1      44.254  30.526  37.752  1.00  0.00     0.198 A 
ATOM     71  C   UNL A   1      43.357  28.882  36.280  1.00  0.00     0.198 A 
ATOM     72  F   UNL A   1      41.806  29.421  34.676  1.00  0.00    -0.203 F 
ATOM     73  F   UNL A   1      45.157  30.887  38.673  1.00  0.00    -0.200 F 
ATOM     74  C   UNL A   1      44.252  29.231  37.265  1.00  0.00     0.200 A 
ATOM     75  F   UNL A   1      43.349  27.638  35.780  1.00  0.00    -0.200 F 
ATOM     76  F   UNL A   1      45.145  28.336  37.705  1.00  0.00    -0.200 F 
ENDBRANCH  52  66
BRANCH  53  77
ATOM     77  C   UNL A   1      40.065  28.507  28.363  1.00  0.00     0.064 A 
ATOM     78  C   UNL A   1      40.614  28.205  27.108  1.00  0.00     0.173 A 
ATOM     79  C   UNL A   1      39.483  27.432  29.067  1.00  0.00     0.173 A 
ATOM     80  F   UNL A   1      41.232  29.159  26.397  1.00  0.00    -0.203 F 
ATOM     81  C   UNL A   1      40.593  26.903  26.594  1.00  0.00     0.198 A 
ATOM     82  C   UNL A   1      39.456  26.137  28.550  1.00  0.00     0.198 A 
ATOM     83  F   UNL A   1      39.011  27.596  30.311  1.00  0.00    -0.203 F 
ATOM     84  F   UNL A   1      41.173  26.640  25.414  1.00  0.00    -0.200 F 
ATOM     85  C   UNL A   1      40.021  25.870  27.318  1.00  0.00     0.200 A 
ATOM     86  F   UNL A   1      38.931  25.142  29.280  1.00  0.00    -0.200 F 
ATOM     87  F   UNL A   1      40.047  24.614  26.851  1.00  0.00    -0.200 F 
ENDBRANCH  53  77
BRANCH  65  88
ATOM     88  C   UNL A   1      42.867  33.960  29.937  1.00  0.00     0.064 A 
ATOM     89  C   UNL A   1      41.656  34.573  29.569  1.00  0.00     0.173 A 
ATOM     90  C   UNL A   1      44.039  34.447  29.345  1.00  0.00     0.173 A 
ATOM     91  F   UNL A   1      40.506  34.237  30.166  1.00  0.00    -0.203 F 
ATOM     92  C   UNL A   1      41.618  35.595  28.620  1.00  0.00     0.198 A 
ATOM     93  C   UNL A   1      44.004  35.491  28.424  1.00  0.00     0.198 A 
ATOM     94  F   UNL A   1      45.230  33.943  29.703  1.00  0.00    -0.203 F 
ATOM     95  F   UNL A   1      40.447  36.156  28.283  1.00  0.00    -0.200 F 
ATOM     96  C   UNL A   1      42.794  36.057  28.055  1.00  0.00     0.200 A 
ATOM     97  F   UNL A   1      45.148  35.971  27.919  1.00  0.00    -0.200 F 
ATOM     98  F   UNL A   1      42.765  37.069  27.176  1.00  0.00    -0.200 F 
ENDBRANCH  65  88
ENDBRANCH  39  40
ENDBRANCH  32  34
ENDBRANCH  31  32
ENDBRANCH  30  31
ENDBRANCH  29  30
ENDBRANCH   1  29
TORSDOF 16
ENDMDL
MODEL 3
REMARK VINA RESULT:     -12.5      3.662      8.949
REMARK SMILES O=C(CC[NH+]1CCC(n2nccc2NC(=O)c2ccccc2Cl)CC1)OCCOC(=O)c1ccc(-c2c3nc(c(-c4c(F)c(F)c(F)c(F)c4F)c4ccc([nH]4)c(-c4c(F)c(F)c(F)c(F)c4F)c4nc(c(-c5c(F)c(F)c(F)c(F)c5F)c5ccc2[nH]5)C=C4)C=C3)cc1
REMARK SMILES IDX 26 1 2 2 1 3 3 4 4 5 5 6 6 7 25 8 7 10 24 11 8 12 9 13 10 14
REMARK SMILES IDX 13 15 11 16 12 17 14 18 15 19 16 21 17 22 18 23 22 24 19 25
REMARK SMILES IDX 21 26 23 27 20 28 27 29 28 30 29 31 30 32 31 33 32 34 33 35
REMARK SMILES IDX 94 36 34 37 93 38 35 39 36 40 37 41 87 42 38 43 92 44 86 45
REMARK SMILES IDX 88 46 39 47 91 48 85 49 84 50 40 52 72 53 52 54 71 55 53 56
REMARK SMILES IDX 56 57 70 58 89 59 54 60 55 61 69 63 90 64 57 65 41 66 42 67
REMARK SMILES IDX 50 68 43 69 44 70 48 71 51 72 45 73 46 74 49 75 47 76 73 77
REMARK SMILES IDX 74 78 82 79 75 80 76 81 80 82 83 83 77 84 78 85 81 86 79 87
REMARK SMILES IDX 58 88 59 89 67 90 60 91 61 92 65 93 68 94 62 95 63 96 66 97
REMARK SMILES IDX 64 98
REMARK H PARENT 5 9 14 20 88 51 56 62
REMARK Flexibility Score: inf
ROOT
ATOM      1  O   UNL A   1      35.409  33.948  29.432  1.00  0.00    -0.462 OA
ENDROOT
BRANCH   1   2
ATOM      2  C   UNL A   1      35.081  33.446  28.209  1.00  0.00     0.311 C 
ATOM      3  O   UNL A   1      34.203  33.962  27.529  1.00  0.00    -0.252 OA
BRANCH   2   4
ATOM      4  C   UNL A   1      35.734  32.142  27.807  1.00  0.00     0.184 C 
BRANCH   4   5
ATOM      5  C   UNL A   1      34.893  30.875  28.022  1.00  0.00     0.274 C 
BRANCH   5   6
ATOM      6  N   UNL A   1      34.077  30.385  26.893  1.00  0.00    -0.334 N 
ATOM      7  C   UNL A   1      34.416  29.023  26.511  1.00  0.00     0.264 C 
ATOM      8  C   UNL A   1      32.687  30.792  26.933  1.00  0.00     0.264 C 
ATOM      9  H   UNL A   1      34.353  30.898  26.055  1.00  0.00     0.348 HD
ATOM     10  C   UNL A   1      33.498  28.457  25.442  1.00  0.00     0.089 C 
ATOM     11  C   UNL A   1      31.663  29.951  26.175  1.00  0.00     0.089 C 
ATOM     12  C   UNL A   1      32.042  28.487  25.927  1.00  0.00     0.121 C 
BRANCH  12  13
ATOM     13  N   UNL A   1      31.147  27.768  25.018  1.00  0.00    -0.246 N 
ATOM     14  N   UNL A   1      31.014  28.258  23.766  1.00  0.00    -0.179 NA
ATOM     15  C   UNL A   1      30.432  26.594  25.196  1.00  0.00     0.131 A 
ATOM     16  C   UNL A   1      29.974  27.596  23.273  1.00  0.00     0.137 A 
ATOM     17  C   UNL A   1      29.520  26.606  24.161  1.00  0.00     0.069 A 
BRANCH  15  18
ATOM     18  N   UNL A   1      30.609  25.658  26.208  1.00  0.00    -0.307 N 
ATOM     19  C   UNL A   1      31.584  24.633  26.372  1.00  0.00     0.258 C 
ATOM     20  H   UNL A   1      29.949  25.714  26.936  1.00  0.00     0.171 HD
ATOM     21  O   UNL A   1      31.397  23.879  27.313  1.00  0.00    -0.269 OA
BRANCH  19  22
ATOM     22  C   UNL A   1      32.699  24.463  25.455  1.00  0.00     0.058 A 
ATOM     23  C   UNL A   1      33.957  24.905  25.875  1.00  0.00     0.015 A 
ATOM     24  C   UNL A   1      32.524  23.810  24.233  1.00  0.00     0.053 A 
ATOM     25  C   UNL A   1      35.071  24.603  25.098  1.00  0.00     0.001 A 
ATOM     26  C   UNL A   1      33.647  23.495  23.472  1.00  0.00     0.021 A 
ATOM     27  Cl  UNL A   1      30.972  23.309  23.670  1.00  0.00    -0.083 Cl
ATOM     28  C   UNL A   1      34.918  23.877  23.914  1.00  0.00     0.002 A 
ENDBRANCH  19  22
ENDBRANCH  15  18
ENDBRANCH  12  13
ENDBRANCH   5   6
ENDBRANCH   4   5
ENDBRANCH   2   4
ENDBRANCH   1   2
BRANCH   1  29
ATOM     29  C   UNL A   1      34.382  34.177  30.412  1.00  0.00     0.274 C 
BRANCH  29  30
ATOM     30  C   UNL A   1      34.644  33.544  31.773  1.00  0.00     0.275 C 
BRANCH  30  31
ATOM     31  O   UNL A   1      34.897  32.162  31.591  1.00  0.00    -0.458 OA
BRANCH  31  32
ATOM     32  C   UNL A   1      36.036  31.741  32.198  1.00  0.00     0.338 C 
ATOM     33  O   UNL A   1      36.349  31.877  33.360  1.00  0.00    -0.246 OA
BRANCH  32  34
ATOM     34  C   UNL A   1      36.909  31.199  31.154  1.00  0.00     0.060 A 
ATOM     35  C   UNL A   1      36.743  29.842  30.913  1.00  0.00     0.016 A 
ATOM     36  C   UNL A   1      38.045  31.917  30.740  1.00  0.00     0.016 A 
ATOM     37  C   UNL A   1      37.864  29.135  30.582  1.00  0.00     0.010 A 
ATOM     38  C   UNL A   1      39.162  31.211  30.396  1.00  0.00     0.010 A 
ATOM     39  C   UNL A   1      39.075  29.828  30.457  1.00  0.00    -0.014 A 
BRANCH  39  40
ATOM     40  C   UNL A   1      40.268  29.032  30.373  1.00  0.00     0.031 A 
ATOM     41  C   UNL A   1      40.925  28.888  31.683  1.00  0.00     0.074 A 
ATOM     42  C   UNL A   1      40.676  28.503  29.207  1.00  0.00     0.049 A 
ATOM     43  N   UNL A   1      42.066  29.362  32.048  1.00  0.00    -0.248 NA
ATOM     44  C   UNL A   1      40.114  28.330  32.777  1.00  0.00     0.031 C 
ATOM     45  C   UNL A   1      39.963  28.410  27.930  1.00  0.00     0.029 A 
ATOM     46  N   UNL A   1      41.834  27.844  28.958  1.00  0.00    -0.354 N 
ATOM     47  C   UNL A   1      42.204  28.995  33.380  1.00  0.00     0.074 A 
ATOM     48  C   UNL A   1      40.914  28.537  33.822  1.00  0.00     0.031 C 
ATOM     49  C   UNL A   1      40.608  27.536  27.124  1.00  0.00     0.029 A 
ATOM     50  C   UNL A   1      41.838  27.122  27.776  1.00  0.00     0.049 A 
ATOM     51  H   UNL A   1      42.607  27.878  29.566  1.00  0.00     0.167 HD
ATOM     52  C   UNL A   1      43.435  28.837  33.926  1.00  0.00     0.037 A 
ATOM     53  C   UNL A   1      42.750  26.173  27.458  1.00  0.00     0.037 A 
ATOM     54  C   UNL A   1      44.427  29.591  33.202  1.00  0.00     0.049 A 
ATOM     55  C   UNL A   1      43.950  26.416  28.310  1.00  0.00     0.074 A 
ATOM     56  C   UNL A   1      44.610  30.936  32.945  1.00  0.00     0.029 A 
ATOM     57  N   UNL A   1      45.213  28.930  32.288  1.00  0.00    -0.354 N 
ATOM     58  N   UNL A   1      44.712  27.470  28.191  1.00  0.00    -0.248 NA
ATOM     59  C   UNL A   1      44.005  25.751  29.605  1.00  0.00     0.031 C 
ATOM     60  C   UNL A   1      45.103  30.997  31.608  1.00  0.00     0.029 A 
ATOM     61  C   UNL A   1      45.242  29.688  31.145  1.00  0.00     0.049 A 
ATOM     62  H   UNL A   1      45.671  28.071  32.428  1.00  0.00     0.167 HD
ATOM     63  C   UNL A   1      45.026  27.836  29.494  1.00  0.00     0.074 A 
ATOM     64  C   UNL A   1      44.612  26.703  30.319  1.00  0.00     0.031 C 
ATOM     65  C   UNL A   1      45.320  29.130  29.815  1.00  0.00     0.037 A 
BRANCH  52  66
ATOM     66  C   UNL A   1      43.773  27.682  34.835  1.00  0.00     0.064 A 
ATOM     67  C   UNL A   1      44.329  27.957  36.097  1.00  0.00     0.173 A 
ATOM     68  C   UNL A   1      43.865  26.337  34.407  1.00  0.00     0.173 A 
ATOM     69  F   UNL A   1      44.305  29.201  36.597  1.00  0.00    -0.203 F 
ATOM     70  C   UNL A   1      45.010  26.979  36.827  1.00  0.00     0.198 A 
ATOM     71  C   UNL A   1      44.497  25.355  35.162  1.00  0.00     0.198 A 
ATOM     72  F   UNL A   1      43.453  25.931  33.201  1.00  0.00    -0.203 F 
ATOM     73  F   UNL A   1      45.641  27.318  37.958  1.00  0.00    -0.200 F 
ATOM     74  C   UNL A   1      45.103  25.683  36.353  1.00  0.00     0.200 A 
ATOM     75  F   UNL A   1      44.589  24.110  34.674  1.00  0.00    -0.200 F 
ATOM     76  F   UNL A   1      45.817  24.765  37.014  1.00  0.00    -0.200 F 
ENDBRANCH  52  66
BRANCH  53  77
ATOM     77  C   UNL A   1      42.475  24.872  26.802  1.00  0.00     0.064 A 
ATOM     78  C   UNL A   1      43.179  24.472  25.656  1.00  0.00     0.173 A 
ATOM     79  C   UNL A   1      41.700  23.880  27.438  1.00  0.00     0.173 A 
ATOM     80  F   UNL A   1      43.980  25.341  25.022  1.00  0.00    -0.203 F 
ATOM     81  C   UNL A   1      43.119  23.157  25.182  1.00  0.00     0.198 A 
ATOM     82  C   UNL A   1      41.635  22.571  26.960  1.00  0.00     0.198 A 
ATOM     83  F   UNL A   1      41.061  24.134  28.589  1.00  0.00    -0.203 F 
ATOM     84  F   UNL A   1      43.845  22.797  24.114  1.00  0.00    -0.200 F 
ATOM     85  C   UNL A   1      42.354  22.206  25.837  1.00  0.00     0.200 A 
ATOM     86  F   UNL A   1      40.919  21.656  27.627  1.00  0.00    -0.200 F 
ATOM     87  F   UNL A   1      42.337  20.935  25.416  1.00  0.00    -0.200 F 
ENDBRANCH  53  77
BRANCH  65  88
ATOM     88  C   UNL A   1      45.502  30.103  28.683  1.00  0.00     0.064 A 
ATOM     89  C   UNL A   1      44.450  30.840  28.112  1.00  0.00     0.173 A 
ATOM     90  C   UNL A   1      46.804  30.414  28.268  1.00  0.00     0.173 A 
ATOM     91  F   UNL A   1      43.189  30.675  28.532  1.00  0.00    -0.203 F 
ATOM     92  C   UNL A   1      44.687  31.811  27.140  1.00  0.00     0.198 A 
ATOM     93  C   UNL A   1      47.042  31.409  27.323  1.00  0.00     0.198 A 
ATOM     94  F   UNL A   1      47.852  29.787  28.823  1.00  0.00    -0.203 F 
ATOM     95  F   UNL A   1      43.662  32.493  26.607  1.00  0.00    -0.200 F 
ATOM     96  C   UNL A   1      45.984  32.099  26.752  1.00  0.00     0.200 A 
ATOM     97  F   UNL A   1      48.302  31.721  26.989  1.00  0.00    -0.200 F 
ATOM     98  F   UNL A   1      46.218  33.063  25.850  1.00  0.00    -0.200 F 
ENDBRANCH  65  88
ENDBRANCH  39  40
ENDBRANCH  32  34
ENDBRANCH  31  32
ENDBRANCH  30  31
ENDBRANCH  29  30
ENDBRANCH   1  29
TORSDOF 16
ENDMDL
