MODEL 1
REMARK VINA RESULT:     -11.1      0.000      0.000
REMARK SMILES CCC[C@@H]1SC[C@H](C(=O)OCCOC(=O)c2ccc(-c3c4nc(c(-c5c(F)c(F)c(F)c(F)c5F)c5ccc([nH]5)c(-c5c(F)c(F)c(F)c(F)c5F)c5nc(c(-c6c(F)c(F)c(F)c(F)c6F)c6ccc3[nH]6)C=C5)C=C4)cc2)N1C(=O)C[NH+]1CCC([NH3+])CC1
REMARK SMILES IDX 11 1 10 2 8 3 9 4 7 5 4 6 5 7 79 8 6 9 3 10 2 11 1 12 80 13
REMARK SMILES IDX 81 14 82 15 83 16 84 17 89 18 85 20 88 21 86 22 87 23 12 27
REMARK SMILES IDX 13 28 14 29 15 30 16 31 17 32 78 33 18 34 77 35 19 36 20 37
REMARK SMILES IDX 21 38 71 39 22 40 76 41 70 42 72 43 23 44 75 45 69 46 68 47
REMARK SMILES IDX 24 49 56 50 36 51 55 52 37 53 40 54 54 55 73 56 38 57 39 58
REMARK SMILES IDX 53 60 74 61 41 62 25 63 26 64 34 65 27 66 28 67 32 68 35 69
REMARK SMILES IDX 29 70 30 71 33 72 31 73 57 74 58 75 66 76 59 77 60 78 64 79
REMARK SMILES IDX 67 80 61 81 62 82 65 83 63 84 42 85 43 86 51 87 44 88 45 89
REMARK SMILES IDX 49 90 52 91 46 92 47 93 50 94 48 95
REMARK H PARENT 83 19 87 24 87 25 87 26 72 48 40 59
REMARK Flexibility Score: inf
ROOT
ATOM      1  C   UNL A   1      35.725  20.265  24.985  1.00  0.00     0.274 C 
ENDROOT
BRANCH   1   2
ATOM      2  O   UNL A   1      35.257  21.452  24.310  1.00  0.00    -0.461 OA
BRANCH   2   3
ATOM      3  C   UNL A   1      34.494  22.339  25.020  1.00  0.00     0.329 C 
ATOM      4  O   UNL A   1      34.877  22.996  25.978  1.00  0.00    -0.250 OA
BRANCH   3   5
ATOM      5  C   UNL A   1      33.065  22.344  24.442  1.00  0.00     0.206 C 
ATOM      6  C   UNL A   1      31.088  23.829  24.533  1.00  0.00     0.144 C 
ATOM      7  S   UNL A   1      30.837  22.589  25.873  1.00  0.00    -0.134 SA
ATOM      8  N   UNL A   1      32.507  23.696  24.195  1.00  0.00    -0.311 N 
ATOM      9  C   UNL A   1      32.156  21.504  25.318  1.00  0.00     0.109 C 
BRANCH   6  10
ATOM     10  C   UNL A   1      30.519  25.165  25.059  1.00  0.00     0.036 C 
BRANCH  10  11
ATOM     11  C   UNL A   1      31.195  25.834  26.273  1.00  0.00    -0.000 C 
ATOM     12  C   UNL A   1      31.346  27.349  26.236  1.00  0.00     0.004 C 
ENDBRANCH  10  11
ENDBRANCH   6  10
BRANCH   8  13
ATOM     13  C   UNL A   1      33.204  24.395  23.231  1.00  0.00     0.279 C 
ATOM     14  O   UNL A   1      33.472  23.837  22.159  1.00  0.00    -0.268 OA
BRANCH  13  15
ATOM     15  C   UNL A   1      33.621  25.845  23.403  1.00  0.00     0.363 C 
BRANCH  15  16
ATOM     16  N   UNL A   1      33.326  26.671  22.222  1.00  0.00    -0.327 N 
ATOM     17  C   UNL A   1      31.906  26.562  21.833  1.00  0.00     0.268 C 
ATOM     18  C   UNL A   1      33.764  28.072  22.296  1.00  0.00     0.268 C 
ATOM     19  H   UNL A   1      33.906  26.274  21.483  1.00  0.00     0.348 HD
ATOM     20  C   UNL A   1      30.951  27.487  22.603  1.00  0.00     0.126 C 
ATOM     21  C   UNL A   1      32.874  28.962  23.149  1.00  0.00     0.126 C 
ATOM     22  C   UNL A   1      31.467  28.927  22.565  1.00  0.00     0.192 C 
BRANCH  22  23
ATOM     23  N   UNL A   1      30.612  29.851  23.300  1.00  0.00    -0.355 N 
ATOM     24  H   UNL A   1      30.524  29.536  24.266  1.00  0.00     0.344 HD
ATOM     25  H   UNL A   1      29.689  29.877  22.867  1.00  0.00     0.344 HD
ATOM     26  H   UNL A   1      31.024  30.783  23.282  1.00  0.00     0.344 HD
ENDBRANCH  22  23
ENDBRANCH  15  16
ENDBRANCH  13  15
ENDBRANCH   8  13
ENDBRANCH   3   5
ENDBRANCH   2   3
ENDBRANCH   1   2
BRANCH   1  27
ATOM     27  C   UNL A   1      37.254  20.208  24.903  1.00  0.00     0.275 C 
BRANCH  27  28
ATOM     28  O   UNL A   1      37.798  21.251  25.731  1.00  0.00    -0.458 OA
BRANCH  28  29
ATOM     29  C   UNL A   1      39.093  21.122  26.107  1.00  0.00     0.338 C 
ATOM     30  O   UNL A   1      39.760  20.093  26.066  1.00  0.00    -0.246 OA
BRANCH  29  31
ATOM     31  C   UNL A   1      39.620  22.428  26.586  1.00  0.00     0.060 A 
ATOM     32  C   UNL A   1      39.069  23.614  26.132  1.00  0.00     0.016 A 
ATOM     33  C   UNL A   1      40.722  22.503  27.441  1.00  0.00     0.016 A 
ATOM     34  C   UNL A   1      39.713  24.828  26.378  1.00  0.00     0.010 A 
ATOM     35  C   UNL A   1      41.255  23.758  27.824  1.00  0.00     0.010 A 
ATOM     36  C   UNL A   1      40.815  24.958  27.244  1.00  0.00    -0.014 A 
BRANCH  36  37
ATOM     37  C   UNL A   1      41.455  26.327  27.444  1.00  0.00     0.031 A 
ATOM     38  C   UNL A   1      40.777  27.454  28.221  1.00  0.00     0.074 A 
ATOM     39  C   UNL A   1      42.740  26.550  27.068  1.00  0.00     0.049 A 
ATOM     40  N   UNL A   1      41.302  28.582  28.659  1.00  0.00    -0.248 NA
ATOM     41  C   UNL A   1      39.362  27.307  28.590  1.00  0.00     0.031 C 
ATOM     42  C   UNL A   1      43.583  25.619  26.314  1.00  0.00     0.029 A 
ATOM     43  N   UNL A   1      43.593  27.612  27.310  1.00  0.00    -0.354 N 
ATOM     44  C   UNL A   1      40.314  29.218  29.402  1.00  0.00     0.074 A 
ATOM     45  C   UNL A   1      39.132  28.396  29.310  1.00  0.00     0.031 C 
ATOM     46  C   UNL A   1      44.840  26.074  26.279  1.00  0.00     0.029 A 
ATOM     47  C   UNL A   1      44.872  27.421  26.834  1.00  0.00     0.049 A 
ATOM     48  H   UNL A   1      43.312  28.430  27.779  1.00  0.00     0.167 HD
ATOM     49  C   UNL A   1      40.366  30.364  30.124  1.00  0.00     0.037 A 
ATOM     50  C   UNL A   1      45.944  28.239  26.760  1.00  0.00     0.037 A 
ATOM     51  C   UNL A   1      41.454  31.301  30.127  1.00  0.00     0.049 A 
ATOM     52  C   UNL A   1      45.831  29.656  27.242  1.00  0.00     0.074 A 
ATOM     53  C   UNL A   1      41.547  32.518  30.781  1.00  0.00     0.029 A 
ATOM     54  N   UNL A   1      42.609  31.163  29.380  1.00  0.00    -0.354 N 
ATOM     55  N   UNL A   1      44.908  30.202  27.991  1.00  0.00    -0.248 NA
ATOM     56  C   UNL A   1      46.882  30.590  26.808  1.00  0.00     0.031 C 
ATOM     57  C   UNL A   1      42.713  33.163  30.349  1.00  0.00     0.029 A 
ATOM     58  C   UNL A   1      43.368  32.319  29.469  1.00  0.00     0.049 A 
ATOM     59  H   UNL A   1      42.854  30.362  28.863  1.00  0.00     0.167 HD
ATOM     60  C   UNL A   1      45.251  31.544  28.094  1.00  0.00     0.074 A 
ATOM     61  C   UNL A   1      46.491  31.723  27.373  1.00  0.00     0.031 C 
ATOM     62  C   UNL A   1      44.574  32.535  28.719  1.00  0.00     0.037 A 
BRANCH  49  63
ATOM     63  C   UNL A   1      39.174  30.709  30.963  1.00  0.00     0.064 A 
ATOM     64  C   UNL A   1      39.119  30.338  32.315  1.00  0.00     0.173 A 
ATOM     65  C   UNL A   1      38.127  31.479  30.442  1.00  0.00     0.173 A 
ATOM     66  F   UNL A   1      40.102  29.598  32.851  1.00  0.00    -0.203 F 
ATOM     67  C   UNL A   1      38.054  30.734  33.118  1.00  0.00     0.198 A 
ATOM     68  C   UNL A   1      37.065  31.875  31.249  1.00  0.00     0.198 A 
ATOM     69  F   UNL A   1      38.144  31.855  29.155  1.00  0.00    -0.203 F 
ATOM     70  F   UNL A   1      38.019  30.377  34.409  1.00  0.00    -0.200 F 
ATOM     71  C   UNL A   1      37.030  31.505  32.586  1.00  0.00     0.200 A 
ATOM     72  F   UNL A   1      36.078  32.622  30.735  1.00  0.00    -0.200 F 
ATOM     73  F   UNL A   1      36.009  31.894  33.363  1.00  0.00    -0.200 F 
ENDBRANCH  49  63
BRANCH  50  74
ATOM     74  C   UNL A   1      47.177  27.794  26.047  1.00  0.00     0.064 A 
ATOM     75  C   UNL A   1      48.338  27.423  26.740  1.00  0.00     0.173 A 
ATOM     76  C   UNL A   1      47.227  27.775  24.642  1.00  0.00     0.173 A 
ATOM     77  F   UNL A   1      48.365  27.475  28.079  1.00  0.00    -0.203 F 
ATOM     78  C   UNL A   1      49.491  27.039  26.054  1.00  0.00     0.198 A 
ATOM     79  C   UNL A   1      48.362  27.348  23.961  1.00  0.00     0.198 A 
ATOM     80  F   UNL A   1      46.160  28.160  23.926  1.00  0.00    -0.203 F 
ATOM     81  F   UNL A   1      50.604  26.737  26.736  1.00  0.00    -0.200 F 
ATOM     82  C   UNL A   1      49.497  26.987  24.667  1.00  0.00     0.200 A 
ATOM     83  F   UNL A   1      48.352  27.289  22.623  1.00  0.00    -0.200 F 
ATOM     84  F   UNL A   1      50.599  26.604  24.010  1.00  0.00    -0.200 F 
ENDBRANCH  50  74
BRANCH  62  85
ATOM     85  C   UNL A   1      45.118  33.928  28.607  1.00  0.00     0.064 A 
ATOM     86  C   UNL A   1      44.601  34.827  27.663  1.00  0.00     0.173 A 
ATOM     87  C   UNL A   1      46.137  34.382  29.455  1.00  0.00     0.173 A 
ATOM     88  F   UNL A   1      43.637  34.436  26.816  1.00  0.00    -0.203 F 
ATOM     89  C   UNL A   1      45.098  36.124  27.558  1.00  0.00     0.198 A 
ATOM     90  C   UNL A   1      46.615  35.687  29.366  1.00  0.00     0.198 A 
ATOM     91  F   UNL A   1      46.667  33.563  30.376  1.00  0.00    -0.203 F 
ATOM     92  F   UNL A   1      44.618  36.949  26.618  1.00  0.00    -0.200 F 
ATOM     93  C   UNL A   1      46.100  36.554  28.413  1.00  0.00     0.200 A 
ATOM     94  F   UNL A   1      47.576  36.106  30.201  1.00  0.00    -0.200 F 
ATOM     95  F   UNL A   1      46.576  37.803  28.315  1.00  0.00    -0.200 F 
ENDBRANCH  62  85
ENDBRANCH  36  37
ENDBRANCH  29  31
ENDBRANCH  28  29
ENDBRANCH  27  28
ENDBRANCH   1  27
TORSDOF 17
ENDMDL
MODEL 2
REMARK VINA RESULT:     -11.1      4.461      9.825
REMARK SMILES CCC[C@@H]1SC[C@H](C(=O)OCCOC(=O)c2ccc(-c3c4nc(c(-c5c(F)c(F)c(F)c(F)c5F)c5ccc([nH]5)c(-c5c(F)c(F)c(F)c(F)c5F)c5nc(c(-c6c(F)c(F)c(F)c(F)c6F)c6ccc3[nH]6)C=C5)C=C4)cc2)N1C(=O)C[NH+]1CCC([NH3+])CC1
REMARK SMILES IDX 11 1 10 2 8 3 9 4 7 5 4 6 5 7 79 8 6 9 3 10 2 11 1 12 80 13
REMARK SMILES IDX 81 14 82 15 83 16 84 17 89 18 85 20 88 21 86 22 87 23 12 27
REMARK SMILES IDX 13 28 14 29 15 30 16 31 17 32 78 33 18 34 77 35 19 36 20 37
REMARK SMILES IDX 21 38 71 39 22 40 76 41 70 42 72 43 23 44 75 45 69 46 68 47
REMARK SMILES IDX 24 49 56 50 36 51 55 52 37 53 40 54 54 55 73 56 38 57 39 58
REMARK SMILES IDX 53 60 74 61 41 62 25 63 26 64 34 65 27 66 28 67 32 68 35 69
REMARK SMILES IDX 29 70 30 71 33 72 31 73 57 74 58 75 66 76 59 77 60 78 64 79
REMARK SMILES IDX 67 80 61 81 62 82 65 83 63 84 42 85 43 86 51 87 44 88 45 89
REMARK SMILES IDX 49 90 52 91 46 92 47 93 50 94 48 95
REMARK H PARENT 83 19 87 24 87 25 87 26 72 48 40 59
REMARK Flexibility Score: inf
ROOT
ATOM      1  C   UNL A   1      31.664  28.525  26.945  1.00  0.00     0.274 C 
ENDROOT
BRANCH   1   2
ATOM      2  O   UNL A   1      31.811  27.470  25.973  1.00  0.00    -0.461 OA
BRANCH   2   3
ATOM      3  C   UNL A   1      30.795  26.562  25.849  1.00  0.00     0.329 C 
ATOM      4  O   UNL A   1      30.203  26.027  26.777  1.00  0.00    -0.250 OA
BRANCH   3   5
ATOM      5  C   UNL A   1      30.545  26.291  24.351  1.00  0.00     0.206 C 
ATOM      6  C   UNL A   1      31.824  26.496  22.244  1.00  0.00     0.144 C 
ATOM      7  S   UNL A   1      30.873  28.067  22.400  1.00  0.00    -0.134 SA
ATOM      8  N   UNL A   1      31.757  25.912  23.586  1.00  0.00    -0.311 N 
ATOM      9  C   UNL A   1      29.825  27.473  23.732  1.00  0.00     0.109 C 
BRANCH   6  10
ATOM     10  C   UNL A   1      33.181  26.865  21.605  1.00  0.00     0.036 C 
BRANCH  10  11
ATOM     11  C   UNL A   1      33.893  28.154  22.068  1.00  0.00    -0.000 C 
ATOM     12  C   UNL A   1      34.167  28.298  23.559  1.00  0.00     0.004 C 
ENDBRANCH  10  11
ENDBRANCH   6  10
BRANCH   8  13
ATOM     13  C   UNL A   1      32.301  24.714  24.002  1.00  0.00     0.279 C 
ATOM     14  O   UNL A   1      31.626  23.682  23.908  1.00  0.00    -0.268 OA
BRANCH  13  15
ATOM     15  C   UNL A   1      33.720  24.592  24.530  1.00  0.00     0.363 C 
BRANCH  15  16
ATOM     16  N   UNL A   1      34.035  23.242  25.023  1.00  0.00    -0.327 N 
ATOM     17  C   UNL A   1      34.684  22.428  23.976  1.00  0.00     0.268 C 
ATOM     18  C   UNL A   1      34.769  23.181  26.294  1.00  0.00     0.268 C 
ATOM     19  H   UNL A   1      33.127  22.836  25.248  1.00  0.00     0.348 HD
ATOM     20  C   UNL A   1      36.201  22.633  23.845  1.00  0.00     0.126 C 
ATOM     21  C   UNL A   1      36.254  23.491  26.176  1.00  0.00     0.126 C 
ATOM     22  C   UNL A   1      36.873  22.487  25.211  1.00  0.00     0.192 C 
BRANCH  22  23
ATOM     23  N   UNL A   1      38.315  22.693  25.154  1.00  0.00    -0.355 N 
ATOM     24  H   UNL A   1      38.653  22.470  24.218  1.00  0.00     0.344 HD
ATOM     25  H   UNL A   1      38.772  22.086  25.834  1.00  0.00     0.344 HD
ATOM     26  H   UNL A   1      38.528  23.667  25.370  1.00  0.00     0.344 HD
ENDBRANCH  22  23
ENDBRANCH  15  16
ENDBRANCH  13  15
ENDBRANCH   8  13
ENDBRANCH   3   5
ENDBRANCH   2   3
ENDBRANCH   1   2
BRANCH   1  27
ATOM     27  C   UNL A   1      31.590  29.872  26.220  1.00  0.00     0.275 C 
BRANCH  27  28
ATOM     28  O   UNL A   1      32.921  30.409  26.110  1.00  0.00    -0.458 OA
BRANCH  28  29
ATOM     29  C   UNL A   1      33.284  31.339  27.025  1.00  0.00     0.338 C 
ATOM     30  O   UNL A   1      32.653  32.351  27.319  1.00  0.00    -0.246 OA
BRANCH  29  31
ATOM     31  C   UNL A   1      34.580  30.965  27.651  1.00  0.00     0.060 A 
ATOM     32  C   UNL A   1      34.911  29.633  27.833  1.00  0.00     0.016 A 
ATOM     33  C   UNL A   1      35.465  31.931  28.136  1.00  0.00     0.016 A 
ATOM     34  C   UNL A   1      35.997  29.282  28.638  1.00  0.00     0.010 A 
ATOM     35  C   UNL A   1      36.658  31.551  28.798  1.00  0.00     0.010 A 
ATOM     36  C   UNL A   1      36.924  30.215  29.136  1.00  0.00    -0.014 A 
BRANCH  36  37
ATOM     37  C   UNL A   1      38.076  29.735  30.010  1.00  0.00     0.031 A 
ATOM     38  C   UNL A   1      39.151  28.771  29.511  1.00  0.00     0.074 A 
ATOM     39  C   UNL A   1      38.283  30.276  31.239  1.00  0.00     0.049 A 
ATOM     40  N   UNL A   1      40.304  28.463  30.074  1.00  0.00    -0.248 NA
ATOM     41  C   UNL A   1      38.949  28.091  28.224  1.00  0.00     0.031 C 
ATOM     42  C   UNL A   1      37.389  31.216  31.919  1.00  0.00     0.029 A 
ATOM     43  N   UNL A   1      39.340  30.159  32.124  1.00  0.00    -0.354 N 
ATOM     44  C   UNL A   1      40.972  27.632  29.180  1.00  0.00     0.074 A 
ATOM     45  C   UNL A   1      40.082  27.421  28.066  1.00  0.00     0.031 C 
ATOM     46  C   UNL A   1      37.984  31.689  33.020  1.00  0.00     0.029 A 
ATOM     47  C   UNL A   1      39.221  30.952  33.244  1.00  0.00     0.049 A 
ATOM     48  H   UNL A   1      40.107  29.563  31.968  1.00  0.00     0.167 HD
ATOM     49  C   UNL A   1      42.218  27.102  29.246  1.00  0.00     0.037 A 
ATOM     50  C   UNL A   1      39.954  31.041  34.375  1.00  0.00     0.037 A 
ATOM     51  C   UNL A   1      43.085  27.145  30.390  1.00  0.00     0.049 A 
ATOM     52  C   UNL A   1      41.139  30.140  34.564  1.00  0.00     0.074 A 
ATOM     53  C   UNL A   1      44.335  26.570  30.550  1.00  0.00     0.029 A 
ATOM     54  N   UNL A   1      42.761  27.733  31.597  1.00  0.00    -0.354 N 
ATOM     55  N   UNL A   1      41.774  29.415  33.680  1.00  0.00    -0.248 NA
ATOM     56  C   UNL A   1      41.667  30.017  35.932  1.00  0.00     0.031 C 
ATOM     57  C   UNL A   1      44.721  26.723  31.888  1.00  0.00     0.029 A 
ATOM     58  C   UNL A   1      43.734  27.441  32.540  1.00  0.00     0.049 A 
ATOM     59  H   UNL A   1      41.958  28.279  31.762  1.00  0.00     0.167 HD
ATOM     60  C   UNL A   1      42.756  28.732  34.387  1.00  0.00     0.074 A 
ATOM     61  C   UNL A   1      42.666  29.163  35.764  1.00  0.00     0.031 C 
ATOM     62  C   UNL A   1      43.635  27.814  33.923  1.00  0.00     0.037 A 
BRANCH  49  63
ATOM     63  C   UNL A   1      42.726  26.377  28.038  1.00  0.00     0.064 A 
ATOM     64  C   UNL A   1      42.393  25.032  27.819  1.00  0.00     0.173 A 
ATOM     65  C   UNL A   1      43.474  27.044  27.060  1.00  0.00     0.173 A 
ATOM     66  F   UNL A   1      41.680  24.356  28.733  1.00  0.00    -0.203 F 
ATOM     67  C   UNL A   1      42.791  24.382  26.653  1.00  0.00     0.198 A 
ATOM     68  C   UNL A   1      43.867  26.392  25.896  1.00  0.00     0.198 A 
ATOM     69  F   UNL A   1      43.810  28.331  27.232  1.00  0.00    -0.203 F 
ATOM     70  F   UNL A   1      42.460  23.098  26.456  1.00  0.00    -0.200 F 
ATOM     71  C   UNL A   1      43.523  25.063  25.692  1.00  0.00     0.200 A 
ATOM     72  F   UNL A   1      44.572  27.051  24.966  1.00  0.00    -0.200 F 
ATOM     73  F   UNL A   1      43.897  24.439  24.566  1.00  0.00    -0.200 F 
ENDBRANCH  49  63
BRANCH  50  74
ATOM     74  C   UNL A   1      39.491  31.905  35.501  1.00  0.00     0.064 A 
ATOM     75  C   UNL A   1      38.560  31.452  36.445  1.00  0.00     0.173 A 
ATOM     76  C   UNL A   1      39.947  33.229  35.623  1.00  0.00     0.173 A 
ATOM     77  F   UNL A   1      38.049  30.216  36.345  1.00  0.00    -0.203 F 
ATOM     78  C   UNL A   1      38.117  32.286  37.472  1.00  0.00     0.198 A 
ATOM     79  C   UNL A   1      39.540  34.043  36.675  1.00  0.00     0.198 A 
ATOM     80  F   UNL A   1      40.807  33.730  34.724  1.00  0.00    -0.203 F 
ATOM     81  F   UNL A   1      37.189  31.848  38.334  1.00  0.00    -0.200 F 
ATOM     82  C   UNL A   1      38.618  33.573  37.596  1.00  0.00     0.200 A 
ATOM     83  F   UNL A   1      40.041  35.280  36.791  1.00  0.00    -0.200 F 
ATOM     84  F   UNL A   1      38.204  34.368  38.592  1.00  0.00    -0.200 F 
ENDBRANCH  50  74
BRANCH  62  85
ATOM     85  C   UNL A   1      44.541  27.154  34.919  1.00  0.00     0.064 A 
ATOM     86  C   UNL A   1      44.204  25.917  35.487  1.00  0.00     0.173 A 
ATOM     87  C   UNL A   1      45.761  27.735  35.291  1.00  0.00     0.173 A 
ATOM     88  F   UNL A   1      43.039  25.327  35.177  1.00  0.00    -0.203 F 
ATOM     89  C   UNL A   1      45.044  25.296  36.409  1.00  0.00     0.198 A 
ATOM     90  C   UNL A   1      46.613  27.100  36.192  1.00  0.00     0.198 A 
ATOM     91  F   UNL A   1      46.133  28.917  34.776  1.00  0.00    -0.203 F 
ATOM     92  F   UNL A   1      44.677  24.137  36.971  1.00  0.00    -0.200 F 
ATOM     93  C   UNL A   1      46.249  25.885  36.755  1.00  0.00     0.200 A 
ATOM     94  F   UNL A   1      47.783  27.665  36.518  1.00  0.00    -0.200 F 
ATOM     95  F   UNL A   1      47.060  25.285  37.638  1.00  0.00    -0.200 F 
ENDBRANCH  62  85
ENDBRANCH  36  37
ENDBRANCH  29  31
ENDBRANCH  28  29
ENDBRANCH  27  28
ENDBRANCH   1  27
TORSDOF 17
ENDMDL
MODEL 3
REMARK VINA RESULT:     -11.0      4.563      9.663
REMARK SMILES CCC[C@@H]1SC[C@H](C(=O)OCCOC(=O)c2ccc(-c3c4nc(c(-c5c(F)c(F)c(F)c(F)c5F)c5ccc([nH]5)c(-c5c(F)c(F)c(F)c(F)c5F)c5nc(c(-c6c(F)c(F)c(F)c(F)c6F)c6ccc3[nH]6)C=C5)C=C4)cc2)N1C(=O)C[NH+]1CCC([NH3+])CC1
REMARK SMILES IDX 11 1 10 2 8 3 9 4 7 5 4 6 5 7 79 8 6 9 3 10 2 11 1 12 80 13
REMARK SMILES IDX 81 14 82 15 83 16 84 17 89 18 85 20 88 21 86 22 87 23 12 27
REMARK SMILES IDX 13 28 14 29 15 30 16 31 17 32 78 33 18 34 77 35 19 36 20 37
REMARK SMILES IDX 21 38 71 39 22 40 76 41 70 42 72 43 23 44 75 45 69 46 68 47
REMARK SMILES IDX 24 49 56 50 36 51 55 52 37 53 40 54 54 55 73 56 38 57 39 58
REMARK SMILES IDX 53 60 74 61 41 62 25 63 26 64 34 65 27 66 28 67 32 68 35 69
REMARK SMILES IDX 29 70 30 71 33 72 31 73 57 74 58 75 66 76 59 77 60 78 64 79
REMARK SMILES IDX 67 80 61 81 62 82 65 83 63 84 42 85 43 86 51 87 44 88 45 89
REMARK SMILES IDX 49 90 52 91 46 92 47 93 50 94 48 95
REMARK H PARENT 83 19 87 24 87 25 87 26 72 48 40 59
REMARK Flexibility Score: inf
ROOT
ATOM      1  C   UNL A   1      32.084  28.385  27.005  1.00  0.00     0.274 C 
ENDROOT
BRANCH   1   2
ATOM      2  O   UNL A   1      32.903  27.744  26.004  1.00  0.00    -0.461 OA
BRANCH   2   3
ATOM      3  C   UNL A   1      32.794  26.388  25.855  1.00  0.00     0.329 C 
ATOM      4  O   UNL A   1      31.984  25.673  26.430  1.00  0.00    -0.250 OA
BRANCH   3   5
ATOM      5  C   UNL A   1      33.882  25.903  24.876  1.00  0.00     0.206 C 
ATOM      6  C   UNL A   1      34.037  24.290  23.007  1.00  0.00     0.144 C 
ATOM      7  S   UNL A   1      34.585  23.365  24.504  1.00  0.00    -0.134 SA
ATOM      8  N   UNL A   1      33.371  25.475  23.552  1.00  0.00    -0.311 N 
ATOM      9  C   UNL A   1      34.722  24.827  25.537  1.00  0.00     0.109 C 
BRANCH   6  10
ATOM     10  C   UNL A   1      33.270  23.282  22.124  1.00  0.00     0.036 C 
BRANCH  10  11
ATOM     11  C   UNL A   1      32.108  22.482  22.749  1.00  0.00    -0.000 C 
ATOM     12  C   UNL A   1      32.153  20.967  22.607  1.00  0.00     0.004 C 
ENDBRANCH  10  11
ENDBRANCH   6  10
BRANCH   8  13
ATOM     13  C   UNL A   1      32.792  26.507  22.842  1.00  0.00     0.279 C 
ATOM     14  O   UNL A   1      33.522  27.327  22.271  1.00  0.00    -0.268 OA
BRANCH  13  15
ATOM     15  C   UNL A   1      31.290  26.660  22.684  1.00  0.00     0.363 C 
BRANCH  15  16
ATOM     16  N   UNL A   1      30.662  27.355  23.819  1.00  0.00    -0.327 N 
ATOM     17  C   UNL A   1      30.408  28.775  23.502  1.00  0.00     0.268 C 
ATOM     18  C   UNL A   1      29.474  26.704  24.389  1.00  0.00     0.268 C 
ATOM     19  H   UNL A   1      31.353  27.298  24.566  1.00  0.00     0.348 HD
ATOM     20  C   UNL A   1      29.105  29.044  22.735  1.00  0.00     0.126 C 
ATOM     21  C   UNL A   1      28.206  26.884  23.569  1.00  0.00     0.126 C 
ATOM     22  C   UNL A   1      27.926  28.376  23.446  1.00  0.00     0.192 C 
BRANCH  22  23
ATOM     23  N   UNL A   1      26.661  28.579  22.752  1.00  0.00    -0.355 N 
ATOM     24  H   UNL A   1      26.099  27.730  22.815  1.00  0.00     0.344 HD
ATOM     25  H   UNL A   1      26.843  28.793  21.771  1.00  0.00     0.344 HD
ATOM     26  H   UNL A   1      26.157  29.353  23.182  1.00  0.00     0.344 HD
ENDBRANCH  22  23
ENDBRANCH  15  16
ENDBRANCH  13  15
ENDBRANCH   8  13
ENDBRANCH   3   5
ENDBRANCH   2   3
ENDBRANCH   1   2
BRANCH   1  27
ATOM     27  C   UNL A   1      31.777  29.819  26.562  1.00  0.00     0.275 C 
BRANCH  27  28
ATOM     28  O   UNL A   1      33.012  30.462  26.200  1.00  0.00    -0.458 OA
BRANCH  28  29
ATOM     29  C   UNL A   1      33.462  31.435  27.028  1.00  0.00     0.338 C 
ATOM     30  O   UNL A   1      32.911  32.510  27.249  1.00  0.00    -0.246 OA
BRANCH  29  31
ATOM     31  C   UNL A   1      34.744  31.022  27.658  1.00  0.00     0.060 A 
ATOM     32  C   UNL A   1      34.991  29.687  27.932  1.00  0.00     0.016 A 
ATOM     33  C   UNL A   1      35.700  31.959  28.055  1.00  0.00     0.016 A 
ATOM     34  C   UNL A   1      36.069  29.323  28.742  1.00  0.00     0.010 A 
ATOM     35  C   UNL A   1      36.881  31.548  28.723  1.00  0.00     0.010 A 
ATOM     36  C   UNL A   1      37.066  30.226  29.155  1.00  0.00    -0.014 A 
BRANCH  36  37
ATOM     37  C   UNL A   1      38.203  29.734  30.042  1.00  0.00     0.031 A 
ATOM     38  C   UNL A   1      39.279  28.766  29.553  1.00  0.00     0.074 A 
ATOM     39  C   UNL A   1      38.396  30.268  31.276  1.00  0.00     0.049 A 
ATOM     40  N   UNL A   1      40.422  28.448  30.130  1.00  0.00    -0.248 NA
ATOM     41  C   UNL A   1      39.090  28.094  28.260  1.00  0.00     0.031 C 
ATOM     42  C   UNL A   1      37.498  31.210  31.948  1.00  0.00     0.029 A 
ATOM     43  N   UNL A   1      39.439  30.140  32.175  1.00  0.00    -0.354 N 
ATOM     44  C   UNL A   1      41.097  27.618  29.241  1.00  0.00     0.074 A 
ATOM     45  C   UNL A   1      40.220  27.417  28.114  1.00  0.00     0.031 C 
ATOM     46  C   UNL A   1      38.081  31.674  33.059  1.00  0.00     0.029 A 
ATOM     47  C   UNL A   1      39.310  30.929  33.298  1.00  0.00     0.049 A 
ATOM     48  H   UNL A   1      40.205  29.540  32.026  1.00  0.00     0.167 HD
ATOM     49  C   UNL A   1      42.338  27.080  29.322  1.00  0.00     0.037 A 
ATOM     50  C   UNL A   1      40.027  31.007  34.438  1.00  0.00     0.037 A 
ATOM     51  C   UNL A   1      43.189  27.112  30.478  1.00  0.00     0.049 A 
ATOM     52  C   UNL A   1      41.204  30.098  34.640  1.00  0.00     0.074 A 
ATOM     53  C   UNL A   1      44.434  26.527  30.653  1.00  0.00     0.029 A 
ATOM     54  N   UNL A   1      42.852  27.696  31.683  1.00  0.00    -0.354 N 
ATOM     55  N   UNL A   1      41.848  29.374  33.761  1.00  0.00    -0.248 NA
ATOM     56  C   UNL A   1      41.712  29.965  36.015  1.00  0.00     0.031 C 
ATOM     57  C   UNL A   1      44.802  26.672  31.996  1.00  0.00     0.029 A 
ATOM     58  C   UNL A   1      43.811  27.393  32.638  1.00  0.00     0.049 A 
ATOM     59  H   UNL A   1      42.051  28.246  31.840  1.00  0.00     0.167 HD
ATOM     60  C   UNL A   1      42.815  28.681  34.478  1.00  0.00     0.074 A 
ATOM     61  C   UNL A   1      42.709  29.105  35.856  1.00  0.00     0.031 C 
ATOM     62  C   UNL A   1      43.695  27.759  34.022  1.00  0.00     0.037 A 
BRANCH  49  63
ATOM     63  C   UNL A   1      42.859  26.357  28.117  1.00  0.00     0.064 A 
ATOM     64  C   UNL A   1      42.586  24.994  27.928  1.00  0.00     0.173 A 
ATOM     65  C   UNL A   1      43.557  27.041  27.114  1.00  0.00     0.173 A 
ATOM     66  F   UNL A   1      41.922  24.303  28.866  1.00  0.00    -0.203 F 
ATOM     67  C   UNL A   1      42.993  24.342  26.767  1.00  0.00     0.198 A 
ATOM     68  C   UNL A   1      43.959  26.387  25.955  1.00  0.00     0.198 A 
ATOM     69  F   UNL A   1      43.834  28.345  27.257  1.00  0.00    -0.203 F 
ATOM     70  F   UNL A   1      42.720  23.041  26.598  1.00  0.00    -0.200 F 
ATOM     71  C   UNL A   1      43.675  25.040  25.780  1.00  0.00     0.200 A 
ATOM     72  F   UNL A   1      44.615  27.062  25.000  1.00  0.00    -0.200 F 
ATOM     73  F   UNL A   1      44.058  24.414  24.658  1.00  0.00    -0.200 F 
ENDBRANCH  49  63
BRANCH  50  74
ATOM     74  C   UNL A   1      39.554  31.869  35.562  1.00  0.00     0.064 A 
ATOM     75  C   UNL A   1      40.080  33.149  35.783  1.00  0.00     0.173 A 
ATOM     76  C   UNL A   1      38.589  31.399  36.468  1.00  0.00     0.173 A 
ATOM     77  F   UNL A   1      41.044  33.627  34.982  1.00  0.00    -0.203 F 
ATOM     78  C   UNL A   1      39.647  33.927  36.858  1.00  0.00     0.198 A 
ATOM     79  C   UNL A   1      38.124  32.194  37.512  1.00  0.00     0.198 A 
ATOM     80  F   UNL A   1      38.080  30.165  36.331  1.00  0.00    -0.203 F 
ATOM     81  F   UNL A   1      40.199  35.127  37.079  1.00  0.00    -0.200 F 
ATOM     82  C   UNL A   1      38.659  33.455  37.711  1.00  0.00     0.200 A 
ATOM     83  F   UNL A   1      37.161  31.733  38.321  1.00  0.00    -0.200 F 
ATOM     84  F   UNL A   1      38.233  34.208  38.733  1.00  0.00    -0.200 F 
ENDBRANCH  50  74
BRANCH  62  85
ATOM     85  C   UNL A   1      44.583  27.089  35.026  1.00  0.00     0.064 A 
ATOM     86  C   UNL A   1      44.227  25.854  35.588  1.00  0.00     0.173 A 
ATOM     87  C   UNL A   1      45.803  27.658  35.415  1.00  0.00     0.173 A 
ATOM     88  F   UNL A   1      43.061  25.276  35.263  1.00  0.00    -0.203 F 
ATOM     89  C   UNL A   1      45.051  25.223  36.518  1.00  0.00     0.198 A 
ATOM     90  C   UNL A   1      46.638  27.013  36.324  1.00  0.00     0.198 A 
ATOM     91  F   UNL A   1      46.192  28.838  34.907  1.00  0.00    -0.203 F 
ATOM     92  F   UNL A   1      44.667  24.066  37.073  1.00  0.00    -0.200 F 
ATOM     93  C   UNL A   1      46.257  25.801  36.880  1.00  0.00     0.200 A 
ATOM     94  F   UNL A   1      47.809  27.567  36.666  1.00  0.00    -0.200 F 
ATOM     95  F   UNL A   1      47.052  25.191  37.771  1.00  0.00    -0.200 F 
ENDBRANCH  62  85
ENDBRANCH  36  37
ENDBRANCH  29  31
ENDBRANCH  28  29
ENDBRANCH  27  28
ENDBRANCH   1  27
TORSDOF 17
ENDMDL
