MODEL 1
REMARK VINA RESULT:     -13.7      0.000      0.000
REMARK SMILES Cc1cccc2c1[C@H]1c3c(C)cccc3[C@H](CC(=O)OCCOC(=O)c3ccc(-c4c5nc(c(-c6c(F)c(F)c(F)c(F)c6F)c6ccc([nH]6)c(-c6c(F)c(F)c(F)c(F)c6F)c6nc(c(-c7c(F)c(F)c(F)c(F)c7F)c7ccc4[nH]7)C=C6)C=C5)cc3)C[C@H]1CC2
REMARK SMILES IDX 22 1 21 2 20 3 18 4 19 5 17 6 16 7 1 8 2 9 3 10 7 11 4 12
REMARK SMILES IDX 6 13 8 14 5 15 92 16 9 17 90 18 91 19 10 20 15 21 89 22
REMARK SMILES IDX 12 23 11 24 14 25 13 26 23 27 24 28 25 29 26 30 27 31 88 32
REMARK SMILES IDX 28 33 87 34 29 35 30 36 31 37 81 38 32 39 86 40 80 41 82 42
REMARK SMILES IDX 33 43 85 44 79 45 78 46 34 48 66 49 46 50 65 51 47 52 50 53
REMARK SMILES IDX 64 54 83 55 48 56 49 57 63 59 84 60 51 61 35 62 36 63 44 64
REMARK SMILES IDX 37 65 38 66 42 67 45 68 39 69 40 70 43 71 41 72 67 73 68 74
REMARK SMILES IDX 76 75 69 76 70 77 74 78 77 79 71 80 72 81 75 82 73 83 52 84
REMARK SMILES IDX 53 85 61 86 54 87 55 88 59 89 62 90 56 91 57 92 60 93 58 94
REMARK H PARENT 82 47 50 58
REMARK Flexibility Score: inf
ROOT
ATOM      1  C   UNL A   1      31.786  30.447  25.799  1.00  0.00     0.275 C 
ENDROOT
BRANCH   1   2
ATOM      2  C   UNL A   1      31.430  29.218  24.961  1.00  0.00     0.274 C 
BRANCH   2   3
ATOM      3  O   UNL A   1      32.038  28.045  25.533  1.00  0.00    -0.462 OA
BRANCH   3   4
ATOM      4  C   UNL A   1      31.312  27.335  26.429  1.00  0.00     0.306 C 
ATOM      5  O   UNL A   1      31.399  27.454  27.646  1.00  0.00    -0.252 OA
BRANCH   4   6
ATOM      6  C   UNL A   1      30.293  26.413  25.789  1.00  0.00     0.131 C 
BRANCH   6   7
ATOM      7  C   UNL A   1      30.744  24.976  25.448  1.00  0.00     0.031 C 
ATOM      8  C   UNL A   1      36.380  23.708  26.147  1.00  0.00     0.044 C 
ATOM      9  C   UNL A   1      35.718  22.447  25.653  1.00  0.00    -0.047 A 
ATOM     10  C   UNL A   1      36.537  21.340  25.374  1.00  0.00     0.004 A 
ATOM     11  C   UNL A   1      34.317  22.339  25.463  1.00  0.00    -0.034 A 
ATOM     12  C   UNL A   1      35.984  20.118  25.001  1.00  0.00     0.001 A 
ATOM     13  C   UNL A   1      33.761  21.057  25.240  1.00  0.00    -0.044 A 
ATOM     14  C   UNL A   1      33.389  23.550  25.528  1.00  0.00     0.053 C 
ATOM     15  C   UNL A   1      34.603  19.967  24.976  1.00  0.00     0.004 A 
ATOM     16  C   UNL A   1      32.289  20.774  25.433  1.00  0.00     0.036 C 
ATOM     17  C   UNL A   1      32.907  24.210  24.204  1.00  0.00    -0.034 A 
ATOM     18  C   UNL A   1      32.195  23.121  26.410  1.00  0.00     0.002 C 
ATOM     19  C   UNL A   1      31.409  21.983  25.741  1.00  0.00     0.009 C 
ATOM     20  C   UNL A   1      33.645  24.222  22.984  1.00  0.00    -0.047 A 
ATOM     21  C   UNL A   1      31.668  24.928  24.227  1.00  0.00    -0.040 A 
ATOM     22  C   UNL A   1      31.349  24.349  26.711  1.00  0.00     0.013 C 
ATOM     23  C   UNL A   1      33.143  24.906  21.856  1.00  0.00     0.004 A 
ATOM     24  C   UNL A   1      34.964  23.536  22.755  1.00  0.00     0.044 C 
ATOM     25  C   UNL A   1      31.199  25.565  23.057  1.00  0.00     0.004 A 
ATOM     26  C   UNL A   1      31.932  25.569  21.887  1.00  0.00     0.001 A 
ENDBRANCH   6   7
ENDBRANCH   4   6
ENDBRANCH   3   4
ENDBRANCH   2   3
ENDBRANCH   1   2
BRANCH   1  27
ATOM     27  O   UNL A   1      33.147  30.363  26.261  1.00  0.00    -0.458 OA
BRANCH  27  28
ATOM     28  C   UNL A   1      33.513  31.322  27.138  1.00  0.00     0.338 C 
ATOM     29  O   UNL A   1      32.871  32.289  27.515  1.00  0.00    -0.246 OA
BRANCH  28  30
ATOM     30  C   UNL A   1      34.824  30.983  27.697  1.00  0.00     0.060 A 
ATOM     31  C   UNL A   1      35.069  29.656  28.054  1.00  0.00     0.016 A 
ATOM     32  C   UNL A   1      35.749  31.985  27.984  1.00  0.00     0.016 A 
ATOM     33  C   UNL A   1      36.216  29.329  28.765  1.00  0.00     0.010 A 
ATOM     34  C   UNL A   1      36.925  31.648  28.657  1.00  0.00     0.010 A 
ATOM     35  C   UNL A   1      37.148  30.325  29.080  1.00  0.00    -0.014 A 
BRANCH  35  36
ATOM     36  C   UNL A   1      38.322  29.986  29.911  1.00  0.00     0.031 A 
ATOM     37  C   UNL A   1      39.393  29.100  29.349  1.00  0.00     0.074 A 
ATOM     38  C   UNL A   1      38.442  30.508  31.144  1.00  0.00     0.049 A 
ATOM     39  N   UNL A   1      40.449  28.599  29.940  1.00  0.00    -0.248 NA
ATOM     40  C   UNL A   1      39.265  28.730  27.931  1.00  0.00     0.031 C 
ATOM     41  C   UNL A   1      37.498  31.443  31.758  1.00  0.00     0.029 A 
ATOM     42  N   UNL A   1      39.411  30.333  32.097  1.00  0.00    -0.354 N 
ATOM     43  C   UNL A   1      41.097  27.844  28.974  1.00  0.00     0.074 A 
ATOM     44  C   UNL A   1      40.312  27.935  27.761  1.00  0.00     0.031 C 
ATOM     45  C   UNL A   1      37.943  31.770  32.983  1.00  0.00     0.029 A 
ATOM     46  C   UNL A   1      39.167  31.022  33.258  1.00  0.00     0.049 A 
ATOM     47  H   UNL A   1      40.206  29.768  31.961  1.00  0.00     0.167 HD
ATOM     48  C   UNL A   1      42.248  27.142  29.093  1.00  0.00     0.037 A 
ATOM     49  C   UNL A   1      39.840  31.023  34.423  1.00  0.00     0.037 A 
ATOM     50  C   UNL A   1      43.027  27.069  30.299  1.00  0.00     0.049 A 
ATOM     51  C   UNL A   1      41.063  30.160  34.559  1.00  0.00     0.074 A 
ATOM     52  C   UNL A   1      44.201  26.375  30.530  1.00  0.00     0.029 A 
ATOM     53  N   UNL A   1      42.707  27.722  31.481  1.00  0.00    -0.354 N 
ATOM     54  N   UNL A   1      41.644  29.405  33.659  1.00  0.00    -0.248 NA
ATOM     55  C   UNL A   1      41.711  30.133  35.876  1.00  0.00     0.031 C 
ATOM     56  C   UNL A   1      44.574  26.580  31.863  1.00  0.00     0.029 A 
ATOM     57  C   UNL A   1      43.652  27.431  32.451  1.00  0.00     0.049 A 
ATOM     58  H   UNL A   1      41.925  28.304  31.611  1.00  0.00     0.167 HD
ATOM     59  C   UNL A   1      42.727  28.817  34.295  1.00  0.00     0.074 A 
ATOM     60  C   UNL A   1      42.734  29.319  35.655  1.00  0.00     0.031 C 
ATOM     61  C   UNL A   1      43.630  27.936  33.801  1.00  0.00     0.037 A 
BRANCH  48  62
ATOM     62  C   UNL A   1      42.719  26.376  27.893  1.00  0.00     0.064 A 
ATOM     63  C   UNL A   1      43.633  26.925  26.983  1.00  0.00     0.173 A 
ATOM     64  C   UNL A   1      42.273  25.066  27.670  1.00  0.00     0.173 A 
ATOM     65  F   UNL A   1      44.074  28.182  27.145  1.00  0.00    -0.203 F 
ATOM     66  C   UNL A   1      44.073  26.193  25.883  1.00  0.00     0.198 A 
ATOM     67  C   UNL A   1      42.732  24.329  26.581  1.00  0.00     0.198 A 
ATOM     68  F   UNL A   1      41.398  24.495  28.511  1.00  0.00    -0.203 F 
ATOM     69  F   UNL A   1      44.921  26.749  25.006  1.00  0.00    -0.200 F 
ATOM     70  C   UNL A   1      43.628  24.894  25.686  1.00  0.00     0.200 A 
ATOM     71  F   UNL A   1      42.306  23.072  26.396  1.00  0.00    -0.200 F 
ATOM     72  F   UNL A   1      44.058  24.190  24.630  1.00  0.00    -0.200 F 
ENDBRANCH  48  62
BRANCH  49  73
ATOM     73  C   UNL A   1      39.349  31.849  35.555  1.00  0.00     0.064 A 
ATOM     74  C   UNL A   1      39.773  33.174  35.714  1.00  0.00     0.173 A 
ATOM     75  C   UNL A   1      38.428  31.338  36.483  1.00  0.00     0.173 A 
ATOM     76  F   UNL A   1      40.671  33.695  34.866  1.00  0.00    -0.203 F 
ATOM     77  C   UNL A   1      39.293  33.959  36.761  1.00  0.00     0.198 A 
ATOM     78  C   UNL A   1      37.932  32.132  37.513  1.00  0.00     0.198 A 
ATOM     79  F   UNL A   1      37.994  30.074  36.372  1.00  0.00    -0.203 F 
ATOM     80  F   UNL A   1      39.734  35.215  36.907  1.00  0.00    -0.200 F 
ATOM     81  C   UNL A   1      38.367  33.441  37.654  1.00  0.00     0.200 A 
ATOM     82  F   UNL A   1      37.029  31.630  38.367  1.00  0.00    -0.200 F 
ATOM     83  F   UNL A   1      37.897  34.200  38.653  1.00  0.00    -0.200 F 
ENDBRANCH  49  73
BRANCH  61  84
ATOM     84  C   UNL A   1      44.700  27.458  34.735  1.00  0.00     0.064 A 
ATOM     85  C   UNL A   1      44.540  26.284  35.483  1.00  0.00     0.173 A 
ATOM     86  C   UNL A   1      45.917  28.147  34.837  1.00  0.00     0.173 A 
ATOM     87  F   UNL A   1      43.387  25.600  35.427  1.00  0.00    -0.203 F 
ATOM     88  C   UNL A   1      45.557  25.823  36.312  1.00  0.00     0.198 A 
ATOM     89  C   UNL A   1      46.941  27.670  35.650  1.00  0.00     0.198 A 
ATOM     90  F   UNL A   1      46.118  29.273  34.135  1.00  0.00    -0.203 F 
ATOM     91  F   UNL A   1      45.373  24.715  37.044  1.00  0.00    -0.200 F 
ATOM     92  C   UNL A   1      46.759  26.511  36.390  1.00  0.00     0.200 A 
ATOM     93  F   UNL A   1      48.106  28.331  35.715  1.00  0.00    -0.200 F 
ATOM     94  F   UNL A   1      47.742  26.060  37.181  1.00  0.00    -0.200 F 
ENDBRANCH  61  84
ENDBRANCH  35  36
ENDBRANCH  28  30
ENDBRANCH  27  28
ENDBRANCH   1  27
TORSDOF 12
ENDMDL
MODEL 2
REMARK VINA RESULT:     -13.6      0.932      2.521
REMARK SMILES Cc1cccc2c1[C@H]1c3c(C)cccc3[C@H](CC(=O)OCCOC(=O)c3ccc(-c4c5nc(c(-c6c(F)c(F)c(F)c(F)c6F)c6ccc([nH]6)c(-c6c(F)c(F)c(F)c(F)c6F)c6nc(c(-c7c(F)c(F)c(F)c(F)c7F)c7ccc4[nH]7)C=C6)C=C5)cc3)C[C@H]1CC2
REMARK SMILES IDX 22 1 21 2 20 3 18 4 19 5 17 6 16 7 1 8 2 9 3 10 7 11 4 12
REMARK SMILES IDX 6 13 8 14 5 15 92 16 9 17 90 18 91 19 10 20 15 21 89 22
REMARK SMILES IDX 12 23 11 24 14 25 13 26 23 27 24 28 25 29 26 30 27 31 88 32
REMARK SMILES IDX 28 33 87 34 29 35 30 36 31 37 81 38 32 39 86 40 80 41 82 42
REMARK SMILES IDX 33 43 85 44 79 45 78 46 34 48 66 49 46 50 65 51 47 52 50 53
REMARK SMILES IDX 64 54 83 55 48 56 49 57 63 59 84 60 51 61 35 62 36 63 44 64
REMARK SMILES IDX 37 65 38 66 42 67 45 68 39 69 40 70 43 71 41 72 67 73 68 74
REMARK SMILES IDX 76 75 69 76 70 77 74 78 77 79 71 80 72 81 75 82 73 83 52 84
REMARK SMILES IDX 53 85 61 86 54 87 55 88 59 89 62 90 56 91 57 92 60 93 58 94
REMARK H PARENT 82 47 50 58
REMARK Flexibility Score: inf
ROOT
ATOM      1  C   UNL A   1      31.807  29.455  25.757  1.00  0.00     0.275 C 
ENDROOT
BRANCH   1   2
ATOM      2  C   UNL A   1      30.983  29.845  24.529  1.00  0.00     0.274 C 
BRANCH   2   3
ATOM      3  O   UNL A   1      31.552  29.244  23.350  1.00  0.00    -0.462 OA
BRANCH   3   4
ATOM      4  C   UNL A   1      30.699  28.706  22.446  1.00  0.00     0.306 C 
ATOM      5  O   UNL A   1      29.982  29.356  21.693  1.00  0.00    -0.252 OA
BRANCH   4   6
ATOM      6  C   UNL A   1      30.763  27.193  22.378  1.00  0.00     0.131 C 
BRANCH   6   7
ATOM      7  C   UNL A   1      31.820  26.482  23.249  1.00  0.00     0.031 C 
ATOM      8  C   UNL A   1      32.147  20.685  22.860  1.00  0.00     0.044 C 
ATOM      9  C   UNL A   1      33.201  21.105  23.853  1.00  0.00    -0.047 A 
ATOM     10  C   UNL A   1      33.919  20.097  24.518  1.00  0.00     0.004 A 
ATOM     11  C   UNL A   1      33.492  22.465  24.136  1.00  0.00    -0.034 A 
ATOM     12  C   UNL A   1      34.966  20.413  25.378  1.00  0.00     0.001 A 
ATOM     13  C   UNL A   1      34.654  22.767  24.884  1.00  0.00    -0.044 A 
ATOM     14  C   UNL A   1      32.615  23.608  23.630  1.00  0.00     0.053 C 
ATOM     15  C   UNL A   1      35.357  21.738  25.528  1.00  0.00     0.004 A 
ATOM     16  C   UNL A   1      35.270  24.147  24.892  1.00  0.00     0.036 C 
ATOM     17  C   UNL A   1      31.582  24.257  24.594  1.00  0.00    -0.034 A 
ATOM     18  C   UNL A   1      33.588  24.662  23.054  1.00  0.00     0.002 C 
ATOM     19  C   UNL A   1      34.485  25.234  24.162  1.00  0.00     0.009 C 
ATOM     20  C   UNL A   1      30.934  23.581  25.669  1.00  0.00    -0.047 A 
ATOM     21  C   UNL A   1      31.189  25.612  24.341  1.00  0.00    -0.040 A 
ATOM     22  C   UNL A   1      32.776  25.720  22.322  1.00  0.00     0.013 C 
ATOM     23  C   UNL A   1      29.962  24.248  26.446  1.00  0.00     0.004 A 
ATOM     24  C   UNL A   1      31.198  22.163  26.094  1.00  0.00     0.044 C 
ATOM     25  C   UNL A   1      30.236  26.238  25.173  1.00  0.00     0.004 A 
ATOM     26  C   UNL A   1      29.616  25.564  26.206  1.00  0.00     0.001 A 
ENDBRANCH   6   7
ENDBRANCH   4   6
ENDBRANCH   3   4
ENDBRANCH   2   3
ENDBRANCH   1   2
BRANCH   1  27
ATOM     27  O   UNL A   1      33.077  30.134  25.746  1.00  0.00    -0.458 OA
BRANCH  27  28
ATOM     28  C   UNL A   1      33.283  30.978  26.781  1.00  0.00     0.338 C 
ATOM     29  O   UNL A   1      32.508  31.788  27.263  1.00  0.00    -0.246 OA
BRANCH  28  30
ATOM     30  C   UNL A   1      34.603  30.712  27.358  1.00  0.00     0.060 A 
ATOM     31  C   UNL A   1      34.953  29.389  27.630  1.00  0.00     0.016 A 
ATOM     32  C   UNL A   1      35.429  31.766  27.744  1.00  0.00     0.016 A 
ATOM     33  C   UNL A   1      36.104  29.110  28.354  1.00  0.00     0.010 A 
ATOM     34  C   UNL A   1      36.612  31.482  28.430  1.00  0.00     0.010 A 
ATOM     35  C   UNL A   1      36.937  30.157  28.768  1.00  0.00    -0.014 A 
BRANCH  35  36
ATOM     36  C   UNL A   1      38.114  29.859  29.612  1.00  0.00     0.031 A 
ATOM     37  C   UNL A   1      39.196  28.968  29.082  1.00  0.00     0.074 A 
ATOM     38  C   UNL A   1      38.225  30.424  30.826  1.00  0.00     0.049 A 
ATOM     39  N   UNL A   1      40.257  28.500  29.691  1.00  0.00    -0.248 NA
ATOM     40  C   UNL A   1      39.076  28.549  27.676  1.00  0.00     0.031 C 
ATOM     41  C   UNL A   1      37.269  31.369  31.407  1.00  0.00     0.029 A 
ATOM     42  N   UNL A   1      39.195  30.294  31.787  1.00  0.00    -0.354 N 
ATOM     43  C   UNL A   1      40.916  27.720  28.752  1.00  0.00     0.074 A 
ATOM     44  C   UNL A   1      40.132  27.761  27.536  1.00  0.00     0.031 C 
ATOM     45  C   UNL A   1      37.708  31.742  32.621  1.00  0.00     0.029 A 
ATOM     46  C   UNL A   1      38.940  31.019  32.923  1.00  0.00     0.049 A 
ATOM     47  H   UNL A   1      39.996  29.734  31.671  1.00  0.00     0.167 HD
ATOM     48  C   UNL A   1      42.075  27.037  28.896  1.00  0.00     0.037 A 
ATOM     49  C   UNL A   1      39.611  31.067  34.089  1.00  0.00     0.037 A 
ATOM     50  C   UNL A   1      42.852  27.014  30.106  1.00  0.00     0.049 A 
ATOM     51  C   UNL A   1      40.843  30.224  34.255  1.00  0.00     0.074 A 
ATOM     52  C   UNL A   1      44.034  26.342  30.361  1.00  0.00     0.029 A 
ATOM     53  N   UNL A   1      42.522  27.702  31.264  1.00  0.00    -0.354 N 
ATOM     54  N   UNL A   1      41.435  29.446  33.382  1.00  0.00    -0.248 NA
ATOM     55  C   UNL A   1      41.489  30.249  35.574  1.00  0.00     0.031 C 
ATOM     56  C   UNL A   1      44.401  26.597  31.688  1.00  0.00     0.029 A 
ATOM     57  C   UNL A   1      43.469  27.456  32.246  1.00  0.00     0.049 A 
ATOM     58  H   UNL A   1      41.733  28.280  31.373  1.00  0.00     0.167 HD
ATOM     59  C   UNL A   1      42.523  28.892  34.040  1.00  0.00     0.074 A 
ATOM     60  C   UNL A   1      42.522  29.440  35.381  1.00  0.00     0.031 C 
ATOM     61  C   UNL A   1      43.438  28.006  33.577  1.00  0.00     0.037 A 
BRANCH  48  62
ATOM     62  C   UNL A   1      42.556  26.236  27.724  1.00  0.00     0.064 A 
ATOM     63  C   UNL A   1      43.507  26.745  26.828  1.00  0.00     0.173 A 
ATOM     64  C   UNL A   1      42.085  24.933  27.514  1.00  0.00     0.173 A 
ATOM     65  F   UNL A   1      43.975  27.994  26.977  1.00  0.00    -0.203 F 
ATOM     66  C   UNL A   1      43.957  25.981  25.753  1.00  0.00     0.198 A 
ATOM     67  C   UNL A   1      42.553  24.164  26.452  1.00  0.00     0.198 A 
ATOM     68  F   UNL A   1      41.175  24.400  28.344  1.00  0.00    -0.203 F 
ATOM     69  F   UNL A   1      44.840  26.499  24.888  1.00  0.00    -0.200 F 
ATOM     70  C   UNL A   1      43.485  24.690  25.570  1.00  0.00     0.200 A 
ATOM     71  F   UNL A   1      42.102  22.914  26.280  1.00  0.00    -0.200 F 
ATOM     72  F   UNL A   1      43.924  23.955  24.539  1.00  0.00    -0.200 F 
ENDBRANCH  48  62
BRANCH  49  73
ATOM     73  C   UNL A   1      39.107  31.925  35.191  1.00  0.00     0.064 A 
ATOM     74  C   UNL A   1      38.350  31.381  36.236  1.00  0.00     0.173 A 
ATOM     75  C   UNL A   1      39.394  33.298  35.233  1.00  0.00     0.173 A 
ATOM     76  F   UNL A   1      38.031  30.079  36.224  1.00  0.00    -0.203 F 
ATOM     77  C   UNL A   1      37.898  32.180  37.284  1.00  0.00     0.198 A 
ATOM     78  C   UNL A   1      38.962  34.089  36.294  1.00  0.00     0.198 A 
ATOM     79  F   UNL A   1      40.113  33.864  34.253  1.00  0.00    -0.203 F 
ATOM     80  F   UNL A   1      37.154  31.641  38.259  1.00  0.00    -0.200 F 
ATOM     81  C   UNL A   1      38.211  33.530  37.317  1.00  0.00     0.200 A 
ATOM     82  F   UNL A   1      39.276  35.391  36.327  1.00  0.00    -0.200 F 
ATOM     83  F   UNL A   1      37.786  34.295  38.332  1.00  0.00    -0.200 F 
ENDBRANCH  49  73
BRANCH  61  84
ATOM     84  C   UNL A   1      44.512  27.573  34.528  1.00  0.00     0.064 A 
ATOM     85  C   UNL A   1      45.725  28.270  34.620  1.00  0.00     0.173 A 
ATOM     86  C   UNL A   1      44.303  26.490  35.394  1.00  0.00     0.173 A 
ATOM     87  F   UNL A   1      45.973  29.302  33.801  1.00  0.00    -0.203 F 
ATOM     88  C   UNL A   1      46.698  27.889  35.539  1.00  0.00     0.198 A 
ATOM     89  C   UNL A   1      45.269  26.127  36.328  1.00  0.00     0.198 A 
ATOM     90  F   UNL A   1      43.155  25.797  35.346  1.00  0.00    -0.203 F 
ATOM     91  F   UNL A   1      47.863  28.548  35.589  1.00  0.00    -0.200 F 
ATOM     92  C   UNL A   1      46.467  26.823  36.397  1.00  0.00     0.200 A 
ATOM     93  F   UNL A   1      45.040  25.104  37.163  1.00  0.00    -0.200 F 
ATOM     94  F   UNL A   1      47.401  26.465  37.289  1.00  0.00    -0.200 F 
ENDBRANCH  61  84
ENDBRANCH  35  36
ENDBRANCH  28  30
ENDBRANCH  27  28
ENDBRANCH   1  27
TORSDOF 12
ENDMDL
MODEL 3
REMARK VINA RESULT:     -13.6      0.367      1.609
REMARK SMILES Cc1cccc2c1[C@H]1c3c(C)cccc3[C@H](CC(=O)OCCOC(=O)c3ccc(-c4c5nc(c(-c6c(F)c(F)c(F)c(F)c6F)c6ccc([nH]6)c(-c6c(F)c(F)c(F)c(F)c6F)c6nc(c(-c7c(F)c(F)c(F)c(F)c7F)c7ccc4[nH]7)C=C6)C=C5)cc3)C[C@H]1CC2
REMARK SMILES IDX 22 1 21 2 20 3 18 4 19 5 17 6 16 7 1 8 2 9 3 10 7 11 4 12
REMARK SMILES IDX 6 13 8 14 5 15 92 16 9 17 90 18 91 19 10 20 15 21 89 22
REMARK SMILES IDX 12 23 11 24 14 25 13 26 23 27 24 28 25 29 26 30 27 31 88 32
REMARK SMILES IDX 28 33 87 34 29 35 30 36 31 37 81 38 32 39 86 40 80 41 82 42
REMARK SMILES IDX 33 43 85 44 79 45 78 46 34 48 66 49 46 50 65 51 47 52 50 53
REMARK SMILES IDX 64 54 83 55 48 56 49 57 63 59 84 60 51 61 35 62 36 63 44 64
REMARK SMILES IDX 37 65 38 66 42 67 45 68 39 69 40 70 43 71 41 72 67 73 68 74
REMARK SMILES IDX 76 75 69 76 70 77 74 78 77 79 71 80 72 81 75 82 73 83 52 84
REMARK SMILES IDX 53 85 61 86 54 87 55 88 59 89 62 90 56 91 57 92 60 93 58 94
REMARK H PARENT 82 47 50 58
REMARK Flexibility Score: inf
ROOT
ATOM      1  C   UNL A   1      31.873  30.396  25.870  1.00  0.00     0.275 C 
ENDROOT
BRANCH   1   2
ATOM      2  C   UNL A   1      32.388  29.137  25.172  1.00  0.00     0.274 C 
BRANCH   2   3
ATOM      3  O   UNL A   1      32.594  28.092  26.141  1.00  0.00    -0.462 OA
BRANCH   3   4
ATOM      4  C   UNL A   1      31.500  27.575  26.749  1.00  0.00     0.306 C 
ATOM      5  O   UNL A   1      31.230  27.720  27.937  1.00  0.00    -0.252 OA
BRANCH   4   6
ATOM      6  C   UNL A   1      30.564  26.850  25.801  1.00  0.00     0.131 C 
BRANCH   6   7
ATOM      7  C   UNL A   1      30.896  25.384  25.452  1.00  0.00     0.031 C 
ATOM      8  C   UNL A   1      36.433  23.686  26.024  1.00  0.00     0.044 C 
ATOM      9  C   UNL A   1      35.665  22.480  25.547  1.00  0.00    -0.047 A 
ATOM     10  C   UNL A   1      36.390  21.313  25.250  1.00  0.00     0.004 A 
ATOM     11  C   UNL A   1      34.255  22.480  25.389  1.00  0.00    -0.034 A 
ATOM     12  C   UNL A   1      35.737  20.138  24.891  1.00  0.00     0.001 A 
ATOM     13  C   UNL A   1      33.598  21.245  25.179  1.00  0.00    -0.044 A 
ATOM     14  C   UNL A   1      33.425  23.759  25.473  1.00  0.00     0.053 C 
ATOM     15  C   UNL A   1      34.348  20.093  24.897  1.00  0.00     0.004 A 
ATOM     16  C   UNL A   1      32.114  21.075  25.405  1.00  0.00     0.036 C 
ATOM     17  C   UNL A   1      32.966  24.455  24.160  1.00  0.00    -0.034 A 
ATOM     18  C   UNL A   1      32.222  23.421  26.383  1.00  0.00     0.002 C 
ATOM     19  C   UNL A   1      31.336  22.348  25.733  1.00  0.00     0.009 C 
ATOM     20  C   UNL A   1      33.674  24.411  22.924  1.00  0.00    -0.047 A 
ATOM     21  C   UNL A   1      31.786  25.265  24.210  1.00  0.00    -0.040 A 
ATOM     22  C   UNL A   1      31.479  24.710  26.701  1.00  0.00     0.013 C 
ATOM     23  C   UNL A   1      33.201  25.133  21.806  1.00  0.00     0.004 A 
ATOM     24  C   UNL A   1      34.931  23.627  22.665  1.00  0.00     0.044 C 
ATOM     25  C   UNL A   1      31.341  25.938  23.050  1.00  0.00     0.004 A 
ATOM     26  C   UNL A   1      32.045  25.886  21.864  1.00  0.00     0.001 A 
ENDBRANCH   6   7
ENDBRANCH   4   6
ENDBRANCH   3   4
ENDBRANCH   2   3
ENDBRANCH   1   2
BRANCH   1  27
ATOM     27  O   UNL A   1      32.525  30.567  27.143  1.00  0.00    -0.458 OA
BRANCH  27  28
ATOM     28  C   UNL A   1      33.283  31.680  27.252  1.00  0.00     0.338 C 
ATOM     29  O   UNL A   1      32.959  32.838  27.047  1.00  0.00    -0.246 OA
BRANCH  28  30
ATOM     30  C   UNL A   1      34.598  31.313  27.782  1.00  0.00     0.060 A 
ATOM     31  C   UNL A   1      34.813  29.988  28.162  1.00  0.00     0.016 A 
ATOM     32  C   UNL A   1      35.561  32.292  28.020  1.00  0.00     0.016 A 
ATOM     33  C   UNL A   1      35.968  29.641  28.849  1.00  0.00     0.010 A 
ATOM     34  C   UNL A   1      36.744  31.934  28.668  1.00  0.00     0.010 A 
ATOM     35  C   UNL A   1      36.938  30.615  29.115  1.00  0.00    -0.014 A 
BRANCH  35  36
ATOM     36  C   UNL A   1      38.125  30.257  29.921  1.00  0.00     0.031 A 
ATOM     37  C   UNL A   1      39.177  29.367  29.332  1.00  0.00     0.074 A 
ATOM     38  C   UNL A   1      38.273  30.768  31.156  1.00  0.00     0.049 A 
ATOM     39  N   UNL A   1      40.239  28.852  29.899  1.00  0.00    -0.248 NA
ATOM     40  C   UNL A   1      39.019  29.010  27.913  1.00  0.00     0.031 C 
ATOM     41  C   UNL A   1      37.350  31.707  31.795  1.00  0.00     0.029 A 
ATOM     42  N   UNL A   1      39.259  30.577  32.089  1.00  0.00    -0.354 N 
ATOM     43  C   UNL A   1      40.862  28.098  28.914  1.00  0.00     0.074 A 
ATOM     44  C   UNL A   1      40.055  28.207  27.717  1.00  0.00     0.031 C 
ATOM     45  C   UNL A   1      37.821  32.019  33.014  1.00  0.00     0.029 A 
ATOM     46  C   UNL A   1      39.043  31.259  33.259  1.00  0.00     0.049 A 
ATOM     47  H   UNL A   1      40.045  30.006  31.933  1.00  0.00     0.167 HD
ATOM     48  C   UNL A   1      42.009  27.385  29.005  1.00  0.00     0.037 A 
ATOM     49  C   UNL A   1      39.738  31.243  34.412  1.00  0.00     0.037 A 
ATOM     50  C   UNL A   1      42.810  27.295  30.196  1.00  0.00     0.049 A 
ATOM     51  C   UNL A   1      40.954  30.369  34.517  1.00  0.00     0.074 A 
ATOM     52  C   UNL A   1      43.982  26.589  30.399  1.00  0.00     0.029 A 
ATOM     53  N   UNL A   1      42.518  27.941  31.389  1.00  0.00    -0.354 N 
ATOM     54  N   UNL A   1      41.512  29.615  33.600  1.00  0.00    -0.248 NA
ATOM     55  C   UNL A   1      41.627  30.324  35.822  1.00  0.00     0.031 C 
ATOM     56  C   UNL A   1      44.381  26.779  31.727  1.00  0.00     0.029 A 
ATOM     57  C   UNL A   1      43.479  27.633  32.339  1.00  0.00     0.049 A 
ATOM     58  H   UNL A   1      41.744  28.529  31.538  1.00  0.00     0.167 HD
ATOM     59  C   UNL A   1      42.601  29.012  34.211  1.00  0.00     0.074 A 
ATOM     60  C   UNL A   1      42.639  29.503  35.574  1.00  0.00     0.031 C 
ATOM     61  C   UNL A   1      43.487  28.127  33.693  1.00  0.00     0.037 A 
BRANCH  48  62
ATOM     62  C   UNL A   1      42.449  26.625  27.791  1.00  0.00     0.064 A 
ATOM     63  C   UNL A   1      43.349  27.175  26.866  1.00  0.00     0.173 A 
ATOM     64  C   UNL A   1      41.991  25.319  27.567  1.00  0.00     0.173 A 
ATOM     65  F   UNL A   1      43.800  28.428  27.027  1.00  0.00    -0.203 F 
ATOM     66  C   UNL A   1      43.761  26.448  25.751  1.00  0.00     0.198 A 
ATOM     67  C   UNL A   1      42.422  24.588  26.464  1.00  0.00     0.198 A 
ATOM     68  F   UNL A   1      41.130  24.748  28.423  1.00  0.00    -0.203 F 
ATOM     69  F   UNL A   1      44.594  27.005  24.861  1.00  0.00    -0.200 F 
ATOM     70  C   UNL A   1      43.304  25.154  25.555  1.00  0.00     0.200 A 
ATOM     71  F   UNL A   1      41.985  23.334  26.279  1.00  0.00    -0.200 F 
ATOM     72  F   UNL A   1      43.707  24.454  24.486  1.00  0.00    -0.200 F 
ENDBRANCH  48  62
BRANCH  49  73
ATOM     73  C   UNL A   1      39.275  32.064  35.559  1.00  0.00     0.064 A 
ATOM     74  C   UNL A   1      38.408  31.531  36.521  1.00  0.00     0.173 A 
ATOM     75  C   UNL A   1      39.711  33.387  35.730  1.00  0.00     0.173 A 
ATOM     76  F   UNL A   1      37.947  30.279  36.385  1.00  0.00    -0.203 F 
ATOM     77  C   UNL A   1      37.993  32.292  37.612  1.00  0.00     0.198 A 
ATOM     78  C   UNL A   1      39.314  34.137  36.833  1.00  0.00     0.198 A 
ATOM     79  F   UNL A   1      40.540  33.942  34.834  1.00  0.00    -0.203 F 
ATOM     80  F   UNL A   1      37.142  31.768  38.504  1.00  0.00    -0.200 F 
ATOM     81  C   UNL A   1      38.453  33.590  37.772  1.00  0.00     0.200 A 
ATOM     82  F   UNL A   1      39.769  35.388  36.990  1.00  0.00    -0.200 F 
ATOM     83  F   UNL A   1      38.062  34.317  38.828  1.00  0.00    -0.200 F 
ENDBRANCH  49  73
BRANCH  61  84
ATOM     84  C   UNL A   1      44.570  27.632  34.602  1.00  0.00     0.064 A 
ATOM     85  C   UNL A   1      45.773  28.337  34.749  1.00  0.00     0.173 A 
ATOM     86  C   UNL A   1      44.380  26.478  35.375  1.00  0.00     0.173 A 
ATOM     87  F   UNL A   1      46.003  29.437  34.019  1.00  0.00    -0.203 F 
ATOM     88  C   UNL A   1      46.754  27.894  35.631  1.00  0.00     0.198 A 
ATOM     89  C   UNL A   1      45.354  26.052  36.273  1.00  0.00     0.198 A 
ATOM     90  F   UNL A   1      43.242  25.774  35.271  1.00  0.00    -0.203 F 
ATOM     91  F   UNL A   1      47.910  28.564  35.735  1.00  0.00    -0.200 F 
ATOM     92  C   UNL A   1      46.541  26.758  36.398  1.00  0.00     0.200 A 
ATOM     93  F   UNL A   1      45.142  24.959  37.020  1.00  0.00    -0.200 F 
ATOM     94  F   UNL A   1      47.483  26.340  37.254  1.00  0.00    -0.200 F 
ENDBRANCH  61  84
ENDBRANCH  35  36
ENDBRANCH  28  30
ENDBRANCH  27  28
ENDBRANCH   1  27
TORSDOF 12
ENDMDL
