MODEL 1
REMARK VINA RESULT:     -11.5      0.000      0.000
REMARK SMILES O=C(OCCOC(=O)c1cc(S(=O)(=O)C/C(Cl)=C/Cl)ccc1Cl)c1ccc(-c2c3nc(c(-c4c(F)c(F)c(F)c(F)c4F)c4ccc([nH]4)c(-c4c(F)c(F)c(F)c(F)c4F)c4nc(c(-c5c(F)c(F)c(F)c(F)c5F)c5ccc2[nH]5)C=C4)C=C3)cc1
REMARK SMILES IDX 5 1 4 2 3 3 2 4 1 5 24 6 25 7 86 8 26 9 85 10 27 11 28 12
REMARK SMILES IDX 29 13 79 14 30 15 84 16 78 17 80 18 31 19 83 20 77 21 76 22
REMARK SMILES IDX 32 24 64 25 44 26 63 27 45 28 48 29 62 30 81 31 46 32 47 33
REMARK SMILES IDX 61 35 82 36 49 37 33 38 34 39 42 40 35 41 36 42 40 43 43 44
REMARK SMILES IDX 37 45 38 46 41 47 39 48 65 49 66 50 74 51 67 52 68 53 72 54
REMARK SMILES IDX 75 55 69 56 70 57 73 58 71 59 50 60 51 61 59 62 52 63 53 64
REMARK SMILES IDX 57 65 60 66 54 67 55 68 58 69 56 70 6 71 7 72 8 73 9 74
REMARK SMILES IDX 10 75 22 76 11 77 21 78 23 79 20 80 12 81 13 82 14 83 15 84
REMARK SMILES IDX 16 85 17 86 18 87 19 88
REMARK H PARENT 80 23 48 34
REMARK Flexibility Score: inf
ROOT
ATOM      1  C   UNL A   1      32.136  31.188  26.846  1.00  0.00     0.275 C 
ENDROOT
BRANCH   1   2
ATOM      2  C   UNL A   1      31.890  32.696  26.771  1.00  0.00     0.275 C 
BRANCH   2   3
ATOM      3  O   UNL A   1      32.594  33.465  27.760  1.00  0.00    -0.458 OA
BRANCH   3   4
ATOM      4  C   UNL A   1      33.895  33.825  27.830  1.00  0.00     0.338 C 
ATOM      5  O   UNL A   1      34.262  34.811  27.192  1.00  0.00    -0.246 OA
BRANCH   4   6
ATOM      6  C   UNL A   1      34.953  33.036  28.542  1.00  0.00     0.060 A 
ATOM      7  C   UNL A   1      34.766  31.887  29.314  1.00  0.00     0.016 A 
ATOM      8  C   UNL A   1      36.268  33.507  28.398  1.00  0.00     0.016 A 
ATOM      9  C   UNL A   1      35.852  31.179  29.842  1.00  0.00     0.010 A 
ATOM     10  C   UNL A   1      37.359  32.799  28.908  1.00  0.00     0.010 A 
ATOM     11  C   UNL A   1      37.155  31.622  29.632  1.00  0.00    -0.014 A 
BRANCH  11  12
ATOM     12  C   UNL A   1      38.288  30.940  30.294  1.00  0.00     0.031 A 
ATOM     13  C   UNL A   1      38.616  31.320  31.705  1.00  0.00     0.074 A 
ATOM     14  C   UNL A   1      38.978  29.974  29.662  1.00  0.00     0.049 A 
ATOM     15  N   UNL A   1      39.532  30.832  32.498  1.00  0.00    -0.248 NA
ATOM     16  C   UNL A   1      37.777  32.363  32.318  1.00  0.00     0.031 C 
ATOM     17  C   UNL A   1      38.679  29.462  28.327  1.00  0.00     0.029 A 
ATOM     18  N   UNL A   1      40.078  29.251  30.049  1.00  0.00    -0.354 N 
ATOM     19  C   UNL A   1      39.354  31.482  33.710  1.00  0.00     0.074 A 
ATOM     20  C   UNL A   1      38.296  32.449  33.533  1.00  0.00     0.031 C 
ATOM     21  C   UNL A   1      39.609  28.557  27.977  1.00  0.00     0.029 A 
ATOM     22  C   UNL A   1      40.562  28.417  29.070  1.00  0.00     0.049 A 
ATOM     23  H   UNL A   1      40.482  29.322  30.945  1.00  0.00     0.167 HD
ATOM     24  C   UNL A   1      39.991  31.256  34.881  1.00  0.00     0.037 A 
ATOM     25  C   UNL A   1      41.657  27.633  29.063  1.00  0.00     0.037 A 
ATOM     26  C   UNL A   1      41.058  30.307  35.036  1.00  0.00     0.049 A 
ATOM     27  C   UNL A   1      42.453  27.515  30.338  1.00  0.00     0.074 A 
ATOM     28  C   UNL A   1      41.779  29.995  36.171  1.00  0.00     0.029 A 
ATOM     29  N   UNL A   1      41.568  29.528  34.005  1.00  0.00    -0.354 N 
ATOM     30  N   UNL A   1      42.237  28.086  31.498  1.00  0.00    -0.248 NA
ATOM     31  C   UNL A   1      43.615  26.618  30.317  1.00  0.00     0.031 C 
ATOM     32  C   UNL A   1      42.764  29.068  35.816  1.00  0.00     0.029 A 
ATOM     33  C   UNL A   1      42.618  28.758  34.473  1.00  0.00     0.049 A 
ATOM     34  H   UNL A   1      41.232  29.525  33.080  1.00  0.00     0.167 HD
ATOM     35  C   UNL A   1      43.197  27.575  32.360  1.00  0.00     0.074 A 
ATOM     36  C   UNL A   1      43.998  26.650  31.586  1.00  0.00     0.031 C 
ATOM     37  C   UNL A   1      43.388  27.834  33.678  1.00  0.00     0.037 A 
BRANCH  24  38
ATOM     38  C   UNL A   1      39.548  32.061  36.063  1.00  0.00     0.064 A 
ATOM     39  C   UNL A   1      38.459  31.661  36.856  1.00  0.00     0.173 A 
ATOM     40  C   UNL A   1      40.206  33.250  36.402  1.00  0.00     0.173 A 
ATOM     41  F   UNL A   1      37.781  30.542  36.558  1.00  0.00    -0.203 F 
ATOM     42  C   UNL A   1      38.032  32.437  37.929  1.00  0.00     0.198 A 
ATOM     43  C   UNL A   1      39.793  34.011  37.492  1.00  0.00     0.198 A 
ATOM     44  F   UNL A   1      41.247  33.678  35.672  1.00  0.00    -0.203 F 
ATOM     45  F   UNL A   1      36.959  32.063  38.640  1.00  0.00    -0.200 F 
ATOM     46  C   UNL A   1      38.702  33.608  38.249  1.00  0.00     0.200 A 
ATOM     47  F   UNL A   1      40.443  35.140  37.803  1.00  0.00    -0.200 F 
ATOM     48  F   UNL A   1      38.289  34.357  39.282  1.00  0.00    -0.200 F 
ENDBRANCH  24  38
BRANCH  25  49
ATOM     49  C   UNL A   1      42.059  26.898  27.833  1.00  0.00     0.064 A 
ATOM     50  C   UNL A   1      41.594  25.602  27.564  1.00  0.00     0.173 A 
ATOM     51  C   UNL A   1      42.962  27.464  26.919  1.00  0.00     0.173 A 
ATOM     52  F   UNL A   1      40.740  25.010  28.411  1.00  0.00    -0.203 F 
ATOM     53  C   UNL A   1      42.045  24.888  26.454  1.00  0.00     0.198 A 
ATOM     54  C   UNL A   1      43.394  26.759  25.796  1.00  0.00     0.198 A 
ATOM     55  F   UNL A   1      43.431  28.706  27.116  1.00  0.00    -0.203 F 
ATOM     56  F   UNL A   1      41.628  23.631  26.256  1.00  0.00    -0.200 F 
ATOM     57  C   UNL A   1      42.945  25.466  25.572  1.00  0.00     0.200 A 
ATOM     58  F   UNL A   1      44.253  27.328  24.939  1.00  0.00    -0.200 F 
ATOM     59  F   UNL A   1      43.388  24.775  24.513  1.00  0.00    -0.200 F 
ENDBRANCH  25  49
BRANCH  37  60
ATOM     60  C   UNL A   1      44.473  27.067  34.373  1.00  0.00     0.064 A 
ATOM     61  C   UNL A   1      45.770  27.580  34.505  1.00  0.00     0.173 A 
ATOM     62  C   UNL A   1      44.190  25.824  34.960  1.00  0.00     0.173 A 
ATOM     63  F   UNL A   1      46.092  28.756  33.946  1.00  0.00    -0.203 F 
ATOM     64  C   UNL A   1      46.754  26.862  35.179  1.00  0.00     0.198 A 
ATOM     65  C   UNL A   1      45.166  25.127  35.663  1.00  0.00     0.198 A 
ATOM     66  F   UNL A   1      42.961  25.295  34.867  1.00  0.00    -0.203 F 
ATOM     67  F   UNL A   1      48.002  27.347  35.249  1.00  0.00    -0.200 F 
ATOM     68  C   UNL A   1      46.449  25.643  35.765  1.00  0.00     0.200 A 
ATOM     69  F   UNL A   1      44.865  23.957  36.243  1.00  0.00    -0.200 F 
ATOM     70  F   UNL A   1      47.396  24.960  36.425  1.00  0.00    -0.200 F 
ENDBRANCH  37  60
ENDBRANCH  11  12
ENDBRANCH   4   6
ENDBRANCH   3   4
ENDBRANCH   2   3
ENDBRANCH   1   2
BRANCH   1  71
ATOM     71  O   UNL A   1      31.361  30.428  25.904  1.00  0.00    -0.458 OA
BRANCH  71  72
ATOM     72  C   UNL A   1      32.064  29.599  25.090  1.00  0.00     0.339 C 
ATOM     73  O   UNL A   1      33.243  29.685  24.794  1.00  0.00    -0.246 OA
BRANCH  72  74
ATOM     74  C   UNL A   1      31.209  28.471  24.671  1.00  0.00     0.080 A 
ATOM     75  C   UNL A   1      31.519  27.187  25.149  1.00  0.00     0.037 A 
ATOM     76  C   UNL A   1      30.130  28.645  23.802  1.00  0.00     0.055 A 
ATOM     77  C   UNL A   1      30.704  26.091  24.817  1.00  0.00     0.068 A 
ATOM     78  C   UNL A   1      29.347  27.540  23.448  1.00  0.00     0.023 A 
ATOM     79  Cl  UNL A   1      29.718  30.171  23.107  1.00  0.00    -0.083 Cl
ATOM     80  C   UNL A   1      29.621  26.269  23.962  1.00  0.00     0.022 A 
BRANCH  77  81
ATOM     81  S   UNL A   1      31.133  24.503  25.507  1.00  0.00     0.183 S 
ATOM     82  O   UNL A   1      30.452  24.463  26.789  1.00  0.00    -0.223 OA
ATOM     83  O   UNL A   1      30.822  23.515  24.491  1.00  0.00    -0.223 OA
BRANCH  81  84
ATOM     84  C   UNL A   1      32.875  24.414  25.856  1.00  0.00     0.191 C 
BRANCH  84  85
ATOM     85  C   UNL A   1      33.576  23.287  25.146  1.00  0.00     0.045 C 
ATOM     86  Cl  UNL A   1      34.319  23.738  23.637  1.00  0.00    -0.087 Cl
ATOM     87  C   UNL A   1      33.777  22.068  25.667  1.00  0.00     0.097 C 
ATOM     88  Cl  UNL A   1      34.635  20.783  24.919  1.00  0.00    -0.092 Cl
ENDBRANCH  84  85
ENDBRANCH  81  84
ENDBRANCH  77  81
ENDBRANCH  72  74
ENDBRANCH  71  72
ENDBRANCH   1  71
TORSDOF 14
ENDMDL
MODEL 2
REMARK VINA RESULT:     -11.4      6.255     11.808
REMARK SMILES O=C(OCCOC(=O)c1cc(S(=O)(=O)C/C(Cl)=C/Cl)ccc1Cl)c1ccc(-c2c3nc(c(-c4c(F)c(F)c(F)c(F)c4F)c4ccc([nH]4)c(-c4c(F)c(F)c(F)c(F)c4F)c4nc(c(-c5c(F)c(F)c(F)c(F)c5F)c5ccc2[nH]5)C=C4)C=C3)cc1
REMARK SMILES IDX 5 1 4 2 3 3 2 4 1 5 24 6 25 7 86 8 26 9 85 10 27 11 28 12
REMARK SMILES IDX 29 13 79 14 30 15 84 16 78 17 80 18 31 19 83 20 77 21 76 22
REMARK SMILES IDX 32 24 64 25 44 26 63 27 45 28 48 29 62 30 81 31 46 32 47 33
REMARK SMILES IDX 61 35 82 36 49 37 33 38 34 39 42 40 35 41 36 42 40 43 43 44
REMARK SMILES IDX 37 45 38 46 41 47 39 48 65 49 66 50 74 51 67 52 68 53 72 54
REMARK SMILES IDX 75 55 69 56 70 57 73 58 71 59 50 60 51 61 59 62 52 63 53 64
REMARK SMILES IDX 57 65 60 66 54 67 55 68 58 69 56 70 6 71 7 72 8 73 9 74
REMARK SMILES IDX 10 75 22 76 11 77 21 78 23 79 20 80 12 81 13 82 14 83 15 84
REMARK SMILES IDX 16 85 17 86 18 87 19 88
REMARK H PARENT 80 23 48 34
REMARK Flexibility Score: inf
ROOT
ATOM      1  C   UNL A   1      41.840  18.883  25.727  1.00  0.00     0.275 C 
ENDROOT
BRANCH   1   2
ATOM      2  C   UNL A   1      43.328  18.531  25.703  1.00  0.00     0.275 C 
BRANCH   2   3
ATOM      3  O   UNL A   1      44.001  18.867  24.479  1.00  0.00    -0.458 OA
BRANCH   3   4
ATOM      4  C   UNL A   1      45.093  19.633  24.257  1.00  0.00     0.338 C 
ATOM      5  O   UNL A   1      46.099  19.094  23.799  1.00  0.00    -0.246 OA
BRANCH   4   6
ATOM      6  C   UNL A   1      45.202  21.079  24.642  1.00  0.00     0.060 A 
ATOM      7  C   UNL A   1      45.063  22.184  23.799  1.00  0.00     0.016 A 
ATOM      8  C   UNL A   1      45.460  21.333  25.999  1.00  0.00     0.016 A 
ATOM      9  C   UNL A   1      45.084  23.490  24.302  1.00  0.00     0.010 A 
ATOM     10  C   UNL A   1      45.467  22.632  26.512  1.00  0.00     0.010 A 
ATOM     11  C   UNL A   1      45.272  23.723  25.662  1.00  0.00    -0.014 A 
BRANCH  11  12
ATOM     12  C   UNL A   1      45.415  25.105  26.167  1.00  0.00     0.031 A 
ATOM     13  C   UNL A   1      46.784  25.713  26.189  1.00  0.00     0.074 A 
ATOM     14  C   UNL A   1      44.340  25.814  26.555  1.00  0.00     0.049 A 
ATOM     15  N   UNL A   1      47.146  26.915  26.548  1.00  0.00    -0.248 NA
ATOM     16  C   UNL A   1      47.889  24.865  25.710  1.00  0.00     0.031 C 
ATOM     17  C   UNL A   1      42.957  25.353  26.481  1.00  0.00     0.029 A 
ATOM     18  N   UNL A   1      44.236  27.071  27.095  1.00  0.00    -0.354 N 
ATOM     19  C   UNL A   1      48.509  26.978  26.302  1.00  0.00     0.074 A 
ATOM     20  C   UNL A   1      48.927  25.676  25.835  1.00  0.00     0.031 C 
ATOM     21  C   UNL A   1      42.146  26.280  27.018  1.00  0.00     0.029 A 
ATOM     22  C   UNL A   1      42.955  27.409  27.462  1.00  0.00     0.049 A 
ATOM     23  H   UNL A   1      45.006  27.674  27.209  1.00  0.00     0.167 HD
ATOM     24  C   UNL A   1      49.331  28.045  26.415  1.00  0.00     0.037 A 
ATOM     25  C   UNL A   1      42.495  28.508  28.090  1.00  0.00     0.037 A 
ATOM     26  C   UNL A   1      48.906  29.328  26.903  1.00  0.00     0.049 A 
ATOM     27  C   UNL A   1      43.464  29.632  28.353  1.00  0.00     0.074 A 
ATOM     28  C   UNL A   1      49.649  30.481  27.064  1.00  0.00     0.029 A 
ATOM     29  N   UNL A   1      47.616  29.614  27.330  1.00  0.00    -0.354 N 
ATOM     30  N   UNL A   1      44.739  29.705  28.058  1.00  0.00    -0.248 NA
ATOM     31  C   UNL A   1      42.927  30.837  28.997  1.00  0.00     0.031 C 
ATOM     32  C   UNL A   1      48.822  31.450  27.641  1.00  0.00     0.029 A 
ATOM     33  C   UNL A   1      47.549  30.919  27.785  1.00  0.00     0.049 A 
ATOM     34  H   UNL A   1      46.861  28.982  27.311  1.00  0.00     0.167 HD
ATOM     35  C   UNL A   1      45.144  30.980  28.424  1.00  0.00     0.074 A 
ATOM     36  C   UNL A   1      43.977  31.645  28.968  1.00  0.00     0.031 C 
ATOM     37  C   UNL A   1      46.366  31.557  28.307  1.00  0.00     0.037 A 
BRANCH  24  38
ATOM     38  C   UNL A   1      50.760  27.851  26.012  1.00  0.00     0.064 A 
ATOM     39  C   UNL A   1      51.166  27.963  24.672  1.00  0.00     0.173 A 
ATOM     40  C   UNL A   1      51.733  27.536  26.970  1.00  0.00     0.173 A 
ATOM     41  F   UNL A   1      50.267  28.239  23.715  1.00  0.00    -0.203 F 
ATOM     42  C   UNL A   1      52.490  27.741  24.304  1.00  0.00     0.198 A 
ATOM     43  C   UNL A   1      53.061  27.341  26.602  1.00  0.00     0.198 A 
ATOM     44  F   UNL A   1      51.394  27.411  28.262  1.00  0.00    -0.203 F 
ATOM     45  F   UNL A   1      52.844  27.803  23.013  1.00  0.00    -0.200 F 
ATOM     46  C   UNL A   1      53.437  27.436  25.270  1.00  0.00     0.200 A 
ATOM     47  F   UNL A   1      53.977  27.049  27.536  1.00  0.00    -0.200 F 
ATOM     48  F   UNL A   1      54.712  27.221  24.915  1.00  0.00    -0.200 F 
ENDBRANCH  24  38
BRANCH  25  49
ATOM     49  C   UNL A   1      41.067  28.609  28.499  1.00  0.00     0.064 A 
ATOM     50  C   UNL A   1      40.079  29.068  27.617  1.00  0.00     0.173 A 
ATOM     51  C   UNL A   1      40.670  28.291  29.808  1.00  0.00     0.173 A 
ATOM     52  F   UNL A   1      40.407  29.397  26.359  1.00  0.00    -0.203 F 
ATOM     53  C   UNL A   1      38.760  29.243  28.036  1.00  0.00     0.198 A 
ATOM     54  C   UNL A   1      39.346  28.442  30.219  1.00  0.00     0.198 A 
ATOM     55  F   UNL A   1      41.569  27.833  30.693  1.00  0.00    -0.203 F 
ATOM     56  F   UNL A   1      37.850  29.738  27.187  1.00  0.00    -0.200 F 
ATOM     57  C   UNL A   1      38.395  28.930  29.337  1.00  0.00     0.200 A 
ATOM     58  F   UNL A   1      38.996  28.125  31.474  1.00  0.00    -0.200 F 
ATOM     59  F   UNL A   1      37.131  29.110  29.743  1.00  0.00    -0.200 F 
ENDBRANCH  25  49
BRANCH  37  60
ATOM     60  C   UNL A   1      46.487  32.992  28.726  1.00  0.00     0.064 A 
ATOM     61  C   UNL A   1      46.239  34.044  27.835  1.00  0.00     0.173 A 
ATOM     62  C   UNL A   1      46.806  33.311  30.055  1.00  0.00     0.173 A 
ATOM     63  F   UNL A   1      45.947  33.787  26.551  1.00  0.00    -0.203 F 
ATOM     64  C   UNL A   1      46.330  35.368  28.254  1.00  0.00     0.198 A 
ATOM     65  C   UNL A   1      46.862  34.635  30.477  1.00  0.00     0.198 A 
ATOM     66  F   UNL A   1      47.046  32.338  30.947  1.00  0.00    -0.203 F 
ATOM     67  F   UNL A   1      46.138  36.360  27.373  1.00  0.00    -0.200 F 
ATOM     68  C   UNL A   1      46.631  35.662  29.575  1.00  0.00     0.200 A 
ATOM     69  F   UNL A   1      47.136  34.916  31.759  1.00  0.00    -0.200 F 
ATOM     70  F   UNL A   1      46.705  36.938  29.979  1.00  0.00    -0.200 F 
ENDBRANCH  37  60
ENDBRANCH  11  12
ENDBRANCH   4   6
ENDBRANCH   3   4
ENDBRANCH   2   3
ENDBRANCH   1   2
BRANCH   1  71
ATOM     71  O   UNL A   1      41.575  20.259  26.047  1.00  0.00    -0.458 OA
BRANCH  71  72
ATOM     72  C   UNL A   1      40.819  20.475  27.155  1.00  0.00     0.339 C 
ATOM     73  O   UNL A   1      40.819  19.822  28.183  1.00  0.00    -0.246 OA
BRANCH  72  74
ATOM     74  C   UNL A   1      40.037  21.715  26.988  1.00  0.00     0.080 A 
ATOM     75  C   UNL A   1      38.910  21.685  26.149  1.00  0.00     0.037 A 
ATOM     76  C   UNL A   1      40.401  22.908  27.617  1.00  0.00     0.055 A 
ATOM     77  C   UNL A   1      38.107  22.829  26.000  1.00  0.00     0.068 A 
ATOM     78  C   UNL A   1      39.615  24.051  27.432  1.00  0.00     0.023 A 
ATOM     79  Cl  UNL A   1      41.808  23.059  28.606  1.00  0.00    -0.083 Cl
ATOM     80  C   UNL A   1      38.464  24.012  26.638  1.00  0.00     0.022 A 
BRANCH  77  81
ATOM     81  S   UNL A   1      36.663  22.695  24.960  1.00  0.00     0.183 S 
ATOM     82  O   UNL A   1      36.234  24.065  24.749  1.00  0.00    -0.223 OA
ATOM     83  O   UNL A   1      37.047  21.873  23.828  1.00  0.00    -0.223 OA
BRANCH  81  84
ATOM     84  C   UNL A   1      35.339  21.876  25.820  1.00  0.00     0.191 C 
BRANCH  84  85
ATOM     85  C   UNL A   1      34.351  21.200  24.905  1.00  0.00     0.045 C 
ATOM     86  Cl  UNL A   1      33.678  22.239  23.681  1.00  0.00    -0.087 Cl
ATOM     87  C   UNL A   1      34.104  19.882  24.894  1.00  0.00     0.097 C 
ATOM     88  Cl  UNL A   1      33.043  19.068  23.818  1.00  0.00    -0.092 Cl
ENDBRANCH  84  85
ENDBRANCH  81  84
ENDBRANCH  77  81
ENDBRANCH  72  74
ENDBRANCH  71  72
ENDBRANCH   1  71
TORSDOF 14
ENDMDL
MODEL 3
REMARK VINA RESULT:     -11.4      0.308      2.007
REMARK SMILES O=C(OCCOC(=O)c1cc(S(=O)(=O)C/C(Cl)=C/Cl)ccc1Cl)c1ccc(-c2c3nc(c(-c4c(F)c(F)c(F)c(F)c4F)c4ccc([nH]4)c(-c4c(F)c(F)c(F)c(F)c4F)c4nc(c(-c5c(F)c(F)c(F)c(F)c5F)c5ccc2[nH]5)C=C4)C=C3)cc1
REMARK SMILES IDX 5 1 4 2 3 3 2 4 1 5 24 6 25 7 86 8 26 9 85 10 27 11 28 12
REMARK SMILES IDX 29 13 79 14 30 15 84 16 78 17 80 18 31 19 83 20 77 21 76 22
REMARK SMILES IDX 32 24 64 25 44 26 63 27 45 28 48 29 62 30 81 31 46 32 47 33
REMARK SMILES IDX 61 35 82 36 49 37 33 38 34 39 42 40 35 41 36 42 40 43 43 44
REMARK SMILES IDX 37 45 38 46 41 47 39 48 65 49 66 50 74 51 67 52 68 53 72 54
REMARK SMILES IDX 75 55 69 56 70 57 73 58 71 59 50 60 51 61 59 62 52 63 53 64
REMARK SMILES IDX 57 65 60 66 54 67 55 68 58 69 56 70 6 71 7 72 8 73 9 74
REMARK SMILES IDX 10 75 22 76 11 77 21 78 23 79 20 80 12 81 13 82 14 83 15 84
REMARK SMILES IDX 16 85 17 86 18 87 19 88
REMARK H PARENT 80 23 48 34
REMARK Flexibility Score: inf
ROOT
ATOM      1  C   UNL A   1      32.108  31.090  26.875  1.00  0.00     0.275 C 
ENDROOT
BRANCH   1   2
ATOM      2  C   UNL A   1      31.895  32.596  26.715  1.00  0.00     0.275 C 
BRANCH   2   3
ATOM      3  O   UNL A   1      32.555  33.401  27.706  1.00  0.00    -0.458 OA
BRANCH   3   4
ATOM      4  C   UNL A   1      33.847  33.782  27.809  1.00  0.00     0.338 C 
ATOM      5  O   UNL A   1      34.212  34.782  27.191  1.00  0.00    -0.246 OA
BRANCH   4   6
ATOM      6  C   UNL A   1      34.902  33.002  28.536  1.00  0.00     0.060 A 
ATOM      7  C   UNL A   1      34.713  31.858  29.314  1.00  0.00     0.016 A 
ATOM      8  C   UNL A   1      36.217  33.478  28.401  1.00  0.00     0.016 A 
ATOM      9  C   UNL A   1      35.798  31.158  29.857  1.00  0.00     0.010 A 
ATOM     10  C   UNL A   1      37.307  32.779  28.926  1.00  0.00     0.010 A 
ATOM     11  C   UNL A   1      37.101  31.605  29.655  1.00  0.00    -0.014 A 
BRANCH  11  12
ATOM     12  C   UNL A   1      38.231  30.933  30.331  1.00  0.00     0.031 A 
ATOM     13  C   UNL A   1      38.541  31.319  31.745  1.00  0.00     0.074 A 
ATOM     14  C   UNL A   1      38.935  29.970  29.711  1.00  0.00     0.049 A 
ATOM     15  N   UNL A   1      39.451  30.840  32.550  1.00  0.00    -0.248 NA
ATOM     16  C   UNL A   1      37.688  32.359  32.346  1.00  0.00     0.031 C 
ATOM     17  C   UNL A   1      38.654  29.452  28.374  1.00  0.00     0.029 A 
ATOM     18  N   UNL A   1      40.034  29.255  30.112  1.00  0.00    -0.354 N 
ATOM     19  C   UNL A   1      39.255  31.492  33.758  1.00  0.00     0.074 A 
ATOM     20  C   UNL A   1      38.193  32.451  33.566  1.00  0.00     0.031 C 
ATOM     21  C   UNL A   1      39.593  28.552  28.037  1.00  0.00     0.029 A 
ATOM     22  C   UNL A   1      40.535  28.422  29.141  1.00  0.00     0.049 A 
ATOM     23  H   UNL A   1      40.428  29.332  31.012  1.00  0.00     0.167 HD
ATOM     24  C   UNL A   1      39.880  31.273  34.936  1.00  0.00     0.037 A 
ATOM     25  C   UNL A   1      41.636  27.645  29.149  1.00  0.00     0.037 A 
ATOM     26  C   UNL A   1      40.952  30.332  35.106  1.00  0.00     0.049 A 
ATOM     27  C   UNL A   1      42.417  27.536  30.432  1.00  0.00     0.074 A 
ATOM     28  C   UNL A   1      41.662  30.028  36.251  1.00  0.00     0.029 A 
ATOM     29  N   UNL A   1      41.478  29.553  34.084  1.00  0.00    -0.354 N 
ATOM     30  N   UNL A   1      42.185  28.108  31.589  1.00  0.00    -0.248 NA
ATOM     31  C   UNL A   1      43.586  26.647  30.428  1.00  0.00     0.031 C 
ATOM     32  C   UNL A   1      42.657  29.107  35.910  1.00  0.00     0.029 A 
ATOM     33  C   UNL A   1      42.529  28.792  34.565  1.00  0.00     0.049 A 
ATOM     34  H   UNL A   1      41.153  29.545  33.154  1.00  0.00     0.167 HD
ATOM     35  C   UNL A   1      43.138  27.607  32.463  1.00  0.00     0.074 A 
ATOM     36  C   UNL A   1      43.955  26.685  31.700  1.00  0.00     0.031 C 
ATOM     37  C   UNL A   1      43.313  27.871  33.782  1.00  0.00     0.037 A 
BRANCH  24  38
ATOM     38  C   UNL A   1      39.419  32.079  36.112  1.00  0.00     0.064 A 
ATOM     39  C   UNL A   1      40.020  33.305  36.441  1.00  0.00     0.173 A 
ATOM     40  C   UNL A   1      38.376  31.618  36.926  1.00  0.00     0.173 A 
ATOM     41  F   UNL A   1      41.040  33.777  35.707  1.00  0.00    -0.203 F 
ATOM     42  C   UNL A   1      39.610  34.026  37.559  1.00  0.00     0.198 A 
ATOM     43  C   UNL A   1      37.950  32.355  38.028  1.00  0.00     0.198 A 
ATOM     44  F   UNL A   1      37.773  30.450  36.656  1.00  0.00    -0.203 F 
ATOM     45  F   UNL A   1      40.234  35.167  37.884  1.00  0.00    -0.200 F 
ATOM     46  C   UNL A   1      38.573  33.553  38.348  1.00  0.00     0.200 A 
ATOM     47  F   UNL A   1      36.945  31.899  38.787  1.00  0.00    -0.200 F 
ATOM     48  F   UNL A   1      38.179  34.247  39.425  1.00  0.00    -0.200 F 
ENDBRANCH  24  38
BRANCH  25  49
ATOM     49  C   UNL A   1      42.056  26.908  27.925  1.00  0.00     0.064 A 
ATOM     50  C   UNL A   1      42.893  27.493  26.965  1.00  0.00     0.173 A 
ATOM     51  C   UNL A   1      41.582  25.611  27.668  1.00  0.00     0.173 A 
ATOM     52  F   UNL A   1      43.364  28.734  27.156  1.00  0.00    -0.203 F 
ATOM     53  C   UNL A   1      43.209  26.829  25.780  1.00  0.00     0.198 A 
ATOM     54  C   UNL A   1      41.919  24.938  26.494  1.00  0.00     0.198 A 
ATOM     55  F   UNL A   1      40.788  24.995  28.557  1.00  0.00    -0.203 F 
ATOM     56  F   UNL A   1      43.964  27.436  24.855  1.00  0.00    -0.200 F 
ATOM     57  C   UNL A   1      42.721  25.552  25.545  1.00  0.00     0.200 A 
ATOM     58  F   UNL A   1      41.455  23.699  26.279  1.00  0.00    -0.200 F 
ATOM     59  F   UNL A   1      43.015  24.919  24.401  1.00  0.00    -0.200 F 
ENDBRANCH  25  49
BRANCH  37  60
ATOM     60  C   UNL A   1      44.395  27.113  34.492  1.00  0.00     0.064 A 
ATOM     61  C   UNL A   1      44.170  25.843  35.038  1.00  0.00     0.173 A 
ATOM     62  C   UNL A   1      45.689  27.651  34.578  1.00  0.00     0.173 A 
ATOM     63  F   UNL A   1      42.945  25.296  34.994  1.00  0.00    -0.203 F 
ATOM     64  C   UNL A   1      45.197  25.146  35.668  1.00  0.00     0.198 A 
ATOM     65  C   UNL A   1      46.720  26.936  35.177  1.00  0.00     0.198 A 
ATOM     66  F   UNL A   1      45.955  28.861  34.065  1.00  0.00    -0.203 F 
ATOM     67  F   UNL A   1      44.948  23.954  36.228  1.00  0.00    -0.200 F 
ATOM     68  C   UNL A   1      46.472  25.688  35.728  1.00  0.00     0.200 A 
ATOM     69  F   UNL A   1      47.956  27.455  35.220  1.00  0.00    -0.200 F 
ATOM     70  F   UNL A   1      47.462  25.010  36.325  1.00  0.00    -0.200 F 
ENDBRANCH  37  60
ENDBRANCH  11  12
ENDBRANCH   4   6
ENDBRANCH   3   4
ENDBRANCH   2   3
ENDBRANCH   1   2
BRANCH   1  71
ATOM     71  O   UNL A   1      31.410  30.300  25.899  1.00  0.00    -0.458 OA
BRANCH  71  72
ATOM     72  C   UNL A   1      32.173  29.436  25.181  1.00  0.00     0.339 C 
ATOM     73  O   UNL A   1      33.361  29.537  24.931  1.00  0.00    -0.246 OA
BRANCH  72  74
ATOM     74  C   UNL A   1      31.370  28.254  24.809  1.00  0.00     0.080 A 
ATOM     75  C   UNL A   1      31.738  27.006  25.338  1.00  0.00     0.037 A 
ATOM     76  C   UNL A   1      30.284  28.344  23.936  1.00  0.00     0.055 A 
ATOM     77  C   UNL A   1      30.973  25.861  25.052  1.00  0.00     0.068 A 
ATOM     78  C   UNL A   1      29.552  27.192  23.628  1.00  0.00     0.023 A 
ATOM     79  Cl  UNL A   1      29.803  29.821  23.181  1.00  0.00    -0.083 Cl
ATOM     80  C   UNL A   1      29.883  25.956  24.192  1.00  0.00     0.022 A 
BRANCH  77  81
ATOM     81  S   UNL A   1      31.473  24.323  25.805  1.00  0.00     0.183 S 
ATOM     82  O   UNL A   1      31.329  24.549  27.231  1.00  0.00    -0.223 OA
ATOM     83  O   UNL A   1      30.705  23.279  25.154  1.00  0.00    -0.223 OA
BRANCH  81  84
ATOM     84  C   UNL A   1      33.200  24.009  25.513  1.00  0.00     0.191 C 
BRANCH  84  85
ATOM     85  C   UNL A   1      33.468  22.689  24.841  1.00  0.00     0.045 C 
ATOM     86  Cl  UNL A   1      33.428  22.746  23.100  1.00  0.00    -0.087 Cl
ATOM     87  C   UNL A   1      33.867  21.579  25.478  1.00  0.00     0.097 C 
ATOM     88  Cl  UNL A   1      34.254  20.079  24.737  1.00  0.00    -0.092 Cl
ENDBRANCH  84  85
ENDBRANCH  81  84
ENDBRANCH  77  81
ENDBRANCH  72  74
ENDBRANCH  71  72
ENDBRANCH   1  71
TORSDOF 14
ENDMDL
