MODEL 1
REMARK VINA RESULT:     -14.3      0.000      0.000
REMARK SMILES [NH3+][C@]1(C(=O)OCCOC(=O)c2ccc(-c3c4nc(c(-c5c(F)c(F)c(F)c(F)c5F)c5ccc([nH]5)c(-c5c(F)c(F)c(F)c(F)c5F)c5nc(c(-c6c(F)c(F)c(F)c(F)c6F)c6ccc3[nH]6)C=C5)C=C4)cc2)CCC[C@@H](Oc2ccc3c(c2)CCC3)C1
REMARK SMILES IDX 6 1 5 2 3 3 4 4 2 5 74 6 88 7 75 8 77 9 76 10 1 11 78 15
REMARK SMILES IDX 79 16 80 17 84 18 81 19 83 20 82 21 85 22 87 23 86 24 7 25
REMARK SMILES IDX 8 26 9 27 10 28 11 29 12 30 73 31 13 32 72 33 14 34 15 35
REMARK SMILES IDX 16 36 66 37 17 38 71 39 65 40 67 41 18 42 70 43 64 44 63 45
REMARK SMILES IDX 19 47 51 48 31 49 50 50 32 51 35 52 49 53 68 54 33 55 34 56
REMARK SMILES IDX 48 58 69 59 36 60 20 61 21 62 29 63 22 64 23 65 27 66 30 67
REMARK SMILES IDX 24 68 25 69 28 70 26 71 52 72 53 73 61 74 54 75 55 76 59 77
REMARK SMILES IDX 62 78 56 79 57 80 60 81 58 82 37 83 38 84 46 85 39 86 40 87
REMARK SMILES IDX 44 88 47 89 41 90 42 91 45 92 43 93
REMARK H PARENT 1 12 1 13 1 14 67 46 35 57
REMARK Flexibility Score: inf
ROOT
ATOM      1  C   UNL A   1      32.110  27.604  23.076  1.00  0.00     0.274 C 
ENDROOT
BRANCH   1   2
ATOM      2  O   UNL A   1      32.273  26.264  23.651  1.00  0.00    -0.457 OA
BRANCH   2   3
ATOM      3  C   UNL A   1      31.179  25.633  24.204  1.00  0.00     0.368 C 
ATOM      4  O   UNL A   1      30.156  25.353  23.583  1.00  0.00    -0.245 OA
BRANCH   3   5
ATOM      5  C   UNL A   1      31.416  25.199  25.741  1.00  0.00     0.196 C 
ATOM      6  C   UNL A   1      30.822  23.806  26.209  1.00  0.00     0.081 C 
ATOM      7  C   UNL A   1      32.892  25.371  26.130  1.00  0.00     0.126 C 
ATOM      8  C   UNL A   1      31.759  22.606  26.460  1.00  0.00     0.011 C 
ATOM      9  C   UNL A   1      33.743  24.093  26.132  1.00  0.00     0.180 C 
ATOM     10  C   UNL A   1      33.130  22.986  26.969  1.00  0.00     0.046 C 
BRANCH   5  11
ATOM     11  N   UNL A   1      30.583  26.179  26.519  1.00  0.00    -0.343 N 
ATOM     12  H   UNL A   1      30.624  27.093  26.069  1.00  0.00     0.345 HD
ATOM     13  H   UNL A   1      30.945  26.252  27.470  1.00  0.00     0.345 HD
ATOM     14  H   UNL A   1      29.616  25.857  26.547  1.00  0.00     0.345 HD
ENDBRANCH   5  11
BRANCH   9  15
ATOM     15  O   UNL A   1      34.340  23.634  24.923  1.00  0.00    -0.490 OA
BRANCH  15  16
ATOM     16  C   UNL A   1      34.125  22.437  24.300  1.00  0.00     0.120 A 
ATOM     17  C   UNL A   1      32.753  22.501  23.107  1.00  0.00     0.047 A 
ATOM     18  C   UNL A   1      34.679  20.815  24.918  1.00  0.00     0.050 A 
ATOM     19  C   UNL A   1      31.987  20.957  22.508  1.00  0.00     0.008 A 
ATOM     20  C   UNL A   1      33.815  19.274  24.406  1.00  0.00    -0.041 A 
ATOM     21  C   UNL A   1      32.527  19.372  23.160  1.00  0.00    -0.045 A 
ATOM     22  C   UNL A   1      34.314  17.865  24.394  1.00  0.00     0.036 C 
ATOM     23  C   UNL A   1      32.461  17.995  22.583  1.00  0.00     0.036 C 
ATOM     24  C   UNL A   1      33.134  17.130  23.698  1.00  0.00     0.010 C 
ENDBRANCH  15  16
ENDBRANCH   9  15
ENDBRANCH   3   5
ENDBRANCH   2   3
ENDBRANCH   1   2
BRANCH   1  25
ATOM     25  C   UNL A   1      31.732  28.713  24.155  1.00  0.00     0.275 C 
BRANCH  25  26
ATOM     26  O   UNL A   1      32.839  29.303  25.339  1.00  0.00    -0.458 OA
BRANCH  26  27
ATOM     27  C   UNL A   1      33.387  30.433  26.743  1.00  0.00     0.338 C 
ATOM     28  O   UNL A   1      32.581  31.249  27.282  1.00  0.00    -0.246 OA
BRANCH  27  29
ATOM     29  C   UNL A   1      34.730  30.837  27.471  1.00  0.00     0.060 A 
ATOM     30  C   UNL A   1      35.327  29.668  28.017  1.00  0.00     0.016 A 
ATOM     31  C   UNL A   1      35.427  32.016  27.761  1.00  0.00     0.016 A 
ATOM     32  C   UNL A   1      36.313  29.658  28.955  1.00  0.00     0.010 A 
ATOM     33  C   UNL A   1      36.630  31.981  28.534  1.00  0.00     0.010 A 
ATOM     34  C   UNL A   1      37.082  30.786  29.118  1.00  0.00    -0.014 A 
BRANCH  34  35
ATOM     35  C   UNL A   1      38.328  30.511  29.875  1.00  0.00     0.031 A 
ATOM     36  C   UNL A   1      38.396  30.784  31.337  1.00  0.00     0.074 A 
ATOM     37  C   UNL A   1      39.253  29.719  29.273  1.00  0.00     0.049 A 
ATOM     38  N   UNL A   1      39.369  30.509  32.165  1.00  0.00    -0.248 NA
ATOM     39  C   UNL A   1      37.248  31.463  31.954  1.00  0.00     0.031 C 
ATOM     40  C   UNL A   1      39.208  29.305  27.861  1.00  0.00     0.029 A 
ATOM     41  N   UNL A   1      40.297  28.988  29.781  1.00  0.00    -0.354 N 
ATOM     42  C   UNL A   1      38.998  31.071  33.374  1.00  0.00     0.074 A 
ATOM     43  C   UNL A   1      37.684  31.652  33.191  1.00  0.00     0.031 C 
ATOM     44  C   UNL A   1      40.032  28.268  27.674  1.00  0.00     0.029 A 
ATOM     45  C   UNL A   1      40.806  28.068  28.888  1.00  0.00     0.049 A 
ATOM     46  H   UNL A   1      40.648  29.108  30.693  1.00  0.00     0.167 HD
ATOM     47  C   UNL A   1      39.733  31.126  34.507  1.00  0.00     0.037 A 
ATOM     48  C   UNL A   1      41.816  27.186  29.016  1.00  0.00     0.037 A 
ATOM     49  C   UNL A   1      41.012  30.477  34.655  1.00  0.00     0.049 A 
ATOM     50  C   UNL A   1      42.583  27.218  30.301  1.00  0.00     0.074 A 
ATOM     51  C   UNL A   1      41.889  30.517  35.724  1.00  0.00     0.029 A 
ATOM     52  N   UNL A   1      41.582  29.636  33.704  1.00  0.00    -0.354 N 
ATOM     53  N   UNL A   1      42.325  27.904  31.389  1.00  0.00    -0.248 NA
ATOM     54  C   UNL A   1      43.810  26.420  30.361  1.00  0.00     0.031 C 
ATOM     55  C   UNL A   1      42.998  29.720  35.410  1.00  0.00     0.029 A 
ATOM     56  C   UNL A   1      42.796  29.151  34.162  1.00  0.00     0.049 A 
ATOM     57  H   UNL A   1      41.181  29.419  32.832  1.00  0.00     0.167 HD
ATOM     58  C   UNL A   1      43.385  27.669  32.244  1.00  0.00     0.074 A 
ATOM     59  C   UNL A   1      44.252  26.715  31.576  1.00  0.00     0.031 C 
ATOM     60  C   UNL A   1      43.642  28.224  33.454  1.00  0.00     0.037 A 
BRANCH  47  61
ATOM     61  C   UNL A   1      39.224  31.995  35.615  1.00  0.00     0.064 A 
ATOM     62  C   UNL A   1      39.553  33.352  35.723  1.00  0.00     0.173 A 
ATOM     63  C   UNL A   1      38.385  31.442  36.596  1.00  0.00     0.173 A 
ATOM     64  F   UNL A   1      40.377  33.921  34.831  1.00  0.00    -0.203 F 
ATOM     65  C   UNL A   1      39.068  34.122  36.779  1.00  0.00     0.198 A 
ATOM     66  C   UNL A   1      37.883  32.219  37.636  1.00  0.00     0.198 A 
ATOM     67  F   UNL A   1      38.051  30.144  36.545  1.00  0.00    -0.203 F 
ATOM     68  F   UNL A   1      39.429  35.409  36.889  1.00  0.00    -0.200 F 
ATOM     69  C   UNL A   1      38.229  33.558  37.730  1.00  0.00     0.200 A 
ATOM     70  F   UNL A   1      37.071  31.670  38.549  1.00  0.00    -0.200 F 
ATOM     71  F   UNL A   1      37.763  34.302  38.742  1.00  0.00    -0.200 F 
ENDBRANCH  47  61
BRANCH  48  72
ATOM     72  C   UNL A   1      42.208  26.312  27.875  1.00  0.00     0.064 A 
ATOM     73  C   UNL A   1      41.591  25.073  27.650  1.00  0.00     0.173 A 
ATOM     74  C   UNL A   1      43.189  26.717  26.952  1.00  0.00     0.173 A 
ATOM     75  F   UNL A   1      40.675  24.613  28.516  1.00  0.00    -0.203 F 
ATOM     76  C   UNL A   1      41.922  24.290  26.542  1.00  0.00     0.198 A 
ATOM     77  C   UNL A   1      43.488  25.956  25.825  1.00  0.00     0.198 A 
ATOM     78  F   UNL A   1      43.831  27.882  27.124  1.00  0.00    -0.203 F 
ATOM     79  F   UNL A   1      41.335  23.098  26.366  1.00  0.00    -0.200 F 
ATOM     80  C   UNL A   1      42.856  24.741  25.621  1.00  0.00     0.200 A 
ATOM     81  F   UNL A   1      44.376  26.410  24.930  1.00  0.00    -0.200 F 
ATOM     82  F   UNL A   1      43.150  24.004  24.541  1.00  0.00    -0.200 F 
ENDBRANCH  48  72
BRANCH  60  83
ATOM     83  C   UNL A   1      44.928  27.813  34.096  1.00  0.00     0.064 A 
ATOM     84  C   UNL A   1      46.121  28.504  33.834  1.00  0.00     0.173 A 
ATOM     85  C   UNL A   1      44.974  26.706  34.953  1.00  0.00     0.173 A 
ATOM     86  F   UNL A   1      46.123  29.556  33.001  1.00  0.00    -0.203 F 
ATOM     87  C   UNL A   1      47.325  28.077  34.384  1.00  0.00     0.198 A 
ATOM     88  C   UNL A   1      46.176  26.297  35.519  1.00  0.00     0.198 A 
ATOM     89  F   UNL A   1      43.857  26.017  35.228  1.00  0.00    -0.203 F 
ATOM     90  F   UNL A   1      48.462  28.713  34.074  1.00  0.00    -0.200 F 
ATOM     91  C   UNL A   1      47.351  26.975  35.226  1.00  0.00     0.200 A 
ATOM     92  F   UNL A   1      46.203  25.233  36.334  1.00  0.00    -0.200 F 
ATOM     93  F   UNL A   1      48.514  26.555  35.742  1.00  0.00    -0.200 F 
ENDBRANCH  60  83
ENDBRANCH  34  35
ENDBRANCH  27  29
ENDBRANCH  26  27
ENDBRANCH  25  26
ENDBRANCH   1  25
TORSDOF 14
ENDMDL
MODEL 2
REMARK VINA RESULT:     -14.3      0.138      1.607
REMARK SMILES [NH3+][C@]1(C(=O)OCCOC(=O)c2ccc(-c3c4nc(c(-c5c(F)c(F)c(F)c(F)c5F)c5ccc([nH]5)c(-c5c(F)c(F)c(F)c(F)c5F)c5nc(c(-c6c(F)c(F)c(F)c(F)c6F)c6ccc3[nH]6)C=C5)C=C4)cc2)CCC[C@@H](Oc2ccc3c(c2)CCC3)C1
REMARK SMILES IDX 6 1 5 2 3 3 4 4 2 5 74 6 88 7 75 8 77 9 76 10 1 11 78 15
REMARK SMILES IDX 79 16 80 17 84 18 81 19 83 20 82 21 85 22 87 23 86 24 7 25
REMARK SMILES IDX 8 26 9 27 10 28 11 29 12 30 73 31 13 32 72 33 14 34 15 35
REMARK SMILES IDX 16 36 66 37 17 38 71 39 65 40 67 41 18 42 70 43 64 44 63 45
REMARK SMILES IDX 19 47 51 48 31 49 50 50 32 51 35 52 49 53 68 54 33 55 34 56
REMARK SMILES IDX 48 58 69 59 36 60 20 61 21 62 29 63 22 64 23 65 27 66 30 67
REMARK SMILES IDX 24 68 25 69 28 70 26 71 52 72 53 73 61 74 54 75 55 76 59 77
REMARK SMILES IDX 62 78 56 79 57 80 60 81 58 82 37 83 38 84 46 85 39 86 40 87
REMARK SMILES IDX 44 88 47 89 41 90 42 91 45 92 43 93
REMARK H PARENT 1 12 1 13 1 14 67 46 35 57
REMARK Flexibility Score: inf
ROOT
ATOM      1  C   UNL A   1      32.229  27.591  23.024  1.00  0.00     0.274 C 
ENDROOT
BRANCH   1   2
ATOM      2  O   UNL A   1      32.408  26.288  23.672  1.00  0.00    -0.457 OA
BRANCH   2   3
ATOM      3  C   UNL A   1      31.307  25.638  24.189  1.00  0.00     0.368 C 
ATOM      4  O   UNL A   1      30.303  25.358  23.538  1.00  0.00    -0.245 OA
BRANCH   3   5
ATOM      5  C   UNL A   1      31.510  25.182  25.724  1.00  0.00     0.196 C 
ATOM      6  C   UNL A   1      30.876  23.799  26.168  1.00  0.00     0.081 C 
ATOM      7  C   UNL A   1      32.984  25.315  26.136  1.00  0.00     0.126 C 
ATOM      8  C   UNL A   1      31.779  22.575  26.420  1.00  0.00     0.011 C 
ATOM      9  C   UNL A   1      33.803  24.015  26.138  1.00  0.00     0.180 C 
ATOM     10  C   UNL A   1      33.151  22.916  26.953  1.00  0.00     0.046 C 
BRANCH   5  11
ATOM     11  N   UNL A   1      30.690  26.174  26.500  1.00  0.00    -0.343 N 
ATOM     12  H   UNL A   1      31.062  26.257  27.446  1.00  0.00     0.345 HD
ATOM     13  H   UNL A   1      29.721  25.855  26.543  1.00  0.00     0.345 HD
ATOM     14  H   UNL A   1      30.728  27.083  26.039  1.00  0.00     0.345 HD
ENDBRANCH   5  11
BRANCH   9  15
ATOM     15  O   UNL A   1      34.407  23.555  24.932  1.00  0.00    -0.490 OA
BRANCH  15  16
ATOM     16  C   UNL A   1      34.193  22.360  24.308  1.00  0.00     0.120 A 
ATOM     17  C   UNL A   1      32.809  22.419  23.128  1.00  0.00     0.047 A 
ATOM     18  C   UNL A   1      34.761  20.738  24.915  1.00  0.00     0.050 A 
ATOM     19  C   UNL A   1      32.045  20.873  22.532  1.00  0.00     0.008 A 
ATOM     20  C   UNL A   1      33.901  19.194  24.406  1.00  0.00    -0.041 A 
ATOM     21  C   UNL A   1      32.600  19.289  23.174  1.00  0.00    -0.045 A 
ATOM     22  C   UNL A   1      34.407  17.788  24.385  1.00  0.00     0.036 C 
ATOM     23  C   UNL A   1      32.535  17.914  22.593  1.00  0.00     0.036 C 
ATOM     24  C   UNL A   1      33.224  17.049  23.697  1.00  0.00     0.010 C 
ENDBRANCH  15  16
ENDBRANCH   9  15
ENDBRANCH   3   5
ENDBRANCH   2   3
ENDBRANCH   1   2
BRANCH   1  25
ATOM     25  C   UNL A   1      31.794  28.745  24.033  1.00  0.00     0.275 C 
BRANCH  25  26
ATOM     26  O   UNL A   1      32.779  29.282  25.343  1.00  0.00    -0.458 OA
BRANCH  26  27
ATOM     27  C   UNL A   1      33.288  30.468  26.715  1.00  0.00     0.338 C 
ATOM     28  O   UNL A   1      32.483  31.338  27.164  1.00  0.00    -0.246 OA
BRANCH  27  29
ATOM     29  C   UNL A   1      34.602  30.868  27.496  1.00  0.00     0.060 A 
ATOM     30  C   UNL A   1      35.260  29.684  27.928  1.00  0.00     0.016 A 
ATOM     31  C   UNL A   1      35.231  32.048  27.913  1.00  0.00     0.016 A 
ATOM     32  C   UNL A   1      36.239  29.631  28.871  1.00  0.00     0.010 A 
ATOM     33  C   UNL A   1      36.430  31.999  28.692  1.00  0.00     0.010 A 
ATOM     34  C   UNL A   1      36.944  30.777  29.157  1.00  0.00    -0.014 A 
BRANCH  34  35
ATOM     35  C   UNL A   1      38.198  30.494  29.897  1.00  0.00     0.031 A 
ATOM     36  C   UNL A   1      38.280  30.743  31.362  1.00  0.00     0.074 A 
ATOM     37  C   UNL A   1      39.120  29.716  29.272  1.00  0.00     0.049 A 
ATOM     38  N   UNL A   1      39.262  30.457  32.176  1.00  0.00    -0.248 NA
ATOM     39  C   UNL A   1      37.135  31.406  32.002  1.00  0.00     0.031 C 
ATOM     40  C   UNL A   1      39.063  29.326  27.853  1.00  0.00     0.029 A 
ATOM     41  N   UNL A   1      40.172  28.981  29.756  1.00  0.00    -0.354 N 
ATOM     42  C   UNL A   1      38.901  30.997  33.398  1.00  0.00     0.074 A 
ATOM     43  C   UNL A   1      37.584  31.575  33.238  1.00  0.00     0.031 C 
ATOM     44  C   UNL A   1      39.889  28.296  27.641  1.00  0.00     0.029 A 
ATOM     45  C   UNL A   1      40.676  28.078  28.843  1.00  0.00     0.049 A 
ATOM     46  H   UNL A   1      40.531  29.086  30.667  1.00  0.00     0.167 HD
ATOM     47  C   UNL A   1      39.648  31.035  34.524  1.00  0.00     0.037 A 
ATOM     48  C   UNL A   1      41.690  27.199  28.946  1.00  0.00     0.037 A 
ATOM     49  C   UNL A   1      40.931  30.389  34.648  1.00  0.00     0.049 A 
ATOM     50  C   UNL A   1      42.470  27.211  30.224  1.00  0.00     0.074 A 
ATOM     51  C   UNL A   1      41.818  30.415  35.709  1.00  0.00     0.029 A 
ATOM     52  N   UNL A   1      41.494  29.567  33.677  1.00  0.00    -0.354 N 
ATOM     53  N   UNL A   1      42.221  27.878  31.325  1.00  0.00    -0.248 NA
ATOM     54  C   UNL A   1      43.701  26.418  30.257  1.00  0.00     0.031 C 
ATOM     55  C   UNL A   1      42.927  29.627  35.370  1.00  0.00     0.029 A 
ATOM     56  C   UNL A   1      42.714  29.079  34.115  1.00  0.00     0.049 A 
ATOM     57  H   UNL A   1      41.085  29.363  32.806  1.00  0.00     0.167 HD
ATOM     58  C   UNL A   1      43.290  27.633  32.165  1.00  0.00     0.074 A 
ATOM     59  C   UNL A   1      44.154  26.694  31.473  1.00  0.00     0.031 C 
ATOM     60  C   UNL A   1      43.557  28.168  33.382  1.00  0.00     0.037 A 
BRANCH  47  61
ATOM     61  C   UNL A   1      39.146  31.883  35.652  1.00  0.00     0.064 A 
ATOM     62  C   UNL A   1      38.303  31.386  36.654  1.00  0.00     0.173 A 
ATOM     63  C   UNL A   1      39.525  33.233  35.722  1.00  0.00     0.173 A 
ATOM     64  F   UNL A   1      37.886  30.112  36.616  1.00  0.00    -0.203 F 
ATOM     65  C   UNL A   1      37.848  32.214  37.679  1.00  0.00     0.198 A 
ATOM     66  C   UNL A   1      39.089  34.051  36.760  1.00  0.00     0.198 A 
ATOM     67  F   UNL A   1      40.321  33.761  34.779  1.00  0.00    -0.203 F 
ATOM     68  F   UNL A   1      37.007  31.731  38.605  1.00  0.00    -0.200 F 
ATOM     69  C   UNL A   1      38.246  33.543  37.735  1.00  0.00     0.200 A 
ATOM     70  F   UNL A   1      39.478  35.332  36.811  1.00  0.00    -0.200 F 
ATOM     71  F   UNL A   1      37.809  34.335  38.724  1.00  0.00    -0.200 F 
ENDBRANCH  47  61
BRANCH  48  72
ATOM     72  C   UNL A   1      42.074  26.346  27.785  1.00  0.00     0.064 A 
ATOM     73  C   UNL A   1      43.086  26.729  26.893  1.00  0.00     0.173 A 
ATOM     74  C   UNL A   1      41.460  25.100  27.564  1.00  0.00     0.173 A 
ATOM     75  F   UNL A   1      43.683  27.923  27.029  1.00  0.00    -0.203 F 
ATOM     76  C   UNL A   1      43.481  25.894  25.847  1.00  0.00     0.198 A 
ATOM     77  C   UNL A   1      41.884  24.250  26.546  1.00  0.00     0.198 A 
ATOM     78  F   UNL A   1      40.471  24.687  28.370  1.00  0.00    -0.203 F 
ATOM     79  F   UNL A   1      44.433  26.295  24.993  1.00  0.00    -0.200 F 
ATOM     80  C   UNL A   1      42.893  24.648  25.685  1.00  0.00     0.200 A 
ATOM     81  F   UNL A   1      41.324  23.040  26.412  1.00  0.00    -0.200 F 
ATOM     82  F   UNL A   1      43.295  23.833  24.700  1.00  0.00    -0.200 F 
ENDBRANCH  48  72
BRANCH  60  83
ATOM     83  C   UNL A   1      44.851  27.751  34.004  1.00  0.00     0.064 A 
ATOM     84  C   UNL A   1      46.031  28.474  33.773  1.00  0.00     0.173 A 
ATOM     85  C   UNL A   1      44.917  26.608  34.811  1.00  0.00     0.173 A 
ATOM     86  F   UNL A   1      46.013  29.562  32.988  1.00  0.00    -0.203 F 
ATOM     87  C   UNL A   1      47.243  28.044  34.302  1.00  0.00     0.198 A 
ATOM     88  C   UNL A   1      46.128  26.195  35.357  1.00  0.00     0.198 A 
ATOM     89  F   UNL A   1      43.813  25.888  35.056  1.00  0.00    -0.203 F 
ATOM     90  F   UNL A   1      48.369  28.714  34.019  1.00  0.00    -0.200 F 
ATOM     91  C   UNL A   1      47.291  26.906  35.093  1.00  0.00     0.200 A 
ATOM     92  F   UNL A   1      46.175  25.096  36.123  1.00  0.00    -0.200 F 
ATOM     93  F   UNL A   1      48.461  26.484  35.589  1.00  0.00    -0.200 F 
ENDBRANCH  60  83
ENDBRANCH  34  35
ENDBRANCH  27  29
ENDBRANCH  26  27
ENDBRANCH  25  26
ENDBRANCH   1  25
TORSDOF 14
ENDMDL
MODEL 3
REMARK VINA RESULT:     -14.0      0.611      7.413
REMARK SMILES [NH3+][C@]1(C(=O)OCCOC(=O)c2ccc(-c3c4nc(c(-c5c(F)c(F)c(F)c(F)c5F)c5ccc([nH]5)c(-c5c(F)c(F)c(F)c(F)c5F)c5nc(c(-c6c(F)c(F)c(F)c(F)c6F)c6ccc3[nH]6)C=C5)C=C4)cc2)CCC[C@@H](Oc2ccc3c(c2)CCC3)C1
REMARK SMILES IDX 6 1 5 2 3 3 4 4 2 5 74 6 88 7 75 8 77 9 76 10 1 11 78 15
REMARK SMILES IDX 79 16 80 17 84 18 81 19 83 20 82 21 85 22 87 23 86 24 7 25
REMARK SMILES IDX 8 26 9 27 10 28 11 29 12 30 73 31 13 32 72 33 14 34 15 35
REMARK SMILES IDX 16 36 66 37 17 38 71 39 65 40 67 41 18 42 70 43 64 44 63 45
REMARK SMILES IDX 19 47 51 48 31 49 50 50 32 51 35 52 49 53 68 54 33 55 34 56
REMARK SMILES IDX 48 58 69 59 36 60 20 61 21 62 29 63 22 64 23 65 27 66 30 67
REMARK SMILES IDX 24 68 25 69 28 70 26 71 52 72 53 73 61 74 54 75 55 76 59 77
REMARK SMILES IDX 62 78 56 79 57 80 60 81 58 82 37 83 38 84 46 85 39 86 40 87
REMARK SMILES IDX 44 88 47 89 41 90 42 91 45 92 43 93
REMARK H PARENT 1 12 1 13 1 14 67 46 35 57
REMARK Flexibility Score: inf
ROOT
ATOM      1  C   UNL A   1      31.573  28.178  23.126  1.00  0.00     0.274 C 
ENDROOT
BRANCH   1   2
ATOM      2  O   UNL A   1      30.980  27.261  24.105  1.00  0.00    -0.457 OA
BRANCH   2   3
ATOM      3  C   UNL A   1      31.415  25.953  24.149  1.00  0.00     0.368 C 
ATOM      4  O   UNL A   1      31.759  25.307  23.162  1.00  0.00    -0.245 OA
BRANCH   3   5
ATOM      5  C   UNL A   1      31.528  25.379  25.653  1.00  0.00     0.196 C 
ATOM      6  C   UNL A   1      30.733  24.051  25.994  1.00  0.00     0.081 C 
ATOM      7  C   UNL A   1      32.997  25.317  26.098  1.00  0.00     0.126 C 
ATOM      8  C   UNL A   1      31.488  22.718  26.178  1.00  0.00     0.011 C 
ATOM      9  C   UNL A   1      33.667  23.936  26.027  1.00  0.00     0.180 C 
ATOM     10  C   UNL A   1      32.876  22.867  26.756  1.00  0.00     0.046 C 
BRANCH   5  11
ATOM     11  N   UNL A   1      30.806  26.405  26.480  1.00  0.00    -0.343 N 
ATOM     12  H   UNL A   1      29.867  26.068  26.696  1.00  0.00     0.345 HD
ATOM     13  H   UNL A   1      30.741  27.279  25.958  1.00  0.00     0.345 HD
ATOM     14  H   UNL A   1      31.317  26.565  27.348  1.00  0.00     0.345 HD
ENDBRANCH   5  11
BRANCH   9  15
ATOM     15  O   UNL A   1      34.244  23.489  24.804  1.00  0.00    -0.490 OA
BRANCH  15  16
ATOM     16  C   UNL A   1      34.087  22.266  24.217  1.00  0.00     0.120 A 
ATOM     17  C   UNL A   1      32.707  22.225  23.032  1.00  0.00     0.047 A 
ATOM     18  C   UNL A   1      34.726  20.692  24.877  1.00  0.00     0.050 A 
ATOM     19  C   UNL A   1      32.017  20.628  22.483  1.00  0.00     0.008 A 
ATOM     20  C   UNL A   1      33.939  19.095  24.415  1.00  0.00    -0.041 A 
ATOM     21  C   UNL A   1      32.640  19.092  23.177  1.00  0.00    -0.045 A 
ATOM     22  C   UNL A   1      34.509  17.713  24.439  1.00  0.00     0.036 C 
ATOM     23  C   UNL A   1      32.641  17.697  22.639  1.00  0.00     0.036 C 
ATOM     24  C   UNL A   1      33.363  16.900  23.773  1.00  0.00     0.010 C 
ENDBRANCH  15  16
ENDBRANCH   9  15
ENDBRANCH   3   5
ENDBRANCH   2   3
ENDBRANCH   1   2
BRANCH   1  25
ATOM     25  C   UNL A   1      32.774  29.043  23.718  1.00  0.00     0.275 C 
BRANCH  25  26
ATOM     26  O   UNL A   1      32.660  29.952  25.180  1.00  0.00    -0.458 OA
BRANCH  26  27
ATOM     27  C   UNL A   1      33.354  30.861  26.676  1.00  0.00     0.338 C 
ATOM     28  O   UNL A   1      32.704  31.792  27.239  1.00  0.00    -0.246 OA
BRANCH  27  29
ATOM     29  C   UNL A   1      34.712  30.937  27.480  1.00  0.00     0.060 A 
ATOM     30  C   UNL A   1      35.000  29.653  28.020  1.00  0.00     0.016 A 
ATOM     31  C   UNL A   1      35.639  31.923  27.840  1.00  0.00     0.016 A 
ATOM     32  C   UNL A   1      35.906  29.403  29.003  1.00  0.00     0.010 A 
ATOM     33  C   UNL A   1      36.761  31.602  28.668  1.00  0.00     0.010 A 
ATOM     34  C   UNL A   1      36.900  30.325  29.237  1.00  0.00    -0.014 A 
BRANCH  34  35
ATOM     35  C   UNL A   1      38.009  29.760  30.045  1.00  0.00     0.031 A 
ATOM     36  C   UNL A   1      39.171  29.111  29.377  1.00  0.00     0.074 A 
ATOM     37  C   UNL A   1      38.081  30.142  31.346  1.00  0.00     0.049 A 
ATOM     38  N   UNL A   1      40.267  28.658  29.925  1.00  0.00    -0.248 NA
ATOM     39  C   UNL A   1      39.100  28.927  27.921  1.00  0.00     0.031 C 
ATOM     40  C   UNL A   1      37.028  30.885  32.060  1.00  0.00     0.029 A 
ATOM     41  N   UNL A   1      39.115  30.121  32.247  1.00  0.00    -0.354 N 
ATOM     42  C   UNL A   1      40.967  28.044  28.902  1.00  0.00     0.074 A 
ATOM     43  C   UNL A   1      40.204  28.233  27.687  1.00  0.00     0.031 C 
ATOM     44  C   UNL A   1      37.535  31.409  33.181  1.00  0.00     0.029 A 
ATOM     45  C   UNL A   1      38.877  30.886  33.371  1.00  0.00     0.049 A 
ATOM     46  H   UNL A   1      39.945  29.612  32.106  1.00  0.00     0.167 HD
ATOM     47  C   UNL A   1      42.121  27.347  29.008  1.00  0.00     0.037 A 
ATOM     48  C   UNL A   1      39.640  31.109  34.458  1.00  0.00     0.037 A 
ATOM     49  C   UNL A   1      42.874  27.241  30.233  1.00  0.00     0.049 A 
ATOM     50  C   UNL A   1      40.943  30.376  34.533  1.00  0.00     0.074 A 
ATOM     51  C   UNL A   1      44.017  26.505  30.490  1.00  0.00     0.029 A 
ATOM     52  N   UNL A   1      42.570  27.925  31.405  1.00  0.00    -0.354 N 
ATOM     53  N   UNL A   1      41.517  29.636  33.614  1.00  0.00    -0.248 NA
ATOM     54  C   UNL A   1      41.670  30.442  35.803  1.00  0.00     0.031 C 
ATOM     55  C   UNL A   1      44.389  26.727  31.822  1.00  0.00     0.029 A 
ATOM     56  C   UNL A   1      43.502  27.631  32.386  1.00  0.00     0.049 A 
ATOM     57  H   UNL A   1      41.801  28.530  31.521  1.00  0.00     0.167 HD
ATOM     58  C   UNL A   1      42.643  29.100  34.210  1.00  0.00     0.074 A 
ATOM     59  C   UNL A   1      42.711  29.662  35.546  1.00  0.00     0.031 C 
ATOM     60  C   UNL A   1      43.518  28.192  33.714  1.00  0.00     0.037 A 
BRANCH  47  61
ATOM     61  C   UNL A   1      42.566  26.568  27.809  1.00  0.00     0.064 A 
ATOM     62  C   UNL A   1      43.488  27.070  26.882  1.00  0.00     0.173 A 
ATOM     63  C   UNL A   1      42.045  25.283  27.589  1.00  0.00     0.173 A 
ATOM     64  F   UNL A   1      43.990  28.305  27.028  1.00  0.00    -0.203 F 
ATOM     65  C   UNL A   1      43.865  26.317  25.770  1.00  0.00     0.198 A 
ATOM     66  C   UNL A   1      42.442  24.523  26.492  1.00  0.00     0.198 A 
ATOM     67  F   UNL A   1      41.149  24.761  28.441  1.00  0.00    -0.203 F 
ATOM     68  F   UNL A   1      44.715  26.831  24.871  1.00  0.00    -0.200 F 
ATOM     69  C   UNL A   1      43.347  25.042  25.581  1.00  0.00     0.200 A 
ATOM     70  F   UNL A   1      41.942  23.293  26.314  1.00  0.00    -0.200 F 
ATOM     71  F   UNL A   1      43.714  24.320  24.512  1.00  0.00    -0.200 F 
ENDBRANCH  47  61
BRANCH  48  72
ATOM     72  C   UNL A   1      39.137  31.957  35.576  1.00  0.00     0.064 A 
ATOM     73  C   UNL A   1      38.330  31.429  36.594  1.00  0.00     0.173 A 
ATOM     74  C   UNL A   1      39.487  33.315  35.672  1.00  0.00     0.173 A 
ATOM     75  F   UNL A   1      37.930  30.150  36.538  1.00  0.00    -0.203 F 
ATOM     76  C   UNL A   1      37.916  32.217  37.670  1.00  0.00     0.198 A 
ATOM     77  C   UNL A   1      39.109  34.089  36.767  1.00  0.00     0.198 A 
ATOM     78  F   UNL A   1      40.239  33.884  34.719  1.00  0.00    -0.203 F 
ATOM     79  F   UNL A   1      37.124  31.695  38.616  1.00  0.00    -0.200 F 
ATOM     80  C   UNL A   1      38.322  33.541  37.765  1.00  0.00     0.200 A 
ATOM     81  F   UNL A   1      39.524  35.360  36.860  1.00  0.00    -0.200 F 
ATOM     82  F   UNL A   1      37.950  34.288  38.814  1.00  0.00    -0.200 F 
ENDBRANCH  48  72
BRANCH  60  83
ATOM     83  C   UNL A   1      44.598  27.752  34.651  1.00  0.00     0.064 A 
ATOM     84  C   UNL A   1      44.420  26.641  35.489  1.00  0.00     0.173 A 
ATOM     85  C   UNL A   1      45.803  28.461  34.730  1.00  0.00     0.173 A 
ATOM     86  F   UNL A   1      43.271  25.949  35.458  1.00  0.00    -0.203 F 
ATOM     87  C   UNL A   1      45.402  26.277  36.403  1.00  0.00     0.198 A 
ATOM     88  C   UNL A   1      46.792  28.079  35.630  1.00  0.00     0.198 A 
ATOM     89  F   UNL A   1      46.012  29.529  33.947  1.00  0.00    -0.203 F 
ATOM     90  F   UNL A   1      45.189  25.250  37.237  1.00  0.00    -0.200 F 
ATOM     91  C   UNL A   1      46.587  26.995  36.473  1.00  0.00     0.200 A 
ATOM     92  F   UNL A   1      47.938  28.771  35.697  1.00  0.00    -0.200 F 
ATOM     93  F   UNL A   1      47.526  26.653  37.365  1.00  0.00    -0.200 F 
ENDBRANCH  60  83
ENDBRANCH  34  35
ENDBRANCH  27  29
ENDBRANCH  26  27
ENDBRANCH  25  26
ENDBRANCH   1  25
TORSDOF 14
ENDMDL
