MODEL 1
REMARK VINA RESULT:     -10.8      0.000      0.000
REMARK SMILES COc1ccc(C(=O)N(C)CCC(=O)OCCOC(=O)c2ccc(-c3c4nc(c(-c5c(F)c(F)c(F)c(F)c5F)c5ccc([nH]5)c(-c5c(F)c(F)c(F)c(F)c5F)c5nc(c(-c6c(F)c(F)c(F)c(F)c6F)c6ccc3[nH]6)C=C5)C=C4)cc2)cc1O
REMARK SMILES IDX 15 1 13 2 14 3 12 4 11 5 9 6 10 7 7 8 8 9 6 10 3 11 4 12
REMARK SMILES IDX 85 13 5 14 84 15 2 16 1 17 86 18 16 20 17 21 18 22 19 23
REMARK SMILES IDX 20 24 21 25 22 26 83 27 23 28 82 29 24 30 25 31 26 32 76 33
REMARK SMILES IDX 27 34 81 35 75 36 77 37 28 38 80 39 74 40 73 41 29 43 61 44
REMARK SMILES IDX 41 45 60 46 42 47 45 48 59 49 78 50 43 51 44 52 58 54 79 55
REMARK SMILES IDX 46 56 30 57 31 58 39 59 32 60 33 61 37 62 40 63 34 64 35 65
REMARK SMILES IDX 38 66 36 67 62 68 63 69 71 70 64 71 65 72 69 73 72 74 66 75
REMARK SMILES IDX 67 76 70 77 68 78 47 79 48 80 56 81 49 82 50 83 54 84 57 85
REMARK SMILES IDX 51 86 52 87 55 88 53 89
REMARK H PARENT 86 19 77 42 45 53
REMARK Flexibility Score: inf
ROOT
ATOM      1  O   UNL A   1      37.757  21.008  24.818  1.00  0.00    -0.462 OA
ENDROOT
BRANCH   1   2
ATOM      2  C   UNL A   1      36.564  21.568  25.132  1.00  0.00     0.307 C 
ATOM      3  O   UNL A   1      35.970  21.428  26.194  1.00  0.00    -0.252 OA
BRANCH   2   4
ATOM      4  C   UNL A   1      36.006  22.376  23.987  1.00  0.00     0.144 C 
BRANCH   4   5
ATOM      5  C   UNL A   1      34.767  23.183  24.374  1.00  0.00     0.131 C 
BRANCH   5   6
ATOM      6  N   UNL A   1      33.587  22.799  23.586  1.00  0.00    -0.341 N 
ATOM      7  C   UNL A   1      33.514  23.322  22.234  1.00  0.00     0.147 C 
BRANCH   6   8
ATOM      8  C   UNL A   1      32.654  21.969  24.210  1.00  0.00     0.253 C 
ATOM      9  O   UNL A   1      31.703  22.471  24.816  1.00  0.00    -0.269 OA
BRANCH   8  10
ATOM     10  C   UNL A   1      32.650  20.472  24.097  1.00  0.00     0.043 A 
ATOM     11  C   UNL A   1      32.815  17.624  24.155  1.00  0.00     0.160 A 
ATOM     12  C   UNL A   1      33.213  18.385  25.253  1.00  0.00     0.051 A 
ATOM     13  C   UNL A   1      32.322  18.304  23.041  1.00  0.00     0.158 A 
ATOM     14  C   UNL A   1      33.144  19.781  25.220  1.00  0.00     0.018 A 
ATOM     15  C   UNL A   1      32.203  19.704  23.024  1.00  0.00     0.064 A 
BRANCH  11  16
ATOM     16  O   UNL A   1      32.988  16.285  24.346  1.00  0.00    -0.493 OA
ATOM     17  C   UNL A   1      33.958  15.830  25.273  1.00  0.00     0.278 C 
ENDBRANCH  11  16
BRANCH  13  18
ATOM     18  O   UNL A   1      31.977  17.685  21.872  1.00  0.00    -0.504 OA
ATOM     19  H   UNL A   1      32.252  16.805  21.708  1.00  0.00     0.293 HD
ENDBRANCH  13  18
ENDBRANCH   8  10
ENDBRANCH   6   8
ENDBRANCH   5   6
ENDBRANCH   4   5
ENDBRANCH   2   4
ENDBRANCH   1   2
BRANCH   1  20
ATOM     20  C   UNL A   1      37.869  19.580  24.975  1.00  0.00     0.274 C 
BRANCH  20  21
ATOM     21  C   UNL A   1      39.149  19.212  25.725  1.00  0.00     0.275 C 
BRANCH  21  22
ATOM     22  O   UNL A   1      39.945  20.396  25.893  1.00  0.00    -0.458 OA
BRANCH  22  23
ATOM     23  C   UNL A   1      40.570  20.538  27.077  1.00  0.00     0.338 C 
ATOM     24  O   UNL A   1      40.790  19.695  27.934  1.00  0.00    -0.246 OA
BRANCH  23  25
ATOM     25  C   UNL A   1      40.900  21.955  27.246  1.00  0.00     0.060 A 
ATOM     26  C   UNL A   1      40.301  22.929  26.442  1.00  0.00     0.016 A 
ATOM     27  C   UNL A   1      41.861  22.299  28.196  1.00  0.00     0.016 A 
ATOM     28  C   UNL A   1      40.682  24.263  26.578  1.00  0.00     0.010 A 
ATOM     29  C   UNL A   1      42.217  23.636  28.353  1.00  0.00     0.010 A 
ATOM     30  C   UNL A   1      41.645  24.624  27.533  1.00  0.00    -0.014 A 
BRANCH  30  31
ATOM     31  C   UNL A   1      42.094  26.027  27.669  1.00  0.00     0.031 A 
ATOM     32  C   UNL A   1      43.431  26.434  27.122  1.00  0.00     0.074 A 
ATOM     33  C   UNL A   1      41.326  26.915  28.326  1.00  0.00     0.049 A 
ATOM     34  N   UNL A   1      44.072  27.566  27.256  1.00  0.00    -0.248 NA
ATOM     35  C   UNL A   1      44.146  25.426  26.325  1.00  0.00     0.031 C 
ATOM     36  C   UNL A   1      40.005  26.633  28.884  1.00  0.00     0.029 A 
ATOM     37  N   UNL A   1      41.559  28.226  28.651  1.00  0.00    -0.354 N 
ATOM     38  C   UNL A   1      45.273  27.401  26.580  1.00  0.00     0.074 A 
ATOM     39  C   UNL A   1      45.280  26.054  26.048  1.00  0.00     0.031 C 
ATOM     40  C   UNL A   1      39.545  27.739  29.493  1.00  0.00     0.029 A 
ATOM     41  C   UNL A   1      40.557  28.787  29.403  1.00  0.00     0.049 A 
ATOM     42  H   UNL A   1      42.365  28.718  28.373  1.00  0.00     0.167 HD
ATOM     43  C   UNL A   1      46.275  28.297  26.418  1.00  0.00     0.037 A 
ATOM     44  C   UNL A   1      40.482  30.001  29.980  1.00  0.00     0.037 A 
ATOM     45  C   UNL A   1      46.257  29.638  26.941  1.00  0.00     0.049 A 
ATOM     46  C   UNL A   1      41.626  30.964  29.816  1.00  0.00     0.074 A 
ATOM     47  C   UNL A   1      47.212  30.630  26.813  1.00  0.00     0.029 A 
ATOM     48  N   UNL A   1      45.224  30.172  27.696  1.00  0.00    -0.354 N 
ATOM     49  N   UNL A   1      42.753  30.806  29.166  1.00  0.00    -0.248 NA
ATOM     50  C   UNL A   1      41.488  32.273  30.469  1.00  0.00     0.031 C 
ATOM     51  C   UNL A   1      46.774  31.754  27.521  1.00  0.00     0.029 A 
ATOM     52  C   UNL A   1      45.526  31.476  28.057  1.00  0.00     0.049 A 
ATOM     53  H   UNL A   1      44.397  29.696  27.942  1.00  0.00     0.167 HD
ATOM     54  C   UNL A   1      43.450  31.996  29.316  1.00  0.00     0.074 A 
ATOM     55  C   UNL A   1      42.612  32.874  30.107  1.00  0.00     0.031 C 
ATOM     56  C   UNL A   1      44.675  32.331  28.842  1.00  0.00     0.037 A 
BRANCH  43  57
ATOM     57  C   UNL A   1      47.488  27.847  25.658  1.00  0.00     0.064 A 
ATOM     58  C   UNL A   1      48.649  27.415  26.316  1.00  0.00     0.173 A 
ATOM     59  C   UNL A   1      47.476  27.818  24.256  1.00  0.00     0.173 A 
ATOM     60  F   UNL A   1      48.715  27.437  27.655  1.00  0.00    -0.203 F 
ATOM     61  C   UNL A   1      49.763  26.990  25.595  1.00  0.00     0.198 A 
ATOM     62  C   UNL A   1      48.582  27.369  23.539  1.00  0.00     0.198 A 
ATOM     63  F   UNL A   1      46.388  28.216  23.580  1.00  0.00    -0.203 F 
ATOM     64  F   UNL A   1      50.876  26.618  26.242  1.00  0.00    -0.200 F 
ATOM     65  C   UNL A   1      49.726  26.962  24.209  1.00  0.00     0.200 A 
ATOM     66  F   UNL A   1      48.543  27.333  22.200  1.00  0.00    -0.200 F 
ATOM     67  F   UNL A   1      50.797  26.546  23.517  1.00  0.00    -0.200 F 
ENDBRANCH  43  57
BRANCH  44  68
ATOM     68  C   UNL A   1      39.281  30.367  30.773  1.00  0.00     0.064 A 
ATOM     69  C   UNL A   1      38.187  31.000  30.171  1.00  0.00     0.173 A 
ATOM     70  C   UNL A   1      39.200  30.083  32.145  1.00  0.00     0.173 A 
ATOM     71  F   UNL A   1      38.229  31.313  28.867  1.00  0.00    -0.203 F 
ATOM     72  C   UNL A   1      37.059  31.345  30.912  1.00  0.00     0.198 A 
ATOM     73  C   UNL A   1      38.063  30.407  32.879  1.00  0.00     0.198 A 
ATOM     74  F   UNL A   1      40.223  29.480  32.767  1.00  0.00    -0.203 F 
ATOM     75  F   UNL A   1      36.040  31.984  30.320  1.00  0.00    -0.200 F 
ATOM     76  C   UNL A   1      36.995  31.043  32.264  1.00  0.00     0.200 A 
ATOM     77  F   UNL A   1      38.000  30.103  34.183  1.00  0.00    -0.200 F 
ATOM     78  F   UNL A   1      35.907  31.369  32.975  1.00  0.00    -0.200 F 
ENDBRANCH  44  68
BRANCH  56  79
ATOM     79  C   UNL A   1      45.167  33.715  29.143  1.00  0.00     0.064 A 
ATOM     80  C   UNL A   1      45.958  33.982  30.270  1.00  0.00     0.173 A 
ATOM     81  C   UNL A   1      44.873  34.777  28.275  1.00  0.00     0.173 A 
ATOM     82  F   UNL A   1      46.252  33.001  31.136  1.00  0.00    -0.203 F 
ATOM     83  C   UNL A   1      46.421  35.270  30.527  1.00  0.00     0.198 A 
ATOM     84  C   UNL A   1      45.357  36.058  28.524  1.00  0.00     0.198 A 
ATOM     85  F   UNL A   1      44.123  34.570  27.182  1.00  0.00    -0.203 F 
ATOM     86  F   UNL A   1      47.141  35.512  31.631  1.00  0.00    -0.200 F 
ATOM     87  C   UNL A   1      46.125  36.304  29.652  1.00  0.00     0.200 A 
ATOM     88  F   UNL A   1      45.078  37.056  27.674  1.00  0.00    -0.200 F 
ATOM     89  F   UNL A   1      46.574  37.542  29.900  1.00  0.00    -0.200 F 
ENDBRANCH  56  79
ENDBRANCH  30  31
ENDBRANCH  23  25
ENDBRANCH  22  23
ENDBRANCH  21  22
ENDBRANCH  20  21
ENDBRANCH   1  20
TORSDOF 17
ENDMDL
MODEL 2
REMARK VINA RESULT:     -10.7      5.782      9.348
REMARK SMILES COc1ccc(C(=O)N(C)CCC(=O)OCCOC(=O)c2ccc(-c3c4nc(c(-c5c(F)c(F)c(F)c(F)c5F)c5ccc([nH]5)c(-c5c(F)c(F)c(F)c(F)c5F)c5nc(c(-c6c(F)c(F)c(F)c(F)c6F)c6ccc3[nH]6)C=C5)C=C4)cc2)cc1O
REMARK SMILES IDX 15 1 13 2 14 3 12 4 11 5 9 6 10 7 7 8 8 9 6 10 3 11 4 12
REMARK SMILES IDX 85 13 5 14 84 15 2 16 1 17 86 18 16 20 17 21 18 22 19 23
REMARK SMILES IDX 20 24 21 25 22 26 83 27 23 28 82 29 24 30 25 31 26 32 76 33
REMARK SMILES IDX 27 34 81 35 75 36 77 37 28 38 80 39 74 40 73 41 29 43 61 44
REMARK SMILES IDX 41 45 60 46 42 47 45 48 59 49 78 50 43 51 44 52 58 54 79 55
REMARK SMILES IDX 46 56 30 57 31 58 39 59 32 60 33 61 37 62 40 63 34 64 35 65
REMARK SMILES IDX 38 66 36 67 62 68 63 69 71 70 64 71 65 72 69 73 72 74 66 75
REMARK SMILES IDX 67 76 70 77 68 78 47 79 48 80 56 81 49 82 50 83 54 84 57 85
REMARK SMILES IDX 51 86 52 87 55 88 53 89
REMARK H PARENT 86 19 77 42 45 53
REMARK Flexibility Score: inf
ROOT
ATOM      1  O   UNL A   1      32.015  30.409  27.076  1.00  0.00    -0.462 OA
ENDROOT
BRANCH   1   2
ATOM      2  C   UNL A   1      32.471  29.290  26.464  1.00  0.00     0.307 C 
ATOM      3  O   UNL A   1      33.532  29.191  25.859  1.00  0.00    -0.252 OA
BRANCH   2   4
ATOM      4  C   UNL A   1      31.488  28.151  26.575  1.00  0.00     0.144 C 
BRANCH   4   5
ATOM      5  C   UNL A   1      31.995  26.860  25.930  1.00  0.00     0.131 C 
BRANCH   5   6
ATOM      6  N   UNL A   1      30.913  26.099  25.290  1.00  0.00    -0.341 N 
ATOM      7  C   UNL A   1      30.206  25.148  26.128  1.00  0.00     0.147 C 
BRANCH   6   8
ATOM      8  C   UNL A   1      30.667  26.364  23.941  1.00  0.00     0.253 C 
ATOM      9  O   UNL A   1      31.109  25.598  23.080  1.00  0.00    -0.269 OA
BRANCH   8  10
ATOM     10  C   UNL A   1      29.782  27.472  23.448  1.00  0.00     0.043 A 
ATOM     11  C   UNL A   1      28.368  29.757  22.490  1.00  0.00     0.160 A 
ATOM     12  C   UNL A   1      29.761  29.718  22.466  1.00  0.00     0.051 A 
ATOM     13  C   UNL A   1      27.697  28.637  22.983  1.00  0.00     0.158 A 
ATOM     14  C   UNL A   1      30.454  28.604  22.947  1.00  0.00     0.018 A 
ATOM     15  C   UNL A   1      28.389  27.495  23.419  1.00  0.00     0.064 A 
BRANCH  11  16
ATOM     16  O   UNL A   1      27.861  30.933  22.021  1.00  0.00    -0.493 OA
ATOM     17  C   UNL A   1      28.398  32.160  22.484  1.00  0.00     0.278 C 
ENDBRANCH  11  16
BRANCH  13  18
ATOM     18  O   UNL A   1      26.340  28.578  23.137  1.00  0.00    -0.504 OA
ATOM     19  H   UNL A   1      25.905  27.749  23.148  1.00  0.00     0.293 HD
ENDBRANCH  13  18
ENDBRANCH   8  10
ENDBRANCH   6   8
ENDBRANCH   5   6
ENDBRANCH   4   5
ENDBRANCH   2   4
ENDBRANCH   1   2
BRANCH   1  20
ATOM     20  C   UNL A   1      31.396  31.405  26.239  1.00  0.00     0.274 C 
BRANCH  20  21
ATOM     21  C   UNL A   1      31.503  32.793  26.871  1.00  0.00     0.275 C 
BRANCH  21  22
ATOM     22  O   UNL A   1      32.881  33.058  27.176  1.00  0.00    -0.458 OA
BRANCH  22  23
ATOM     23  C   UNL A   1      33.121  33.962  28.144  1.00  0.00     0.338 C 
ATOM     24  O   UNL A   1      32.535  35.008  28.378  1.00  0.00    -0.246 OA
BRANCH  23  25
ATOM     25  C   UNL A   1      34.315  33.534  28.877  1.00  0.00     0.060 A 
ATOM     26  C   UNL A   1      35.528  34.212  28.723  1.00  0.00     0.016 A 
ATOM     27  C   UNL A   1      34.220  32.407  29.692  1.00  0.00     0.016 A 
ATOM     28  C   UNL A   1      36.666  33.744  29.379  1.00  0.00     0.010 A 
ATOM     29  C   UNL A   1      35.350  31.960  30.372  1.00  0.00     0.010 A 
ATOM     30  C   UNL A   1      36.583  32.614  30.206  1.00  0.00    -0.014 A 
BRANCH  30  31
ATOM     31  C   UNL A   1      37.784  32.074  30.882  1.00  0.00     0.031 A 
ATOM     32  C   UNL A   1      38.588  30.995  30.218  1.00  0.00     0.074 A 
ATOM     33  C   UNL A   1      38.117  32.518  32.107  1.00  0.00     0.049 A 
ATOM     34  N   UNL A   1      39.583  30.291  30.692  1.00  0.00    -0.248 NA
ATOM     35  C   UNL A   1      38.212  30.657  28.836  1.00  0.00     0.031 C 
ATOM     36  C   UNL A   1      37.418  33.573  32.839  1.00  0.00     0.029 A 
ATOM     37  N   UNL A   1      39.116  32.120  32.958  1.00  0.00    -0.354 N 
ATOM     38  C   UNL A   1      39.940  29.414  29.677  1.00  0.00     0.074 A 
ATOM     39  C   UNL A   1      39.045  29.661  28.566  1.00  0.00     0.031 C 
ATOM     40  C   UNL A   1      38.006  33.734  34.037  1.00  0.00     0.029 A 
ATOM     41  C   UNL A   1      39.090  32.765  34.169  1.00  0.00     0.049 A 
ATOM     42  H   UNL A   1      39.787  31.439  32.723  1.00  0.00     0.167 HD
ATOM     43  C   UNL A   1      40.928  28.488  29.677  1.00  0.00     0.037 A 
ATOM     44  C   UNL A   1      39.839  32.572  35.271  1.00  0.00     0.037 A 
ATOM     45  C   UNL A   1      41.820  28.254  30.782  1.00  0.00     0.049 A 
ATOM     46  C   UNL A   1      40.905  31.512  35.257  1.00  0.00     0.074 A 
ATOM     47  C   UNL A   1      42.867  27.355  30.874  1.00  0.00     0.029 A 
ATOM     48  N   UNL A   1      41.764  28.929  31.993  1.00  0.00    -0.354 N 
ATOM     49  N   UNL A   1      41.244  30.693  34.292  1.00  0.00    -0.248 NA
ATOM     50  C   UNL A   1      41.690  31.346  36.488  1.00  0.00     0.031 C 
ATOM     51  C   UNL A   1      43.424  27.460  32.153  1.00  0.00     0.029 A 
ATOM     52  C   UNL A   1      42.749  28.454  32.845  1.00  0.00     0.049 A 
ATOM     53  H   UNL A   1      41.120  29.640  32.216  1.00  0.00     0.167 HD
ATOM     54  C   UNL A   1      42.290  29.928  34.789  1.00  0.00     0.074 A 
ATOM     55  C   UNL A   1      42.540  30.391  36.139  1.00  0.00     0.031 C 
ATOM     56  C   UNL A   1      42.981  28.932  34.183  1.00  0.00     0.037 A 
BRANCH  43  57
ATOM     57  C   UNL A   1      41.082  27.642  28.448  1.00  0.00     0.064 A 
ATOM     58  C   UNL A   1      40.340  26.466  28.266  1.00  0.00     0.173 A 
ATOM     59  C   UNL A   1      41.961  28.031  27.426  1.00  0.00     0.173 A 
ATOM     60  F   UNL A   1      39.497  26.045  29.220  1.00  0.00    -0.203 F 
ATOM     61  C   UNL A   1      40.488  25.698  27.114  1.00  0.00     0.198 A 
ATOM     62  C   UNL A   1      42.088  27.274  26.264  1.00  0.00     0.198 A 
ATOM     63  F   UNL A   1      42.690  29.150  27.550  1.00  0.00    -0.203 F 
ATOM     64  F   UNL A   1      39.797  24.558  26.976  1.00  0.00    -0.200 F 
ATOM     65  C   UNL A   1      41.356  26.106  26.112  1.00  0.00     0.200 A 
ATOM     66  F   UNL A   1      42.920  27.673  25.292  1.00  0.00    -0.200 F 
ATOM     67  F   UNL A   1      41.492  25.369  25.000  1.00  0.00    -0.200 F 
ENDBRANCH  43  57
BRANCH  44  68
ATOM     68  C   UNL A   1      39.597  33.399  36.480  1.00  0.00     0.064 A 
ATOM     69  C   UNL A   1      40.261  34.619  36.662  1.00  0.00     0.173 A 
ATOM     70  C   UNL A   1      38.693  32.992  37.472  1.00  0.00     0.173 A 
ATOM     71  F   UNL A   1      41.154  35.037  35.752  1.00  0.00    -0.203 F 
ATOM     72  C   UNL A   1      40.037  35.397  37.796  1.00  0.00     0.198 A 
ATOM     73  C   UNL A   1      38.451  33.782  38.592  1.00  0.00     0.198 A 
ATOM     74  F   UNL A   1      38.034  31.831  37.344  1.00  0.00    -0.203 F 
ATOM     75  F   UNL A   1      40.713  36.542  37.964  1.00  0.00    -0.200 F 
ATOM     76  C   UNL A   1      39.128  34.981  38.757  1.00  0.00     0.200 A 
ATOM     77  F   UNL A   1      37.564  33.382  39.514  1.00  0.00    -0.200 F 
ATOM     78  F   UNL A   1      38.908  35.733  39.844  1.00  0.00    -0.200 F 
ENDBRANCH  44  68
BRANCH  56  79
ATOM     79  C   UNL A   1      44.090  28.296  34.967  1.00  0.00     0.064 A 
ATOM     80  C   UNL A   1      45.387  28.828  34.963  1.00  0.00     0.173 A 
ATOM     81  C   UNL A   1      43.841  27.165  35.759  1.00  0.00     0.173 A 
ATOM     82  F   UNL A   1      45.675  29.899  34.209  1.00  0.00    -0.203 F 
ATOM     83  C   UNL A   1      46.402  28.236  35.710  1.00  0.00     0.198 A 
ATOM     84  C   UNL A   1      44.853  26.590  36.521  1.00  0.00     0.198 A 
ATOM     85  F   UNL A   1      42.614  26.623  35.797  1.00  0.00    -0.203 F 
ATOM     86  F   UNL A   1      47.645  28.735  35.660  1.00  0.00    -0.200 F 
ATOM     87  C   UNL A   1      46.134  27.122  36.491  1.00  0.00     0.200 A 
ATOM     88  F   UNL A   1      44.591  25.520  37.283  1.00  0.00    -0.200 F 
ATOM     89  F   UNL A   1      47.112  26.556  37.212  1.00  0.00    -0.200 F 
ENDBRANCH  56  79
ENDBRANCH  30  31
ENDBRANCH  23  25
ENDBRANCH  22  23
ENDBRANCH  21  22
ENDBRANCH  20  21
ENDBRANCH   1  20
TORSDOF 17
ENDMDL
MODEL 3
REMARK VINA RESULT:     -10.5      1.432      7.565
REMARK SMILES COc1ccc(C(=O)N(C)CCC(=O)OCCOC(=O)c2ccc(-c3c4nc(c(-c5c(F)c(F)c(F)c(F)c5F)c5ccc([nH]5)c(-c5c(F)c(F)c(F)c(F)c5F)c5nc(c(-c6c(F)c(F)c(F)c(F)c6F)c6ccc3[nH]6)C=C5)C=C4)cc2)cc1O
REMARK SMILES IDX 15 1 13 2 14 3 12 4 11 5 9 6 10 7 7 8 8 9 6 10 3 11 4 12
REMARK SMILES IDX 85 13 5 14 84 15 2 16 1 17 86 18 16 20 17 21 18 22 19 23
REMARK SMILES IDX 20 24 21 25 22 26 83 27 23 28 82 29 24 30 25 31 26 32 76 33
REMARK SMILES IDX 27 34 81 35 75 36 77 37 28 38 80 39 74 40 73 41 29 43 61 44
REMARK SMILES IDX 41 45 60 46 42 47 45 48 59 49 78 50 43 51 44 52 58 54 79 55
REMARK SMILES IDX 46 56 30 57 31 58 39 59 32 60 33 61 37 62 40 63 34 64 35 65
REMARK SMILES IDX 38 66 36 67 62 68 63 69 71 70 64 71 65 72 69 73 72 74 66 75
REMARK SMILES IDX 67 76 70 77 68 78 47 79 48 80 56 81 49 82 50 83 54 84 57 85
REMARK SMILES IDX 51 86 52 87 55 88 53 89
REMARK H PARENT 86 19 77 42 45 53
REMARK Flexibility Score: inf
ROOT
ATOM      1  O   UNL A   1      37.718  21.736  24.704  1.00  0.00    -0.462 OA
ENDROOT
BRANCH   1   2
ATOM      2  C   UNL A   1      36.407  21.832  25.032  1.00  0.00     0.307 C 
ATOM      3  O   UNL A   1      35.907  21.451  26.083  1.00  0.00    -0.252 OA
BRANCH   2   4
ATOM      4  C   UNL A   1      35.595  22.443  23.917  1.00  0.00     0.144 C 
BRANCH   4   5
ATOM      5  C   UNL A   1      34.652  23.546  24.401  1.00  0.00     0.131 C 
BRANCH   5   6
ATOM      6  N   UNL A   1      33.323  23.025  24.748  1.00  0.00    -0.341 N 
ATOM      7  C   UNL A   1      32.799  23.400  26.048  1.00  0.00     0.147 C 
BRANCH   6   8
ATOM      8  C   UNL A   1      32.691  22.223  23.795  1.00  0.00     0.253 C 
ATOM      9  O   UNL A   1      32.276  22.733  22.750  1.00  0.00    -0.269 OA
BRANCH   8  10
ATOM     10  C   UNL A   1      32.581  20.729  23.890  1.00  0.00     0.043 A 
ATOM     11  C   UNL A   1      32.525  17.914  24.355  1.00  0.00     0.160 A 
ATOM     12  C   UNL A   1      32.903  18.798  25.365  1.00  0.00     0.051 A 
ATOM     13  C   UNL A   1      32.164  18.458  23.122  1.00  0.00     0.158 A 
ATOM     14  C   UNL A   1      32.943  20.176  25.134  1.00  0.00     0.018 A 
ATOM     15  C   UNL A   1      32.152  19.845  22.902  1.00  0.00     0.064 A 
BRANCH  11  16
ATOM     16  O   UNL A   1      32.583  16.608  24.742  1.00  0.00    -0.493 OA
ATOM     17  C   UNL A   1      33.838  16.022  25.040  1.00  0.00     0.278 C 
ENDBRANCH  11  16
BRANCH  13  18
ATOM     18  O   UNL A   1      31.855  17.701  22.026  1.00  0.00    -0.504 OA
ATOM     19  H   UNL A   1      32.536  17.281  21.538  1.00  0.00     0.293 HD
ENDBRANCH  13  18
ENDBRANCH   8  10
ENDBRANCH   6   8
ENDBRANCH   5   6
ENDBRANCH   4   5
ENDBRANCH   2   4
ENDBRANCH   1   2
BRANCH   1  20
ATOM     20  C   UNL A   1      38.622  21.315  25.745  1.00  0.00     0.274 C 
BRANCH  20  21
ATOM     21  C   UNL A   1      39.191  19.928  25.446  1.00  0.00     0.275 C 
BRANCH  21  22
ATOM     22  O   UNL A   1      40.129  19.580  26.476  1.00  0.00    -0.458 OA
BRANCH  22  23
ATOM     23  C   UNL A   1      41.429  19.565  26.127  1.00  0.00     0.338 C 
ATOM     24  O   UNL A   1      42.087  18.649  25.658  1.00  0.00    -0.246 OA
BRANCH  23  25
ATOM     25  C   UNL A   1      42.009  20.861  26.489  1.00  0.00     0.060 A 
ATOM     26  C   UNL A   1      42.255  21.184  27.827  1.00  0.00     0.016 A 
ATOM     27  C   UNL A   1      42.262  21.778  25.470  1.00  0.00     0.016 A 
ATOM     28  C   UNL A   1      42.744  22.449  28.151  1.00  0.00     0.010 A 
ATOM     29  C   UNL A   1      42.781  23.030  25.792  1.00  0.00     0.010 A 
ATOM     30  C   UNL A   1      43.007  23.380  27.135  1.00  0.00    -0.014 A 
BRANCH  30  31
ATOM     31  C   UNL A   1      43.489  24.742  27.455  1.00  0.00     0.031 A 
ATOM     32  C   UNL A   1      42.533  25.756  28.011  1.00  0.00     0.074 A 
ATOM     33  C   UNL A   1      44.766  25.077  27.199  1.00  0.00     0.049 A 
ATOM     34  N   UNL A   1      42.711  27.033  28.227  1.00  0.00    -0.248 NA
ATOM     35  C   UNL A   1      41.190  25.265  28.361  1.00  0.00     0.031 C 
ATOM     36  C   UNL A   1      45.786  24.169  26.675  1.00  0.00     0.029 A 
ATOM     37  N   UNL A   1      45.416  26.277  27.326  1.00  0.00    -0.354 N 
ATOM     38  C   UNL A   1      41.501  27.505  28.718  1.00  0.00     0.074 A 
ATOM     39  C   UNL A   1      40.590  26.380  28.754  1.00  0.00     0.031 C 
ATOM     40  C   UNL A   1      46.934  24.849  26.517  1.00  0.00     0.029 A 
ATOM     41  C   UNL A   1      46.715  26.244  26.887  1.00  0.00     0.049 A 
ATOM     42  H   UNL A   1      44.992  27.085  27.698  1.00  0.00     0.167 HD
ATOM     43  C   UNL A   1      41.185  28.763  29.104  1.00  0.00     0.037 A 
ATOM     44  C   UNL A   1      47.617  27.237  26.767  1.00  0.00     0.037 A 
ATOM     45  C   UNL A   1      42.100  29.874  29.075  1.00  0.00     0.049 A 
ATOM     46  C   UNL A   1      47.228  28.633  27.169  1.00  0.00     0.074 A 
ATOM     47  C   UNL A   1      41.884  31.184  29.465  1.00  0.00     0.029 A 
ATOM     48  N   UNL A   1      43.409  29.802  28.624  1.00  0.00    -0.354 N 
ATOM     49  N   UNL A   1      46.087  29.069  27.642  1.00  0.00    -0.248 NA
ATOM     50  C   UNL A   1      48.252  29.675  27.015  1.00  0.00     0.031 C 
ATOM     51  C   UNL A   1      43.052  31.913  29.218  1.00  0.00     0.029 A 
ATOM     52  C   UNL A   1      44.009  31.048  28.711  1.00  0.00     0.049 A 
ATOM     53  H   UNL A   1      43.849  28.986  28.290  1.00  0.00     0.167 HD
ATOM     54  C   UNL A   1      46.258  30.430  27.859  1.00  0.00     0.074 A 
ATOM     55  C   UNL A   1      47.621  30.744  27.479  1.00  0.00     0.031 C 
ATOM     56  C   UNL A   1      45.367  31.336  28.330  1.00  0.00     0.037 A 
BRANCH  43  57
ATOM     57  C   UNL A   1      39.782  29.010  29.574  1.00  0.00     0.064 A 
ATOM     58  C   UNL A   1      39.418  28.849  30.919  1.00  0.00     0.173 A 
ATOM     59  C   UNL A   1      38.798  29.443  28.673  1.00  0.00     0.173 A 
ATOM     60  F   UNL A   1      40.319  28.424  31.816  1.00  0.00    -0.203 F 
ATOM     61  C   UNL A   1      38.114  29.093  31.341  1.00  0.00     0.198 A 
ATOM     62  C   UNL A   1      37.500  29.710  29.103  1.00  0.00     0.198 A 
ATOM     63  F   UNL A   1      39.097  29.616  27.377  1.00  0.00    -0.203 F 
ATOM     64  F   UNL A   1      37.777  28.896  32.623  1.00  0.00    -0.200 F 
ATOM     65  C   UNL A   1      37.158  29.528  30.434  1.00  0.00     0.200 A 
ATOM     66  F   UNL A   1      36.581  30.139  28.228  1.00  0.00    -0.200 F 
ATOM     67  F   UNL A   1      35.904  29.769  30.843  1.00  0.00    -0.200 F 
ENDBRANCH  43  57
BRANCH  44  68
ATOM     68  C   UNL A   1      48.971  26.942  26.236  1.00  0.00     0.064 A 
ATOM     69  C   UNL A   1      50.003  26.526  27.087  1.00  0.00     0.173 A 
ATOM     70  C   UNL A   1      49.259  27.061  24.868  1.00  0.00     0.173 A 
ATOM     71  F   UNL A   1      49.781  26.423  28.406  1.00  0.00    -0.203 F 
ATOM     72  C   UNL A   1      51.276  26.250  26.592  1.00  0.00     0.198 A 
ATOM     73  C   UNL A   1      50.524  26.761  24.371  1.00  0.00     0.198 A 
ATOM     74  F   UNL A   1      48.305  27.457  24.013  1.00  0.00    -0.203 F 
ATOM     75  F   UNL A   1      52.255  25.890  27.432  1.00  0.00    -0.200 F 
ATOM     76  C   UNL A   1      51.534  26.361  25.234  1.00  0.00     0.200 A 
ATOM     77  F   UNL A   1      50.767  26.859  23.057  1.00  0.00    -0.200 F 
ATOM     78  F   UNL A   1      52.756  26.089  24.757  1.00  0.00    -0.200 F 
ENDBRANCH  44  68
BRANCH  56  79
ATOM     79  C   UNL A   1      45.850  32.747  28.486  1.00  0.00     0.064 A 
ATOM     80  C   UNL A   1      46.497  33.175  29.654  1.00  0.00     0.173 A 
ATOM     81  C   UNL A   1      45.694  33.670  27.441  1.00  0.00     0.173 A 
ATOM     82  F   UNL A   1      46.656  32.332  30.685  1.00  0.00    -0.203 F 
ATOM     83  C   UNL A   1      46.955  34.484  29.777  1.00  0.00     0.198 A 
ATOM     84  C   UNL A   1      46.172  34.971  27.559  1.00  0.00     0.198 A 
ATOM     85  F   UNL A   1      45.084  33.306  26.303  1.00  0.00    -0.203 F 
ATOM     86  F   UNL A   1      47.535  34.884  30.917  1.00  0.00    -0.200 F 
ATOM     87  C   UNL A   1      46.797  35.379  28.729  1.00  0.00     0.200 A 
ATOM     88  F   UNL A   1      46.027  35.833  26.544  1.00  0.00    -0.200 F 
ATOM     89  F   UNL A   1      47.240  36.638  28.849  1.00  0.00    -0.200 F 
ENDBRANCH  56  79
ENDBRANCH  30  31
ENDBRANCH  23  25
ENDBRANCH  22  23
ENDBRANCH  21  22
ENDBRANCH  20  21
ENDBRANCH   1  20
TORSDOF 17
ENDMDL
