MODEL 1
REMARK VINA RESULT:     -10.9      0.000      0.000
REMARK SMILES COc1cccc(C(=O)Nc2ccsc2C(=O)OCCOC(=O)c2ccc(-c3c4nc(c(-c5c(F)c(F)c(F)c(F)c5F)c5ccc([nH]5)c(-c5c(F)c(F)c(F)c(F)c5F)c5nc(c(-c6c(F)c(F)c(F)c(F)c6F)c6ccc3[nH]6)C=C5)C=C4)cc2)c1
REMARK SMILES IDX 19 1 18 2 16 3 17 4 15 5 11 6 12 7 13 8 14 9 10 10 8 11 9 12
REMARK SMILES IDX 7 14 3 15 4 16 87 17 5 18 6 19 2 20 1 21 20 22 21 23 22 24
REMARK SMILES IDX 23 25 24 26 25 27 86 28 26 29 85 30 27 31 28 32 29 33 79 34
REMARK SMILES IDX 30 35 84 36 78 37 80 38 31 39 83 40 77 41 76 42 32 44 64 45
REMARK SMILES IDX 44 46 63 47 45 48 48 49 62 50 81 51 46 52 47 53 61 55 82 56
REMARK SMILES IDX 49 57 33 58 34 59 42 60 35 61 36 62 40 63 43 64 37 65 38 66
REMARK SMILES IDX 41 67 39 68 65 69 66 70 74 71 67 72 68 73 72 74 75 75 69 76
REMARK SMILES IDX 70 77 73 78 71 79 50 80 51 81 59 82 52 83 53 84 57 85 60 86
REMARK SMILES IDX 54 87 55 88 58 89 56 90
REMARK H PARENT 10 13 80 43 48 54
REMARK Flexibility Score: inf
ROOT
ATOM      1  C   UNL A   1      33.440  33.889  28.305  1.00  0.00     0.275 C 
ENDROOT
BRANCH   1   2
ATOM      2  O   UNL A   1      33.048  34.250  29.644  1.00  0.00    -0.458 OA
BRANCH   2   3
ATOM      3  C   UNL A   1      32.940  35.588  29.913  1.00  0.00     0.350 C 
ATOM      4  O   UNL A   1      32.456  36.396  29.132  1.00  0.00    -0.245 OA
BRANCH   3   5
ATOM      5  C   UNL A   1      33.434  35.885  31.254  1.00  0.00     0.136 A 
ATOM      6  C   UNL A   1      33.942  35.058  32.252  1.00  0.00     0.067 A 
ATOM      7  C   UNL A   1      34.280  35.809  33.425  1.00  0.00     0.039 A 
ATOM      8  C   UNL A   1      33.953  37.142  33.322  1.00  0.00     0.068 A 
ATOM      9  S   UNL A   1      33.331  37.521  31.785  1.00  0.00    -0.135 S 
BRANCH   6  10
ATOM     10  N   UNL A   1      34.116  33.693  32.058  1.00  0.00    -0.320 N 
ATOM     11  C   UNL A   1      35.240  32.899  32.071  1.00  0.00     0.255 C 
ATOM     12  O   UNL A   1      35.197  31.797  31.520  1.00  0.00    -0.269 OA
ATOM     13  H   UNL A   1      33.282  33.202  31.879  1.00  0.00     0.170 HD
BRANCH  11  14
ATOM     14  C   UNL A   1      36.472  33.273  32.811  1.00  0.00     0.043 A 
ATOM     15  C   UNL A   1      37.956  33.091  34.720  1.00  0.00     0.119 A 
ATOM     16  C   UNL A   1      38.834  33.988  34.106  1.00  0.00     0.046 A 
ATOM     17  C   UNL A   1      36.804  32.691  34.043  1.00  0.00     0.060 A 
ATOM     18  C   UNL A   1      38.555  34.508  32.842  1.00  0.00     0.005 A 
ATOM     19  C   UNL A   1      37.367  34.159  32.200  1.00  0.00     0.014 A 
BRANCH  15  20
ATOM     20  O   UNL A   1      38.331  32.684  35.969  1.00  0.00    -0.497 OA
ATOM     21  C   UNL A   1      38.181  31.299  36.267  1.00  0.00     0.278 C 
ENDBRANCH  15  20
ENDBRANCH  11  14
ENDBRANCH   6  10
ENDBRANCH   3   5
ENDBRANCH   2   3
ENDBRANCH   1   2
BRANCH   1  22
ATOM     22  C   UNL A   1      34.614  32.903  28.302  1.00  0.00     0.275 C 
BRANCH  22  23
ATOM     23  O   UNL A   1      34.504  31.932  27.244  1.00  0.00    -0.458 OA
BRANCH  23  24
ATOM     24  C   UNL A   1      34.429  30.643  27.651  1.00  0.00     0.338 C 
ATOM     25  O   UNL A   1      33.455  29.908  27.592  1.00  0.00    -0.246 OA
BRANCH  24  26
ATOM     26  C   UNL A   1      35.764  30.157  28.043  1.00  0.00     0.060 A 
ATOM     27  C   UNL A   1      35.883  29.578  29.307  1.00  0.00     0.016 A 
ATOM     28  C   UNL A   1      36.889  30.316  27.229  1.00  0.00     0.016 A 
ATOM     29  C   UNL A   1      37.124  29.152  29.770  1.00  0.00     0.010 A 
ATOM     30  C   UNL A   1      38.139  29.886  27.695  1.00  0.00     0.010 A 
ATOM     31  C   UNL A   1      38.265  29.309  28.972  1.00  0.00    -0.014 A 
BRANCH  31  32
ATOM     32  C   UNL A   1      39.588  28.900  29.510  1.00  0.00     0.031 A 
ATOM     33  C   UNL A   1      40.233  29.691  30.611  1.00  0.00     0.074 A 
ATOM     34  C   UNL A   1      40.184  27.785  29.046  1.00  0.00     0.049 A 
ATOM     35  N   UNL A   1      41.388  29.506  31.200  1.00  0.00    -0.248 NA
ATOM     36  C   UNL A   1      39.476  30.845  31.120  1.00  0.00     0.031 C 
ATOM     37  C   UNL A   1      39.639  26.909  28.010  1.00  0.00     0.029 A 
ATOM     38  N   UNL A   1      41.373  27.194  29.394  1.00  0.00    -0.354 N 
ATOM     39  C   UNL A   1      41.504  30.525  32.136  1.00  0.00     0.074 A 
ATOM     40  C   UNL A   1      40.311  31.337  32.025  1.00  0.00     0.031 C 
ATOM     41  C   UNL A   1      40.486  25.887  27.811  1.00  0.00     0.029 A 
ATOM     42  C   UNL A   1      41.653  26.059  28.673  1.00  0.00     0.049 A 
ATOM     43  H   UNL A   1      41.969  27.551  30.091  1.00  0.00     0.167 HD
ATOM     44  C   UNL A   1      42.512  30.756  33.010  1.00  0.00     0.037 A 
ATOM     45  C   UNL A   1      42.738  25.260  28.691  1.00  0.00     0.037 A 
ATOM     46  C   UNL A   1      43.691  29.937  33.131  1.00  0.00     0.049 A 
ATOM     47  C   UNL A   1      43.868  25.572  29.635  1.00  0.00     0.074 A 
ATOM     48  C   UNL A   1      44.759  30.083  34.000  1.00  0.00     0.029 A 
ATOM     49  N   UNL A   1      43.959  28.818  32.355  1.00  0.00    -0.354 N 
ATOM     50  N   UNL A   1      43.967  26.534  30.519  1.00  0.00    -0.248 NA
ATOM     51  C   UNL A   1      45.039  24.686  29.581  1.00  0.00     0.031 C 
ATOM     52  C   UNL A   1      45.693  29.080  33.719  1.00  0.00     0.029 A 
ATOM     53  C   UNL A   1      45.185  28.278  32.710  1.00  0.00     0.049 A 
ATOM     54  H   UNL A   1      43.365  28.461  31.657  1.00  0.00     0.167 HD
ATOM     55  C   UNL A   1      45.198  26.362  31.137  1.00  0.00     0.074 A 
ATOM     56  C   UNL A   1      45.803  25.190  30.540  1.00  0.00     0.031 C 
ATOM     57  C   UNL A   1      45.774  27.109  32.109  1.00  0.00     0.037 A 
BRANCH  44  58
ATOM     58  C   UNL A   1      42.401  31.965  33.892  1.00  0.00     0.064 A 
ATOM     59  C   UNL A   1      41.894  31.886  35.197  1.00  0.00     0.173 A 
ATOM     60  C   UNL A   1      42.844  33.216  33.436  1.00  0.00     0.173 A 
ATOM     61  F   UNL A   1      41.446  30.715  35.677  1.00  0.00    -0.203 F 
ATOM     62  C   UNL A   1      41.811  33.018  36.004  1.00  0.00     0.198 A 
ATOM     63  C   UNL A   1      42.786  34.341  34.255  1.00  0.00     0.198 A 
ATOM     64  F   UNL A   1      43.343  33.346  32.197  1.00  0.00    -0.203 F 
ATOM     65  F   UNL A   1      41.283  32.926  37.233  1.00  0.00    -0.200 F 
ATOM     66  C   UNL A   1      42.263  34.243  35.535  1.00  0.00     0.200 A 
ATOM     67  F   UNL A   1      43.233  35.521  33.804  1.00  0.00    -0.200 F 
ATOM     68  F   UNL A   1      42.189  35.330  36.315  1.00  0.00    -0.200 F 
ENDBRANCH  44  58
BRANCH  45  69
ATOM     69  C   UNL A   1      42.815  24.098  27.768  1.00  0.00     0.064 A 
ATOM     70  C   UNL A   1      42.465  22.810  28.193  1.00  0.00     0.173 A 
ATOM     71  C   UNL A   1      43.250  24.253  26.443  1.00  0.00     0.173 A 
ATOM     72  F   UNL A   1      42.069  22.607  29.458  1.00  0.00    -0.203 F 
ATOM     73  C   UNL A   1      42.559  21.718  27.332  1.00  0.00     0.198 A 
ATOM     74  C   UNL A   1      43.316  23.166  25.575  1.00  0.00     0.198 A 
ATOM     75  F   UNL A   1      43.602  25.465  25.989  1.00  0.00    -0.203 F 
ATOM     76  F   UNL A   1      42.261  20.489  27.776  1.00  0.00    -0.200 F 
ATOM     77  C   UNL A   1      42.978  21.898  26.022  1.00  0.00     0.200 A 
ATOM     78  F   UNL A   1      43.711  23.347  24.307  1.00  0.00    -0.200 F 
ATOM     79  F   UNL A   1      43.064  20.849  25.193  1.00  0.00    -0.200 F 
ENDBRANCH  45  69
BRANCH  57  80
ATOM     80  C   UNL A   1      47.118  26.666  32.610  1.00  0.00     0.064 A 
ATOM     81  C   UNL A   1      48.309  27.197  32.090  1.00  0.00     0.173 A 
ATOM     82  C   UNL A   1      47.216  25.726  33.648  1.00  0.00     0.173 A 
ATOM     83  F   UNL A   1      48.269  28.086  31.087  1.00  0.00    -0.203 F 
ATOM     84  C   UNL A   1      49.547  26.786  32.577  1.00  0.00     0.198 A 
ATOM     85  C   UNL A   1      48.456  25.338  34.150  1.00  0.00     0.198 A 
ATOM     86  F   UNL A   1      46.107  25.192  34.183  1.00  0.00    -0.203 F 
ATOM     87  F   UNL A   1      50.672  27.273  32.034  1.00  0.00    -0.200 F 
ATOM     88  C   UNL A   1      49.620  25.863  33.609  1.00  0.00     0.200 A 
ATOM     89  F   UNL A   1      48.523  24.455  35.155  1.00  0.00    -0.200 F 
ATOM     90  F   UNL A   1      50.813  25.474  34.078  1.00  0.00    -0.200 F 
ENDBRANCH  57  80
ENDBRANCH  31  32
ENDBRANCH  24  26
ENDBRANCH  23  24
ENDBRANCH  22  23
ENDBRANCH   1  22
TORSDOF 14
ENDMDL
MODEL 2
REMARK VINA RESULT:     -10.7      0.896      2.049
REMARK SMILES COc1cccc(C(=O)Nc2ccsc2C(=O)OCCOC(=O)c2ccc(-c3c4nc(c(-c5c(F)c(F)c(F)c(F)c5F)c5ccc([nH]5)c(-c5c(F)c(F)c(F)c(F)c5F)c5nc(c(-c6c(F)c(F)c(F)c(F)c6F)c6ccc3[nH]6)C=C5)C=C4)cc2)c1
REMARK SMILES IDX 19 1 18 2 16 3 17 4 15 5 11 6 12 7 13 8 14 9 10 10 8 11 9 12
REMARK SMILES IDX 7 14 3 15 4 16 87 17 5 18 6 19 2 20 1 21 20 22 21 23 22 24
REMARK SMILES IDX 23 25 24 26 25 27 86 28 26 29 85 30 27 31 28 32 29 33 79 34
REMARK SMILES IDX 30 35 84 36 78 37 80 38 31 39 83 40 77 41 76 42 32 44 64 45
REMARK SMILES IDX 44 46 63 47 45 48 48 49 62 50 81 51 46 52 47 53 61 55 82 56
REMARK SMILES IDX 49 57 33 58 34 59 42 60 35 61 36 62 40 63 43 64 37 65 38 66
REMARK SMILES IDX 41 67 39 68 65 69 66 70 74 71 67 72 68 73 72 74 75 75 69 76
REMARK SMILES IDX 70 77 73 78 71 79 50 80 51 81 59 82 52 83 53 84 57 85 60 86
REMARK SMILES IDX 54 87 55 88 58 89 56 90
REMARK H PARENT 10 13 80 43 48 54
REMARK Flexibility Score: inf
ROOT
ATOM      1  C   UNL A   1      33.407  33.857  28.400  1.00  0.00     0.275 C 
ENDROOT
BRANCH   1   2
ATOM      2  O   UNL A   1      33.146  34.281  29.753  1.00  0.00    -0.458 OA
BRANCH   2   3
ATOM      3  C   UNL A   1      32.954  35.623  29.949  1.00  0.00     0.350 C 
ATOM      4  O   UNL A   1      32.436  36.358  29.121  1.00  0.00    -0.245 OA
BRANCH   3   5
ATOM      5  C   UNL A   1      33.407  36.018  31.279  1.00  0.00     0.136 A 
ATOM      6  C   UNL A   1      33.877  35.267  32.353  1.00  0.00     0.067 A 
ATOM      7  C   UNL A   1      34.183  36.103  33.476  1.00  0.00     0.039 A 
ATOM      8  C   UNL A   1      33.870  37.425  33.262  1.00  0.00     0.068 A 
ATOM      9  S   UNL A   1      33.300  37.690  31.682  1.00  0.00    -0.135 S 
BRANCH   6  10
ATOM     10  N   UNL A   1      34.047  33.890  32.269  1.00  0.00    -0.320 N 
ATOM     11  C   UNL A   1      35.165  33.111  32.078  1.00  0.00     0.255 C 
ATOM     12  O   UNL A   1      35.024  31.954  31.678  1.00  0.00    -0.269 OA
ATOM     13  H   UNL A   1      33.213  33.375  32.365  1.00  0.00     0.170 HD
BRANCH  11  14
ATOM     14  C   UNL A   1      36.531  33.577  32.429  1.00  0.00     0.043 A 
ATOM     15  C   UNL A   1      38.718  34.431  31.823  1.00  0.00     0.119 A 
ATOM     16  C   UNL A   1      39.055  34.491  33.178  1.00  0.00     0.046 A 
ATOM     17  C   UNL A   1      37.434  34.029  31.455  1.00  0.00     0.060 A 
ATOM     18  C   UNL A   1      38.134  34.123  34.159  1.00  0.00     0.005 A 
ATOM     19  C   UNL A   1      36.876  33.655  33.784  1.00  0.00     0.014 A 
BRANCH  15  20
ATOM     20  O   UNL A   1      39.720  34.787  30.965  1.00  0.00    -0.497 OA
ATOM     21  C   UNL A   1      39.430  34.719  29.572  1.00  0.00     0.278 C 
ENDBRANCH  15  20
ENDBRANCH  11  14
ENDBRANCH   6  10
ENDBRANCH   3   5
ENDBRANCH   2   3
ENDBRANCH   1   2
BRANCH   1  22
ATOM     22  C   UNL A   1      34.632  32.938  28.318  1.00  0.00     0.275 C 
BRANCH  22  23
ATOM     23  O   UNL A   1      34.534  32.001  27.228  1.00  0.00    -0.458 OA
BRANCH  23  24
ATOM     24  C   UNL A   1      34.433  30.702  27.593  1.00  0.00     0.338 C 
ATOM     25  O   UNL A   1      33.464  29.972  27.455  1.00  0.00    -0.246 OA
BRANCH  24  26
ATOM     26  C   UNL A   1      35.741  30.201  28.051  1.00  0.00     0.060 A 
ATOM     27  C   UNL A   1      35.807  29.688  29.348  1.00  0.00     0.016 A 
ATOM     28  C   UNL A   1      36.894  30.284  27.264  1.00  0.00     0.016 A 
ATOM     29  C   UNL A   1      37.021  29.254  29.869  1.00  0.00     0.010 A 
ATOM     30  C   UNL A   1      38.117  29.846  27.790  1.00  0.00     0.010 A 
ATOM     31  C   UNL A   1      38.189  29.336  29.099  1.00  0.00    -0.014 A 
BRANCH  31  32
ATOM     32  C   UNL A   1      39.483  28.920  29.698  1.00  0.00     0.031 A 
ATOM     33  C   UNL A   1      40.025  29.640  30.900  1.00  0.00     0.074 A 
ATOM     34  C   UNL A   1      40.144  27.860  29.196  1.00  0.00     0.049 A 
ATOM     35  N   UNL A   1      41.141  29.439  31.554  1.00  0.00    -0.248 NA
ATOM     36  C   UNL A   1      39.199  30.730  31.440  1.00  0.00     0.031 C 
ATOM     37  C   UNL A   1      39.700  27.055  28.059  1.00  0.00     0.029 A 
ATOM     38  N   UNL A   1      41.324  27.275  29.581  1.00  0.00    -0.354 N 
ATOM     39  C   UNL A   1      41.160  30.384  32.571  1.00  0.00     0.074 A 
ATOM     40  C   UNL A   1      39.953  31.172  32.436  1.00  0.00     0.031 C 
ATOM     41  C   UNL A   1      40.591  26.073  27.845  1.00  0.00     0.029 A 
ATOM     42  C   UNL A   1      41.688  26.207  28.799  1.00  0.00     0.049 A 
ATOM     43  H   UNL A   1      41.859  27.592  30.345  1.00  0.00     0.167 HD
ATOM     44  C   UNL A   1      42.098  30.573  33.530  1.00  0.00     0.037 A 
ATOM     45  C   UNL A   1      42.794  25.438  28.834  1.00  0.00     0.037 A 
ATOM     46  C   UNL A   1      43.290  29.777  33.673  1.00  0.00     0.049 A 
ATOM     47  C   UNL A   1      43.846  25.703  29.877  1.00  0.00     0.074 A 
ATOM     48  C   UNL A   1      44.290  29.882  34.625  1.00  0.00     0.029 A 
ATOM     49  N   UNL A   1      43.646  28.729  32.836  1.00  0.00    -0.354 N 
ATOM     50  N   UNL A   1      43.853  26.597  30.836  1.00  0.00    -0.248 NA
ATOM     51  C   UNL A   1      45.045  24.855  29.840  1.00  0.00     0.031 C 
ATOM     52  C   UNL A   1      45.272  28.928  34.336  1.00  0.00     0.029 A 
ATOM     53  C   UNL A   1      44.860  28.195  33.236  1.00  0.00     0.049 A 
ATOM     54  H   UNL A   1      43.113  28.412  32.071  1.00  0.00     0.167 HD
ATOM     55  C   UNL A   1      45.042  26.408  31.527  1.00  0.00     0.074 A 
ATOM     56  C   UNL A   1      45.724  25.302  30.888  1.00  0.00     0.031 C 
ATOM     57  C   UNL A   1      45.526  27.091  32.592  1.00  0.00     0.037 A 
BRANCH  44  58
ATOM     58  C   UNL A   1      41.887  31.706  34.491  1.00  0.00     0.064 A 
ATOM     59  C   UNL A   1      42.399  32.989  34.247  1.00  0.00     0.173 A 
ATOM     60  C   UNL A   1      41.129  31.514  35.656  1.00  0.00     0.173 A 
ATOM     61  F   UNL A   1      43.142  33.222  33.153  1.00  0.00    -0.203 F 
ATOM     62  C   UNL A   1      42.182  34.030  35.145  1.00  0.00     0.198 A 
ATOM     63  C   UNL A   1      40.889  32.564  36.538  1.00  0.00     0.198 A 
ATOM     64  F   UNL A   1      40.612  30.308  35.934  1.00  0.00    -0.203 F 
ATOM     65  F   UNL A   1      42.717  35.237  34.913  1.00  0.00    -0.200 F 
ATOM     66  C   UNL A   1      41.421  33.819  36.287  1.00  0.00     0.200 A 
ATOM     67  F   UNL A   1      40.146  32.360  37.635  1.00  0.00    -0.200 F 
ATOM     68  F   UNL A   1      41.208  34.824  37.147  1.00  0.00    -0.200 F 
ENDBRANCH  44  58
BRANCH  45  69
ATOM     69  C   UNL A   1      42.972  24.353  27.834  1.00  0.00     0.064 A 
ATOM     70  C   UNL A   1      42.593  23.035  28.119  1.00  0.00     0.173 A 
ATOM     71  C   UNL A   1      43.533  24.614  26.574  1.00  0.00     0.173 A 
ATOM     72  F   UNL A   1      42.079  22.730  29.318  1.00  0.00    -0.203 F 
ATOM     73  C   UNL A   1      42.781  22.015  27.187  1.00  0.00     0.198 A 
ATOM     74  C   UNL A   1      43.693  23.601  25.633  1.00  0.00     0.198 A 
ATOM     75  F   UNL A   1      43.916  25.859  26.254  1.00  0.00    -0.203 F 
ATOM     76  F   UNL A   1      42.453  20.755  27.500  1.00  0.00    -0.200 F 
ATOM     77  C   UNL A   1      43.324  22.300  25.942  1.00  0.00     0.200 A 
ATOM     78  F   UNL A   1      44.208  23.883  24.428  1.00  0.00    -0.200 F 
ATOM     79  F   UNL A   1      43.500  21.321  25.045  1.00  0.00    -0.200 F 
ENDBRANCH  45  69
BRANCH  57  80
ATOM     80  C   UNL A   1      46.845  26.646  33.153  1.00  0.00     0.064 A 
ATOM     81  C   UNL A   1      46.930  25.629  34.116  1.00  0.00     0.173 A 
ATOM     82  C   UNL A   1      48.042  27.219  32.697  1.00  0.00     0.173 A 
ATOM     83  F   UNL A   1      45.814  25.061  34.596  1.00  0.00    -0.203 F 
ATOM     84  C   UNL A   1      48.163  25.218  34.616  1.00  0.00     0.198 A 
ATOM     85  C   UNL A   1      49.275  26.787  33.179  1.00  0.00     0.198 A 
ATOM     86  F   UNL A   1      48.016  28.192  31.773  1.00  0.00    -0.203 F 
ATOM     87  F   UNL A   1      48.216  24.276  35.568  1.00  0.00    -0.200 F 
ATOM     88  C   UNL A   1      49.334  25.792  34.143  1.00  0.00     0.200 A 
ATOM     89  F   UNL A   1      50.404  27.334  32.712  1.00  0.00    -0.200 F 
ATOM     90  F   UNL A   1      50.518  25.391  34.622  1.00  0.00    -0.200 F 
ENDBRANCH  57  80
ENDBRANCH  31  32
ENDBRANCH  24  26
ENDBRANCH  23  24
ENDBRANCH  22  23
ENDBRANCH   1  22
TORSDOF 14
ENDMDL
MODEL 3
REMARK VINA RESULT:     -10.5      4.691     10.272
REMARK SMILES COc1cccc(C(=O)Nc2ccsc2C(=O)OCCOC(=O)c2ccc(-c3c4nc(c(-c5c(F)c(F)c(F)c(F)c5F)c5ccc([nH]5)c(-c5c(F)c(F)c(F)c(F)c5F)c5nc(c(-c6c(F)c(F)c(F)c(F)c6F)c6ccc3[nH]6)C=C5)C=C4)cc2)c1
REMARK SMILES IDX 19 1 18 2 16 3 17 4 15 5 11 6 12 7 13 8 14 9 10 10 8 11 9 12
REMARK SMILES IDX 7 14 3 15 4 16 87 17 5 18 6 19 2 20 1 21 20 22 21 23 22 24
REMARK SMILES IDX 23 25 24 26 25 27 86 28 26 29 85 30 27 31 28 32 29 33 79 34
REMARK SMILES IDX 30 35 84 36 78 37 80 38 31 39 83 40 77 41 76 42 32 44 64 45
REMARK SMILES IDX 44 46 63 47 45 48 48 49 62 50 81 51 46 52 47 53 61 55 82 56
REMARK SMILES IDX 49 57 33 58 34 59 42 60 35 61 36 62 40 63 43 64 37 65 38 66
REMARK SMILES IDX 41 67 39 68 65 69 66 70 74 71 67 72 68 73 72 74 75 75 69 76
REMARK SMILES IDX 70 77 73 78 71 79 50 80 51 81 59 82 52 83 53 84 57 85 60 86
REMARK SMILES IDX 54 87 55 88 58 89 56 90
REMARK H PARENT 10 13 80 43 48 54
REMARK Flexibility Score: inf
ROOT
ATOM      1  C   UNL A   1      31.552  29.328  24.167  1.00  0.00     0.275 C 
ENDROOT
BRANCH   1   2
ATOM      2  O   UNL A   1      30.704  28.165  24.081  1.00  0.00    -0.458 OA
BRANCH   2   3
ATOM      3  C   UNL A   1      31.221  27.075  23.433  1.00  0.00     0.350 C 
ATOM      4  O   UNL A   1      31.776  27.138  22.345  1.00  0.00    -0.245 OA
BRANCH   3   5
ATOM      5  C   UNL A   1      31.053  25.870  24.239  1.00  0.00     0.136 A 
ATOM      6  C   UNL A   1      31.292  24.529  23.950  1.00  0.00     0.067 A 
ATOM      7  C   UNL A   1      30.949  23.691  25.061  1.00  0.00     0.039 A 
ATOM      8  C   UNL A   1      30.396  24.389  26.110  1.00  0.00     0.068 A 
ATOM      9  S   UNL A   1      30.374  26.063  25.811  1.00  0.00    -0.135 S 
BRANCH   6  10
ATOM     10  N   UNL A   1      31.837  24.123  22.737  1.00  0.00    -0.320 N 
ATOM     11  C   UNL A   1      32.842  23.234  22.433  1.00  0.00     0.255 C 
ATOM     12  O   UNL A   1      33.390  23.310  21.331  1.00  0.00    -0.269 OA
ATOM     13  H   UNL A   1      31.428  24.550  21.950  1.00  0.00     0.170 HD
BRANCH  11  14
ATOM     14  C   UNL A   1      33.224  22.122  23.339  1.00  0.00     0.043 A 
ATOM     15  C   UNL A   1      32.816  19.959  24.357  1.00  0.00     0.119 A 
ATOM     16  C   UNL A   1      34.043  20.053  25.018  1.00  0.00     0.046 A 
ATOM     17  C   UNL A   1      32.436  20.969  23.472  1.00  0.00     0.060 A 
ATOM     18  C   UNL A   1      34.873  21.158  24.827  1.00  0.00     0.005 A 
ATOM     19  C   UNL A   1      34.458  22.198  23.997  1.00  0.00     0.014 A 
BRANCH  15  20
ATOM     20  O   UNL A   1      32.085  18.844  24.657  1.00  0.00    -0.497 OA
ATOM     21  C   UNL A   1      32.786  17.606  24.697  1.00  0.00     0.278 C 
ENDBRANCH  15  20
ENDBRANCH  11  14
ENDBRANCH   6  10
ENDBRANCH   3   5
ENDBRANCH   2   3
ENDBRANCH   1   2
BRANCH   1  22
ATOM     22  C   UNL A   1      31.807  29.740  25.621  1.00  0.00     0.275 C 
BRANCH  22  23
ATOM     23  O   UNL A   1      33.162  30.185  25.829  1.00  0.00    -0.458 OA
BRANCH  23  24
ATOM     24  C   UNL A   1      33.323  31.097  26.815  1.00  0.00     0.338 C 
ATOM     25  O   UNL A   1      32.506  31.922  27.195  1.00  0.00    -0.246 OA
BRANCH  24  26
ATOM     26  C   UNL A   1      34.597  30.864  27.518  1.00  0.00     0.060 A 
ATOM     27  C   UNL A   1      34.882  29.551  27.898  1.00  0.00     0.016 A 
ATOM     28  C   UNL A   1      35.468  31.903  27.857  1.00  0.00     0.016 A 
ATOM     29  C   UNL A   1      36.036  29.265  28.619  1.00  0.00     0.010 A 
ATOM     30  C   UNL A   1      36.632  31.614  28.583  1.00  0.00     0.010 A 
ATOM     31  C   UNL A   1      36.919  30.294  28.976  1.00  0.00    -0.014 A 
BRANCH  31  32
ATOM     32  C   UNL A   1      38.115  29.972  29.794  1.00  0.00     0.031 A 
ATOM     33  C   UNL A   1      39.195  29.089  29.238  1.00  0.00     0.074 A 
ATOM     34  C   UNL A   1      38.256  30.517  31.017  1.00  0.00     0.049 A 
ATOM     35  N   UNL A   1      40.304  28.679  29.801  1.00  0.00    -0.248 NA
ATOM     36  C   UNL A   1      39.005  28.605  27.863  1.00  0.00     0.031 C 
ATOM     37  C   UNL A   1      37.298  31.421  31.650  1.00  0.00     0.029 A 
ATOM     38  N   UNL A   1      39.264  30.396  31.941  1.00  0.00    -0.354 N 
ATOM     39  C   UNL A   1      40.935  27.878  28.859  1.00  0.00     0.074 A 
ATOM     40  C   UNL A   1      40.077  27.845  27.693  1.00  0.00     0.031 C 
ATOM     41  C   UNL A   1      37.768  31.783  32.855  1.00  0.00     0.029 A 
ATOM     42  C   UNL A   1      39.037  31.102  33.097  1.00  0.00     0.049 A 
ATOM     43  H   UNL A   1      40.072  29.854  31.790  1.00  0.00     0.167 HD
ATOM     44  C   UNL A   1      42.123  27.235  28.957  1.00  0.00     0.037 A 
ATOM     45  C   UNL A   1      39.759  31.172  34.232  1.00  0.00     0.037 A 
ATOM     46  C   UNL A   1      42.984  27.284  30.111  1.00  0.00     0.049 A 
ATOM     47  C   UNL A   1      41.050  30.405  34.334  1.00  0.00     0.074 A 
ATOM     48  C   UNL A   1      44.215  26.679  30.297  1.00  0.00     0.029 A 
ATOM     49  N   UNL A   1      42.700  27.976  31.280  1.00  0.00    -0.354 N 
ATOM     50  N   UNL A   1      41.640  29.654  33.437  1.00  0.00    -0.248 NA
ATOM     51  C   UNL A   1      41.773  30.492  35.610  1.00  0.00     0.031 C 
ATOM     52  C   UNL A   1      44.654  26.967  31.594  1.00  0.00     0.029 A 
ATOM     53  C   UNL A   1      43.722  27.794  32.198  1.00  0.00     0.049 A 
ATOM     54  H   UNL A   1      41.892  28.517  31.433  1.00  0.00     0.167 HD
ATOM     55  C   UNL A   1      42.808  29.195  34.029  1.00  0.00     0.074 A 
ATOM     56  C   UNL A   1      42.854  29.767  35.358  1.00  0.00     0.031 C 
ATOM     57  C   UNL A   1      43.756  28.372  33.518  1.00  0.00     0.037 A 
BRANCH  44  58
ATOM     58  C   UNL A   1      42.555  26.395  27.791  1.00  0.00     0.064 A 
ATOM     59  C   UNL A   1      43.439  26.880  26.816  1.00  0.00     0.173 A 
ATOM     60  C   UNL A   1      42.105  25.072  27.668  1.00  0.00     0.173 A 
ATOM     61  F   UNL A   1      43.889  28.143  26.881  1.00  0.00    -0.203 F 
ATOM     62  C   UNL A   1      43.838  26.079  25.749  1.00  0.00     0.198 A 
ATOM     63  C   UNL A   1      42.527  24.265  26.615  1.00  0.00     0.198 A 
ATOM     64  F   UNL A   1      41.262  24.557  28.577  1.00  0.00    -0.203 F 
ATOM     65  F   UNL A   1      44.650  26.577  24.806  1.00  0.00    -0.200 F 
ATOM     66  C   UNL A   1      43.387  24.770  25.653  1.00  0.00     0.200 A 
ATOM     67  F   UNL A   1      42.099  22.997  26.530  1.00  0.00    -0.200 F 
ATOM     68  F   UNL A   1      43.777  23.999  24.628  1.00  0.00    -0.200 F 
ENDBRANCH  44  58
BRANCH  45  69
ATOM     69  C   UNL A   1      39.266  31.987  35.373  1.00  0.00     0.064 A 
ATOM     70  C   UNL A   1      38.465  31.423  36.374  1.00  0.00     0.173 A 
ATOM     71  C   UNL A   1      39.581  33.350  35.478  1.00  0.00     0.173 A 
ATOM     72  F   UNL A   1      38.114  30.131  36.303  1.00  0.00    -0.203 F 
ATOM     73  C   UNL A   1      37.987  32.194  37.432  1.00  0.00     0.198 A 
ATOM     74  C   UNL A   1      39.127  34.114  36.551  1.00  0.00     0.198 A 
ATOM     75  F   UNL A   1      40.341  33.939  34.543  1.00  0.00    -0.203 F 
ATOM     76  F   UNL A   1      37.185  31.642  38.352  1.00  0.00    -0.200 F 
ATOM     77  C   UNL A   1      38.323  33.538  37.523  1.00  0.00     0.200 A 
ATOM     78  F   UNL A   1      39.464  35.408  36.640  1.00  0.00    -0.200 F 
ATOM     79  F   UNL A   1      37.867  34.277  38.542  1.00  0.00    -0.200 F 
ENDBRANCH  45  69
BRANCH  57  80
ATOM     80  C   UNL A   1      44.939  28.061  34.388  1.00  0.00     0.064 A 
ATOM     81  C   UNL A   1      46.076  28.884  34.405  1.00  0.00     0.173 A 
ATOM     82  C   UNL A   1      44.921  26.947  35.241  1.00  0.00     0.173 A 
ATOM     83  F   UNL A   1      46.149  29.951  33.596  1.00  0.00    -0.203 F 
ATOM     84  C   UNL A   1      47.159  28.589  35.228  1.00  0.00     0.198 A 
ATOM     85  C   UNL A   1      45.995  26.671  36.083  1.00  0.00     0.198 A 
ATOM     86  F   UNL A   1      43.855  26.132  35.266  1.00  0.00    -0.203 F 
ATOM     87  F   UNL A   1      48.253  29.363  35.195  1.00  0.00    -0.200 F 
ATOM     88  C   UNL A   1      47.115  27.487  36.071  1.00  0.00     0.200 A 
ATOM     89  F   UNL A   1      45.945  25.614  36.904  1.00  0.00    -0.200 F 
ATOM     90  F   UNL A   1      48.157  27.209  36.866  1.00  0.00    -0.200 F 
ENDBRANCH  57  80
ENDBRANCH  31  32
ENDBRANCH  24  26
ENDBRANCH  23  24
ENDBRANCH  22  23
ENDBRANCH   1  22
TORSDOF 14
ENDMDL
