MODEL 1
REMARK VINA RESULT:     -10.4      0.000      0.000
REMARK SMILES CCN(CC)c1ccc([C@@H]2c3[nH]c4ccccc4c3C[C@@H](C(=O)OCCOC(=O)c3ccc(-c4c5nc(c(-c6c(F)c(F)c(F)c(F)c6F)c6ccc([nH]6)c(-c6c(F)c(F)c(F)c(F)c6F)c6nc(c(-c7c(F)c(F)c(F)c(F)c7F)c7ccc4[nH]7)C=C6)C=C5)cc3)N2C(C)=O)cc1
REMARK SMILES IDX 25 1 24 2 22 3 23 4 21 5 10 6 11 7 93 8 12 9 19 10 13 11
REMARK SMILES IDX 18 13 20 14 14 15 17 16 15 17 16 18 9 19 6 20 7 21 98 22
REMARK SMILES IDX 8 23 97 24 3 25 2 26 1 27 4 28 5 29 94 30 95 31 96 32 26 33
REMARK SMILES IDX 27 34 28 35 29 36 30 37 31 38 92 39 32 40 91 41 33 42 34 43
REMARK SMILES IDX 35 44 85 45 36 46 90 47 84 48 86 49 37 50 89 51 83 52 82 53
REMARK SMILES IDX 38 55 70 56 50 57 69 58 51 59 54 60 68 61 87 62 52 63 53 64
REMARK SMILES IDX 67 66 88 67 55 68 39 69 40 70 48 71 41 72 42 73 46 74 49 75
REMARK SMILES IDX 43 76 44 77 47 78 45 79 71 80 72 81 80 82 73 83 74 84 78 85
REMARK SMILES IDX 81 86 75 87 76 88 79 89 77 90 56 91 57 92 65 93 58 94 59 95
REMARK SMILES IDX 63 96 66 97 60 98 61 99 64 100 62 101
REMARK H PARENT 12 12 86 54 54 65
REMARK Flexibility Score: inf
ROOT
ATOM      1  C   UNL A   1      50.038  26.163  37.711  1.00  0.00     0.274 C 
ENDROOT
BRANCH   1   2
ATOM      2  O   UNL A   1      50.038  25.027  36.827  1.00  0.00    -0.461 OA
BRANCH   2   3
ATOM      3  C   UNL A   1      50.162  23.767  37.303  1.00  0.00     0.329 C 
ATOM      4  O   UNL A   1      50.674  23.497  38.383  1.00  0.00    -0.250 OA
BRANCH   3   5
ATOM      5  C   UNL A   1      49.844  22.700  36.211  1.00  0.00     0.200 C 
ATOM      6  C   UNL A   1      48.048  21.426  37.438  1.00  0.00     0.163 C 
ATOM      7  C   UNL A   1      47.095  22.336  36.702  1.00  0.00     0.047 A 
ATOM      8  N   UNL A   1      49.205  21.364  36.519  1.00  0.00    -0.316 N 
ATOM      9  N   UNL A   1      45.735  22.401  36.829  1.00  0.00    -0.356 N 
ATOM     10  C   UNL A   1      47.450  23.216  35.679  1.00  0.00    -0.014 A 
ATOM     11  C   UNL A   1      45.223  22.870  35.636  1.00  0.00     0.046 A 
ATOM     12  H   UNL A   1      45.215  22.156  37.627  1.00  0.00     0.166 HD
ATOM     13  C   UNL A   1      46.270  23.482  34.948  1.00  0.00     0.003 A 
ATOM     14  C   UNL A   1      48.875  23.473  35.265  1.00  0.00     0.075 C 
ATOM     15  C   UNL A   1      43.944  22.741  35.091  1.00  0.00     0.026 A 
ATOM     16  C   UNL A   1      46.031  24.056  33.688  1.00  0.00     0.010 A 
ATOM     17  C   UNL A   1      43.754  23.226  33.793  1.00  0.00     0.002 A 
ATOM     18  C   UNL A   1      44.772  23.890  33.109  1.00  0.00     0.001 A 
BRANCH   6  19
ATOM     19  C   UNL A   1      47.603  20.100  38.036  1.00  0.00    -0.019 A 
ATOM     20  C   UNL A   1      46.686  17.850  39.539  1.00  0.00     0.037 A 
ATOM     21  C   UNL A   1      45.991  18.326  38.425  1.00  0.00     0.026 A 
ATOM     22  C   UNL A   1      47.926  18.441  39.795  1.00  0.00     0.026 A 
ATOM     23  C   UNL A   1      46.443  19.418  37.677  1.00  0.00     0.008 A 
ATOM     24  C   UNL A   1      48.380  19.541  39.062  1.00  0.00     0.008 A 
BRANCH  20  25
ATOM     25  N   UNL A   1      46.171  16.884  40.389  1.00  0.00    -0.372 N 
BRANCH  25  26
ATOM     26  C   UNL A   1      44.807  16.404  40.123  1.00  0.00     0.113 C 
ATOM     27  C   UNL A   1      43.772  17.076  41.013  1.00  0.00     0.027 C 
ENDBRANCH  25  26
BRANCH  25  28
ATOM     28  C   UNL A   1      47.028  16.074  41.258  1.00  0.00     0.113 C 
ATOM     29  C   UNL A   1      46.761  16.282  42.745  1.00  0.00     0.027 C 
ENDBRANCH  25  28
ENDBRANCH  20  25
ENDBRANCH   6  19
BRANCH   8  30
ATOM     30  C   UNL A   1      49.085  20.411  35.480  1.00  0.00     0.221 C 
ATOM     31  C   UNL A   1      50.300  19.598  35.124  1.00  0.00     0.114 C 
ATOM     32  O   UNL A   1      48.060  20.224  34.825  1.00  0.00    -0.275 OA
ENDBRANCH   8  30
ENDBRANCH   3   5
ENDBRANCH   2   3
ENDBRANCH   1   2
BRANCH   1  33
ATOM     33  C   UNL A   1      48.671  26.187  38.398  1.00  0.00     0.275 C 
BRANCH  33  34
ATOM     34  O   UNL A   1      47.708  26.407  37.356  1.00  0.00    -0.458 OA
BRANCH  34  35
ATOM     35  C   UNL A   1      46.477  25.889  37.540  1.00  0.00     0.338 C 
ATOM     36  O   UNL A   1      46.098  25.115  38.407  1.00  0.00    -0.246 OA
BRANCH  35  37
ATOM     37  C   UNL A   1      45.620  26.545  36.550  1.00  0.00     0.060 A 
ATOM     38  C   UNL A   1      44.287  26.130  36.443  1.00  0.00     0.016 A 
ATOM     39  C   UNL A   1      46.110  27.591  35.774  1.00  0.00     0.016 A 
ATOM     40  C   UNL A   1      43.417  26.782  35.580  1.00  0.00     0.010 A 
ATOM     41  C   UNL A   1      45.229  28.265  34.930  1.00  0.00     0.010 A 
ATOM     42  C   UNL A   1      43.880  27.872  34.839  1.00  0.00    -0.014 A 
BRANCH  42  43
ATOM     43  C   UNL A   1      42.973  28.606  33.935  1.00  0.00     0.031 A 
ATOM     44  C   UNL A   1      42.023  29.601  34.518  1.00  0.00     0.074 A 
ATOM     45  C   UNL A   1      42.967  28.330  32.618  1.00  0.00     0.049 A 
ATOM     46  N   UNL A   1      40.968  30.152  33.983  1.00  0.00    -0.248 NA
ATOM     47  C   UNL A   1      42.295  30.020  35.903  1.00  0.00     0.031 C 
ATOM     48  C   UNL A   1      43.900  27.434  31.936  1.00  0.00     0.029 A 
ATOM     49  N   UNL A   1      42.123  28.757  31.625  1.00  0.00    -0.354 N 
ATOM     50  C   UNL A   1      40.423  30.952  34.976  1.00  0.00     0.074 A 
ATOM     51  C   UNL A   1      41.265  30.817  36.146  1.00  0.00     0.031 C 
ATOM     52  C   UNL A   1      43.562  27.357  30.638  1.00  0.00     0.029 A 
ATOM     53  C   UNL A   1      42.354  28.143  30.418  1.00  0.00     0.049 A 
ATOM     54  H   UNL A   1      41.423  29.434  31.763  1.00  0.00     0.167 HD
ATOM     55  C   UNL A   1      39.308  31.717  34.910  1.00  0.00     0.037 A 
ATOM     56  C   UNL A   1      41.632  28.172  29.282  1.00  0.00     0.037 A 
ATOM     57  C   UNL A   1      38.493  31.842  33.731  1.00  0.00     0.049 A 
ATOM     58  C   UNL A   1      40.362  28.978  29.252  1.00  0.00     0.074 A 
ATOM     59  C   UNL A   1      37.336  32.577  33.551  1.00  0.00     0.029 A 
ATOM     60  N   UNL A   1      38.760  31.211  32.523  1.00  0.00    -0.354 N 
ATOM     61  N   UNL A   1      39.817  29.698  30.203  1.00  0.00    -0.248 NA
ATOM     62  C   UNL A   1      39.599  28.966  27.996  1.00  0.00     0.031 C 
ATOM     63  C   UNL A   1      36.885  32.363  32.245  1.00  0.00     0.029 A 
ATOM     64  C   UNL A   1      37.785  31.532  31.595  1.00  0.00     0.049 A 
ATOM     65  H   UNL A   1      39.530  30.622  32.352  1.00  0.00     0.167 HD
ATOM     66  C   UNL A   1      38.666  30.248  29.656  1.00  0.00     0.074 A 
ATOM     67  C   UNL A   1      38.592  29.779  28.286  1.00  0.00     0.031 C 
ATOM     68  C   UNL A   1      37.752  31.067  30.232  1.00  0.00     0.037 A 
BRANCH  55  69
ATOM     69  C   UNL A   1      38.890  32.433  36.158  1.00  0.00     0.064 A 
ATOM     70  C   UNL A   1      38.098  31.815  37.137  1.00  0.00     0.173 A 
ATOM     71  C   UNL A   1      39.292  33.760  36.379  1.00  0.00     0.173 A 
ATOM     72  F   UNL A   1      37.671  30.556  36.962  1.00  0.00    -0.203 F 
ATOM     73  C   UNL A   1      37.701  32.508  38.278  1.00  0.00     0.198 A 
ATOM     74  C   UNL A   1      38.915  34.440  37.534  1.00  0.00     0.198 A 
ATOM     75  F   UNL A   1      40.047  34.397  35.472  1.00  0.00    -0.203 F 
ATOM     76  F   UNL A   1      36.904  31.914  39.177  1.00  0.00    -0.200 F 
ATOM     77  C   UNL A   1      38.114  33.816  38.479  1.00  0.00     0.200 A 
ATOM     78  F   UNL A   1      39.322  35.702  37.728  1.00  0.00    -0.200 F 
ATOM     79  F   UNL A   1      37.733  34.481  39.578  1.00  0.00    -0.200 F 
ENDBRANCH  55  69
BRANCH  56  80
ATOM     80  C   UNL A   1      42.074  27.388  28.100  1.00  0.00     0.064 A 
ATOM     81  C   UNL A   1      41.562  26.106  27.856  1.00  0.00     0.173 A 
ATOM     82  C   UNL A   1      43.008  27.902  27.188  1.00  0.00     0.173 A 
ATOM     83  F   UNL A   1      40.686  25.562  28.713  1.00  0.00    -0.203 F 
ATOM     84  C   UNL A   1      41.975  25.365  26.751  1.00  0.00     0.198 A 
ATOM     85  C   UNL A   1      43.400  27.170  26.069  1.00  0.00     0.198 A 
ATOM     86  F   UNL A   1      43.529  29.124  27.376  1.00  0.00    -0.203 F 
ATOM     87  F   UNL A   1      41.498  24.127  26.561  1.00  0.00    -0.200 F 
ATOM     88  C   UNL A   1      42.888  25.900  25.854  1.00  0.00     0.200 A 
ATOM     89  F   UNL A   1      44.273  27.696  25.198  1.00  0.00    -0.200 F 
ATOM     90  F   UNL A   1      43.279  25.189  24.787  1.00  0.00    -0.200 F 
ENDBRANCH  56  80
BRANCH  68  91
ATOM     91  C   UNL A   1      36.631  31.556  29.368  1.00  0.00     0.064 A 
ATOM     92  C   UNL A   1      35.578  30.716  28.982  1.00  0.00     0.173 A 
ATOM     93  C   UNL A   1      36.586  32.901  28.969  1.00  0.00     0.173 A 
ATOM     94  F   UNL A   1      35.586  29.420  29.327  1.00  0.00    -0.203 F 
ATOM     95  C   UNL A   1      34.524  31.203  28.213  1.00  0.00     0.198 A 
ATOM     96  C   UNL A   1      35.519  33.389  28.221  1.00  0.00     0.198 A 
ATOM     97  F   UNL A   1      37.570  33.743  29.319  1.00  0.00    -0.203 F 
ATOM     98  F   UNL A   1      33.543  30.375  27.825  1.00  0.00    -0.200 F 
ATOM     99  C   UNL A   1      34.491  32.539  27.841  1.00  0.00     0.200 A 
ATOM    100  F   UNL A   1      35.483  34.682  27.872  1.00  0.00    -0.200 F 
ATOM    101  F   UNL A   1      33.470  33.006  27.110  1.00  0.00    -0.200 F 
ENDBRANCH  68  91
ENDBRANCH  42  43
ENDBRANCH  35  37
ENDBRANCH  34  35
ENDBRANCH  33  34
ENDBRANCH   1  33
TORSDOF 16
ENDMDL
MODEL 2
REMARK VINA RESULT:     -10.3      7.792     13.943
REMARK SMILES CCN(CC)c1ccc([C@@H]2c3[nH]c4ccccc4c3C[C@@H](C(=O)OCCOC(=O)c3ccc(-c4c5nc(c(-c6c(F)c(F)c(F)c(F)c6F)c6ccc([nH]6)c(-c6c(F)c(F)c(F)c(F)c6F)c6nc(c(-c7c(F)c(F)c(F)c(F)c7F)c7ccc4[nH]7)C=C6)C=C5)cc3)N2C(C)=O)cc1
REMARK SMILES IDX 25 1 24 2 22 3 23 4 21 5 10 6 11 7 93 8 12 9 19 10 13 11
REMARK SMILES IDX 18 13 20 14 14 15 17 16 15 17 16 18 9 19 6 20 7 21 98 22
REMARK SMILES IDX 8 23 97 24 3 25 2 26 1 27 4 28 5 29 94 30 95 31 96 32 26 33
REMARK SMILES IDX 27 34 28 35 29 36 30 37 31 38 92 39 32 40 91 41 33 42 34 43
REMARK SMILES IDX 35 44 85 45 36 46 90 47 84 48 86 49 37 50 89 51 83 52 82 53
REMARK SMILES IDX 38 55 70 56 50 57 69 58 51 59 54 60 68 61 87 62 52 63 53 64
REMARK SMILES IDX 67 66 88 67 55 68 39 69 40 70 48 71 41 72 42 73 46 74 49 75
REMARK SMILES IDX 43 76 44 77 47 78 45 79 71 80 72 81 80 82 73 83 74 84 78 85
REMARK SMILES IDX 81 86 75 87 76 88 79 89 77 90 56 91 57 92 65 93 58 94 59 95
REMARK SMILES IDX 63 96 66 97 60 98 61 99 64 100 62 101
REMARK H PARENT 12 12 86 54 54 65
REMARK Flexibility Score: inf
ROOT
ATOM      1  C   UNL A   1      38.884  21.892  26.112  1.00  0.00     0.274 C 
ENDROOT
BRANCH   1   2
ATOM      2  O   UNL A   1      37.510  22.114  25.745  1.00  0.00    -0.461 OA
BRANCH   2   3
ATOM      3  C   UNL A   1      36.881  23.273  26.047  1.00  0.00     0.329 C 
ATOM      4  O   UNL A   1      37.441  24.362  26.074  1.00  0.00    -0.250 OA
BRANCH   3   5
ATOM      5  C   UNL A   1      35.455  23.024  26.626  1.00  0.00     0.200 C 
ATOM      6  C   UNL A   1      34.104  24.055  24.764  1.00  0.00     0.163 C 
ATOM      7  C   UNL A   1      34.035  22.647  24.224  1.00  0.00     0.047 A 
ATOM      8  N   UNL A   1      34.242  23.833  26.219  1.00  0.00    -0.316 N 
ATOM      9  N   UNL A   1      33.473  22.228  23.049  1.00  0.00    -0.356 N 
ATOM     10  C   UNL A   1      34.463  21.503  24.900  1.00  0.00    -0.014 A 
ATOM     11  C   UNL A   1      33.091  20.912  23.211  1.00  0.00     0.046 A 
ATOM     12  H   UNL A   1      33.361  22.770  22.236  1.00  0.00     0.166 HD
ATOM     13  C   UNL A   1      33.789  20.410  24.309  1.00  0.00     0.003 A 
ATOM     14  C   UNL A   1      35.185  21.543  26.220  1.00  0.00     0.075 C 
ATOM     15  C   UNL A   1      32.143  20.158  22.518  1.00  0.00     0.026 A 
ATOM     16  C   UNL A   1      33.593  19.077  24.704  1.00  0.00     0.010 A 
ATOM     17  C   UNL A   1      31.887  18.867  22.994  1.00  0.00     0.002 A 
ATOM     18  C   UNL A   1      32.612  18.326  24.056  1.00  0.00     0.001 A 
BRANCH   6  19
ATOM     19  C   UNL A   1      33.115  25.132  24.348  1.00  0.00    -0.019 A 
ATOM     20  C   UNL A   1      30.968  26.951  23.853  1.00  0.00     0.037 A 
ATOM     21  C   UNL A   1      32.156  27.360  24.463  1.00  0.00     0.026 A 
ATOM     22  C   UNL A   1      30.939  25.640  23.368  1.00  0.00     0.026 A 
ATOM     23  C   UNL A   1      33.216  26.477  24.695  1.00  0.00     0.008 A 
ATOM     24  C   UNL A   1      31.988  24.747  23.606  1.00  0.00     0.008 A 
BRANCH  20  25
ATOM     25  N   UNL A   1      29.848  27.764  23.769  1.00  0.00    -0.372 N 
BRANCH  25  26
ATOM     26  C   UNL A   1      30.067  29.196  23.521  1.00  0.00     0.113 C 
ATOM     27  C   UNL A   1      30.374  29.491  22.060  1.00  0.00     0.027 C 
ENDBRANCH  25  26
BRANCH  25  28
ATOM     28  C   UNL A   1      28.508  27.221  23.533  1.00  0.00     0.113 C 
ATOM     29  C   UNL A   1      27.431  28.291  23.396  1.00  0.00     0.027 C 
ENDBRANCH  25  28
ENDBRANCH  20  25
ENDBRANCH   6  19
BRANCH   8  30
ATOM     30  C   UNL A   1      33.022  23.621  26.904  1.00  0.00     0.221 C 
ATOM     31  C   UNL A   1      32.942  22.463  27.861  1.00  0.00     0.114 C 
ATOM     32  O   UNL A   1      32.011  24.305  26.746  1.00  0.00    -0.275 OA
ENDBRANCH   8  30
ENDBRANCH   3   5
ENDBRANCH   2   3
ENDBRANCH   1   2
BRANCH   1  33
ATOM     33  C   UNL A   1      39.272  20.519  25.562  1.00  0.00     0.275 C 
BRANCH  33  34
ATOM     34  O   UNL A   1      40.251  19.991  26.470  1.00  0.00    -0.458 OA
BRANCH  34  35
ATOM     35  C   UNL A   1      41.527  19.946  26.037  1.00  0.00     0.338 C 
ATOM     36  O   UNL A   1      42.052  19.126  25.299  1.00  0.00    -0.246 OA
BRANCH  35  37
ATOM     37  C   UNL A   1      42.155  21.173  26.532  1.00  0.00     0.060 A 
ATOM     38  C   UNL A   1      42.553  22.140  25.601  1.00  0.00     0.016 A 
ATOM     39  C   UNL A   1      42.302  21.390  27.899  1.00  0.00     0.016 A 
ATOM     40  C   UNL A   1      43.073  23.354  26.030  1.00  0.00     0.010 A 
ATOM     41  C   UNL A   1      42.795  22.620  28.330  1.00  0.00     0.010 A 
ATOM     42  C   UNL A   1      43.170  23.608  27.399  1.00  0.00    -0.014 A 
BRANCH  42  43
ATOM     43  C   UNL A   1      43.691  24.901  27.889  1.00  0.00     0.031 A 
ATOM     44  C   UNL A   1      42.720  25.971  28.271  1.00  0.00     0.074 A 
ATOM     45  C   UNL A   1      45.017  25.122  27.926  1.00  0.00     0.049 A 
ATOM     46  N   UNL A   1      42.924  27.246  28.458  1.00  0.00    -0.248 NA
ATOM     47  C   UNL A   1      41.324  25.543  28.452  1.00  0.00     0.031 C 
ATOM     48  C   UNL A   1      46.050  24.125  27.647  1.00  0.00     0.029 A 
ATOM     49  N   UNL A   1      45.720  26.270  28.185  1.00  0.00    -0.354 N 
ATOM     50  C   UNL A   1      41.677  27.784  28.739  1.00  0.00     0.074 A 
ATOM     51  C   UNL A   1      40.722  26.697  28.700  1.00  0.00     0.031 C 
ATOM     52  C   UNL A   1      47.256  24.711  27.724  1.00  0.00     0.029 A 
ATOM     53  C   UNL A   1      47.072  26.133  27.992  1.00  0.00     0.049 A 
ATOM     54  H   UNL A   1      45.297  27.109  28.480  1.00  0.00     0.167 HD
ATOM     55  C   UNL A   1      41.366  29.077  28.992  1.00  0.00     0.037 A 
ATOM     56  C   UNL A   1      48.042  27.066  27.977  1.00  0.00     0.037 A 
ATOM     57  C   UNL A   1      42.336  30.138  29.034  1.00  0.00     0.049 A 
ATOM     58  C   UNL A   1      47.665  28.507  28.196  1.00  0.00     0.074 A 
ATOM     59  C   UNL A   1      42.137  31.487  29.267  1.00  0.00     0.029 A 
ATOM     60  N   UNL A   1      43.700  29.962  28.839  1.00  0.00    -0.354 N 
ATOM     61  N   UNL A   1      46.481  29.026  28.414  1.00  0.00    -0.248 NA
ATOM     62  C   UNL A   1      48.754  29.491  28.154  1.00  0.00     0.031 C 
ATOM     63  C   UNL A   1      43.375  32.131  29.180  1.00  0.00     0.029 A 
ATOM     64  C   UNL A   1      44.353  31.179  28.938  1.00  0.00     0.049 A 
ATOM     65  H   UNL A   1      44.137  29.099  28.658  1.00  0.00     0.167 HD
ATOM     66  C   UNL A   1      46.683  30.391  28.565  1.00  0.00     0.074 A 
ATOM     67  C   UNL A   1      48.106  30.619  28.414  1.00  0.00     0.031 C 
ATOM     68  C   UNL A   1      45.775  31.369  28.806  1.00  0.00     0.037 A 
BRANCH  55  69
ATOM     69  C   UNL A   1      39.919  29.410  29.192  1.00  0.00     0.064 A 
ATOM     70  C   UNL A   1      39.366  29.569  30.471  1.00  0.00     0.173 A 
ATOM     71  C   UNL A   1      39.072  29.573  28.085  1.00  0.00     0.173 A 
ATOM     72  F   UNL A   1      40.128  29.401  31.562  1.00  0.00    -0.203 F 
ATOM     73  C   UNL A   1      38.013  29.853  30.634  1.00  0.00     0.198 A 
ATOM     74  C   UNL A   1      37.726  29.884  28.252  1.00  0.00     0.198 A 
ATOM     75  F   UNL A   1      39.552  29.428  26.841  1.00  0.00    -0.203 F 
ATOM     76  F   UNL A   1      37.494  29.953  31.866  1.00  0.00    -0.200 F 
ATOM     77  C   UNL A   1      37.195  30.017  29.526  1.00  0.00     0.200 A 
ATOM     78  F   UNL A   1      36.940  30.048  27.178  1.00  0.00    -0.200 F 
ATOM     79  F   UNL A   1      35.893  30.292  29.685  1.00  0.00    -0.200 F 
ENDBRANCH  55  69
BRANCH  56  80
ATOM     80  C   UNL A   1      49.450  26.672  27.709  1.00  0.00     0.064 A 
ATOM     81  C   UNL A   1      49.911  26.500  26.397  1.00  0.00     0.173 A 
ATOM     82  C   UNL A   1      50.363  26.467  28.754  1.00  0.00     0.173 A 
ATOM     83  F   UNL A   1      49.069  26.660  25.366  1.00  0.00    -0.203 F 
ATOM     84  C   UNL A   1      51.229  26.127  26.141  1.00  0.00     0.198 A 
ATOM     85  C   UNL A   1      51.688  26.121  28.496  1.00  0.00     0.198 A 
ATOM     86  F   UNL A   1      49.972  26.618  30.029  1.00  0.00    -0.203 F 
ATOM     87  F   UNL A   1      51.634  25.933  24.879  1.00  0.00    -0.200 F 
ATOM     88  C   UNL A   1      52.119  25.945  27.190  1.00  0.00     0.200 A 
ATOM     89  F   UNL A   1      52.547  25.957  29.512  1.00  0.00    -0.200 F 
ATOM     90  F   UNL A   1      53.388  25.594  26.942  1.00  0.00    -0.200 F 
ENDBRANCH  56  80
BRANCH  68  91
ATOM     91  C   UNL A   1      46.300  32.760  28.983  1.00  0.00     0.064 A 
ATOM     92  C   UNL A   1      46.414  33.647  27.904  1.00  0.00     0.173 A 
ATOM     93  C   UNL A   1      46.639  33.227  30.262  1.00  0.00     0.173 A 
ATOM     94  F   UNL A   1      46.117  33.241  26.661  1.00  0.00    -0.203 F 
ATOM     95  C   UNL A   1      46.865  34.950  28.098  1.00  0.00     0.198 A 
ATOM     96  C   UNL A   1      47.066  34.537  30.456  1.00  0.00     0.198 A 
ATOM     97  F   UNL A   1      46.541  32.414  31.325  1.00  0.00    -0.203 F 
ATOM     98  F   UNL A   1      47.001  35.773  27.048  1.00  0.00    -0.200 F 
ATOM     99  C   UNL A   1      47.182  35.396  29.373  1.00  0.00     0.200 A 
ATOM    100  F   UNL A   1      47.361  34.969  31.689  1.00  0.00    -0.200 F 
ATOM    101  F   UNL A   1      47.605  36.654  29.558  1.00  0.00    -0.200 F 
ENDBRANCH  68  91
ENDBRANCH  42  43
ENDBRANCH  35  37
ENDBRANCH  34  35
ENDBRANCH  33  34
ENDBRANCH   1  33
TORSDOF 16
ENDMDL
MODEL 3
REMARK VINA RESULT:     -10.2      6.493     12.184
REMARK SMILES CCN(CC)c1ccc([C@@H]2c3[nH]c4ccccc4c3C[C@@H](C(=O)OCCOC(=O)c3ccc(-c4c5nc(c(-c6c(F)c(F)c(F)c(F)c6F)c6ccc([nH]6)c(-c6c(F)c(F)c(F)c(F)c6F)c6nc(c(-c7c(F)c(F)c(F)c(F)c7F)c7ccc4[nH]7)C=C6)C=C5)cc3)N2C(C)=O)cc1
REMARK SMILES IDX 25 1 24 2 22 3 23 4 21 5 10 6 11 7 93 8 12 9 19 10 13 11
REMARK SMILES IDX 18 13 20 14 14 15 17 16 15 17 16 18 9 19 6 20 7 21 98 22
REMARK SMILES IDX 8 23 97 24 3 25 2 26 1 27 4 28 5 29 94 30 95 31 96 32 26 33
REMARK SMILES IDX 27 34 28 35 29 36 30 37 31 38 92 39 32 40 91 41 33 42 34 43
REMARK SMILES IDX 35 44 85 45 36 46 90 47 84 48 86 49 37 50 89 51 83 52 82 53
REMARK SMILES IDX 38 55 70 56 50 57 69 58 51 59 54 60 68 61 87 62 52 63 53 64
REMARK SMILES IDX 67 66 88 67 55 68 39 69 40 70 48 71 41 72 42 73 46 74 49 75
REMARK SMILES IDX 43 76 44 77 47 78 45 79 71 80 72 81 80 82 73 83 74 84 78 85
REMARK SMILES IDX 81 86 75 87 76 88 79 89 77 90 56 91 57 92 65 93 58 94 59 95
REMARK SMILES IDX 63 96 66 97 60 98 61 99 64 100 62 101
REMARK H PARENT 12 12 86 54 54 65
REMARK Flexibility Score: inf
ROOT
ATOM      1  C   UNL A   1      42.816  36.284  36.130  1.00  0.00     0.274 C 
ENDROOT
BRANCH   1   2
ATOM      2  O   UNL A   1      41.696  35.615  36.739  1.00  0.00    -0.461 OA
BRANCH   2   3
ATOM      3  C   UNL A   1      40.436  35.804  36.287  1.00  0.00     0.329 C 
ATOM      4  O   UNL A   1      40.026  36.870  35.843  1.00  0.00    -0.250 OA
BRANCH   3   5
ATOM      5  C   UNL A   1      39.502  34.611  36.657  1.00  0.00     0.200 C 
ATOM      6  C   UNL A   1      38.781  33.958  34.332  1.00  0.00     0.163 C 
ATOM      7  C   UNL A   1      39.923  32.973  34.405  1.00  0.00     0.047 A 
ATOM      8  N   UNL A   1      38.398  34.111  35.751  1.00  0.00    -0.316 N 
ATOM      9  N   UNL A   1      40.367  32.132  33.423  1.00  0.00    -0.356 N 
ATOM     10  C   UNL A   1      40.669  32.690  35.550  1.00  0.00    -0.014 A 
ATOM     11  C   UNL A   1      40.961  31.047  34.033  1.00  0.00     0.046 A 
ATOM     12  H   UNL A   1      40.277  32.276  32.453  1.00  0.00     0.166 HD
ATOM     13  C   UNL A   1      41.255  31.420  35.345  1.00  0.00     0.003 A 
ATOM     14  C   UNL A   1      40.516  33.442  36.846  1.00  0.00     0.075 C 
ATOM     15  C   UNL A   1      41.196  29.758  33.552  1.00  0.00     0.026 A 
ATOM     16  C   UNL A   1      41.874  30.499  36.206  1.00  0.00     0.010 A 
ATOM     17  C   UNL A   1      41.717  28.827  34.456  1.00  0.00     0.002 A 
ATOM     18  C   UNL A   1      42.068  29.193  35.756  1.00  0.00     0.001 A 
BRANCH   6  19
ATOM     19  C   UNL A   1      37.633  33.795  33.348  1.00  0.00    -0.019 A 
ATOM     20  C   UNL A   1      35.618  33.887  31.325  1.00  0.00     0.037 A 
ATOM     21  C   UNL A   1      36.611  32.905  31.333  1.00  0.00     0.026 A 
ATOM     22  C   UNL A   1      35.575  34.735  32.435  1.00  0.00     0.026 A 
ATOM     23  C   UNL A   1      37.591  32.847  32.329  1.00  0.00     0.008 A 
ATOM     24  C   UNL A   1      36.558  34.693  33.428  1.00  0.00     0.008 A 
BRANCH  20  25
ATOM     25  N   UNL A   1      34.745  34.064  30.263  1.00  0.00    -0.372 N 
BRANCH  25  26
ATOM     26  C   UNL A   1      34.679  32.997  29.254  1.00  0.00     0.113 C 
ATOM     27  C   UNL A   1      35.543  33.295  28.037  1.00  0.00     0.027 C 
ENDBRANCH  25  26
BRANCH  25  28
ATOM     28  C   UNL A   1      33.651  35.037  30.307  1.00  0.00     0.113 C 
ATOM     29  C   UNL A   1      33.399  35.735  28.975  1.00  0.00     0.027 C 
ENDBRANCH  25  28
ENDBRANCH  20  25
ENDBRANCH   6  19
BRANCH   8  30
ATOM     30  C   UNL A   1      37.518  33.115  36.237  1.00  0.00     0.221 C 
ATOM     31  C   UNL A   1      36.746  33.408  37.495  1.00  0.00     0.114 C 
ATOM     32  O   UNL A   1      37.365  32.010  35.717  1.00  0.00    -0.275 OA
ENDBRANCH   8  30
ENDBRANCH   3   5
ENDBRANCH   2   3
ENDBRANCH   1   2
BRANCH   1  33
ATOM     33  C   UNL A   1      42.875  35.813  34.676  1.00  0.00     0.275 C 
BRANCH  33  34
ATOM     34  O   UNL A   1      44.197  36.126  34.211  1.00  0.00    -0.458 OA
BRANCH  34  35
ATOM     35  C   UNL A   1      45.168  35.229  34.476  1.00  0.00     0.338 C 
ATOM     36  O   UNL A   1      46.017  35.264  35.354  1.00  0.00    -0.246 OA
BRANCH  35  37
ATOM     37  C   UNL A   1      44.930  34.108  33.564  1.00  0.00     0.060 A 
ATOM     38  C   UNL A   1      45.130  34.310  32.193  1.00  0.00     0.016 A 
ATOM     39  C   UNL A   1      44.566  32.860  34.060  1.00  0.00     0.016 A 
ATOM     40  C   UNL A   1      45.001  33.253  31.303  1.00  0.00     0.010 A 
ATOM     41  C   UNL A   1      44.466  31.792  33.169  1.00  0.00     0.010 A 
ATOM     42  C   UNL A   1      44.694  31.982  31.793  1.00  0.00    -0.014 A 
BRANCH  42  43
ATOM     43  C   UNL A   1      44.579  30.830  30.876  1.00  0.00     0.031 A 
ATOM     44  C   UNL A   1      43.226  30.440  30.375  1.00  0.00     0.074 A 
ATOM     45  C   UNL A   1      45.671  30.114  30.555  1.00  0.00     0.049 A 
ATOM     46  N   UNL A   1      42.842  29.333  29.801  1.00  0.00    -0.248 NA
ATOM     47  C   UNL A   1      42.157  31.434  30.560  1.00  0.00     0.031 C 
ATOM     48  C   UNL A   1      47.044  30.450  30.927  1.00  0.00     0.029 A 
ATOM     49  N   UNL A   1      45.789  28.934  29.865  1.00  0.00    -0.354 N 
ATOM     50  C   UNL A   1      41.479  29.475  29.593  1.00  0.00     0.074 A 
ATOM     51  C   UNL A   1      41.102  30.778  30.099  1.00  0.00     0.031 C 
ATOM     52  C   UNL A   1      47.867  29.484  30.484  1.00  0.00     0.029 A 
ATOM     53  C   UNL A   1      47.068  28.436  29.858  1.00  0.00     0.049 A 
ATOM     54  H   UNL A   1      45.032  28.489  29.419  1.00  0.00     0.167 HD
ATOM     55  C   UNL A   1      40.623  28.584  29.039  1.00  0.00     0.037 A 
ATOM     56  C   UNL A   1      47.528  27.241  29.444  1.00  0.00     0.037 A 
ATOM     57  C   UNL A   1      41.026  27.299  28.534  1.00  0.00     0.049 A 
ATOM     58  C   UNL A   1      46.549  26.240  28.891  1.00  0.00     0.074 A 
ATOM     59  C   UNL A   1      40.246  26.309  27.964  1.00  0.00     0.029 A 
ATOM     60  N   UNL A   1      42.333  26.828  28.538  1.00  0.00    -0.354 N 
ATOM     61  N   UNL A   1      45.252  26.352  28.737  1.00  0.00    -0.248 NA
ATOM     62  C   UNL A   1      47.095  24.943  28.467  1.00  0.00     0.031 C 
ATOM     63  C   UNL A   1      41.076  25.226  27.655  1.00  0.00     0.029 A 
ATOM     64  C   UNL A   1      42.380  25.559  27.989  1.00  0.00     0.049 A 
ATOM     65  H   UNL A   1      43.110  27.326  28.881  1.00  0.00     0.167 HD
ATOM     66  C   UNL A   1      44.828  25.157  28.173  1.00  0.00     0.074 A 
ATOM     67  C   UNL A   1      46.009  24.333  28.010  1.00  0.00     0.031 C 
ATOM     68  C   UNL A   1      43.576  24.774  27.820  1.00  0.00     0.037 A 
BRANCH  55  69
ATOM     69  C   UNL A   1      39.173  28.957  28.999  1.00  0.00     0.064 A 
ATOM     70  C   UNL A   1      38.545  29.363  27.813  1.00  0.00     0.173 A 
ATOM     71  C   UNL A   1      38.399  28.906  30.169  1.00  0.00     0.173 A 
ATOM     72  F   UNL A   1      39.247  29.449  26.673  1.00  0.00    -0.203 F 
ATOM     73  C   UNL A   1      37.201  29.729  27.804  1.00  0.00     0.198 A 
ATOM     74  C   UNL A   1      37.049  29.246  30.150  1.00  0.00     0.198 A 
ATOM     75  F   UNL A   1      38.953  28.527  31.330  1.00  0.00    -0.203 F 
ATOM     76  F   UNL A   1      36.633  30.160  26.670  1.00  0.00    -0.200 F 
ATOM     77  C   UNL A   1      36.453  29.665  28.970  1.00  0.00     0.200 A 
ATOM     78  F   UNL A   1      36.327  29.177  31.278  1.00  0.00    -0.200 F 
ATOM     79  F   UNL A   1      35.160  30.016  28.960  1.00  0.00    -0.200 F 
ENDBRANCH  55  69
BRANCH  56  80
ATOM     80  C   UNL A   1      48.973  26.914  29.571  1.00  0.00     0.064 A 
ATOM     81  C   UNL A   1      49.888  27.313  28.587  1.00  0.00     0.173 A 
ATOM     82  C   UNL A   1      49.469  26.208  30.676  1.00  0.00     0.173 A 
ATOM     83  F   UNL A   1      49.458  27.969  27.500  1.00  0.00    -0.203 F 
ATOM     84  C   UNL A   1      51.243  27.007  28.699  1.00  0.00     0.198 A 
ATOM     85  C   UNL A   1      50.827  25.926  30.800  1.00  0.00     0.198 A 
ATOM     86  F   UNL A   1      48.634  25.803  31.645  1.00  0.00    -0.203 F 
ATOM     87  F   UNL A   1      52.091  27.366  27.727  1.00  0.00    -0.200 F 
ATOM     88  C   UNL A   1      51.713  26.320  29.809  1.00  0.00     0.200 A 
ATOM     89  F   UNL A   1      51.279  25.272  31.880  1.00  0.00    -0.200 F 
ATOM     90  F   UNL A   1      53.017  26.033  29.920  1.00  0.00    -0.200 F 
ENDBRANCH  56  80
BRANCH  68  91
ATOM     91  C   UNL A   1      43.430  23.433  27.169  1.00  0.00     0.064 A 
ATOM     92  C   UNL A   1      42.847  22.349  27.839  1.00  0.00     0.173 A 
ATOM     93  C   UNL A   1      43.829  23.251  25.836  1.00  0.00     0.173 A 
ATOM     94  F   UNL A   1      42.465  22.471  29.119  1.00  0.00    -0.203 F 
ATOM     95  C   UNL A   1      42.683  21.122  27.200  1.00  0.00     0.198 A 
ATOM     96  C   UNL A   1      43.641  22.031  25.194  1.00  0.00     0.198 A 
ATOM     97  F   UNL A   1      44.388  24.262  25.154  1.00  0.00    -0.203 F 
ATOM     98  F   UNL A   1      42.155  20.087  27.869  1.00  0.00    -0.200 F 
ATOM     99  C   UNL A   1      43.071  20.967  25.877  1.00  0.00     0.200 A 
ATOM    100  F   UNL A   1      44.006  21.887  23.913  1.00  0.00    -0.200 F 
ATOM    101  F   UNL A   1      42.901  19.789  25.262  1.00  0.00    -0.200 F 
ENDBRANCH  68  91
ENDBRANCH  42  43
ENDBRANCH  35  37
ENDBRANCH  34  35
ENDBRANCH  33  34
ENDBRANCH   1  33
TORSDOF 16
ENDMDL
