MODEL 1
REMARK VINA RESULT:     -12.9      0.000      0.000
REMARK SMILES Cc1cc2c(c(C)c1Br)C=C(C(=O)OCCOC(=O)c1ccc(-c3c4nc(c(-c5c(F)c(F)c(F)c(F)c5F)c5ccc([nH]5)c(-c5c(F)c(F)c(F)c(F)c5F)c5nc(c(-c6c(F)c(F)c(F)c(F)c6F)c6ccc3[nH]6)C=C5)C=C4)cc1)[C@@H](C(F)(F)F)O2
REMARK SMILES IDX 16 1 15 2 14 3 12 4 13 5 11 6 1 7 2 8 3 9 8 10 4 11 6 12
REMARK SMILES IDX 9 13 5 14 88 15 7 16 10 17 83 18 84 19 85 20 86 21 87 22
REMARK SMILES IDX 17 23 18 24 19 25 20 26 21 27 82 28 22 29 81 30 23 31 24 32
REMARK SMILES IDX 25 33 75 34 26 35 80 36 74 37 76 38 27 39 79 40 73 41 72 42
REMARK SMILES IDX 28 44 60 45 40 46 59 47 41 48 44 49 58 50 77 51 42 52 43 53
REMARK SMILES IDX 57 55 78 56 45 57 29 58 30 59 38 60 31 61 32 62 36 63 39 64
REMARK SMILES IDX 33 65 34 66 37 67 35 68 61 69 62 70 70 71 63 72 64 73 68 74
REMARK SMILES IDX 71 75 65 76 66 77 69 78 67 79 46 80 47 81 55 82 48 83 49 84
REMARK SMILES IDX 53 85 56 86 50 87 51 88 54 89 52 90
REMARK H PARENT 76 43 44 54
REMARK Flexibility Score: inf
ROOT
ATOM      1  C   UNL A   1      31.876  30.081  25.542  1.00  0.00     0.275 C 
ENDROOT
BRANCH   1   2
ATOM      2  C   UNL A   1      31.433  28.646  25.254  1.00  0.00     0.275 C 
BRANCH   2   3
ATOM      3  O   UNL A   1      32.442  27.696  25.660  1.00  0.00    -0.459 OA
BRANCH   3   4
ATOM      4  C   UNL A   1      33.123  27.104  24.653  1.00  0.00     0.338 C 
ATOM      5  O   UNL A   1      33.670  27.664  23.714  1.00  0.00    -0.246 OA
BRANCH   4   6
ATOM      6  C   UNL A   1      33.152  25.641  24.834  1.00  0.00     0.087 C 
ATOM      7  C   UNL A   1      34.406  19.287  24.688  1.00  0.00     0.046 C 
ATOM      8  C   UNL A   1      34.485  20.782  24.853  1.00  0.00    -0.033 A 
ATOM      9  C   UNL A   1      33.272  21.489  24.855  1.00  0.00     0.051 A 
ATOM     10  C   UNL A   1      35.695  21.503  24.926  1.00  0.00     0.024 A 
ATOM     11  C   UNL A   1      33.247  22.879  24.914  1.00  0.00     0.128 A 
ATOM     12  C   UNL A   1      35.689  22.917  25.018  1.00  0.00    -0.026 A 
ATOM     13  Br  UNL A   1      37.350  20.543  24.867  1.00  0.00    -0.050 Br
ATOM     14  C   UNL A   1      34.442  23.599  24.983  1.00  0.00     0.021 A 
ATOM     15  O   UNL A   1      32.001  23.443  24.915  1.00  0.00    -0.475 OA
ATOM     16  C   UNL A   1      36.964  23.720  25.150  1.00  0.00     0.046 C 
ATOM     17  C   UNL A   1      34.348  25.056  24.971  1.00  0.00     0.027 C 
ATOM     18  C   UNL A   1      31.872  24.874  24.709  1.00  0.00     0.316 C 
BRANCH  18  19
ATOM     19  C   UNL A   1      31.193  25.127  23.352  1.00  0.00     0.430 C 
ATOM     20  F   UNL A   1      30.335  24.129  23.035  1.00  0.00    -0.167 F 
ATOM     21  F   UNL A   1      30.468  26.271  23.366  1.00  0.00    -0.167 F 
ATOM     22  F   UNL A   1      32.090  25.230  22.345  1.00  0.00    -0.167 F 
ENDBRANCH  18  19
ENDBRANCH   4   6
ENDBRANCH   3   4
ENDBRANCH   2   3
ENDBRANCH   1   2
BRANCH   1  23
ATOM     23  O   UNL A   1      32.384  30.182  26.885  1.00  0.00    -0.458 OA
BRANCH  23  24
ATOM     24  C   UNL A   1      33.022  31.336  27.183  1.00  0.00     0.338 C 
ATOM     25  O   UNL A   1      32.562  32.465  27.172  1.00  0.00    -0.246 OA
BRANCH  24  26
ATOM     26  C   UNL A   1      34.404  31.055  27.608  1.00  0.00     0.060 A 
ATOM     27  C   UNL A   1      34.777  29.742  27.862  1.00  0.00     0.016 A 
ATOM     28  C   UNL A   1      35.267  32.098  27.937  1.00  0.00     0.016 A 
ATOM     29  C   UNL A   1      35.937  29.475  28.581  1.00  0.00     0.010 A 
ATOM     30  C   UNL A   1      36.502  31.813  28.538  1.00  0.00     0.010 A 
ATOM     31  C   UNL A   1      36.831  30.501  28.922  1.00  0.00    -0.014 A 
BRANCH  31  32
ATOM     32  C   UNL A   1      38.064  30.203  29.717  1.00  0.00     0.031 A 
ATOM     33  C   UNL A   1      39.183  29.385  29.115  1.00  0.00     0.074 A 
ATOM     34  C   UNL A   1      38.221  30.695  30.965  1.00  0.00     0.049 A 
ATOM     35  N   UNL A   1      40.223  28.844  29.701  1.00  0.00    -0.248 NA
ATOM     36  C   UNL A   1      39.119  29.131  27.668  1.00  0.00     0.031 C 
ATOM     37  C   UNL A   1      37.270  31.560  31.664  1.00  0.00     0.029 A 
ATOM     38  N   UNL A   1      39.256  30.560  31.862  1.00  0.00    -0.354 N 
ATOM     39  C   UNL A   1      40.892  28.131  28.712  1.00  0.00     0.074 A 
ATOM     40  C   UNL A   1      40.145  28.310  27.487  1.00  0.00     0.031 C 
ATOM     41  C   UNL A   1      37.795  31.942  32.835  1.00  0.00     0.029 A 
ATOM     42  C   UNL A   1      39.058  31.245  33.037  1.00  0.00     0.049 A 
ATOM     43  H   UNL A   1      40.060  30.022  31.679  1.00  0.00     0.167 HD
ATOM     44  C   UNL A   1      42.025  27.394  28.821  1.00  0.00     0.037 A 
ATOM     45  C   UNL A   1      39.777  31.273  34.177  1.00  0.00     0.037 A 
ATOM     46  C   UNL A   1      42.807  27.280  30.026  1.00  0.00     0.049 A 
ATOM     47  C   UNL A   1      41.004  30.413  34.290  1.00  0.00     0.074 A 
ATOM     48  C   UNL A   1      43.961  26.545  30.239  1.00  0.00     0.029 A 
ATOM     49  N   UNL A   1      42.534  27.945  31.212  1.00  0.00    -0.354 N 
ATOM     50  N   UNL A   1      41.558  29.645  33.386  1.00  0.00    -0.248 NA
ATOM     51  C   UNL A   1      41.683  30.398  35.592  1.00  0.00     0.031 C 
ATOM     52  C   UNL A   1      44.368  26.739  31.563  1.00  0.00     0.029 A 
ATOM     53  C   UNL A   1      43.495  27.632  32.161  1.00  0.00     0.049 A 
ATOM     54  H   UNL A   1      41.770  28.549  31.358  1.00  0.00     0.167 HD
ATOM     55  C   UNL A   1      42.653  29.059  34.004  1.00  0.00     0.074 A 
ATOM     56  C   UNL A   1      42.699  29.578  35.356  1.00  0.00     0.031 C 
ATOM     57  C   UNL A   1      43.534  28.162  33.499  1.00  0.00     0.037 A 
BRANCH  44  58
ATOM     58  C   UNL A   1      42.484  26.621  27.617  1.00  0.00     0.064 A 
ATOM     59  C   UNL A   1      43.464  27.113  26.745  1.00  0.00     0.173 A 
ATOM     60  C   UNL A   1      41.984  25.330  27.380  1.00  0.00     0.173 A 
ATOM     61  F   UNL A   1      43.965  28.345  26.919  1.00  0.00    -0.203 F 
ATOM     62  C   UNL A   1      43.917  26.347  25.671  1.00  0.00     0.198 A 
ATOM     63  C   UNL A   1      42.461  24.556  26.324  1.00  0.00     0.198 A 
ATOM     64  F   UNL A   1      41.051  24.806  28.189  1.00  0.00    -0.203 F 
ATOM     65  F   UNL A   1      44.832  26.851  24.830  1.00  0.00    -0.200 F 
ATOM     66  C   UNL A   1      43.424  25.067  25.469  1.00  0.00     0.200 A 
ATOM     67  F   UNL A   1      41.994  23.313  26.141  1.00  0.00    -0.200 F 
ATOM     68  F   UNL A   1      43.875  24.326  24.447  1.00  0.00    -0.200 F 
ENDBRANCH  44  58
BRANCH  45  69
ATOM     69  C   UNL A   1      39.320  32.114  35.315  1.00  0.00     0.064 A 
ATOM     70  C   UNL A   1      38.475  31.592  36.302  1.00  0.00     0.173 A 
ATOM     71  C   UNL A   1      39.745  33.445  35.458  1.00  0.00     0.173 A 
ATOM     72  F   UNL A   1      38.016  30.336  36.194  1.00  0.00    -0.203 F 
ATOM     73  C   UNL A   1      38.079  32.363  37.394  1.00  0.00     0.198 A 
ATOM     74  C   UNL A   1      39.378  34.203  36.567  1.00  0.00     0.198 A 
ATOM     75  F   UNL A   1      40.550  33.996  34.539  1.00  0.00    -0.203 F 
ATOM     76  F   UNL A   1      37.248  31.849  38.310  1.00  0.00    -0.200 F 
ATOM     77  C   UNL A   1      38.542  33.664  37.532  1.00  0.00     0.200 A 
ATOM     78  F   UNL A   1      39.845  35.451  36.706  1.00  0.00    -0.200 F 
ATOM     79  F   UNL A   1      38.182  34.396  38.594  1.00  0.00    -0.200 F 
ENDBRANCH  45  69
BRANCH  57  80
ATOM     80  C   UNL A   1      44.644  27.704  34.397  1.00  0.00     0.064 A 
ATOM     81  C   UNL A   1      45.847  28.417  34.496  1.00  0.00     0.173 A 
ATOM     82  C   UNL A   1      44.480  26.570  35.206  1.00  0.00     0.173 A 
ATOM     83  F   UNL A   1      46.056  29.500  33.733  1.00  0.00    -0.203 F 
ATOM     84  C   UNL A   1      46.854  28.000  35.363  1.00  0.00     0.198 A 
ATOM     85  C   UNL A   1      45.478  26.171  36.090  1.00  0.00     0.198 A 
ATOM     86  F   UNL A   1      43.344  25.858  35.152  1.00  0.00    -0.203 F 
ATOM     87  F   UNL A   1      48.011  28.675  35.417  1.00  0.00    -0.200 F 
ATOM     88  C   UNL A   1      46.666  26.884  36.164  1.00  0.00     0.200 A 
ATOM     89  F   UNL A   1      45.289  25.100  36.873  1.00  0.00    -0.200 F 
ATOM     90  F   UNL A   1      47.631  26.490  37.006  1.00  0.00    -0.200 F 
ENDBRANCH  57  80
ENDBRANCH  31  32
ENDBRANCH  24  26
ENDBRANCH  23  24
ENDBRANCH   1  23
TORSDOF 12
ENDMDL
MODEL 2
REMARK VINA RESULT:     -12.8      4.229      7.049
REMARK SMILES Cc1cc2c(c(C)c1Br)C=C(C(=O)OCCOC(=O)c1ccc(-c3c4nc(c(-c5c(F)c(F)c(F)c(F)c5F)c5ccc([nH]5)c(-c5c(F)c(F)c(F)c(F)c5F)c5nc(c(-c6c(F)c(F)c(F)c(F)c6F)c6ccc3[nH]6)C=C5)C=C4)cc1)[C@@H](C(F)(F)F)O2
REMARK SMILES IDX 16 1 15 2 14 3 12 4 13 5 11 6 1 7 2 8 3 9 8 10 4 11 6 12
REMARK SMILES IDX 9 13 5 14 88 15 7 16 10 17 83 18 84 19 85 20 86 21 87 22
REMARK SMILES IDX 17 23 18 24 19 25 20 26 21 27 82 28 22 29 81 30 23 31 24 32
REMARK SMILES IDX 25 33 75 34 26 35 80 36 74 37 76 38 27 39 79 40 73 41 72 42
REMARK SMILES IDX 28 44 60 45 40 46 59 47 41 48 44 49 58 50 77 51 42 52 43 53
REMARK SMILES IDX 57 55 78 56 45 57 29 58 30 59 38 60 31 61 32 62 36 63 39 64
REMARK SMILES IDX 33 65 34 66 37 67 35 68 61 69 62 70 70 71 63 72 64 73 68 74
REMARK SMILES IDX 71 75 65 76 66 77 69 78 67 79 46 80 47 81 55 82 48 83 49 84
REMARK SMILES IDX 53 85 56 86 50 87 51 88 54 89 52 90
REMARK H PARENT 76 43 44 54
REMARK Flexibility Score: inf
ROOT
ATOM      1  C   UNL A   1      33.265  33.819  28.221  1.00  0.00     0.275 C 
ENDROOT
BRANCH   1   2
ATOM      2  C   UNL A   1      34.174  34.840  28.905  1.00  0.00     0.275 C 
BRANCH   2   3
ATOM      3  O   UNL A   1      34.067  34.756  30.343  1.00  0.00    -0.459 OA
BRANCH   3   4
ATOM      4  C   UNL A   1      34.712  33.713  30.913  1.00  0.00     0.338 C 
ATOM      5  O   UNL A   1      34.405  32.533  30.835  1.00  0.00    -0.246 OA
BRANCH   4   6
ATOM      6  C   UNL A   1      35.897  34.180  31.658  1.00  0.00     0.087 C 
ATOM      7  C   UNL A   1      41.716  35.015  34.378  1.00  0.00     0.046 C 
ATOM      8  C   UNL A   1      40.573  34.835  33.413  1.00  0.00    -0.033 A 
ATOM      9  C   UNL A   1      39.278  35.032  33.915  1.00  0.00     0.051 A 
ATOM     10  C   UNL A   1      40.730  34.412  32.078  1.00  0.00     0.024 A 
ATOM     11  C   UNL A   1      38.155  34.805  33.126  1.00  0.00     0.128 A 
ATOM     12  C   UNL A   1      39.600  34.205  31.248  1.00  0.00    -0.026 A 
ATOM     13  Br  UNL A   1      42.495  34.089  31.409  1.00  0.00    -0.050 Br
ATOM     14  C   UNL A   1      38.303  34.382  31.802  1.00  0.00     0.021 A 
ATOM     15  O   UNL A   1      36.952  35.039  33.734  1.00  0.00    -0.475 OA
ATOM     16  C   UNL A   1      39.732  33.801  29.796  1.00  0.00     0.046 C 
ATOM     17  C   UNL A   1      37.086  34.093  31.051  1.00  0.00     0.027 C 
ATOM     18  C   UNL A   1      35.733  34.585  33.091  1.00  0.00     0.316 C 
BRANCH  18  19
ATOM     19  C   UNL A   1      35.116  33.453  33.929  1.00  0.00     0.430 C 
ATOM     20  F   UNL A   1      35.652  32.252  33.610  1.00  0.00    -0.167 F 
ATOM     21  F   UNL A   1      35.341  33.637  35.253  1.00  0.00    -0.167 F 
ATOM     22  F   UNL A   1      33.777  33.362  33.757  1.00  0.00    -0.167 F 
ENDBRANCH  18  19
ENDBRANCH   4   6
ENDBRANCH   3   4
ENDBRANCH   2   3
ENDBRANCH   1   2
BRANCH   1  23
ATOM     23  O   UNL A   1      34.025  33.023  27.293  1.00  0.00    -0.458 OA
BRANCH  23  24
ATOM     24  C   UNL A   1      33.926  31.684  27.455  1.00  0.00     0.338 C 
ATOM     25  O   UNL A   1      32.948  30.981  27.266  1.00  0.00    -0.246 OA
BRANCH  24  26
ATOM     26  C   UNL A   1      35.230  31.126  27.850  1.00  0.00     0.060 A 
ATOM     27  C   UNL A   1      35.300  29.800  28.256  1.00  0.00     0.016 A 
ATOM     28  C   UNL A   1      36.338  31.958  28.001  1.00  0.00     0.016 A 
ATOM     29  C   UNL A   1      36.415  29.343  28.950  1.00  0.00     0.010 A 
ATOM     30  C   UNL A   1      37.512  31.451  28.576  1.00  0.00     0.010 A 
ATOM     31  C   UNL A   1      37.550  30.152  29.114  1.00  0.00    -0.014 A 
BRANCH  31  32
ATOM     32  C   UNL A   1      38.734  29.656  29.884  1.00  0.00     0.031 A 
ATOM     33  C   UNL A   1      39.743  28.742  29.230  1.00  0.00     0.074 A 
ATOM     34  C   UNL A   1      38.948  30.051  31.157  1.00  0.00     0.049 A 
ATOM     35  N   UNL A   1      40.706  28.042  29.778  1.00  0.00    -0.248 NA
ATOM     36  C   UNL A   1      39.652  28.582  27.770  1.00  0.00     0.031 C 
ATOM     37  C   UNL A   1      38.111  30.986  31.911  1.00  0.00     0.029 A 
ATOM     38  N   UNL A   1      39.956  29.735  32.040  1.00  0.00    -0.354 N 
ATOM     39  C   UNL A   1      41.283  27.309  28.746  1.00  0.00     0.074 A 
ATOM     40  C   UNL A   1      40.567  27.652  27.536  1.00  0.00     0.031 C 
ATOM     41  C   UNL A   1      38.676  31.230  33.100  1.00  0.00     0.029 A 
ATOM     42  C   UNL A   1      39.842  30.369  33.254  1.00  0.00     0.049 A 
ATOM     43  H   UNL A   1      40.686  29.112  31.823  1.00  0.00     0.167 HD
ATOM     44  C   UNL A   1      42.315  26.432  28.805  1.00  0.00     0.037 A 
ATOM     45  C   UNL A   1      40.556  30.240  34.390  1.00  0.00     0.037 A 
ATOM     46  C   UNL A   1      43.073  26.150  29.998  1.00  0.00     0.049 A 
ATOM     47  C   UNL A   1      41.666  29.229  34.447  1.00  0.00     0.074 A 
ATOM     48  C   UNL A   1      44.126  25.266  30.162  1.00  0.00     0.029 A 
ATOM     49  N   UNL A   1      42.882  26.773  31.223  1.00  0.00    -0.354 N 
ATOM     50  N   UNL A   1      42.121  28.451  33.497  1.00  0.00    -0.248 NA
ATOM     51  C   UNL A   1      42.334  29.052  35.743  1.00  0.00     0.031 C 
ATOM     52  C   UNL A   1      44.550  25.329  31.493  1.00  0.00     0.029 A 
ATOM     53  C   UNL A   1      43.794  26.288  32.147  1.00  0.00     0.049 A 
ATOM     54  H   UNL A   1      42.200  27.459  31.407  1.00  0.00     0.167 HD
ATOM     55  C   UNL A   1      43.133  27.698  34.075  1.00  0.00     0.074 A 
ATOM     56  C   UNL A   1      43.240  28.127  35.454  1.00  0.00     0.031 C 
ATOM     57  C   UNL A   1      43.896  26.729  33.514  1.00  0.00     0.037 A 
BRANCH  44  58
ATOM     58  C   UNL A   1      42.676  25.679  27.557  1.00  0.00     0.064 A 
ATOM     59  C   UNL A   1      43.696  26.109  26.697  1.00  0.00     0.173 A 
ATOM     60  C   UNL A   1      42.038  24.463  27.260  1.00  0.00     0.173 A 
ATOM     61  F   UNL A   1      44.328  27.269  26.927  1.00  0.00    -0.203 F 
ATOM     62  C   UNL A   1      44.054  25.358  25.578  1.00  0.00     0.198 A 
ATOM     63  C   UNL A   1      42.419  23.701  26.158  1.00  0.00     0.198 A 
ATOM     64  F   UNL A   1      41.061  24.001  28.054  1.00  0.00    -0.203 F 
ATOM     65  F   UNL A   1      45.009  25.805  24.751  1.00  0.00    -0.200 F 
ATOM     66  C   UNL A   1      43.423  24.151  25.316  1.00  0.00     0.200 A 
ATOM     67  F   UNL A   1      41.819  22.526  25.918  1.00  0.00    -0.200 F 
ATOM     68  F   UNL A   1      43.783  23.421  24.251  1.00  0.00    -0.200 F 
ENDBRANCH  44  58
BRANCH  45  69
ATOM     69  C   UNL A   1      40.205  31.063  35.578  1.00  0.00     0.064 A 
ATOM     70  C   UNL A   1      41.087  32.036  36.066  1.00  0.00     0.173 A 
ATOM     71  C   UNL A   1      38.968  30.921  36.228  1.00  0.00     0.173 A 
ATOM     72  F   UNL A   1      42.294  32.189  35.501  1.00  0.00    -0.203 F 
ATOM     73  C   UNL A   1      40.744  32.840  37.152  1.00  0.00     0.198 A 
ATOM     74  C   UNL A   1      38.612  31.748  37.290  1.00  0.00     0.198 A 
ATOM     75  F   UNL A   1      38.089  30.001  35.804  1.00  0.00    -0.203 F 
ATOM     76  F   UNL A   1      41.617  33.743  37.617  1.00  0.00    -0.200 F 
ATOM     77  C   UNL A   1      39.501  32.704  37.753  1.00  0.00     0.200 A 
ATOM     78  F   UNL A   1      37.402  31.627  37.853  1.00  0.00    -0.200 F 
ATOM     79  F   UNL A   1      39.162  33.494  38.781  1.00  0.00    -0.200 F 
ENDBRANCH  45  69
BRANCH  57  80
ATOM     80  C   UNL A   1      44.938  26.084  34.378  1.00  0.00     0.064 A 
ATOM     81  C   UNL A   1      44.681  24.893  35.070  1.00  0.00     0.173 A 
ATOM     82  C   UNL A   1      46.224  26.637  34.470  1.00  0.00     0.173 A 
ATOM     83  F   UNL A   1      43.463  24.334  35.024  1.00  0.00    -0.203 F 
ATOM     84  C   UNL A   1      45.671  24.286  35.838  1.00  0.00     0.198 A 
ATOM     85  C   UNL A   1      47.219  26.014  35.218  1.00  0.00     0.198 A 
ATOM     86  F   UNL A   1      46.521  27.773  33.821  1.00  0.00    -0.203 F 
ATOM     87  F   UNL A   1      45.394  23.167  36.521  1.00  0.00    -0.200 F 
ATOM     88  C   UNL A   1      46.940  24.842  35.905  1.00  0.00     0.200 A 
ATOM     89  F   UNL A   1      48.448  26.545  35.270  1.00  0.00    -0.200 F 
ATOM     90  F   UNL A   1      47.895  24.251  36.636  1.00  0.00    -0.200 F 
ENDBRANCH  57  80
ENDBRANCH  31  32
ENDBRANCH  24  26
ENDBRANCH  23  24
ENDBRANCH   1  23
TORSDOF 12
ENDMDL
MODEL 3
REMARK VINA RESULT:     -12.8      0.341      1.637
REMARK SMILES Cc1cc2c(c(C)c1Br)C=C(C(=O)OCCOC(=O)c1ccc(-c3c4nc(c(-c5c(F)c(F)c(F)c(F)c5F)c5ccc([nH]5)c(-c5c(F)c(F)c(F)c(F)c5F)c5nc(c(-c6c(F)c(F)c(F)c(F)c6F)c6ccc3[nH]6)C=C5)C=C4)cc1)[C@@H](C(F)(F)F)O2
REMARK SMILES IDX 16 1 15 2 14 3 12 4 13 5 11 6 1 7 2 8 3 9 8 10 4 11 6 12
REMARK SMILES IDX 9 13 5 14 88 15 7 16 10 17 83 18 84 19 85 20 86 21 87 22
REMARK SMILES IDX 17 23 18 24 19 25 20 26 21 27 82 28 22 29 81 30 23 31 24 32
REMARK SMILES IDX 25 33 75 34 26 35 80 36 74 37 76 38 27 39 79 40 73 41 72 42
REMARK SMILES IDX 28 44 60 45 40 46 59 47 41 48 44 49 58 50 77 51 42 52 43 53
REMARK SMILES IDX 57 55 78 56 45 57 29 58 30 59 38 60 31 61 32 62 36 63 39 64
REMARK SMILES IDX 33 65 34 66 37 67 35 68 61 69 62 70 70 71 63 72 64 73 68 74
REMARK SMILES IDX 71 75 65 76 66 77 69 78 67 79 46 80 47 81 55 82 48 83 49 84
REMARK SMILES IDX 53 85 56 86 50 87 51 88 54 89 52 90
REMARK H PARENT 76 43 44 54
REMARK Flexibility Score: inf
ROOT
ATOM      1  C   UNL A   1      31.661  30.263  25.741  1.00  0.00     0.275 C 
ENDROOT
BRANCH   1   2
ATOM      2  C   UNL A   1      31.584  28.958  24.950  1.00  0.00     0.275 C 
BRANCH   2   3
ATOM      3  O   UNL A   1      32.434  27.944  25.528  1.00  0.00    -0.459 OA
BRANCH   3   4
ATOM      4  C   UNL A   1      33.279  27.333  24.666  1.00  0.00     0.338 C 
ATOM      5  O   UNL A   1      34.027  27.877  23.868  1.00  0.00    -0.246 OA
BRANCH   4   6
ATOM      6  C   UNL A   1      33.208  25.868  24.821  1.00  0.00     0.087 C 
ATOM      7  C   UNL A   1      34.079  19.452  24.626  1.00  0.00     0.046 C 
ATOM      8  C   UNL A   1      34.239  20.936  24.824  1.00  0.00    -0.033 A 
ATOM      9  C   UNL A   1      33.073  21.716  24.769  1.00  0.00     0.051 A 
ATOM     10  C   UNL A   1      35.483  21.580  24.982  1.00  0.00     0.024 A 
ATOM     11  C   UNL A   1      33.129  23.104  24.853  1.00  0.00     0.128 A 
ATOM     12  C   UNL A   1      35.558  22.990  25.101  1.00  0.00    -0.026 A 
ATOM     13  Br  UNL A   1      37.078  20.520  25.001  1.00  0.00    -0.050 Br
ATOM     14  C   UNL A   1      34.359  23.748  25.006  1.00  0.00     0.021 A 
ATOM     15  O   UNL A   1      31.922  23.744  24.791  1.00  0.00    -0.475 OA
ATOM     16  C   UNL A   1      36.870  23.710  25.323  1.00  0.00     0.046 C 
ATOM     17  C   UNL A   1      34.355  25.208  25.016  1.00  0.00     0.027 C 
ATOM     18  C   UNL A   1      31.893  25.184  24.606  1.00  0.00     0.316 C 
BRANCH  18  19
ATOM     19  C   UNL A   1      31.313  25.499  23.217  1.00  0.00     0.430 C 
ATOM     20  F   UNL A   1      30.559  24.476  22.752  1.00  0.00    -0.167 F 
ATOM     21  F   UNL A   1      30.507  26.588  23.251  1.00  0.00    -0.167 F 
ATOM     22  F   UNL A   1      32.280  25.742  22.304  1.00  0.00    -0.167 F 
ENDBRANCH  18  19
ENDBRANCH   4   6
ENDBRANCH   3   4
ENDBRANCH   2   3
ENDBRANCH   1   2
BRANCH   1  23
ATOM     23  O   UNL A   1      32.590  30.127  26.832  1.00  0.00    -0.458 OA
BRANCH  23  24
ATOM     24  C   UNL A   1      33.227  31.261  27.203  1.00  0.00     0.338 C 
ATOM     25  O   UNL A   1      32.769  32.390  27.250  1.00  0.00    -0.246 OA
BRANCH  24  26
ATOM     26  C   UNL A   1      34.602  30.953  27.629  1.00  0.00     0.060 A 
ATOM     27  C   UNL A   1      34.957  29.629  27.853  1.00  0.00     0.016 A 
ATOM     28  C   UNL A   1      35.476  31.977  27.987  1.00  0.00     0.016 A 
ATOM     29  C   UNL A   1      36.110  29.331  28.572  1.00  0.00     0.010 A 
ATOM     30  C   UNL A   1      36.704  31.662  28.587  1.00  0.00     0.010 A 
ATOM     31  C   UNL A   1      37.015  30.337  28.942  1.00  0.00    -0.014 A 
BRANCH  31  32
ATOM     32  C   UNL A   1      38.240  30.005  29.736  1.00  0.00     0.031 A 
ATOM     33  C   UNL A   1      39.343  29.171  29.127  1.00  0.00     0.074 A 
ATOM     34  C   UNL A   1      38.404  30.479  30.990  1.00  0.00     0.049 A 
ATOM     35  N   UNL A   1      40.371  28.602  29.710  1.00  0.00    -0.248 NA
ATOM     36  C   UNL A   1      39.278  28.935  27.677  1.00  0.00     0.031 C 
ATOM     37  C   UNL A   1      37.469  31.356  31.697  1.00  0.00     0.029 A 
ATOM     38  N   UNL A   1      39.433  30.313  31.888  1.00  0.00    -0.354 N 
ATOM     39  C   UNL A   1      41.027  27.887  28.714  1.00  0.00     0.074 A 
ATOM     40  C   UNL A   1      40.287  28.095  27.489  1.00  0.00     0.031 C 
ATOM     41  C   UNL A   1      37.998  31.713  32.873  1.00  0.00     0.029 A 
ATOM     42  C   UNL A   1      39.247  30.988  33.070  1.00  0.00     0.049 A 
ATOM     43  H   UNL A   1      40.226  29.760  31.701  1.00  0.00     0.167 HD
ATOM     44  C   UNL A   1      42.145  27.126  28.816  1.00  0.00     0.037 A 
ATOM     45  C   UNL A   1      39.964  30.988  34.211  1.00  0.00     0.037 A 
ATOM     46  C   UNL A   1      42.921  26.982  30.021  1.00  0.00     0.049 A 
ATOM     47  C   UNL A   1      41.172  30.103  34.317  1.00  0.00     0.074 A 
ATOM     48  C   UNL A   1      44.059  26.221  30.229  1.00  0.00     0.029 A 
ATOM     49  N   UNL A   1      42.659  27.639  31.215  1.00  0.00    -0.354 N 
ATOM     50  N   UNL A   1      41.712  29.333  33.406  1.00  0.00    -0.248 NA
ATOM     51  C   UNL A   1      41.848  30.059  35.621  1.00  0.00     0.031 C 
ATOM     52  C   UNL A   1      44.467  26.392  31.556  1.00  0.00     0.029 A 
ATOM     53  C   UNL A   1      43.611  27.296  32.162  1.00  0.00     0.049 A 
ATOM     54  H   UNL A   1      41.908  28.257  31.366  1.00  0.00     0.167 HD
ATOM     55  C   UNL A   1      42.794  28.718  34.020  1.00  0.00     0.074 A 
ATOM     56  C   UNL A   1      42.847  29.221  35.378  1.00  0.00     0.031 C 
ATOM     57  C   UNL A   1      43.657  27.809  33.507  1.00  0.00     0.037 A 
BRANCH  44  58
ATOM     58  C   UNL A   1      42.590  26.357  27.605  1.00  0.00     0.064 A 
ATOM     59  C   UNL A   1      43.580  26.841  26.738  1.00  0.00     0.173 A 
ATOM     60  C   UNL A   1      42.069  25.078  27.354  1.00  0.00     0.173 A 
ATOM     61  F   UNL A   1      44.102  28.062  26.925  1.00  0.00    -0.203 F 
ATOM     62  C   UNL A   1      44.020  26.079  25.657  1.00  0.00     0.198 A 
ATOM     63  C   UNL A   1      42.532  24.307  26.291  1.00  0.00     0.198 A 
ATOM     64  F   UNL A   1      41.125  24.562  28.157  1.00  0.00    -0.203 F 
ATOM     65  F   UNL A   1      44.944  26.575  24.822  1.00  0.00    -0.200 F 
ATOM     66  C   UNL A   1      43.504  24.810  25.441  1.00  0.00     0.200 A 
ATOM     67  F   UNL A   1      42.043  23.074  26.095  1.00  0.00    -0.200 F 
ATOM     68  F   UNL A   1      43.943  24.072  24.412  1.00  0.00    -0.200 F 
ENDBRANCH  44  58
BRANCH  45  69
ATOM     69  C   UNL A   1      39.521  31.825  35.358  1.00  0.00     0.064 A 
ATOM     70  C   UNL A   1      39.971  33.144  35.504  1.00  0.00     0.173 A 
ATOM     71  C   UNL A   1      38.613  31.339  36.313  1.00  0.00     0.173 A 
ATOM     72  F   UNL A   1      40.864  33.645  34.637  1.00  0.00    -0.203 F 
ATOM     73  C   UNL A   1      39.525  33.946  36.553  1.00  0.00     0.198 A 
ATOM     74  C   UNL A   1      38.140  32.152  37.339  1.00  0.00     0.198 A 
ATOM     75  F   UNL A   1      38.154  30.082  36.224  1.00  0.00    -0.203 F 
ATOM     76  F   UNL A   1      39.993  35.194  36.685  1.00  0.00    -0.200 F 
ATOM     77  C   UNL A   1      38.599  33.454  37.461  1.00  0.00     0.200 A 
ATOM     78  F   UNL A   1      37.231  31.678  38.201  1.00  0.00    -0.200 F 
ATOM     79  F   UNL A   1      38.152  34.234  38.454  1.00  0.00    -0.200 F 
ENDBRANCH  45  69
BRANCH  57  80
ATOM     80  C   UNL A   1      44.756  27.318  34.402  1.00  0.00     0.064 A 
ATOM     81  C   UNL A   1      44.601  26.169  35.190  1.00  0.00     0.173 A 
ATOM     82  C   UNL A   1      45.995  27.976  34.430  1.00  0.00     0.173 A 
ATOM     83  F   UNL A   1      43.430  25.515  35.207  1.00  0.00    -0.203 F 
ATOM     84  C   UNL A   1      45.644  25.705  35.986  1.00  0.00     0.198 A 
ATOM     85  C   UNL A   1      47.044  27.494  35.207  1.00  0.00     0.198 A 
ATOM     86  F   UNL A   1      46.194  29.076  33.688  1.00  0.00    -0.203 F 
ATOM     87  F   UNL A   1      45.463  24.625  36.760  1.00  0.00    -0.200 F 
ATOM     88  C   UNL A   1      46.865  26.362  35.989  1.00  0.00     0.200 A 
ATOM     89  F   UNL A   1      48.227  28.122  35.198  1.00  0.00    -0.200 F 
ATOM     90  F   UNL A   1      47.871  25.907  36.748  1.00  0.00    -0.200 F 
ENDBRANCH  57  80
ENDBRANCH  31  32
ENDBRANCH  24  26
ENDBRANCH  23  24
ENDBRANCH   1  23
TORSDOF 12
ENDMDL
