MODEL 1
REMARK VINA RESULT:     -12.6      0.000      0.000
REMARK SMILES COc1ccc(/C=C2/SC(=S)N(NC(=O)c3ccc(C(C)(C)C)cc3)C2=O)c(C(=O)OCCOC(=O)c2ccc(-c3c4nc(c(-c5c(F)c(F)c(F)c(F)c5F)c5ccc([nH]5)c(-c5c(F)c(F)c(F)c(F)c5F)c5nc(c(-c6c(F)c(F)c(F)c(F)c6F)c6ccc3[nH]6)C=C5)C=C4)cc2)c1OC
REMARK SMILES IDX 32 1 31 2 29 3 30 4 28 5 3 6 4 7 100 8 5 9 6 10 2 11 1 12
REMARK SMILES IDX 101 13 102 14 7 15 8 16 9 17 26 18 10 19 12 20 27 21 11 22
REMARK SMILES IDX 13 23 14 24 15 26 16 27 17 28 25 29 18 30 24 31 19 32 20 33
REMARK SMILES IDX 21 34 22 35 23 36 33 37 34 38 35 39 36 40 37 41 38 42 99 43
REMARK SMILES IDX 39 44 98 45 40 46 41 47 42 48 92 49 43 50 97 51 91 52 93 53
REMARK SMILES IDX 44 54 96 55 90 56 89 57 45 59 77 60 57 61 76 62 58 63 61 64
REMARK SMILES IDX 75 65 94 66 59 67 60 68 74 70 95 71 62 72 46 73 47 74 55 75
REMARK SMILES IDX 48 76 49 77 53 78 56 79 50 80 51 81 54 82 52 83 78 84 79 85
REMARK SMILES IDX 87 86 80 87 81 88 85 89 88 90 82 91 83 92 86 93 84 94 63 95
REMARK SMILES IDX 64 96 72 97 65 98 66 99 70 100 73 101 67 102 68 103 71 104
REMARK SMILES IDX 69 105
REMARK H PARENT 13 25 93 58 61 69
REMARK Flexibility Score: inf
ROOT
ATOM      1  C   UNL A   1      50.458  22.620  37.564  1.00  0.00     0.275 C 
ENDROOT
BRANCH   1   2
ATOM      2  O   UNL A   1      49.479  21.678  38.036  1.00  0.00    -0.458 OA
BRANCH   2   3
ATOM      3  C   UNL A   1      49.301  20.547  37.313  1.00  0.00     0.342 C 
ATOM      4  O   UNL A   1      50.090  19.617  37.261  1.00  0.00    -0.246 OA
BRANCH   3   5
ATOM      5  C   UNL A   1      47.925  20.485  36.737  1.00  0.00     0.113 A 
ATOM      6  C   UNL A   1      46.237  21.186  35.107  1.00  0.00     0.161 A 
ATOM      7  C   UNL A   1      45.406  20.173  35.610  1.00  0.00     0.051 A 
ATOM      8  C   UNL A   1      47.533  21.318  35.635  1.00  0.00     0.175 A 
ATOM      9  C   UNL A   1      45.796  19.331  36.655  1.00  0.00     0.013 A 
ATOM     10  C   UNL A   1      47.011  19.536  37.316  1.00  0.00    -0.006 A 
BRANCH   6  11
ATOM     11  O   UNL A   1      45.611  21.852  34.089  1.00  0.00    -0.493 OA
ATOM     12  C   UNL A   1      44.249  22.224  34.165  1.00  0.00     0.278 C 
ENDBRANCH   6  11
BRANCH   8  13
ATOM     13  O   UNL A   1      48.476  22.055  34.953  1.00  0.00    -0.492 OA
ATOM     14  C   UNL A   1      49.256  21.317  34.005  1.00  0.00     0.278 C 
ENDBRANCH   8  13
BRANCH  10  15
ATOM     15  C   UNL A   1      47.213  18.869  38.672  1.00  0.00     0.030 C 
ATOM     16  C   UNL A   1      46.414  17.988  39.427  1.00  0.00     0.082 C 
ATOM     17  S   UNL A   1      47.033  18.408  41.604  1.00  0.00    -0.052 SA
ATOM     18  C   UNL A   1      44.580  16.814  39.592  1.00  0.00     0.285 C 
ATOM     19  C   UNL A   1      45.194  17.389  42.513  1.00  0.00     0.168 C 
ATOM     20  N   UNL A   1      44.131  16.729  41.323  1.00  0.00    -0.198 N 
ATOM     21  O   UNL A   1      43.947  15.999  38.904  1.00  0.00    -0.266 OA
ATOM     22  S   UNL A   1      44.970  17.451  44.170  1.00  0.00    -0.050 S 
BRANCH  20  23
ATOM     23  N   UNL A   1      42.739  16.473  41.627  1.00  0.00    -0.255 N 
ATOM     24  C   UNL A   1      42.193  15.201  41.902  1.00  0.00     0.270 C 
ATOM     25  H   UNL A   1      42.127  17.245  41.642  1.00  0.00     0.192 HD
ATOM     26  O   UNL A   1      41.164  14.885  41.299  1.00  0.00    -0.267 OA
BRANCH  24  27
ATOM     27  C   UNL A   1      42.733  14.192  42.885  1.00  0.00     0.041 A 
ATOM     28  C   UNL A   1      42.713  12.832  42.563  1.00  0.00     0.014 A 
ATOM     29  C   UNL A   1      43.175  14.505  44.170  1.00  0.00     0.014 A 
ATOM     30  C   UNL A   1      43.366  11.873  43.378  1.00  0.00     0.005 A 
ATOM     31  C   UNL A   1      43.894  13.561  44.954  1.00  0.00     0.005 A 
ATOM     32  C   UNL A   1      44.090  12.239  44.527  1.00  0.00    -0.043 A 
BRANCH  32  33
ATOM     33  C   UNL A   1      45.060  11.259  45.241  1.00  0.00    -0.013 C 
ATOM     34  C   UNL A   1      45.698  10.291  44.232  1.00  0.00     0.016 C 
ATOM     35  C   UNL A   1      46.210  11.999  45.964  1.00  0.00     0.016 C 
ATOM     36  C   UNL A   1      44.381  10.388  46.335  1.00  0.00     0.016 C 
ENDBRANCH  32  33
ENDBRANCH  24  27
ENDBRANCH  20  23
ENDBRANCH  10  15
ENDBRANCH   3   5
ENDBRANCH   2   3
ENDBRANCH   1   2
BRANCH   1  37
ATOM     37  C   UNL A   1      49.957  24.053  37.785  1.00  0.00     0.275 C 
BRANCH  37  38
ATOM     38  O   UNL A   1      48.753  24.305  37.044  1.00  0.00    -0.458 OA
BRANCH  38  39
ATOM     39  C   UNL A   1      47.651  24.630  37.770  1.00  0.00     0.338 C 
ATOM     40  O   UNL A   1      47.523  24.567  38.975  1.00  0.00    -0.246 OA
BRANCH  39  41
ATOM     41  C   UNL A   1      46.686  25.243  36.839  1.00  0.00     0.060 A 
ATOM     42  C   UNL A   1      45.131  24.635  36.491  1.00  0.00     0.016 A 
ATOM     43  C   UNL A   1      47.031  26.804  36.222  1.00  0.00     0.016 A 
ATOM     44  C   UNL A   1      43.864  25.504  35.614  1.00  0.00     0.010 A 
ATOM     45  C   UNL A   1      45.631  27.770  35.112  1.00  0.00     0.010 A 
ATOM     46  C   UNL A   1      44.072  27.038  34.882  1.00  0.00    -0.014 A 
BRANCH  46  47
ATOM     47  C   UNL A   1      43.056  27.731  34.036  1.00  0.00     0.031 A 
ATOM     48  C   UNL A   1      43.001  27.577  32.529  1.00  0.00     0.074 A 
ATOM     49  C   UNL A   1      42.265  28.662  34.599  1.00  0.00     0.049 A 
ATOM     50  N   UNL A   1      42.112  28.043  31.679  1.00  0.00    -0.248 NA
ATOM     51  C   UNL A   1      44.098  26.847  31.885  1.00  0.00     0.031 C 
ATOM     52  C   UNL A   1      42.297  29.057  36.002  1.00  0.00     0.029 A 
ATOM     53  N   UNL A   1      41.303  29.479  34.045  1.00  0.00    -0.354 N 
ATOM     54  C   UNL A   1      42.516  27.618  30.415  1.00  0.00     0.074 A 
ATOM     55  C   UNL A   1      43.770  26.920  30.601  1.00  0.00     0.031 C 
ATOM     56  C   UNL A   1      41.412  30.048  36.202  1.00  0.00     0.029 A 
ATOM     57  C   UNL A   1      40.730  30.344  34.946  1.00  0.00     0.049 A 
ATOM     58  H   UNL A   1      41.051  29.446  33.094  1.00  0.00     0.167 HD
ATOM     59  C   UNL A   1      41.899  27.775  29.215  1.00  0.00     0.037 A 
ATOM     60  C   UNL A   1      39.749  31.255  34.792  1.00  0.00     0.037 A 
ATOM     61  C   UNL A   1      40.681  28.525  29.010  1.00  0.00     0.049 A 
ATOM     62  C   UNL A   1      39.058  31.402  33.462  1.00  0.00     0.074 A 
ATOM     63  C   UNL A   1      39.911  28.637  27.863  1.00  0.00     0.029 A 
ATOM     64  N   UNL A   1      40.087  29.337  29.963  1.00  0.00    -0.354 N 
ATOM     65  N   UNL A   1      39.298  30.791  32.329  1.00  0.00    -0.248 NA
ATOM     66  C   UNL A   1      37.926  32.340  33.407  1.00  0.00     0.031 C 
ATOM     67  C   UNL A   1      38.893  29.568  28.102  1.00  0.00     0.029 A 
ATOM     68  C   UNL A   1      38.988  29.986  29.418  1.00  0.00     0.049 A 
ATOM     69  H   UNL A   1      40.398  29.437  30.891  1.00  0.00     0.167 HD
ATOM     70  C   UNL A   1      38.326  31.238  31.442  1.00  0.00     0.074 A 
ATOM     71  C   UNL A   1      37.482  32.157  32.173  1.00  0.00     0.031 C 
ATOM     72  C   UNL A   1      38.147  30.907  30.138  1.00  0.00     0.037 A 
BRANCH  59  73
ATOM     73  C   UNL A   1      42.499  27.097  28.008  1.00  0.00     0.064 A 
ATOM     74  C   UNL A   1      43.425  27.762  27.188  1.00  0.00     0.173 A 
ATOM     75  C   UNL A   1      42.239  25.745  27.730  1.00  0.00     0.173 A 
ATOM     76  F   UNL A   1      43.722  29.051  27.414  1.00  0.00    -0.203 F 
ATOM     77  C   UNL A   1      44.048  27.110  26.126  1.00  0.00     0.198 A 
ATOM     78  C   UNL A   1      42.887  25.088  26.683  1.00  0.00     0.198 A 
ATOM     79  F   UNL A   1      41.380  25.049  28.490  1.00  0.00    -0.203 F 
ATOM     80  F   UNL A   1      44.907  27.777  25.344  1.00  0.00    -0.200 F 
ATOM     81  C   UNL A   1      43.786  25.771  25.880  1.00  0.00     0.200 A 
ATOM     82  F   UNL A   1      42.649  23.788  26.461  1.00  0.00    -0.200 F 
ATOM     83  F   UNL A   1      44.402  25.141  24.870  1.00  0.00    -0.200 F 
ENDBRANCH  59  73
BRANCH  60  84
ATOM     84  C   UNL A   1      39.287  32.042  35.966  1.00  0.00     0.064 A 
ATOM     85  C   UNL A   1      38.355  31.500  36.863  1.00  0.00     0.173 A 
ATOM     86  C   UNL A   1      39.754  33.340  36.211  1.00  0.00     0.173 A 
ATOM     87  F   UNL A   1      37.868  30.267  36.657  1.00  0.00    -0.203 F 
ATOM     88  C   UNL A   1      37.885  32.238  37.946  1.00  0.00     0.198 A 
ATOM     89  C   UNL A   1      39.303  34.067  37.311  1.00  0.00     0.198 A 
ATOM     90  F   UNL A   1      40.651  33.899  35.386  1.00  0.00    -0.203 F 
ATOM     91  F   UNL A   1      36.956  31.714  38.756  1.00  0.00    -0.200 F 
ATOM     92  C   UNL A   1      38.363  33.519  38.172  1.00  0.00     0.200 A 
ATOM     93  F   UNL A   1      39.777  35.300  37.537  1.00  0.00    -0.200 F 
ATOM     94  F   UNL A   1      37.911  34.228  39.214  1.00  0.00    -0.200 F 
ENDBRANCH  60  84
BRANCH  72  95
ATOM     95  C   UNL A   1      36.973  31.519  29.425  1.00  0.00     0.064 A 
ATOM     96  C   UNL A   1      35.852  30.758  29.055  1.00  0.00     0.173 A 
ATOM     97  C   UNL A   1      36.968  32.885  29.102  1.00  0.00     0.173 A 
ATOM     98  F   UNL A   1      35.809  29.445  29.325  1.00  0.00    -0.203 F 
ATOM     99  C   UNL A   1      34.795  31.331  28.352  1.00  0.00     0.198 A 
ATOM    100  C   UNL A   1      35.893  33.463  28.431  1.00  0.00     0.198 A 
ATOM    101  F   UNL A   1      38.008  33.663  29.436  1.00  0.00    -0.203 F 
ATOM    102  F   UNL A   1      33.769  30.568  27.949  1.00  0.00    -0.200 F 
ATOM    103  C   UNL A   1      34.813  32.683  28.045  1.00  0.00     0.200 A 
ATOM    104  F   UNL A   1      35.907  34.772  28.148  1.00  0.00    -0.200 F 
ATOM    105  F   UNL A   1      33.798  33.232  27.364  1.00  0.00    -0.200 F 
ENDBRANCH  72  95
ENDBRANCH  46  47
ENDBRANCH  39  41
ENDBRANCH  38  39
ENDBRANCH  37  38
ENDBRANCH   1  37
TORSDOF 17
ENDMDL
MODEL 2
REMARK VINA RESULT:     -12.3      2.023      3.291
REMARK SMILES COc1ccc(/C=C2/SC(=S)N(NC(=O)c3ccc(C(C)(C)C)cc3)C2=O)c(C(=O)OCCOC(=O)c2ccc(-c3c4nc(c(-c5c(F)c(F)c(F)c(F)c5F)c5ccc([nH]5)c(-c5c(F)c(F)c(F)c(F)c5F)c5nc(c(-c6c(F)c(F)c(F)c(F)c6F)c6ccc3[nH]6)C=C5)C=C4)cc2)c1OC
REMARK SMILES IDX 32 1 31 2 29 3 30 4 28 5 3 6 4 7 100 8 5 9 6 10 2 11 1 12
REMARK SMILES IDX 101 13 102 14 7 15 8 16 9 17 26 18 10 19 12 20 27 21 11 22
REMARK SMILES IDX 13 23 14 24 15 26 16 27 17 28 25 29 18 30 24 31 19 32 20 33
REMARK SMILES IDX 21 34 22 35 23 36 33 37 34 38 35 39 36 40 37 41 38 42 99 43
REMARK SMILES IDX 39 44 98 45 40 46 41 47 42 48 92 49 43 50 97 51 91 52 93 53
REMARK SMILES IDX 44 54 96 55 90 56 89 57 45 59 77 60 57 61 76 62 58 63 61 64
REMARK SMILES IDX 75 65 94 66 59 67 60 68 74 70 95 71 62 72 46 73 47 74 55 75
REMARK SMILES IDX 48 76 49 77 53 78 56 79 50 80 51 81 54 82 52 83 78 84 79 85
REMARK SMILES IDX 87 86 80 87 81 88 85 89 88 90 82 91 83 92 86 93 84 94 63 95
REMARK SMILES IDX 64 96 72 97 65 98 66 99 70 100 73 101 67 102 68 103 71 104
REMARK SMILES IDX 69 105
REMARK H PARENT 13 25 93 58 61 69
REMARK Flexibility Score: inf
ROOT
ATOM      1  C   UNL A   1      47.437  22.720  39.056  1.00  0.00     0.275 C 
ENDROOT
BRANCH   1   2
ATOM      2  O   UNL A   1      48.251  21.574  39.361  1.00  0.00    -0.458 OA
BRANCH   2   3
ATOM      3  C   UNL A   1      47.919  20.399  38.779  1.00  0.00     0.342 C 
ATOM      4  O   UNL A   1      46.778  20.004  38.596  1.00  0.00    -0.246 OA
BRANCH   3   5
ATOM      5  C   UNL A   1      49.120  19.722  38.204  1.00  0.00     0.113 A 
ATOM      6  C   UNL A   1      50.639  19.242  36.345  1.00  0.00     0.161 A 
ATOM      7  C   UNL A   1      51.470  18.579  37.262  1.00  0.00     0.051 A 
ATOM      8  C   UNL A   1      49.474  19.868  36.821  1.00  0.00     0.175 A 
ATOM      9  C   UNL A   1      51.151  18.468  38.619  1.00  0.00     0.013 A 
ATOM     10  C   UNL A   1      49.924  18.935  39.101  1.00  0.00    -0.006 A 
BRANCH   6  11
ATOM     11  O   UNL A   1      51.190  19.204  35.093  1.00  0.00    -0.493 OA
ATOM     12  C   UNL A   1      51.958  20.276  34.582  1.00  0.00     0.278 C 
ENDBRANCH   6  11
BRANCH   8  13
ATOM     13  O   UNL A   1      48.827  20.795  36.033  1.00  0.00    -0.492 OA
ATOM     14  C   UNL A   1      47.868  20.253  35.117  1.00  0.00     0.278 C 
ENDBRANCH   8  13
BRANCH  10  15
ATOM     15  C   UNL A   1      49.458  18.450  40.469  1.00  0.00     0.030 C 
ATOM     16  C   UNL A   1      48.277  17.817  40.903  1.00  0.00     0.082 C 
ATOM     17  S   UNL A   1      48.084  18.453  43.106  1.00  0.00    -0.052 SA
ATOM     18  C   UNL A   1      46.329  16.965  40.403  1.00  0.00     0.285 C 
ATOM     19  C   UNL A   1      45.878  17.863  43.271  1.00  0.00     0.168 C 
ATOM     20  N   UNL A   1      45.245  17.202  41.808  1.00  0.00    -0.198 N 
ATOM     21  O   UNL A   1      45.862  16.162  39.582  1.00  0.00    -0.266 OA
ATOM     22  S   UNL A   1      45.053  18.198  44.689  1.00  0.00    -0.050 S 
BRANCH  20  23
ATOM     23  N   UNL A   1      43.821  17.202  41.544  1.00  0.00    -0.255 N 
ATOM     24  C   UNL A   1      43.034  16.045  41.356  1.00  0.00     0.270 C 
ATOM     25  H   UNL A   1      43.369  18.075  41.491  1.00  0.00     0.192 HD
ATOM     26  O   UNL A   1      42.281  16.027  40.379  1.00  0.00    -0.267 OA
BRANCH  24  27
ATOM     27  C   UNL A   1      43.004  14.831  42.250  1.00  0.00     0.041 A 
ATOM     28  C   UNL A   1      42.162  13.760  41.935  1.00  0.00     0.014 A 
ATOM     29  C   UNL A   1      43.698  14.725  43.454  1.00  0.00     0.014 A 
ATOM     30  C   UNL A   1      42.233  12.536  42.647  1.00  0.00     0.005 A 
ATOM     31  C   UNL A   1      43.826  13.477  44.125  1.00  0.00     0.005 A 
ATOM     32  C   UNL A   1      43.167  12.323  43.676  1.00  0.00    -0.043 A 
BRANCH  32  33
ATOM     33  C   UNL A   1      43.469  10.908  44.240  1.00  0.00    -0.013 C 
ATOM     34  C   UNL A   1      42.346   9.924  43.873  1.00  0.00     0.016 C 
ATOM     35  C   UNL A   1      44.792  10.328  43.686  1.00  0.00     0.016 C 
ATOM     36  C   UNL A   1      43.618  10.866  45.787  1.00  0.00     0.016 C 
ENDBRANCH  32  33
ENDBRANCH  24  27
ENDBRANCH  20  23
ENDBRANCH  10  15
ENDBRANCH   3   5
ENDBRANCH   2   3
ENDBRANCH   1   2
BRANCH   1  37
ATOM     37  C   UNL A   1      48.089  23.544  37.938  1.00  0.00     0.275 C 
BRANCH  37  38
ATOM     38  O   UNL A   1      47.133  24.401  37.295  1.00  0.00    -0.458 OA
BRANCH  38  39
ATOM     39  C   UNL A   1      46.937  25.621  37.859  1.00  0.00     0.338 C 
ATOM     40  O   UNL A   1      47.580  26.126  38.756  1.00  0.00    -0.246 OA
BRANCH  39  41
ATOM     41  C   UNL A   1      45.899  26.303  37.064  1.00  0.00     0.060 A 
ATOM     42  C   UNL A   1      44.217  26.108  37.266  1.00  0.00     0.016 A 
ATOM     43  C   UNL A   1      46.382  27.563  36.006  1.00  0.00     0.016 A 
ATOM     44  C   UNL A   1      42.971  27.126  36.529  1.00  0.00     0.010 A 
ATOM     45  C   UNL A   1      44.965  28.667  35.059  1.00  0.00     0.010 A 
ATOM     46  C   UNL A   1      43.287  28.378  35.404  1.00  0.00    -0.014 A 
BRANCH  46  47
ATOM     47  C   UNL A   1      42.246  29.164  34.680  1.00  0.00     0.031 A 
ATOM     48  C   UNL A   1      41.788  28.824  33.276  1.00  0.00     0.074 A 
ATOM     49  C   UNL A   1      41.813  30.321  35.215  1.00  0.00     0.049 A 
ATOM     50  N   UNL A   1      40.822  29.362  32.563  1.00  0.00    -0.248 NA
ATOM     51  C   UNL A   1      42.530  27.779  32.561  1.00  0.00     0.031 C 
ATOM     52  C   UNL A   1      42.268  30.886  36.480  1.00  0.00     0.029 A 
ATOM     53  N   UNL A   1      40.920  31.254  34.736  1.00  0.00    -0.354 N 
ATOM     54  C   UNL A   1      40.810  28.687  31.344  1.00  0.00     0.074 A 
ATOM     55  C   UNL A   1      41.913  27.750  31.385  1.00  0.00     0.031 C 
ATOM     56  C   UNL A   1      41.669  32.072  36.675  1.00  0.00     0.029 A 
ATOM     57  C   UNL A   1      40.765  32.343  35.561  1.00  0.00     0.049 A 
ATOM     58  H   UNL A   1      40.437  31.151  33.884  1.00  0.00     0.167 HD
ATOM     59  C   UNL A   1      39.956  28.817  30.296  1.00  0.00     0.037 A 
ATOM     60  C   UNL A   1      39.971  33.426  35.452  1.00  0.00     0.037 A 
ATOM     61  C   UNL A   1      38.893  29.792  30.219  1.00  0.00     0.049 A 
ATOM     62  C   UNL A   1      39.012  33.546  34.297  1.00  0.00     0.074 A 
ATOM     63  C   UNL A   1      37.898  29.921  29.262  1.00  0.00     0.029 A 
ATOM     64  N   UNL A   1      38.722  30.841  31.108  1.00  0.00    -0.354 N 
ATOM     65  N   UNL A   1      38.841  32.747  33.274  1.00  0.00    -0.248 NA
ATOM     66  C   UNL A   1      38.105  34.703  34.311  1.00  0.00     0.031 C 
ATOM     67  C   UNL A   1      37.170  31.086  29.535  1.00  0.00     0.029 A 
ATOM     68  C   UNL A   1      37.668  31.646  30.699  1.00  0.00     0.049 A 
ATOM     69  H   UNL A   1      39.268  30.993  31.913  1.00  0.00     0.167 HD
ATOM     70  C   UNL A   1      37.783  33.281  32.547  1.00  0.00     0.074 A 
ATOM     71  C   UNL A   1      37.341  34.461  33.257  1.00  0.00     0.031 C 
ATOM     72  C   UNL A   1      37.226  32.826  31.397  1.00  0.00     0.037 A 
BRANCH  59  73
ATOM     73  C   UNL A   1      40.095  27.860  29.137  1.00  0.00     0.064 A 
ATOM     74  C   UNL A   1      39.451  26.612  29.146  1.00  0.00     0.173 A 
ATOM     75  C   UNL A   1      40.776  28.231  27.967  1.00  0.00     0.173 A 
ATOM     76  F   UNL A   1      38.775  26.209  30.232  1.00  0.00    -0.203 F 
ATOM     77  C   UNL A   1      39.505  25.765  28.040  1.00  0.00     0.198 A 
ATOM     78  C   UNL A   1      40.803  27.392  26.852  1.00  0.00     0.198 A 
ATOM     79  F   UNL A   1      41.393  29.420  27.889  1.00  0.00    -0.203 F 
ATOM     80  F   UNL A   1      38.904  24.568  28.087  1.00  0.00    -0.200 F 
ATOM     81  C   UNL A   1      40.172  26.159  26.892  1.00  0.00     0.200 A 
ATOM     82  F   UNL A   1      41.430  27.784  25.734  1.00  0.00    -0.200 F 
ATOM     83  F   UNL A   1      40.204  25.351  25.823  1.00  0.00    -0.200 F 
ENDBRANCH  59  73
BRANCH  60  84
ATOM     84  C   UNL A   1      39.976  34.451  36.529  1.00  0.00     0.064 A 
ATOM     85  C   UNL A   1      40.824  35.564  36.449  1.00  0.00     0.173 A 
ATOM     86  C   UNL A   1      39.147  34.338  37.654  1.00  0.00     0.173 A 
ATOM     87  F   UNL A   1      41.647  35.702  35.398  1.00  0.00    -0.203 F 
ATOM     88  C   UNL A   1      40.866  36.512  37.467  1.00  0.00     0.198 A 
ATOM     89  C   UNL A   1      39.170  35.304  38.659  1.00  0.00     0.198 A 
ATOM     90  F   UNL A   1      38.313  33.296  37.773  1.00  0.00    -0.203 F 
ATOM     91  F   UNL A   1      41.725  37.537  37.388  1.00  0.00    -0.200 F 
ATOM     92  C   UNL A   1      40.036  36.384  38.570  1.00  0.00     0.200 A 
ATOM     93  F   UNL A   1      38.356  35.186  39.718  1.00  0.00    -0.200 F 
ATOM     94  F   UNL A   1      40.077  37.297  39.548  1.00  0.00    -0.200 F 
ENDBRANCH  60  84
BRANCH  72  95
ATOM     95  C   UNL A   1      36.051  33.588  30.849  1.00  0.00     0.064 A 
ATOM     96  C   UNL A   1      36.070  34.158  29.565  1.00  0.00     0.173 A 
ATOM     97  C   UNL A   1      34.889  33.756  31.619  1.00  0.00     0.173 A 
ATOM     98  F   UNL A   1      37.160  34.042  28.792  1.00  0.00    -0.203 F 
ATOM     99  C   UNL A   1      34.991  34.902  29.093  1.00  0.00     0.198 A 
ATOM    100  C   UNL A   1      33.798  34.469  31.129  1.00  0.00     0.198 A 
ATOM    101  F   UNL A   1      34.810  33.228  32.849  1.00  0.00    -0.203 F 
ATOM    102  F   UNL A   1      35.063  35.495  27.893  1.00  0.00    -0.200 F 
ATOM    103  C   UNL A   1      33.854  35.054  29.873  1.00  0.00     0.200 A 
ATOM    104  F   UNL A   1      32.695  34.603  31.878  1.00  0.00    -0.200 F 
ATOM    105  F   UNL A   1      32.819  35.774  29.419  1.00  0.00    -0.200 F 
ENDBRANCH  72  95
ENDBRANCH  46  47
ENDBRANCH  39  41
ENDBRANCH  38  39
ENDBRANCH  37  38
ENDBRANCH   1  37
TORSDOF 17
ENDMDL
MODEL 3
REMARK VINA RESULT:     -11.5     11.332     20.507
REMARK SMILES COc1ccc(/C=C2/SC(=S)N(NC(=O)c3ccc(C(C)(C)C)cc3)C2=O)c(C(=O)OCCOC(=O)c2ccc(-c3c4nc(c(-c5c(F)c(F)c(F)c(F)c5F)c5ccc([nH]5)c(-c5c(F)c(F)c(F)c(F)c5F)c5nc(c(-c6c(F)c(F)c(F)c(F)c6F)c6ccc3[nH]6)C=C5)C=C4)cc2)c1OC
REMARK SMILES IDX 32 1 31 2 29 3 30 4 28 5 3 6 4 7 100 8 5 9 6 10 2 11 1 12
REMARK SMILES IDX 101 13 102 14 7 15 8 16 9 17 26 18 10 19 12 20 27 21 11 22
REMARK SMILES IDX 13 23 14 24 15 26 16 27 17 28 25 29 18 30 24 31 19 32 20 33
REMARK SMILES IDX 21 34 22 35 23 36 33 37 34 38 35 39 36 40 37 41 38 42 99 43
REMARK SMILES IDX 39 44 98 45 40 46 41 47 42 48 92 49 43 50 97 51 91 52 93 53
REMARK SMILES IDX 44 54 96 55 90 56 89 57 45 59 77 60 57 61 76 62 58 63 61 64
REMARK SMILES IDX 75 65 94 66 59 67 60 68 74 70 95 71 62 72 46 73 47 74 55 75
REMARK SMILES IDX 48 76 49 77 53 78 56 79 50 80 51 81 54 82 52 83 78 84 79 85
REMARK SMILES IDX 87 86 80 87 81 88 85 89 88 90 82 91 83 92 86 93 84 94 63 95
REMARK SMILES IDX 64 96 72 97 65 98 66 99 70 100 73 101 67 102 68 103 71 104
REMARK SMILES IDX 69 105
REMARK H PARENT 13 25 93 58 61 69
REMARK Flexibility Score: inf
ROOT
ATOM      1  C   UNL A   1      46.503  38.335  26.633  1.00  0.00     0.275 C 
ENDROOT
BRANCH   1   2
ATOM      2  O   UNL A   1      46.498  39.712  27.049  1.00  0.00    -0.458 OA
BRANCH   2   3
ATOM      3  C   UNL A   1      45.479  40.491  26.617  1.00  0.00     0.342 C 
ATOM      4  O   UNL A   1      44.838  40.305  25.595  1.00  0.00    -0.246 OA
BRANCH   3   5
ATOM      5  C   UNL A   1      45.097  41.502  27.649  1.00  0.00     0.113 A 
ATOM      6  C   UNL A   1      44.007  42.133  29.748  1.00  0.00     0.161 A 
ATOM      7  C   UNL A   1      44.590  43.402  29.609  1.00  0.00     0.051 A 
ATOM      8  C   UNL A   1      44.300  41.148  28.788  1.00  0.00     0.175 A 
ATOM      9  C   UNL A   1      45.401  43.741  28.522  1.00  0.00     0.013 A 
ATOM     10  C   UNL A   1      45.583  42.844  27.465  1.00  0.00    -0.006 A 
BRANCH   6  11
ATOM     11  O   UNL A   1      43.271  42.073  30.900  1.00  0.00    -0.493 OA
ATOM     12  C   UNL A   1      43.792  42.495  32.145  1.00  0.00     0.278 C 
ENDBRANCH   6  11
BRANCH   8  13
ATOM     13  O   UNL A   1      44.032  39.825  29.064  1.00  0.00    -0.492 OA
ATOM     14  C   UNL A   1      42.800  39.329  28.528  1.00  0.00     0.278 C 
ENDBRANCH   8  13
BRANCH  10  15
ATOM     15  C   UNL A   1      46.131  43.386  26.149  1.00  0.00     0.030 C 
ATOM     16  C   UNL A   1      45.544  43.588  24.885  1.00  0.00     0.082 C 
ATOM     17  S   UNL A   1      47.308  43.402  23.419  1.00  0.00    -0.052 SA
ATOM     18  C   UNL A   1      43.765  43.496  23.621  1.00  0.00     0.285 C 
ATOM     19  C   UNL A   1      45.980  43.115  21.575  1.00  0.00     0.168 C 
ATOM     20  N   UNL A   1      44.294  43.159  21.945  1.00  0.00    -0.198 N 
ATOM     21  O   UNL A   1      42.582  43.867  23.673  1.00  0.00    -0.266 OA
ATOM     22  S   UNL A   1      46.701  42.791  20.100  1.00  0.00    -0.050 S 
BRANCH  20  23
ATOM     23  N   UNL A   1      43.321  42.553  21.061  1.00  0.00    -0.255 N 
ATOM     24  C   UNL A   1      42.409  43.267  20.253  1.00  0.00     0.270 C 
ATOM     25  H   UNL A   1      43.293  41.569  21.020  1.00  0.00     0.192 HD
ATOM     26  O   UNL A   1      41.227  42.916  20.289  1.00  0.00    -0.267 OA
BRANCH  24  27
ATOM     27  C   UNL A   1      42.743  44.408  19.323  1.00  0.00     0.041 A 
ATOM     28  C   UNL A   1      41.811  44.815  18.366  1.00  0.00     0.014 A 
ATOM     29  C   UNL A   1      43.982  45.046  19.277  1.00  0.00     0.014 A 
ATOM     30  C   UNL A   1      42.014  45.989  17.596  1.00  0.00     0.005 A 
ATOM     31  C   UNL A   1      44.159  46.262  18.561  1.00  0.00     0.005 A 
ATOM     32  C   UNL A   1      43.137  46.815  17.776  1.00  0.00    -0.043 A 
BRANCH  32  33
ATOM     33  C   UNL A   1      43.216  48.246  17.177  1.00  0.00    -0.013 C 
ATOM     34  C   UNL A   1      42.126  48.453  16.113  1.00  0.00     0.016 C 
ATOM     35  C   UNL A   1      43.026  49.341  18.254  1.00  0.00     0.016 C 
ATOM     36  C   UNL A   1      44.577  48.570  16.499  1.00  0.00     0.016 C 
ENDBRANCH  32  33
ENDBRANCH  24  27
ENDBRANCH  20  23
ENDBRANCH  10  15
ENDBRANCH   3   5
ENDBRANCH   2   3
ENDBRANCH   1   2
BRANCH   1  37
ATOM     37  C   UNL A   1      47.145  37.462  27.718  1.00  0.00     0.275 C 
BRANCH  37  38
ATOM     38  O   UNL A   1      47.471  38.232  28.885  1.00  0.00    -0.458 OA
BRANCH  38  39
ATOM     39  C   UNL A   1      46.826  37.898  30.033  1.00  0.00     0.338 C 
ATOM     40  O   UNL A   1      46.635  38.607  30.999  1.00  0.00    -0.246 OA
BRANCH  39  41
ATOM     41  C   UNL A   1      46.244  36.559  29.827  1.00  0.00     0.060 A 
ATOM     42  C   UNL A   1      44.859  36.221  28.892  1.00  0.00     0.016 A 
ATOM     43  C   UNL A   1      47.131  35.195  30.365  1.00  0.00     0.016 A 
ATOM     44  C   UNL A   1      44.323  34.608  28.400  1.00  0.00     0.010 A 
ATOM     45  C   UNL A   1      46.467  33.331  29.909  1.00  0.00     0.010 A 
ATOM     46  C   UNL A   1      45.061  33.148  28.905  1.00  0.00    -0.014 A 
BRANCH  46  47
ATOM     47  C   UNL A   1      44.552  31.779  28.601  1.00  0.00     0.031 A 
ATOM     48  C   UNL A   1      45.279  30.818  27.680  1.00  0.00     0.074 A 
ATOM     49  C   UNL A   1      43.319  31.434  29.016  1.00  0.00     0.049 A 
ATOM     50  N   UNL A   1      45.002  29.562  27.404  1.00  0.00    -0.248 NA
ATOM     51  C   UNL A   1      46.435  31.338  26.942  1.00  0.00     0.031 C 
ATOM     52  C   UNL A   1      42.415  32.294  29.771  1.00  0.00     0.029 A 
ATOM     53  N   UNL A   1      42.596  30.278  28.823  1.00  0.00    -0.354 N 
ATOM     54  C   UNL A   1      45.977  29.133  26.506  1.00  0.00     0.074 A 
ATOM     55  C   UNL A   1      46.809  30.284  26.226  1.00  0.00     0.031 C 
ATOM     56  C   UNL A   1      41.253  31.649  29.966  1.00  0.00     0.029 A 
ATOM     57  C   UNL A   1      41.337  30.318  29.372  1.00  0.00     0.049 A 
ATOM     58  H   UNL A   1      42.948  29.497  28.338  1.00  0.00     0.167 HD
ATOM     59  C   UNL A   1      46.176  27.898  25.976  1.00  0.00     0.037 A 
ATOM     60  C   UNL A   1      40.365  29.385  29.419  1.00  0.00     0.037 A 
ATOM     61  C   UNL A   1      45.314  26.761  26.198  1.00  0.00     0.049 A 
ATOM     62  C   UNL A   1      40.609  28.013  28.848  1.00  0.00     0.074 A 
ATOM     63  C   UNL A   1      45.497  25.442  25.812  1.00  0.00     0.029 A 
ATOM     64  N   UNL A   1      44.076  26.821  26.819  1.00  0.00    -0.354 N 
ATOM     65  N   UNL A   1      41.659  27.550  28.218  1.00  0.00    -0.248 NA
ATOM     66  C   UNL A   1      39.539  27.021  29.037  1.00  0.00     0.031 C 
ATOM     67  C   UNL A   1      44.342  24.721  26.139  1.00  0.00     0.029 A 
ATOM     68  C   UNL A   1      43.467  25.574  26.788  1.00  0.00     0.049 A 
ATOM     69  H   UNL A   1      43.687  27.629  27.224  1.00  0.00     0.167 HD
ATOM     70  C   UNL A   1      41.395  26.207  27.974  1.00  0.00     0.074 A 
ATOM     71  C   UNL A   1      40.093  25.926  28.539  1.00  0.00     0.031 C 
ATOM     72  C   UNL A   1      42.168  25.289  27.342  1.00  0.00     0.037 A 
BRANCH  59  73
ATOM     73  C   UNL A   1      47.398  27.677  25.119  1.00  0.00     0.064 A 
ATOM     74  C   UNL A   1      48.605  27.226  25.679  1.00  0.00     0.173 A 
ATOM     75  C   UNL A   1      47.338  27.804  23.722  1.00  0.00     0.173 A 
ATOM     76  F   UNL A   1      48.717  27.074  27.007  1.00  0.00    -0.203 F 
ATOM     77  C   UNL A   1      49.708  26.935  24.878  1.00  0.00     0.198 A 
ATOM     78  C   UNL A   1      48.436  27.484  22.922  1.00  0.00     0.198 A 
ATOM     79  F   UNL A   1      46.207  28.209  23.125  1.00  0.00    -0.203 F 
ATOM     80  F   UNL A   1      50.855  26.532  25.442  1.00  0.00    -0.200 F 
ATOM     81  C   UNL A   1      49.620  27.055  23.500  1.00  0.00     0.200 A 
ATOM     82  F   UNL A   1      48.342  27.579  21.588  1.00  0.00    -0.200 F 
ATOM     83  F   UNL A   1      50.676  26.754  22.731  1.00  0.00    -0.200 F 
ENDBRANCH  59  73
BRANCH  60  84
ATOM     84  C   UNL A   1      39.092  29.686  30.125  1.00  0.00     0.064 A 
ATOM     85  C   UNL A   1      38.930  29.348  31.476  1.00  0.00     0.173 A 
ATOM     86  C   UNL A   1      38.017  30.305  29.471  1.00  0.00     0.173 A 
ATOM     87  F   UNL A   1      39.927  28.739  32.136  1.00  0.00    -0.203 F 
ATOM     88  C   UNL A   1      37.731  29.590  32.140  1.00  0.00     0.198 A 
ATOM     89  C   UNL A   1      36.827  30.572  30.145  1.00  0.00     0.198 A 
ATOM     90  F   UNL A   1      38.126  30.654  28.181  1.00  0.00    -0.203 F 
ATOM     91  F   UNL A   1      37.587  29.209  33.416  1.00  0.00    -0.200 F 
ATOM     92  C   UNL A   1      36.682  30.206  31.476  1.00  0.00     0.200 A 
ATOM     93  F   UNL A   1      35.819  31.180  29.506  1.00  0.00    -0.200 F 
ATOM     94  F   UNL A   1      35.529  30.439  32.116  1.00  0.00    -0.200 F 
ENDBRANCH  60  84
BRANCH  72  95
ATOM     95  C   UNL A   1      41.643  23.883  27.257  1.00  0.00     0.064 A 
ATOM     96  C   UNL A   1      42.268  22.815  27.922  1.00  0.00     0.173 A 
ATOM     97  C   UNL A   1      40.497  23.595  26.497  1.00  0.00     0.173 A 
ATOM     98  F   UNL A   1      43.374  23.030  28.650  1.00  0.00    -0.203 F 
ATOM     99  C   UNL A   1      41.795  21.512  27.793  1.00  0.00     0.198 A 
ATOM    100  C   UNL A   1      40.006  22.296  26.400  1.00  0.00     0.198 A 
ATOM    101  F   UNL A   1      39.854  24.575  25.847  1.00  0.00    -0.203 F 
ATOM    102  F   UNL A   1      42.451  20.502  28.380  1.00  0.00    -0.200 F 
ATOM    103  C   UNL A   1      40.662  21.253  27.036  1.00  0.00     0.200 A 
ATOM    104  F   UNL A   1      38.903  22.050  25.680  1.00  0.00    -0.200 F 
ATOM    105  F   UNL A   1      40.210  19.998  26.908  1.00  0.00    -0.200 F 
ENDBRANCH  72  95
ENDBRANCH  46  47
ENDBRANCH  39  41
ENDBRANCH  38  39
ENDBRANCH  37  38
ENDBRANCH   1  37
TORSDOF 17
ENDMDL
