MODEL 1
REMARK VINA RESULT:     -12.3      0.000      0.000
REMARK SMILES O=C(CCC(=O)OCCOC(=O)c1ccc(-c2c3nc(c(-c4c(F)c(F)c(F)c(F)c4F)c4ccc([nH]4)c(-c4c(F)c(F)c(F)c(F)c4F)c4nc(c(-c5c(F)c(F)c(F)c(F)c5F)c5ccc2[nH]5)C=C4)C=C3)cc1)/[NH+]=C1\S[C@H]2CS(=O)(=O)C[C@@H]2N1c1ccc2c(c1)OCO2
REMARK SMILES IDX 8 1 7 2 5 3 6 4 4 5 3 6 2 7 1 8 76 9 77 10 78 12 86 13 79 14
REMARK SMILES IDX 85 15 80 16 84 17 81 18 82 19 83 20 87 21 88 22 92 23 89 24
REMARK SMILES IDX 91 25 90 26 93 27 95 28 94 29 9 30 10 31 11 32 12 33 13 34
REMARK SMILES IDX 14 35 75 36 15 37 74 38 16 39 17 40 18 41 68 42 19 43 73 44
REMARK SMILES IDX 67 45 69 46 20 47 72 48 66 49 65 50 21 52 53 53 33 54 52 55
REMARK SMILES IDX 34 56 37 57 51 58 70 59 35 60 36 61 50 63 71 64 38 65 22 66
REMARK SMILES IDX 23 67 31 68 24 69 25 70 29 71 32 72 26 73 27 74 30 75 28 76
REMARK SMILES IDX 54 77 55 78 63 79 56 80 57 81 61 82 64 83 58 84 59 85 62 86
REMARK SMILES IDX 60 87 39 88 40 89 48 90 41 91 42 92 46 93 49 94 43 95 44 96
REMARK SMILES IDX 47 97 45 98
REMARK H PARENT 76 11 69 51 37 62
REMARK Flexibility Score: inf
ROOT
ATOM      1  C   UNL A   1      42.454  18.775  26.116  1.00  0.00     0.274 C 
ENDROOT
BRANCH   1   2
ATOM      2  O   UNL A   1      41.854  19.989  25.653  1.00  0.00    -0.462 OA
BRANCH   2   3
ATOM      3  C   UNL A   1      41.743  20.919  26.617  1.00  0.00     0.306 C 
ATOM      4  O   UNL A   1      42.285  20.849  27.716  1.00  0.00    -0.252 OA
BRANCH   3   5
ATOM      5  C   UNL A   1      40.899  22.082  26.198  1.00  0.00     0.135 C 
BRANCH   5   6
ATOM      6  C   UNL A   1      39.570  22.441  26.876  1.00  0.00     0.139 C 
BRANCH   6   7
ATOM      7  C   UNL A   1      38.511  23.488  26.477  1.00  0.00     0.308 C 
ATOM      8  O   UNL A   1      38.905  24.483  25.863  1.00  0.00    -0.247 OA
ATOM      9  N   UNL A   1      37.175  23.360  26.773  1.00  0.00    -0.204 N 
ATOM     10  C   UNL A   1      36.311  22.878  25.929  1.00  0.00     0.319 C 
ATOM     11  H   UNL A   1      36.859  23.643  27.661  1.00  0.00     0.316 HD
ATOM     12  S   UNL A   1      36.658  21.882  24.485  1.00  0.00    -0.029 SA
ATOM     13  N   UNL A   1      34.914  22.897  26.130  1.00  0.00    -0.216 N 
ATOM     14  C   UNL A   1      34.993  21.111  24.498  1.00  0.00     0.120 C 
ATOM     15  C   UNL A   1      34.319  21.626  25.770  1.00  0.00     0.212 C 
ATOM     16  C   UNL A   1      34.727  19.618  24.626  1.00  0.00     0.156 C 
ATOM     17  C   UNL A   1      32.850  21.356  25.571  1.00  0.00     0.188 C 
ATOM     18  S   UNL A   1      32.968  19.600  25.112  1.00  0.00     0.155 S 
ATOM     19  O   UNL A   1      32.160  19.357  23.939  1.00  0.00    -0.229 OA
ATOM     20  O   UNL A   1      32.843  18.811  26.320  1.00  0.00    -0.229 OA
BRANCH  13  21
ATOM     21  C   UNL A   1      34.220  24.053  25.746  1.00  0.00     0.132 A 
ATOM     22  C   UNL A   1      34.505  24.644  24.497  1.00  0.00     0.056 A 
ATOM     23  C   UNL A   1      33.143  24.518  26.514  1.00  0.00     0.102 A 
ATOM     24  C   UNL A   1      33.653  25.613  23.957  1.00  0.00     0.055 A 
ATOM     25  C   UNL A   1      32.296  25.419  25.932  1.00  0.00     0.170 A 
ATOM     26  C   UNL A   1      32.525  25.932  24.678  1.00  0.00     0.166 A 
ATOM     27  O   UNL A   1      31.091  25.793  26.441  1.00  0.00    -0.453 OA
ATOM     28  O   UNL A   1      31.467  26.672  24.245  1.00  0.00    -0.454 OA
ATOM     29  C   UNL A   1      30.483  26.281  25.229  1.00  0.00     0.468 C 
ENDBRANCH  13  21
ENDBRANCH   6   7
ENDBRANCH   5   6
ENDBRANCH   3   5
ENDBRANCH   2   3
ENDBRANCH   1   2
BRANCH   1  30
ATOM     30  C   UNL A   1      43.749  18.547  25.349  1.00  0.00     0.275 C 
BRANCH  30  31
ATOM     31  O   UNL A   1      43.952  19.380  24.206  1.00  0.00    -0.458 OA
BRANCH  31  32
ATOM     32  C   UNL A   1      45.115  20.060  24.207  1.00  0.00     0.338 C 
ATOM     33  O   UNL A   1      46.241  19.673  23.949  1.00  0.00    -0.246 OA
BRANCH  32  34
ATOM     34  C   UNL A   1      44.946  21.322  24.851  1.00  0.00     0.060 A 
ATOM     35  C   UNL A   1      45.368  21.465  26.163  1.00  0.00     0.016 A 
ATOM     36  C   UNL A   1      44.408  22.357  24.077  1.00  0.00     0.016 A 
ATOM     37  C   UNL A   1      45.322  22.725  26.697  1.00  0.00     0.010 A 
ATOM     38  C   UNL A   1      44.464  23.631  24.570  1.00  0.00     0.010 A 
ATOM     39  C   UNL A   1      44.945  23.800  25.870  1.00  0.00    -0.014 A 
BRANCH  39  40
ATOM     40  C   UNL A   1      45.178  25.148  26.358  1.00  0.00     0.031 A 
ATOM     41  C   UNL A   1      46.534  25.722  26.227  1.00  0.00     0.074 A 
ATOM     42  C   UNL A   1      44.108  25.765  26.883  1.00  0.00     0.049 A 
ATOM     43  N   UNL A   1      46.937  26.922  26.521  1.00  0.00    -0.248 NA
ATOM     44  C   UNL A   1      47.590  24.825  25.724  1.00  0.00     0.031 C 
ATOM     45  C   UNL A   1      42.786  25.146  27.066  1.00  0.00     0.029 A 
ATOM     46  N   UNL A   1      43.940  27.040  27.321  1.00  0.00    -0.354 N 
ATOM     47  C   UNL A   1      48.291  26.928  26.238  1.00  0.00     0.074 A 
ATOM     48  C   UNL A   1      48.660  25.598  25.815  1.00  0.00     0.031 C 
ATOM     49  C   UNL A   1      41.927  26.068  27.519  1.00  0.00     0.029 A 
ATOM     50  C   UNL A   1      42.655  27.311  27.712  1.00  0.00     0.049 A 
ATOM     51  H   UNL A   1      44.669  27.701  27.354  1.00  0.00     0.167 HD
ATOM     52  C   UNL A   1      49.125  27.987  26.314  1.00  0.00     0.037 A 
ATOM     53  C   UNL A   1      42.145  28.459  28.184  1.00  0.00     0.037 A 
ATOM     54  C   UNL A   1      48.666  29.276  26.757  1.00  0.00     0.049 A 
ATOM     55  C   UNL A   1      43.093  29.618  28.254  1.00  0.00     0.074 A 
ATOM     56  C   UNL A   1      49.367  30.456  26.875  1.00  0.00     0.029 A 
ATOM     57  N   UNL A   1      47.357  29.538  27.167  1.00  0.00    -0.354 N 
ATOM     58  N   UNL A   1      44.368  29.656  27.927  1.00  0.00    -0.248 NA
ATOM     59  C   UNL A   1      42.555  30.884  28.749  1.00  0.00     0.031 C 
ATOM     60  C   UNL A   1      48.499  31.415  27.412  1.00  0.00     0.029 A 
ATOM     61  C   UNL A   1      47.237  30.854  27.571  1.00  0.00     0.049 A 
ATOM     62  H   UNL A   1      46.625  28.879  27.167  1.00  0.00     0.167 HD
ATOM     63  C   UNL A   1      44.793  30.946  28.181  1.00  0.00     0.074 A 
ATOM     64  C   UNL A   1      43.622  31.668  28.655  1.00  0.00     0.031 C 
ATOM     65  C   UNL A   1      46.030  31.491  28.052  1.00  0.00     0.037 A 
BRANCH  52  66
ATOM     66  C   UNL A   1      50.564  27.750  25.963  1.00  0.00     0.064 A 
ATOM     67  C   UNL A   1      51.027  27.808  24.636  1.00  0.00     0.173 A 
ATOM     68  C   UNL A   1      51.484  27.386  26.956  1.00  0.00     0.173 A 
ATOM     69  F   UNL A   1      50.184  28.120  23.640  1.00  0.00    -0.203 F 
ATOM     70  C   UNL A   1      52.338  27.463  24.315  1.00  0.00     0.198 A 
ATOM     71  C   UNL A   1      52.804  27.078  26.635  1.00  0.00     0.198 A 
ATOM     72  F   UNL A   1      51.097  27.299  28.237  1.00  0.00    -0.203 F 
ATOM     73  F   UNL A   1      52.729  27.444  23.032  1.00  0.00    -0.200 F 
ATOM     74  C   UNL A   1      53.226  27.102  25.315  1.00  0.00     0.200 A 
ATOM     75  F   UNL A   1      53.663  26.730  27.604  1.00  0.00    -0.200 F 
ATOM     76  F   UNL A   1      54.484  26.759  25.003  1.00  0.00    -0.200 F 
ENDBRANCH  52  66
BRANCH  53  77
ATOM     77  C   UNL A   1      40.722  28.515  28.600  1.00  0.00     0.064 A 
ATOM     78  C   UNL A   1      40.325  28.199  29.904  1.00  0.00     0.173 A 
ATOM     79  C   UNL A   1      39.735  28.983  27.716  1.00  0.00     0.173 A 
ATOM     80  F   UNL A   1      41.228  27.754  30.790  1.00  0.00    -0.203 F 
ATOM     81  C   UNL A   1      38.996  28.340  30.307  1.00  0.00     0.198 A 
ATOM     82  C   UNL A   1      38.414  29.153  28.127  1.00  0.00     0.198 A 
ATOM     83  F   UNL A   1      40.064  29.325  26.461  1.00  0.00    -0.203 F 
ATOM     84  F   UNL A   1      38.639  28.011  31.555  1.00  0.00    -0.200 F 
ATOM     85  C   UNL A   1      38.045  28.825  29.421  1.00  0.00     0.200 A 
ATOM     86  F   UNL A   1      37.508  29.651  27.276  1.00  0.00    -0.200 F 
ATOM     87  F   UNL A   1      36.774  28.980  29.816  1.00  0.00    -0.200 F 
ENDBRANCH  53  77
BRANCH  65  88
ATOM     88  C   UNL A   1      46.151  32.928  28.449  1.00  0.00     0.064 A 
ATOM     89  C   UNL A   1      46.508  33.295  29.754  1.00  0.00     0.173 A 
ATOM     90  C   UNL A   1      45.960  33.941  27.499  1.00  0.00     0.173 A 
ATOM     91  F   UNL A   1      46.680  32.355  30.696  1.00  0.00    -0.203 F 
ATOM     92  C   UNL A   1      46.649  34.632  30.100  1.00  0.00     0.198 A 
ATOM     93  C   UNL A   1      46.140  35.275  27.839  1.00  0.00     0.198 A 
ATOM     94  F   UNL A   1      45.625  33.630  26.237  1.00  0.00    -0.203 F 
ATOM     95  F   UNL A   1      46.941  34.966  31.364  1.00  0.00    -0.200 F 
ATOM     96  C   UNL A   1      46.476  35.619  29.140  1.00  0.00     0.200 A 
ATOM     97  F   UNL A   1      45.993  36.226  26.908  1.00  0.00    -0.200 F 
ATOM     98  F   UNL A   1      46.629  36.909  29.472  1.00  0.00    -0.200 F 
ENDBRANCH  65  88
ENDBRANCH  39  40
ENDBRANCH  32  34
ENDBRANCH  31  32
ENDBRANCH  30  31
ENDBRANCH   1  30
TORSDOF 14
ENDMDL
MODEL 2
REMARK VINA RESULT:     -12.2      3.852      9.313
REMARK SMILES O=C(CCC(=O)OCCOC(=O)c1ccc(-c2c3nc(c(-c4c(F)c(F)c(F)c(F)c4F)c4ccc([nH]4)c(-c4c(F)c(F)c(F)c(F)c4F)c4nc(c(-c5c(F)c(F)c(F)c(F)c5F)c5ccc2[nH]5)C=C4)C=C3)cc1)/[NH+]=C1\S[C@H]2CS(=O)(=O)C[C@@H]2N1c1ccc2c(c1)OCO2
REMARK SMILES IDX 8 1 7 2 5 3 6 4 4 5 3 6 2 7 1 8 76 9 77 10 78 12 86 13 79 14
REMARK SMILES IDX 85 15 80 16 84 17 81 18 82 19 83 20 87 21 88 22 92 23 89 24
REMARK SMILES IDX 91 25 90 26 93 27 95 28 94 29 9 30 10 31 11 32 12 33 13 34
REMARK SMILES IDX 14 35 75 36 15 37 74 38 16 39 17 40 18 41 68 42 19 43 73 44
REMARK SMILES IDX 67 45 69 46 20 47 72 48 66 49 65 50 21 52 53 53 33 54 52 55
REMARK SMILES IDX 34 56 37 57 51 58 70 59 35 60 36 61 50 63 71 64 38 65 22 66
REMARK SMILES IDX 23 67 31 68 24 69 25 70 29 71 32 72 26 73 27 74 30 75 28 76
REMARK SMILES IDX 54 77 55 78 63 79 56 80 57 81 61 82 64 83 58 84 59 85 62 86
REMARK SMILES IDX 60 87 39 88 40 89 48 90 41 91 42 92 46 93 49 94 43 95 44 96
REMARK SMILES IDX 47 97 45 98
REMARK H PARENT 76 11 69 51 37 62
REMARK Flexibility Score: inf
ROOT
ATOM      1  C   UNL A   1      34.372  33.940  31.247  1.00  0.00     0.274 C 
ENDROOT
BRANCH   1   2
ATOM      2  O   UNL A   1      34.576  33.069  30.129  1.00  0.00    -0.462 OA
BRANCH   2   3
ATOM      3  C   UNL A   1      33.896  33.455  29.034  1.00  0.00     0.306 C 
ATOM      4  O   UNL A   1      33.311  34.528  28.922  1.00  0.00    -0.252 OA
BRANCH   3   5
ATOM      5  C   UNL A   1      33.949  32.437  27.938  1.00  0.00     0.135 C 
BRANCH   5   6
ATOM      6  C   UNL A   1      35.146  31.503  27.719  1.00  0.00     0.139 C 
BRANCH   6   7
ATOM      7  C   UNL A   1      35.177  29.980  27.479  1.00  0.00     0.308 C 
ATOM      8  O   UNL A   1      35.439  29.262  28.447  1.00  0.00    -0.247 OA
ATOM      9  N   UNL A   1      34.929  29.405  26.256  1.00  0.00    -0.204 N 
ATOM     10  C   UNL A   1      33.760  28.942  25.919  1.00  0.00     0.319 C 
ATOM     11  H   UNL A   1      35.665  29.340  25.607  1.00  0.00     0.316 HD
ATOM     12  S   UNL A   1      32.189  29.340  26.674  1.00  0.00    -0.029 SA
ATOM     13  N   UNL A   1      33.514  28.190  24.751  1.00  0.00    -0.216 N 
ATOM     14  C   UNL A   1      31.247  28.936  25.153  1.00  0.00     0.120 C 
ATOM     15  C   UNL A   1      32.304  28.636  24.090  1.00  0.00     0.212 C 
ATOM     16  C   UNL A   1      30.359  29.913  24.395  1.00  0.00     0.156 C 
ATOM     17  C   UNL A   1      31.565  27.904  22.999  1.00  0.00     0.188 C 
ATOM     18  S   UNL A   1      30.196  29.080  22.778  1.00  0.00     0.155 S 
ATOM     19  O   UNL A   1      28.944  28.358  22.748  1.00  0.00    -0.229 OA
ATOM     20  O   UNL A   1      30.575  30.023  21.746  1.00  0.00    -0.229 OA
BRANCH  13  21
ATOM     21  C   UNL A   1      33.729  26.806  24.815  1.00  0.00     0.132 A 
ATOM     22  C   UNL A   1      33.342  26.103  25.976  1.00  0.00     0.056 A 
ATOM     23  C   UNL A   1      34.163  26.105  23.681  1.00  0.00     0.102 A 
ATOM     24  C   UNL A   1      33.274  24.706  25.973  1.00  0.00     0.055 A 
ATOM     25  C   UNL A   1      34.026  24.745  23.689  1.00  0.00     0.170 A 
ATOM     26  C   UNL A   1      33.567  24.064  24.790  1.00  0.00     0.166 A 
ATOM     27  O   UNL A   1      34.179  23.943  22.601  1.00  0.00    -0.453 OA
ATOM     28  O   UNL A   1      33.355  22.749  24.506  1.00  0.00    -0.454 OA
ATOM     29  C   UNL A   1      33.433  22.801  23.064  1.00  0.00     0.468 C 
ENDBRANCH  13  21
ENDBRANCH   6   7
ENDBRANCH   5   6
ENDBRANCH   3   5
ENDBRANCH   2   3
ENDBRANCH   1   2
BRANCH   1  30
ATOM     30  C   UNL A   1      35.032  33.323  32.472  1.00  0.00     0.275 C 
BRANCH  30  31
ATOM     31  O   UNL A   1      35.383  31.942  32.362  1.00  0.00    -0.458 OA
BRANCH  31  32
ATOM     32  C   UNL A   1      36.472  31.583  33.071  1.00  0.00     0.338 C 
ATOM     33  O   UNL A   1      36.830  31.941  34.179  1.00  0.00    -0.246 OA
BRANCH  32  34
ATOM     34  C   UNL A   1      37.397  30.890  32.233  1.00  0.00     0.060 A 
ATOM     35  C   UNL A   1      37.216  30.932  30.860  1.00  0.00     0.016 A 
ATOM     36  C   UNL A   1      38.469  30.255  32.871  1.00  0.00     0.016 A 
ATOM     37  C   UNL A   1      38.202  30.379  30.087  1.00  0.00     0.010 A 
ATOM     38  C   UNL A   1      39.503  29.801  32.099  1.00  0.00     0.010 A 
ATOM     39  C   UNL A   1      39.364  29.892  30.713  1.00  0.00    -0.014 A 
BRANCH  39  40
ATOM     40  C   UNL A   1      40.508  29.579  29.875  1.00  0.00     0.031 A 
ATOM     41  C   UNL A   1      41.538  30.621  29.669  1.00  0.00     0.074 A 
ATOM     42  C   UNL A   1      40.530  28.338  29.366  1.00  0.00     0.049 A 
ATOM     43  N   UNL A   1      42.666  30.528  29.031  1.00  0.00    -0.248 NA
ATOM     44  C   UNL A   1      41.257  31.954  30.229  1.00  0.00     0.031 C 
ATOM     45  C   UNL A   1      39.458  27.344  29.529  1.00  0.00     0.029 A 
ATOM     46  N   UNL A   1      41.481  27.685  28.650  1.00  0.00    -0.354 N 
ATOM     47  C   UNL A   1      43.233  31.788  29.113  1.00  0.00     0.074 A 
ATOM     48  C   UNL A   1      42.299  32.648  29.801  1.00  0.00     0.031 C 
ATOM     49  C   UNL A   1      39.845  26.185  28.983  1.00  0.00     0.029 A 
ATOM     50  C   UNL A   1      41.156  26.380  28.385  1.00  0.00     0.049 A 
ATOM     51  H   UNL A   1      42.319  28.107  28.351  1.00  0.00     0.167 HD
ATOM     52  C   UNL A   1      44.449  32.155  28.659  1.00  0.00     0.037 A 
ATOM     53  C   UNL A   1      41.863  25.457  27.715  1.00  0.00     0.037 A 
ATOM     54  C   UNL A   1      45.309  31.226  27.975  1.00  0.00     0.049 A 
ATOM     55  C   UNL A   1      43.212  25.892  27.226  1.00  0.00     0.074 A 
ATOM     56  C   UNL A   1      46.575  31.424  27.469  1.00  0.00     0.029 A 
ATOM     57  N   UNL A   1      44.961  29.903  27.698  1.00  0.00    -0.354 N 
ATOM     58  N   UNL A   1      43.791  27.067  27.354  1.00  0.00    -0.248 NA
ATOM     59  C   UNL A   1      44.008  24.898  26.510  1.00  0.00     0.031 C 
ATOM     60  C   UNL A   1      46.969  30.239  26.834  1.00  0.00     0.029 A 
ATOM     61  C   UNL A   1      45.976  29.279  26.998  1.00  0.00     0.049 A 
ATOM     62  H   UNL A   1      44.115  29.476  27.964  1.00  0.00     0.167 HD
ATOM     63  C   UNL A   1      45.019  26.963  26.728  1.00  0.00     0.074 A 
ATOM     64  C   UNL A   1      45.112  25.589  26.255  1.00  0.00     0.031 C 
ATOM     65  C   UNL A   1      45.979  27.905  26.543  1.00  0.00     0.037 A 
BRANCH  52  66
ATOM     66  C   UNL A   1      44.849  33.587  28.856  1.00  0.00     0.064 A 
ATOM     67  C   UNL A   1      44.551  34.582  27.906  1.00  0.00     0.173 A 
ATOM     68  C   UNL A   1      45.606  33.964  29.973  1.00  0.00     0.173 A 
ATOM     69  F   UNL A   1      43.855  34.273  26.801  1.00  0.00    -0.203 F 
ATOM     70  C   UNL A   1      45.037  35.879  28.046  1.00  0.00     0.198 A 
ATOM     71  C   UNL A   1      46.059  35.272  30.127  1.00  0.00     0.198 A 
ATOM     72  F   UNL A   1      45.934  33.056  30.904  1.00  0.00    -0.203 F 
ATOM     73  F   UNL A   1      44.810  36.785  27.083  1.00  0.00    -0.200 F 
ATOM     74  C   UNL A   1      45.787  36.225  29.158  1.00  0.00     0.200 A 
ATOM     75  F   UNL A   1      46.784  35.605  31.205  1.00  0.00    -0.200 F 
ATOM     76  F   UNL A   1      46.265  37.470  29.285  1.00  0.00    -0.200 F 
ENDBRANCH  52  66
BRANCH  53  77
ATOM     77  C   UNL A   1      41.291  24.105  27.500  1.00  0.00     0.064 A 
ATOM     78  C   UNL A   1      40.193  23.899  26.657  1.00  0.00     0.173 A 
ATOM     79  C   UNL A   1      41.897  22.971  28.066  1.00  0.00     0.173 A 
ATOM     80  F   UNL A   1      39.580  24.946  26.085  1.00  0.00    -0.203 F 
ATOM     81  C   UNL A   1      39.719  22.613  26.394  1.00  0.00     0.198 A 
ATOM     82  C   UNL A   1      41.442  21.685  27.779  1.00  0.00     0.198 A 
ATOM     83  F   UNL A   1      42.968  23.108  28.862  1.00  0.00    -0.203 F 
ATOM     84  F   UNL A   1      38.653  22.445  25.599  1.00  0.00    -0.200 F 
ATOM     85  C   UNL A   1      40.348  21.509  26.948  1.00  0.00     0.200 A 
ATOM     86  F   UNL A   1      42.075  20.622  28.292  1.00  0.00    -0.200 F 
ATOM     87  F   UNL A   1      39.905  20.274  26.677  1.00  0.00    -0.200 F 
ENDBRANCH  53  77
BRANCH  65  88
ATOM     88  C   UNL A   1      47.189  27.458  25.787  1.00  0.00     0.064 A 
ATOM     89  C   UNL A   1      47.288  27.642  24.400  1.00  0.00     0.173 A 
ATOM     90  C   UNL A   1      48.277  26.892  26.465  1.00  0.00     0.173 A 
ATOM     91  F   UNL A   1      46.261  28.163  23.713  1.00  0.00    -0.203 F 
ATOM     92  C   UNL A   1      48.432  27.253  23.715  1.00  0.00     0.198 A 
ATOM     93  C   UNL A   1      49.433  26.540  25.782  1.00  0.00     0.198 A 
ATOM     94  F   UNL A   1      48.224  26.706  27.793  1.00  0.00    -0.203 F 
ATOM     95  F   UNL A   1      48.490  27.389  22.383  1.00  0.00    -0.200 F 
ATOM     96  C   UNL A   1      49.506  26.713  24.408  1.00  0.00     0.200 A 
ATOM     97  F   UNL A   1      50.478  26.037  26.453  1.00  0.00    -0.200 F 
ATOM     98  F   UNL A   1      50.615  26.353  23.747  1.00  0.00    -0.200 F 
ENDBRANCH  65  88
ENDBRANCH  39  40
ENDBRANCH  32  34
ENDBRANCH  31  32
ENDBRANCH  30  31
ENDBRANCH   1  30
TORSDOF 14
ENDMDL
MODEL 3
REMARK VINA RESULT:     -12.2      0.510      7.125
REMARK SMILES O=C(CCC(=O)OCCOC(=O)c1ccc(-c2c3nc(c(-c4c(F)c(F)c(F)c(F)c4F)c4ccc([nH]4)c(-c4c(F)c(F)c(F)c(F)c4F)c4nc(c(-c5c(F)c(F)c(F)c(F)c5F)c5ccc2[nH]5)C=C4)C=C3)cc1)/[NH+]=C1\S[C@H]2CS(=O)(=O)C[C@@H]2N1c1ccc2c(c1)OCO2
REMARK SMILES IDX 8 1 7 2 5 3 6 4 4 5 3 6 2 7 1 8 76 9 77 10 78 12 86 13 79 14
REMARK SMILES IDX 85 15 80 16 84 17 81 18 82 19 83 20 87 21 88 22 92 23 89 24
REMARK SMILES IDX 91 25 90 26 93 27 95 28 94 29 9 30 10 31 11 32 12 33 13 34
REMARK SMILES IDX 14 35 75 36 15 37 74 38 16 39 17 40 18 41 68 42 19 43 73 44
REMARK SMILES IDX 67 45 69 46 20 47 72 48 66 49 65 50 21 52 53 53 33 54 52 55
REMARK SMILES IDX 34 56 37 57 51 58 70 59 35 60 36 61 50 63 71 64 38 65 22 66
REMARK SMILES IDX 23 67 31 68 24 69 25 70 29 71 32 72 26 73 27 74 30 75 28 76
REMARK SMILES IDX 54 77 55 78 63 79 56 80 57 81 61 82 64 83 58 84 59 85 62 86
REMARK SMILES IDX 60 87 39 88 40 89 48 90 41 91 42 92 46 93 49 94 43 95 44 96
REMARK SMILES IDX 47 97 45 98
REMARK H PARENT 76 11 69 51 37 62
REMARK Flexibility Score: inf
ROOT
ATOM      1  C   UNL A   1      42.350  18.875  26.050  1.00  0.00     0.274 C 
ENDROOT
BRANCH   1   2
ATOM      2  O   UNL A   1      41.901  20.157  25.599  1.00  0.00    -0.462 OA
BRANCH   2   3
ATOM      3  C   UNL A   1      41.769  21.047  26.598  1.00  0.00     0.306 C 
ATOM      4  O   UNL A   1      42.306  20.943  27.696  1.00  0.00    -0.252 OA
BRANCH   3   5
ATOM      5  C   UNL A   1      40.908  22.211  26.219  1.00  0.00     0.135 C 
BRANCH   5   6
ATOM      6  C   UNL A   1      39.491  22.420  26.770  1.00  0.00     0.139 C 
BRANCH   6   7
ATOM      7  C   UNL A   1      38.434  23.479  26.396  1.00  0.00     0.308 C 
ATOM      8  O   UNL A   1      38.823  24.467  25.768  1.00  0.00    -0.247 OA
ATOM      9  N   UNL A   1      37.105  23.366  26.727  1.00  0.00    -0.204 N 
ATOM     10  C   UNL A   1      36.213  22.893  25.907  1.00  0.00     0.319 C 
ATOM     11  H   UNL A   1      36.816  23.655  27.622  1.00  0.00     0.316 HD
ATOM     12  S   UNL A   1      36.510  21.889  24.458  1.00  0.00    -0.029 SA
ATOM     13  N   UNL A   1      34.822  22.929  26.145  1.00  0.00    -0.216 N 
ATOM     14  C   UNL A   1      34.838  21.137  24.517  1.00  0.00     0.120 C 
ATOM     15  C   UNL A   1      34.203  21.663  25.804  1.00  0.00     0.212 C 
ATOM     16  C   UNL A   1      34.558  19.648  24.656  1.00  0.00     0.156 C 
ATOM     17  C   UNL A   1      32.726  21.410  25.645  1.00  0.00     0.188 C 
ATOM     18  S   UNL A   1      32.812  19.652  25.188  1.00  0.00     0.155 S 
ATOM     19  O   UNL A   1      31.971  19.415  24.037  1.00  0.00    -0.229 OA
ATOM     20  O   UNL A   1      32.710  18.867  26.401  1.00  0.00    -0.229 OA
BRANCH  13  21
ATOM     21  C   UNL A   1      34.132  24.092  25.776  1.00  0.00     0.132 A 
ATOM     22  C   UNL A   1      34.422  24.700  24.536  1.00  0.00     0.056 A 
ATOM     23  C   UNL A   1      33.053  24.547  26.546  1.00  0.00     0.102 A 
ATOM     24  C   UNL A   1      33.575  25.679  24.008  1.00  0.00     0.055 A 
ATOM     25  C   UNL A   1      32.210  25.459  25.976  1.00  0.00     0.170 A 
ATOM     26  C   UNL A   1      32.444  25.989  24.730  1.00  0.00     0.166 A 
ATOM     27  O   UNL A   1      31.004  25.827  26.485  1.00  0.00    -0.453 OA
ATOM     28  O   UNL A   1      31.389  26.738  24.304  1.00  0.00    -0.454 OA
ATOM     29  C   UNL A   1      30.401  26.334  25.279  1.00  0.00     0.468 C 
ENDBRANCH  13  21
ENDBRANCH   6   7
ENDBRANCH   5   6
ENDBRANCH   3   5
ENDBRANCH   2   3
ENDBRANCH   1   2
BRANCH   1  30
ATOM     30  C   UNL A   1      43.711  18.589  25.430  1.00  0.00     0.275 C 
BRANCH  30  31
ATOM     31  O   UNL A   1      44.023  19.323  24.244  1.00  0.00    -0.458 OA
BRANCH  31  32
ATOM     32  C   UNL A   1      45.202  19.974  24.282  1.00  0.00     0.338 C 
ATOM     33  O   UNL A   1      46.331  19.543  24.129  1.00  0.00    -0.246 OA
BRANCH  32  34
ATOM     34  C   UNL A   1      45.025  21.280  24.830  1.00  0.00     0.060 A 
ATOM     35  C   UNL A   1      45.453  21.525  26.124  1.00  0.00     0.016 A 
ATOM     36  C   UNL A   1      44.473  22.248  23.983  1.00  0.00     0.016 A 
ATOM     37  C   UNL A   1      45.399  22.822  26.561  1.00  0.00     0.010 A 
ATOM     38  C   UNL A   1      44.521  23.557  24.378  1.00  0.00     0.010 A 
ATOM     39  C   UNL A   1      45.008  23.828  25.658  1.00  0.00    -0.014 A 
BRANCH  39  40
ATOM     40  C   UNL A   1      45.231  25.210  26.041  1.00  0.00     0.031 A 
ATOM     41  C   UNL A   1      44.111  25.966  26.642  1.00  0.00     0.074 A 
ATOM     42  C   UNL A   1      46.469  25.679  25.821  1.00  0.00     0.049 A 
ATOM     43  N   UNL A   1      44.114  27.172  27.123  1.00  0.00    -0.248 NA
ATOM     44  C   UNL A   1      42.801  25.290  26.686  1.00  0.00     0.031 C 
ATOM     45  C   UNL A   1      47.546  24.929  25.157  1.00  0.00     0.029 A 
ATOM     46  N   UNL A   1      47.046  26.863  26.153  1.00  0.00    -0.354 N 
ATOM     47  C   UNL A   1      42.812  27.403  27.531  1.00  0.00     0.074 A 
ATOM     48  C   UNL A   1      42.027  26.243  27.181  1.00  0.00     0.031 C 
ATOM     49  C   UNL A   1      48.672  25.652  25.192  1.00  0.00     0.029 A 
ATOM     50  C   UNL A   1      48.374  26.928  25.822  1.00  0.00     0.049 A 
ATOM     51  H   UNL A   1      46.559  27.600  26.589  1.00  0.00     0.167 HD
ATOM     52  C   UNL A   1      42.349  28.500  28.166  1.00  0.00     0.037 A 
ATOM     53  C   UNL A   1      49.240  27.936  26.012  1.00  0.00     0.037 A 
ATOM     54  C   UNL A   1      43.208  29.614  28.466  1.00  0.00     0.049 A 
ATOM     55  C   UNL A   1      48.699  29.139  26.724  1.00  0.00     0.074 A 
ATOM     56  C   UNL A   1      42.910  30.791  29.118  1.00  0.00     0.029 A 
ATOM     57  N   UNL A   1      44.557  29.675  28.111  1.00  0.00    -0.354 N 
ATOM     58  N   UNL A   1      47.480  29.346  27.175  1.00  0.00    -0.248 NA
ATOM     59  C   UNL A   1      49.628  30.242  26.958  1.00  0.00     0.031 C 
ATOM     60  C   UNL A   1      44.062  31.587  29.105  1.00  0.00     0.029 A 
ATOM     61  C   UNL A   1      45.099  30.885  28.500  1.00  0.00     0.049 A 
ATOM     62  H   UNL A   1      45.050  28.959  27.649  1.00  0.00     0.167 HD
ATOM     63  C   UNL A   1      47.487  30.606  27.742  1.00  0.00     0.074 A 
ATOM     64  C   UNL A   1      48.850  31.098  27.609  1.00  0.00     0.031 C 
ATOM     65  C   UNL A   1      46.470  31.306  28.309  1.00  0.00     0.037 A 
BRANCH  52  66
ATOM     66  C   UNL A   1      40.888  28.529  28.504  1.00  0.00     0.064 A 
ATOM     67  C   UNL A   1      39.924  29.019  27.605  1.00  0.00     0.173 A 
ATOM     68  C   UNL A   1      40.448  28.131  29.774  1.00  0.00     0.173 A 
ATOM     69  F   UNL A   1      40.292  29.444  26.386  1.00  0.00    -0.203 F 
ATOM     70  C   UNL A   1      38.590  29.154  27.982  1.00  0.00     0.198 A 
ATOM     71  C   UNL A   1      39.105  28.233  30.134  1.00  0.00     0.198 A 
ATOM     72  F   UNL A   1      41.323  27.669  30.679  1.00  0.00    -0.203 F 
ATOM     73  F   UNL A   1      37.708  29.704  27.135  1.00  0.00    -0.200 F 
ATOM     74  C   UNL A   1      38.181  28.757  29.245  1.00  0.00     0.200 A 
ATOM     75  F   UNL A   1      38.711  27.847  31.356  1.00  0.00    -0.200 F 
ATOM     76  F   UNL A   1      36.900  28.899  29.611  1.00  0.00    -0.200 F 
ENDBRANCH  52  66
BRANCH  53  77
ATOM     77  C   UNL A   1      50.635  27.809  25.522  1.00  0.00     0.064 A 
ATOM     78  C   UNL A   1      51.686  27.469  26.382  1.00  0.00     0.173 A 
ATOM     79  C   UNL A   1      50.928  27.934  24.154  1.00  0.00     0.173 A 
ATOM     80  F   UNL A   1      51.460  27.331  27.696  1.00  0.00    -0.203 F 
ATOM     81  C   UNL A   1      52.978  27.268  25.894  1.00  0.00     0.198 A 
ATOM     82  C   UNL A   1      52.212  27.704  23.663  1.00  0.00     0.198 A 
ATOM     83  F   UNL A   1      49.954  28.233  23.282  1.00  0.00    -0.203 F 
ATOM     84  F   UNL A   1      53.971  26.964  26.740  1.00  0.00    -0.200 F 
ATOM     85  C   UNL A   1      53.237  27.376  24.536  1.00  0.00     0.200 A 
ATOM     86  F   UNL A   1      52.448  27.779  22.347  1.00  0.00    -0.200 F 
ATOM     87  F   UNL A   1      54.474  27.161  24.066  1.00  0.00    -0.200 F 
ENDBRANCH  53  77
BRANCH  65  88
ATOM     88  C   UNL A   1      46.821  32.673  28.804  1.00  0.00     0.064 A 
ATOM     89  C   UNL A   1      47.350  32.868  30.087  1.00  0.00     0.173 A 
ATOM     90  C   UNL A   1      46.675  33.786  27.965  1.00  0.00     0.173 A 
ATOM     91  F   UNL A   1      47.487  31.830  30.926  1.00  0.00    -0.203 F 
ATOM     92  C   UNL A   1      47.703  34.139  30.522  1.00  0.00     0.198 A 
ATOM     93  C   UNL A   1      47.066  35.049  28.390  1.00  0.00     0.198 A 
ATOM     94  F   UNL A   1      46.180  33.640  26.727  1.00  0.00    -0.203 F 
ATOM     95  F   UNL A   1      48.160  34.314  31.769  1.00  0.00    -0.200 F 
ATOM     96  C   UNL A   1      47.571  35.225  29.669  1.00  0.00     0.200 A 
ATOM     97  F   UNL A   1      46.956  36.095  27.560  1.00  0.00    -0.200 F 
ATOM     98  F   UNL A   1      47.927  36.449  30.085  1.00  0.00    -0.200 F 
ENDBRANCH  65  88
ENDBRANCH  39  40
ENDBRANCH  32  34
ENDBRANCH  31  32
ENDBRANCH  30  31
ENDBRANCH   1  30
TORSDOF 14
ENDMDL
