MODEL 1
REMARK VINA RESULT:     -10.8      0.000      0.000
REMARK SMILES Nc1cc(C(=O)OCCOC(=O)c2ccc(-c3c4nc(c(-c5c(F)c(F)c(F)c(F)c5F)c5ccc([nH]5)c(-c5c(F)c(F)c(F)c(F)c5F)c5nc(c(-c6c(F)c(F)c(F)c(F)c6F)c6ccc3[nH]6)C=C5)C=C4)cc2)nc2ccccc12
REMARK SMILES IDX 9 1 8 2 7 3 5 4 6 5 4 6 2 7 3 8 82 9 77 10 81 11 76 12 78 13
REMARK SMILES IDX 80 14 79 15 1 16 10 19 11 20 12 21 13 22 14 23 75 24 15 25
REMARK SMILES IDX 74 26 16 27 17 28 18 29 68 30 19 31 73 32 67 33 69 34 20 35
REMARK SMILES IDX 72 36 66 37 65 38 21 40 53 41 33 42 52 43 34 44 37 45 51 46
REMARK SMILES IDX 70 47 35 48 36 49 50 51 71 52 38 53 22 54 23 55 31 56 24 57
REMARK SMILES IDX 25 58 29 59 32 60 26 61 27 62 30 63 28 64 54 65 55 66 63 67
REMARK SMILES IDX 56 68 57 69 61 70 64 71 58 72 59 73 62 74 60 75 39 76 40 77
REMARK SMILES IDX 48 78 41 79 42 80 46 81 49 82 43 83 44 84 47 85 45 86
REMARK H PARENT 1 17 1 18 69 39 37 50
REMARK Flexibility Score: inf
ROOT
ATOM      1  C   UNL A   1      32.770  36.425  29.844  1.00  0.00     0.275 C 
ENDROOT
BRANCH   1   2
ATOM      2  C   UNL A   1      33.655  35.819  28.746  1.00  0.00     0.275 C 
BRANCH   2   3
ATOM      3  O   UNL A   1      33.684  34.379  28.812  1.00  0.00    -0.457 OA
BRANCH   3   4
ATOM      4  C   UNL A   1      34.921  33.810  28.790  1.00  0.00     0.357 C 
ATOM      5  O   UNL A   1      35.951  34.340  29.180  1.00  0.00    -0.244 OA
BRANCH   4   6
ATOM      6  C   UNL A   1      34.839  32.385  28.336  1.00  0.00     0.151 A 
ATOM      7  C   UNL A   1      35.775  30.252  27.814  1.00  0.00     0.043 A 
ATOM      8  C   UNL A   1      35.936  31.546  28.320  1.00  0.00     0.062 A 
ATOM      9  C   UNL A   1      34.498  29.835  27.345  1.00  0.00     0.023 A 
ATOM     10  C   UNL A   1      33.454  30.778  27.400  1.00  0.00     0.073 A 
ATOM     11  C   UNL A   1      34.204  28.554  26.814  1.00  0.00     0.012 A 
ATOM     12  N   UNL A   1      33.609  31.997  27.922  1.00  0.00    -0.241 NA
ATOM     13  C   UNL A   1      32.207  30.457  26.878  1.00  0.00     0.029 A 
ATOM     14  C   UNL A   1      32.941  28.248  26.304  1.00  0.00     0.001 A 
ATOM     15  C   UNL A   1      31.943  29.209  26.318  1.00  0.00     0.002 A 
BRANCH   7  16
ATOM     16  N   UNL A   1      36.865  29.382  27.868  1.00  0.00    -0.398 N 
ATOM     17  H   UNL A   1      37.487  29.418  28.630  1.00  0.00     0.156 HD
ATOM     18  H   UNL A   1      37.011  28.731  27.144  1.00  0.00     0.156 HD
ENDBRANCH   7  16
ENDBRANCH   4   6
ENDBRANCH   3   4
ENDBRANCH   2   3
ENDBRANCH   1   2
BRANCH   1  19
ATOM     19  O   UNL A   1      32.460  35.472  30.877  1.00  0.00    -0.458 OA
BRANCH  19  20
ATOM     20  C   UNL A   1      32.773  35.863  32.135  1.00  0.00     0.338 C 
ATOM     21  O   UNL A   1      32.160  36.646  32.839  1.00  0.00    -0.246 OA
BRANCH  20  22
ATOM     22  C   UNL A   1      33.927  35.080  32.612  1.00  0.00     0.060 A 
ATOM     23  C   UNL A   1      33.790  33.823  33.196  1.00  0.00     0.016 A 
ATOM     24  C   UNL A   1      35.194  35.620  32.409  1.00  0.00     0.016 A 
ATOM     25  C   UNL A   1      34.940  33.129  33.598  1.00  0.00     0.010 A 
ATOM     26  C   UNL A   1      36.337  34.923  32.777  1.00  0.00     0.010 A 
ATOM     27  C   UNL A   1      36.222  33.676  33.391  1.00  0.00    -0.014 A 
BRANCH  27  28
ATOM     28  C   UNL A   1      37.455  32.949  33.783  1.00  0.00     0.031 A 
ATOM     29  C   UNL A   1      38.051  31.904  32.880  1.00  0.00     0.074 A 
ATOM     30  C   UNL A   1      38.000  33.192  34.989  1.00  0.00     0.049 A 
ATOM     31  N   UNL A   1      39.143  31.198  33.046  1.00  0.00    -0.248 NA
ATOM     32  C   UNL A   1      37.319  31.590  31.643  1.00  0.00     0.031 C 
ATOM     33  C   UNL A   1      37.453  34.113  35.987  1.00  0.00     0.029 A 
ATOM     34  N   UNL A   1      39.131  32.691  35.582  1.00  0.00    -0.354 N 
ATOM     35  C   UNL A   1      39.231  30.370  31.934  1.00  0.00     0.074 A 
ATOM     36  C   UNL A   1      38.049  30.606  31.135  1.00  0.00     0.031 C 
ATOM     37  C   UNL A   1      38.276  34.152  37.045  1.00  0.00     0.029 A 
ATOM     38  C   UNL A   1      39.391  33.238  36.815  1.00  0.00     0.049 A 
ATOM     39  H   UNL A   1      39.700  32.005  35.164  1.00  0.00     0.167 HD
ATOM     40  C   UNL A   1      40.229  29.518  31.595  1.00  0.00     0.037 A 
ATOM     41  C   UNL A   1      40.422  33.035  37.657  1.00  0.00     0.037 A 
ATOM     42  C   UNL A   1      41.406  29.297  32.392  1.00  0.00     0.049 A 
ATOM     43  C   UNL A   1      41.518  32.084  37.257  1.00  0.00     0.074 A 
ATOM     44  C   UNL A   1      42.503  28.502  32.109  1.00  0.00     0.029 A 
ATOM     45  N   UNL A   1      41.638  29.870  33.635  1.00  0.00    -0.354 N 
ATOM     46  N   UNL A   1      41.642  31.383  36.156  1.00  0.00    -0.248 NA
ATOM     47  C   UNL A   1      42.618  31.903  38.212  1.00  0.00     0.031 C 
ATOM     48  C   UNL A   1      43.373  28.555  33.201  1.00  0.00     0.029 A 
ATOM     49  C   UNL A   1      42.848  29.425  34.142  1.00  0.00     0.049 A 
ATOM     50  H   UNL A   1      41.030  30.498  34.090  1.00  0.00     0.167 HD
ATOM     51  C   UNL A   1      42.841  30.695  36.275  1.00  0.00     0.074 A 
ATOM     52  C   UNL A   1      43.418  31.078  37.547  1.00  0.00     0.031 C 
ATOM     53  C   UNL A   1      43.409  29.819  35.410  1.00  0.00     0.037 A 
BRANCH  40  54
ATOM     54  C   UNL A   1      40.114  28.785  30.287  1.00  0.00     0.064 A 
ATOM     55  C   UNL A   1      40.687  29.297  29.113  1.00  0.00     0.173 A 
ATOM     56  C   UNL A   1      39.504  27.523  30.220  1.00  0.00     0.173 A 
ATOM     57  F   UNL A   1      41.281  30.500  29.120  1.00  0.00    -0.203 F 
ATOM     58  C   UNL A   1      40.637  28.584  27.918  1.00  0.00     0.198 A 
ATOM     59  C   UNL A   1      39.483  26.799  29.031  1.00  0.00     0.198 A 
ATOM     60  F   UNL A   1      38.950  26.980  31.315  1.00  0.00    -0.203 F 
ATOM     61  F   UNL A   1      41.165  29.108  26.804  1.00  0.00    -0.200 F 
ATOM     62  C   UNL A   1      40.045  27.330  27.881  1.00  0.00     0.200 A 
ATOM     63  F   UNL A   1      38.929  25.579  29.001  1.00  0.00    -0.200 F 
ATOM     64  F   UNL A   1      40.020  26.634  26.736  1.00  0.00    -0.200 F 
ENDBRANCH  40  54
BRANCH  41  65
ATOM     65  C   UNL A   1      40.492  33.803  38.926  1.00  0.00     0.064 A 
ATOM     66  C   UNL A   1      39.834  33.345  40.077  1.00  0.00     0.173 A 
ATOM     67  C   UNL A   1      41.246  34.981  39.032  1.00  0.00     0.173 A 
ATOM     68  F   UNL A   1      39.086  32.232  40.022  1.00  0.00    -0.203 F 
ATOM     69  C   UNL A   1      39.918  34.041  41.281  1.00  0.00     0.198 A 
ATOM     70  C   UNL A   1      41.355  35.660  40.244  1.00  0.00     0.198 A 
ATOM     71  F   UNL A   1      41.901  35.457  37.963  1.00  0.00    -0.203 F 
ATOM     72  F   UNL A   1      39.253  33.599  42.356  1.00  0.00    -0.200 F 
ATOM     73  C   UNL A   1      40.687  35.192  41.365  1.00  0.00     0.200 A 
ATOM     74  F   UNL A   1      42.112  36.762  40.326  1.00  0.00    -0.200 F 
ATOM     75  F   UNL A   1      40.781  35.852  42.528  1.00  0.00    -0.200 F 
ENDBRANCH  41  65
BRANCH  53  76
ATOM     76  C   UNL A   1      44.730  29.218  35.796  1.00  0.00     0.064 A 
ATOM     77  C   UNL A   1      44.806  27.988  36.465  1.00  0.00     0.173 A 
ATOM     78  C   UNL A   1      45.931  29.839  35.422  1.00  0.00     0.173 A 
ATOM     79  F   UNL A   1      43.685  27.361  36.855  1.00  0.00    -0.203 F 
ATOM     80  C   UNL A   1      46.036  27.409  36.761  1.00  0.00     0.198 A 
ATOM     81  C   UNL A   1      47.160  29.242  35.690  1.00  0.00     0.198 A 
ATOM     82  F   UNL A   1      45.913  31.012  34.771  1.00  0.00    -0.203 F 
ATOM     83  F   UNL A   1      46.086  26.251  37.433  1.00  0.00    -0.200 F 
ATOM     84  C   UNL A   1      47.212  28.031  36.363  1.00  0.00     0.200 A 
ATOM     85  F   UNL A   1      48.292  29.834  35.289  1.00  0.00    -0.200 F 
ATOM     86  F   UNL A   1      48.395  27.462  36.630  1.00  0.00    -0.200 F 
ENDBRANCH  53  76
ENDBRANCH  27  28
ENDBRANCH  20  22
ENDBRANCH  19  20
ENDBRANCH   1  19
TORSDOF 12
ENDMDL
MODEL 2
REMARK VINA RESULT:     -10.7      3.401      9.145
REMARK SMILES Nc1cc(C(=O)OCCOC(=O)c2ccc(-c3c4nc(c(-c5c(F)c(F)c(F)c(F)c5F)c5ccc([nH]5)c(-c5c(F)c(F)c(F)c(F)c5F)c5nc(c(-c6c(F)c(F)c(F)c(F)c6F)c6ccc3[nH]6)C=C5)C=C4)cc2)nc2ccccc12
REMARK SMILES IDX 9 1 8 2 7 3 5 4 6 5 4 6 2 7 3 8 82 9 77 10 81 11 76 12 78 13
REMARK SMILES IDX 80 14 79 15 1 16 10 19 11 20 12 21 13 22 14 23 75 24 15 25
REMARK SMILES IDX 74 26 16 27 17 28 18 29 68 30 19 31 73 32 67 33 69 34 20 35
REMARK SMILES IDX 72 36 66 37 65 38 21 40 53 41 33 42 52 43 34 44 37 45 51 46
REMARK SMILES IDX 70 47 35 48 36 49 50 51 71 52 38 53 22 54 23 55 31 56 24 57
REMARK SMILES IDX 25 58 29 59 32 60 26 61 27 62 30 63 28 64 54 65 55 66 63 67
REMARK SMILES IDX 56 68 57 69 61 70 64 71 58 72 59 73 62 74 60 75 39 76 40 77
REMARK SMILES IDX 48 78 41 79 42 80 46 81 49 82 43 83 44 84 47 85 45 86
REMARK H PARENT 1 17 1 18 69 39 37 50
REMARK Flexibility Score: inf
ROOT
ATOM      1  C   UNL A   1      31.750  29.814  25.956  1.00  0.00     0.275 C 
ENDROOT
BRANCH   1   2
ATOM      2  C   UNL A   1      31.310  29.486  24.524  1.00  0.00     0.275 C 
BRANCH   2   3
ATOM      3  O   UNL A   1      30.948  28.097  24.376  1.00  0.00    -0.457 OA
BRANCH   3   4
ATOM      4  C   UNL A   1      30.977  27.609  23.106  1.00  0.00     0.357 C 
ATOM      5  O   UNL A   1      30.382  28.085  22.151  1.00  0.00    -0.244 OA
BRANCH   4   6
ATOM      6  C   UNL A   1      31.945  26.472  22.999  1.00  0.00     0.151 A 
ATOM      7  C   UNL A   1      32.847  24.524  21.953  1.00  0.00     0.043 A 
ATOM      8  C   UNL A   1      31.950  25.597  21.930  1.00  0.00     0.062 A 
ATOM      9  C   UNL A   1      33.729  24.371  23.058  1.00  0.00     0.023 A 
ATOM     10  C   UNL A   1      33.630  25.317  24.096  1.00  0.00     0.073 A 
ATOM     11  C   UNL A   1      34.684  23.332  23.200  1.00  0.00     0.012 A 
ATOM     12  N   UNL A   1      32.798  26.359  24.046  1.00  0.00    -0.241 NA
ATOM     13  C   UNL A   1      34.405  25.169  25.239  1.00  0.00     0.029 A 
ATOM     14  C   UNL A   1      35.462  23.207  24.353  1.00  0.00     0.001 A 
ATOM     15  C   UNL A   1      35.309  24.118  25.386  1.00  0.00     0.002 A 
BRANCH   7  16
ATOM     16  N   UNL A   1      32.901  23.686  20.838  1.00  0.00    -0.398 N 
ATOM     17  H   UNL A   1      33.771  23.381  20.493  1.00  0.00     0.156 HD
ATOM     18  H   UNL A   1      32.068  23.398  20.398  1.00  0.00     0.156 HD
ENDBRANCH   7  16
ENDBRANCH   4   6
ENDBRANCH   3   4
ENDBRANCH   2   3
ENDBRANCH   1   2
BRANCH   1  19
ATOM     19  O   UNL A   1      33.104  30.302  26.008  1.00  0.00    -0.458 OA
BRANCH  19  20
ATOM     20  C   UNL A   1      33.332  31.277  26.920  1.00  0.00     0.338 C 
ATOM     21  O   UNL A   1      32.586  32.191  27.226  1.00  0.00    -0.246 OA
BRANCH  20  22
ATOM     22  C   UNL A   1      34.596  30.995  27.623  1.00  0.00     0.060 A 
ATOM     23  C   UNL A   1      35.516  31.993  27.939  1.00  0.00     0.016 A 
ATOM     24  C   UNL A   1      34.830  29.682  28.019  1.00  0.00     0.016 A 
ATOM     25  C   UNL A   1      36.683  31.648  28.633  1.00  0.00     0.010 A 
ATOM     26  C   UNL A   1      35.970  29.341  28.735  1.00  0.00     0.010 A 
ATOM     27  C   UNL A   1      36.919  30.318  29.036  1.00  0.00    -0.014 A 
BRANCH  27  28
ATOM     28  C   UNL A   1      38.133  29.934  29.795  1.00  0.00     0.031 A 
ATOM     29  C   UNL A   1      38.377  30.471  31.180  1.00  0.00     0.074 A 
ATOM     30  C   UNL A   1      39.051  29.147  29.204  1.00  0.00     0.049 A 
ATOM     31  N   UNL A   1      39.364  30.213  32.001  1.00  0.00    -0.248 NA
ATOM     32  C   UNL A   1      37.402  31.441  31.704  1.00  0.00     0.031 C 
ATOM     33  C   UNL A   1      38.967  28.646  27.831  1.00  0.00     0.029 A 
ATOM     34  N   UNL A   1      40.229  28.627  29.678  1.00  0.00    -0.354 N 
ATOM     35  C   UNL A   1      39.123  30.977  33.137  1.00  0.00     0.074 A 
ATOM     36  C   UNL A   1      37.938  31.763  32.873  1.00  0.00     0.031 C 
ATOM     37  C   UNL A   1      40.018  27.849  27.591  1.00  0.00     0.029 A 
ATOM     38  C   UNL A   1      40.865  27.806  28.780  1.00  0.00     0.049 A 
ATOM     39  H   UNL A   1      40.583  28.824  30.575  1.00  0.00     0.167 HD
ATOM     40  C   UNL A   1      39.808  30.990  34.305  1.00  0.00     0.037 A 
ATOM     41  C   UNL A   1      41.997  27.088  28.907  1.00  0.00     0.037 A 
ATOM     42  C   UNL A   1      40.981  30.197  34.560  1.00  0.00     0.049 A 
ATOM     43  C   UNL A   1      42.740  27.120  30.215  1.00  0.00     0.074 A 
ATOM     44  C   UNL A   1      41.714  30.092  35.730  1.00  0.00     0.029 A 
ATOM     45  N   UNL A   1      41.598  29.375  33.628  1.00  0.00    -0.354 N 
ATOM     46  N   UNL A   1      42.447  27.767  31.317  1.00  0.00    -0.248 NA
ATOM     47  C   UNL A   1      43.967  26.317  30.299  1.00  0.00     0.031 C 
ATOM     48  C   UNL A   1      42.801  29.247  35.490  1.00  0.00     0.029 A 
ATOM     49  C   UNL A   1      42.716  28.780  34.188  1.00  0.00     0.049 A 
ATOM     50  H   UNL A   1      41.287  29.237  32.703  1.00  0.00     0.167 HD
ATOM     51  C   UNL A   1      43.437  27.434  32.231  1.00  0.00     0.074 A 
ATOM     52  C   UNL A   1      44.329  26.511  31.561  1.00  0.00     0.031 C 
ATOM     53  C   UNL A   1      43.594  27.861  33.508  1.00  0.00     0.037 A 
BRANCH  40  54
ATOM     54  C   UNL A   1      39.291  31.862  35.415  1.00  0.00     0.064 A 
ATOM     55  C   UNL A   1      38.434  31.352  36.402  1.00  0.00     0.173 A 
ATOM     56  C   UNL A   1      39.718  33.192  35.545  1.00  0.00     0.173 A 
ATOM     57  F   UNL A   1      37.993  30.087  36.326  1.00  0.00    -0.203 F 
ATOM     58  C   UNL A   1      38.010  32.145  37.466  1.00  0.00     0.198 A 
ATOM     59  C   UNL A   1      39.317  33.973  36.626  1.00  0.00     0.198 A 
ATOM     60  F   UNL A   1      40.547  33.729  34.635  1.00  0.00    -0.203 F 
ATOM     61  F   UNL A   1      37.167  31.643  38.379  1.00  0.00    -0.200 F 
ATOM     62  C   UNL A   1      38.462  33.451  37.583  1.00  0.00     0.200 A 
ATOM     63  F   UNL A   1      39.770  35.228  36.750  1.00  0.00    -0.200 F 
ATOM     64  F   UNL A   1      38.072  34.204  38.621  1.00  0.00    -0.200 F 
ENDBRANCH  40  54
BRANCH  41  65
ATOM     65  C   UNL A   1      42.450  26.229  27.784  1.00  0.00     0.064 A 
ATOM     66  C   UNL A   1      41.874  24.969  27.569  1.00  0.00     0.173 A 
ATOM     67  C   UNL A   1      43.431  26.659  26.878  1.00  0.00     0.173 A 
ATOM     68  F   UNL A   1      40.944  24.505  28.417  1.00  0.00    -0.203 F 
ATOM     69  C   UNL A   1      42.269  24.168  26.499  1.00  0.00     0.198 A 
ATOM     70  C   UNL A   1      43.805  25.871  25.792  1.00  0.00     0.198 A 
ATOM     71  F   UNL A   1      44.008  27.861  27.035  1.00  0.00    -0.203 F 
ATOM     72  F   UNL A   1      41.726  22.955  26.337  1.00  0.00    -0.200 F 
ATOM     73  C   UNL A   1      43.227  24.625  25.607  1.00  0.00     0.200 A 
ATOM     74  F   UNL A   1      44.717  26.323  24.921  1.00  0.00    -0.200 F 
ATOM     75  F   UNL A   1      43.594  23.861  24.568  1.00  0.00    -0.200 F 
ENDBRANCH  41  65
BRANCH  53  76
ATOM     76  C   UNL A   1      44.767  27.329  34.279  1.00  0.00     0.064 A 
ATOM     77  C   UNL A   1      45.984  28.024  34.331  1.00  0.00     0.173 A 
ATOM     78  C   UNL A   1      44.647  26.155  35.038  1.00  0.00     0.173 A 
ATOM     79  F   UNL A   1      46.152  29.145  33.613  1.00  0.00    -0.203 F 
ATOM     80  C   UNL A   1      47.044  27.555  35.101  1.00  0.00     0.198 A 
ATOM     81  C   UNL A   1      45.699  25.705  35.832  1.00  0.00     0.198 A 
ATOM     82  F   UNL A   1      43.502  25.458  35.031  1.00  0.00    -0.203 F 
ATOM     83  F   UNL A   1      48.210  28.215  35.107  1.00  0.00    -0.200 F 
ATOM     84  C   UNL A   1      46.896  26.402  35.861  1.00  0.00     0.200 A 
ATOM     85  F   UNL A   1      45.548  24.603  36.579  1.00  0.00    -0.200 F 
ATOM     86  F   UNL A   1      47.911  25.963  36.617  1.00  0.00    -0.200 F 
ENDBRANCH  53  76
ENDBRANCH  27  28
ENDBRANCH  20  22
ENDBRANCH  19  20
ENDBRANCH   1  19
TORSDOF 12
ENDMDL
MODEL 3
REMARK VINA RESULT:     -10.7      3.075      9.280
REMARK SMILES Nc1cc(C(=O)OCCOC(=O)c2ccc(-c3c4nc(c(-c5c(F)c(F)c(F)c(F)c5F)c5ccc([nH]5)c(-c5c(F)c(F)c(F)c(F)c5F)c5nc(c(-c6c(F)c(F)c(F)c(F)c6F)c6ccc3[nH]6)C=C5)C=C4)cc2)nc2ccccc12
REMARK SMILES IDX 9 1 8 2 7 3 5 4 6 5 4 6 2 7 3 8 82 9 77 10 81 11 76 12 78 13
REMARK SMILES IDX 80 14 79 15 1 16 10 19 11 20 12 21 13 22 14 23 75 24 15 25
REMARK SMILES IDX 74 26 16 27 17 28 18 29 68 30 19 31 73 32 67 33 69 34 20 35
REMARK SMILES IDX 72 36 66 37 65 38 21 40 53 41 33 42 52 43 34 44 37 45 51 46
REMARK SMILES IDX 70 47 35 48 36 49 50 51 71 52 38 53 22 54 23 55 31 56 24 57
REMARK SMILES IDX 25 58 29 59 32 60 26 61 27 62 30 63 28 64 54 65 55 66 63 67
REMARK SMILES IDX 56 68 57 69 61 70 64 71 58 72 59 73 62 74 60 75 39 76 40 77
REMARK SMILES IDX 48 78 41 79 42 80 46 81 49 82 43 83 44 84 47 85 45 86
REMARK H PARENT 1 17 1 18 69 39 37 50
REMARK Flexibility Score: inf
ROOT
ATOM      1  C   UNL A   1      34.536  32.788  27.925  1.00  0.00     0.275 C 
ENDROOT
BRANCH   1   2
ATOM      2  C   UNL A   1      33.501  33.906  27.742  1.00  0.00     0.275 C 
BRANCH   2   3
ATOM      3  O   UNL A   1      32.721  34.119  28.936  1.00  0.00    -0.457 OA
BRANCH   3   4
ATOM      4  C   UNL A   1      32.883  35.327  29.542  1.00  0.00     0.357 C 
ATOM      5  O   UNL A   1      32.495  36.398  29.100  1.00  0.00    -0.244 OA
BRANCH   4   6
ATOM      6  C   UNL A   1      33.495  35.161  30.898  1.00  0.00     0.151 A 
ATOM      7  C   UNL A   1      34.029  35.894  33.107  1.00  0.00     0.043 A 
ATOM      8  C   UNL A   1      33.363  36.107  31.896  1.00  0.00     0.062 A 
ATOM      9  C   UNL A   1      34.806  34.714  33.282  1.00  0.00     0.023 A 
ATOM     10  C   UNL A   1      34.877  33.824  32.194  1.00  0.00     0.073 A 
ATOM     11  C   UNL A   1      35.524  34.380  34.458  1.00  0.00     0.012 A 
ATOM     12  N   UNL A   1      34.206  34.018  31.057  1.00  0.00    -0.241 NA
ATOM     13  C   UNL A   1      35.689  32.700  32.277  1.00  0.00     0.029 A 
ATOM     14  C   UNL A   1      36.326  33.239  34.524  1.00  0.00     0.001 A 
ATOM     15  C   UNL A   1      36.425  32.405  33.422  1.00  0.00     0.002 A 
BRANCH   7  16
ATOM     16  N   UNL A   1      33.834  36.813  34.138  1.00  0.00    -0.398 N 
ATOM     17  H   UNL A   1      32.964  36.862  34.596  1.00  0.00     0.156 HD
ATOM     18  H   UNL A   1      34.567  37.413  34.408  1.00  0.00     0.156 HD
ENDBRANCH   7  16
ENDBRANCH   4   6
ENDBRANCH   3   4
ENDBRANCH   2   3
ENDBRANCH   1   2
BRANCH   1  19
ATOM     19  O   UNL A   1      33.920  31.525  28.236  1.00  0.00    -0.458 OA
BRANCH  19  20
ATOM     20  C   UNL A   1      34.375  30.469  27.521  1.00  0.00     0.338 C 
ATOM     21  O   UNL A   1      33.863  29.970  26.534  1.00  0.00    -0.246 OA
BRANCH  20  22
ATOM     22  C   UNL A   1      35.698  30.072  28.035  1.00  0.00     0.060 A 
ATOM     23  C   UNL A   1      36.859  30.176  27.273  1.00  0.00     0.016 A 
ATOM     24  C   UNL A   1      35.766  29.628  29.352  1.00  0.00     0.016 A 
ATOM     25  C   UNL A   1      38.084  29.803  27.844  1.00  0.00     0.010 A 
ATOM     26  C   UNL A   1      36.981  29.289  29.932  1.00  0.00     0.010 A 
ATOM     27  C   UNL A   1      38.153  29.355  29.178  1.00  0.00    -0.014 A 
BRANCH  27  28
ATOM     28  C   UNL A   1      39.440  28.982  29.813  1.00  0.00     0.031 A 
ATOM     29  C   UNL A   1      39.941  29.715  31.028  1.00  0.00     0.074 A 
ATOM     30  C   UNL A   1      40.190  28.017  29.249  1.00  0.00     0.049 A 
ATOM     31  N   UNL A   1      41.024  29.498  31.732  1.00  0.00    -0.248 NA
ATOM     32  C   UNL A   1      39.138  30.854  31.502  1.00  0.00     0.031 C 
ATOM     33  C   UNL A   1      39.851  27.305  28.016  1.00  0.00     0.029 A 
ATOM     34  N   UNL A   1      41.386  27.466  29.635  1.00  0.00    -0.354 N 
ATOM     35  C   UNL A   1      41.025  30.462  32.733  1.00  0.00     0.074 A 
ATOM     36  C   UNL A   1      39.876  31.310  32.505  1.00  0.00     0.031 C 
ATOM     37  C   UNL A   1      40.788  26.375  27.775  1.00  0.00     0.029 A 
ATOM     38  C   UNL A   1      41.807  26.446  28.818  1.00  0.00     0.049 A 
ATOM     39  H   UNL A   1      41.892  27.773  30.421  1.00  0.00     0.167 HD
ATOM     40  C   UNL A   1      41.887  30.601  33.769  1.00  0.00     0.037 A 
ATOM     41  C   UNL A   1      42.888  25.647  28.909  1.00  0.00     0.037 A 
ATOM     42  C   UNL A   1      43.022  29.746  33.993  1.00  0.00     0.049 A 
ATOM     43  C   UNL A   1      43.830  25.822  30.070  1.00  0.00     0.074 A 
ATOM     44  C   UNL A   1      43.922  29.764  35.045  1.00  0.00     0.029 A 
ATOM     45  N   UNL A   1      43.419  28.721  33.146  1.00  0.00    -0.354 N 
ATOM     46  N   UNL A   1      43.765  26.670  31.067  1.00  0.00    -0.248 NA
ATOM     47  C   UNL A   1      44.991  24.923  30.121  1.00  0.00     0.031 C 
ATOM     48  C   UNL A   1      44.890  28.784  34.808  1.00  0.00     0.029 A 
ATOM     49  C   UNL A   1      44.564  28.116  33.638  1.00  0.00     0.049 A 
ATOM     50  H   UNL A   1      42.955  28.462  32.316  1.00  0.00     0.167 HD
ATOM     51  C   UNL A   1      44.860  26.396  31.874  1.00  0.00     0.074 A 
ATOM     52  C   UNL A   1      45.562  25.287  31.262  1.00  0.00     0.031 C 
ATOM     53  C   UNL A   1      45.250  27.012  33.017  1.00  0.00     0.037 A 
BRANCH  40  54
ATOM     54  C   UNL A   1      41.620  31.695  34.766  1.00  0.00     0.064 A 
ATOM     55  C   UNL A   1      42.240  32.948  34.654  1.00  0.00     0.173 A 
ATOM     56  C   UNL A   1      40.676  31.521  35.789  1.00  0.00     0.173 A 
ATOM     57  F   UNL A   1      43.152  33.168  33.695  1.00  0.00    -0.203 F 
ATOM     58  C   UNL A   1      41.939  33.981  35.539  1.00  0.00     0.198 A 
ATOM     59  C   UNL A   1      40.354  32.565  36.653  1.00  0.00     0.198 A 
ATOM     60  F   UNL A   1      40.044  30.346  35.936  1.00  0.00    -0.203 F 
ATOM     61  F   UNL A   1      42.568  35.159  35.430  1.00  0.00    -0.200 F 
ATOM     62  C   UNL A   1      40.988  33.791  36.531  1.00  0.00     0.200 A 
ATOM     63  F   UNL A   1      39.421  32.388  37.598  1.00  0.00    -0.200 F 
ATOM     64  F   UNL A   1      40.683  34.794  37.366  1.00  0.00    -0.200 F 
ENDBRANCH  40  54
BRANCH  41  65
ATOM     65  C   UNL A   1      43.089  24.571  27.907  1.00  0.00     0.064 A 
ATOM     66  C   UNL A   1      42.657  23.262  28.164  1.00  0.00     0.173 A 
ATOM     67  C   UNL A   1      43.677  24.829  26.659  1.00  0.00     0.173 A 
ATOM     68  F   UNL A   1      42.105  22.961  29.350  1.00  0.00    -0.203 F 
ATOM     69  C   UNL A   1      42.813  22.251  27.218  1.00  0.00     0.198 A 
ATOM     70  C   UNL A   1      43.806  23.825  25.702  1.00  0.00     0.198 A 
ATOM     71  F   UNL A   1      44.100  26.066  26.360  1.00  0.00    -0.203 F 
ATOM     72  F   UNL A   1      42.421  21.003  27.503  1.00  0.00    -0.200 F 
ATOM     73  C   UNL A   1      43.378  22.536  25.985  1.00  0.00     0.200 A 
ATOM     74  F   UNL A   1      44.336  24.108  24.505  1.00  0.00    -0.200 F 
ATOM     75  F   UNL A   1      43.513  21.567  25.068  1.00  0.00    -0.200 F 
ENDBRANCH  41  65
BRANCH  53  76
ATOM     76  C   UNL A   1      46.488  26.499  33.695  1.00  0.00     0.064 A 
ATOM     77  C   UNL A   1      47.749  27.051  33.429  1.00  0.00     0.173 A 
ATOM     78  C   UNL A   1      46.400  25.502  34.678  1.00  0.00     0.173 A 
ATOM     79  F   UNL A   1      47.887  27.999  32.489  1.00  0.00    -0.203 F 
ATOM     80  C   UNL A   1      48.880  26.612  34.111  1.00  0.00     0.198 A 
ATOM     81  C   UNL A   1      47.528  25.088  35.381  1.00  0.00     0.198 A 
ATOM     82  F   UNL A   1      45.216  24.948  34.978  1.00  0.00    -0.203 F 
ATOM     83  F   UNL A   1      50.081  27.128  33.815  1.00  0.00    -0.200 F 
ATOM     84  C   UNL A   1      48.767  25.640  35.095  1.00  0.00     0.200 A 
ATOM     85  F   UNL A   1      47.414  24.163  36.343  1.00  0.00    -0.200 F 
ATOM     86  F   UNL A   1      49.854  25.234  35.764  1.00  0.00    -0.200 F 
ENDBRANCH  53  76
ENDBRANCH  27  28
ENDBRANCH  20  22
ENDBRANCH  19  20
ENDBRANCH   1  19
TORSDOF 12
ENDMDL
