MODEL 1
REMARK VINA RESULT:     -11.4      0.000      0.000
REMARK SMILES Cc1n[nH]c(CCC(=O)OCCOC(=O)c2ccc(-c3c4nc(c(-c5c(F)c(F)c(F)c(F)c5F)c5ccc([nH]5)c(-c5c(F)c(F)c(F)c(F)c5F)c5nc(c(-c6c(F)c(F)c(F)c(F)c6F)c6ccc3[nH]6)C=C5)C=C4)cc2)c1C
REMARK SMILES IDX 11 1 10 2 8 3 9 4 7 5 6 6 5 7 1 8 2 9 3 10 79 11 4 12 80 13
REMARK SMILES IDX 12 15 13 16 14 17 15 18 16 19 17 20 78 21 18 22 77 23 19 24
REMARK SMILES IDX 20 25 21 26 71 27 22 28 76 29 70 30 72 31 23 32 75 33 69 34
REMARK SMILES IDX 68 35 24 37 56 38 36 39 55 40 37 41 40 42 54 43 73 44 38 45
REMARK SMILES IDX 39 46 53 48 74 49 41 50 25 51 26 52 34 53 27 54 28 55 32 56
REMARK SMILES IDX 35 57 29 58 30 59 33 60 31 61 57 62 58 63 66 64 59 65 60 66
REMARK SMILES IDX 64 67 67 68 61 69 62 70 65 71 63 72 42 73 43 74 51 75 44 76
REMARK SMILES IDX 45 77 49 78 52 79 46 80 47 81 50 82 48 83
REMARK H PARENT 4 14 72 36 40 47
REMARK Flexibility Score: inf
ROOT
ATOM      1  C   UNL A   1      33.688  30.797  27.305  1.00  0.00     0.274 C 
ENDROOT
BRANCH   1   2
ATOM      2  O   UNL A   1      33.263  29.422  27.386  1.00  0.00    -0.462 OA
BRANCH   2   3
ATOM      3  C   UNL A   1      33.208  28.729  26.219  1.00  0.00     0.306 C 
ATOM      4  O   UNL A   1      33.391  27.517  26.127  1.00  0.00    -0.252 OA
BRANCH   3   5
ATOM      5  C   UNL A   1      32.984  29.603  24.998  1.00  0.00     0.129 C 
BRANCH   5   6
ATOM      6  C   UNL A   1      32.932  28.944  23.613  1.00  0.00     0.067 C 
BRANCH   6   7
ATOM      7  C   UNL A   1      31.564  28.947  23.023  1.00  0.00     0.039 A 
ATOM      8  C   UNL A   1      27.929  28.843  22.716  1.00  0.00     0.069 C 
ATOM      9  C   UNL A   1      29.400  28.962  22.590  1.00  0.00     0.062 A 
ATOM     10  N   UNL A   1      29.936  29.823  21.720  1.00  0.00    -0.181 NA
ATOM     11  C   UNL A   1      30.394  28.282  23.346  1.00  0.00    -0.007 A 
ATOM     12  N   UNL A   1      31.248  29.750  21.963  1.00  0.00    -0.282 N 
ATOM     13  C   UNL A   1      30.180  27.196  24.333  1.00  0.00     0.048 C 
ATOM     14  H   UNL A   1      31.923  30.229  21.429  1.00  0.00     0.190 HD
ENDBRANCH   6   7
ENDBRANCH   5   6
ENDBRANCH   3   5
ENDBRANCH   2   3
ENDBRANCH   1   2
BRANCH   1  15
ATOM     15  C   UNL A   1      34.998  31.079  28.043  1.00  0.00     0.275 C 
BRANCH  15  16
ATOM     16  O   UNL A   1      36.170  30.637  27.346  1.00  0.00    -0.458 OA
BRANCH  16  17
ATOM     17  C   UNL A   1      37.244  30.493  28.141  1.00  0.00     0.338 C 
ATOM     18  O   UNL A   1      37.639  31.276  29.001  1.00  0.00    -0.246 OA
BRANCH  17  19
ATOM     19  C   UNL A   1      38.137  29.427  27.722  1.00  0.00     0.060 A 
ATOM     20  C   UNL A   1      38.115  28.262  28.505  1.00  0.00     0.016 A 
ATOM     21  C   UNL A   1      39.218  29.754  26.900  1.00  0.00     0.016 A 
ATOM     22  C   UNL A   1      39.256  27.499  28.595  1.00  0.00     0.010 A 
ATOM     23  C   UNL A   1      40.360  28.991  26.995  1.00  0.00     0.010 A 
ATOM     24  C   UNL A   1      40.385  27.914  27.890  1.00  0.00    -0.014 A 
BRANCH  24  25
ATOM     25  C   UNL A   1      41.617  27.177  28.095  1.00  0.00     0.031 A 
ATOM     26  C   UNL A   1      42.255  27.351  29.425  1.00  0.00     0.074 A 
ATOM     27  C   UNL A   1      42.017  26.243  27.213  1.00  0.00     0.049 A 
ATOM     28  N   UNL A   1      43.496  27.581  29.711  1.00  0.00    -0.248 NA
ATOM     29  C   UNL A   1      41.365  27.300  30.597  1.00  0.00     0.031 C 
ATOM     30  C   UNL A   1      41.286  25.736  26.048  1.00  0.00     0.029 A 
ATOM     31  N   UNL A   1      43.102  25.429  27.284  1.00  0.00    -0.354 N 
ATOM     32  C   UNL A   1      43.570  27.581  31.102  1.00  0.00     0.074 A 
ATOM     33  C   UNL A   1      42.221  27.502  31.595  1.00  0.00     0.031 C 
ATOM     34  C   UNL A   1      41.821  24.550  25.684  1.00  0.00     0.029 A 
ATOM     35  C   UNL A   1      42.978  24.280  26.524  1.00  0.00     0.049 A 
ATOM     36  H   UNL A   1      43.898  25.635  27.825  1.00  0.00     0.167 HD
ATOM     37  C   UNL A   1      44.743  27.479  31.780  1.00  0.00     0.037 A 
ATOM     38  C   UNL A   1      43.694  23.143  26.682  1.00  0.00     0.037 A 
ATOM     39  C   UNL A   1      45.877  27.820  30.974  1.00  0.00     0.049 A 
ATOM     40  C   UNL A   1      44.897  23.464  27.494  1.00  0.00     0.074 A 
ATOM     41  C   UNL A   1      46.277  28.963  30.309  1.00  0.00     0.029 A 
ATOM     42  N   UNL A   1      46.674  26.815  30.486  1.00  0.00    -0.354 N 
ATOM     43  N   UNL A   1      45.896  24.198  27.086  1.00  0.00    -0.248 NA
ATOM     44  C   UNL A   1      44.800  23.293  28.938  1.00  0.00     0.031 C 
ATOM     45  C   UNL A   1      46.931  28.500  29.131  1.00  0.00     0.029 A 
ATOM     46  C   UNL A   1      46.892  27.106  29.163  1.00  0.00     0.049 A 
ATOM     47  H   UNL A   1      47.021  26.041  30.985  1.00  0.00     0.167 HD
ATOM     48  C   UNL A   1      46.312  24.893  28.214  1.00  0.00     0.074 A 
ATOM     49  C   UNL A   1      45.669  24.223  29.338  1.00  0.00     0.031 C 
ATOM     50  C   UNL A   1      46.913  26.116  28.116  1.00  0.00     0.037 A 
BRANCH  37  51
ATOM     51  C   UNL A   1      44.861  26.822  33.123  1.00  0.00     0.064 A 
ATOM     52  C   UNL A   1      44.572  25.455  33.269  1.00  0.00     0.173 A 
ATOM     53  C   UNL A   1      45.007  27.555  34.321  1.00  0.00     0.173 A 
ATOM     54  F   UNL A   1      44.367  24.682  32.192  1.00  0.00    -0.203 F 
ATOM     55  C   UNL A   1      44.415  24.869  34.528  1.00  0.00     0.198 A 
ATOM     56  C   UNL A   1      44.909  26.957  35.575  1.00  0.00     0.198 A 
ATOM     57  F   UNL A   1      45.149  28.887  34.318  1.00  0.00    -0.203 F 
ATOM     58  F   UNL A   1      44.040  23.587  34.623  1.00  0.00    -0.200 F 
ATOM     59  C   UNL A   1      44.589  25.620  35.679  1.00  0.00     0.200 A 
ATOM     60  F   UNL A   1      45.059  27.704  36.677  1.00  0.00    -0.200 F 
ATOM     61  F   UNL A   1      44.400  25.068  36.885  1.00  0.00    -0.200 F 
ENDBRANCH  37  51
BRANCH  38  62
ATOM     62  C   UNL A   1      43.218  21.759  26.453  1.00  0.00     0.064 A 
ATOM     63  C   UNL A   1      43.833  20.927  25.509  1.00  0.00     0.173 A 
ATOM     64  C   UNL A   1      42.282  21.147  27.313  1.00  0.00     0.173 A 
ATOM     65  F   UNL A   1      44.783  21.415  24.697  1.00  0.00    -0.203 F 
ATOM     66  C   UNL A   1      43.522  19.565  25.421  1.00  0.00     0.198 A 
ATOM     67  C   UNL A   1      41.956  19.796  27.212  1.00  0.00     0.198 A 
ATOM     68  F   UNL A   1      41.726  21.827  28.327  1.00  0.00    -0.203 F 
ATOM     69  F   UNL A   1      44.164  18.789  24.538  1.00  0.00    -0.200 F 
ATOM     70  C   UNL A   1      42.582  19.003  26.270  1.00  0.00     0.200 A 
ATOM     71  F   UNL A   1      41.073  19.259  28.065  1.00  0.00    -0.200 F 
ATOM     72  F   UNL A   1      42.308  17.692  26.209  1.00  0.00    -0.200 F 
ENDBRANCH  38  62
BRANCH  50  73
ATOM     73  C   UNL A   1      47.341  26.586  26.757  1.00  0.00     0.064 A 
ATOM     74  C   UNL A   1      48.592  26.275  26.198  1.00  0.00     0.173 A 
ATOM     75  C   UNL A   1      46.401  27.215  25.931  1.00  0.00     0.173 A 
ATOM     76  F   UNL A   1      49.498  25.572  26.888  1.00  0.00    -0.203 F 
ATOM     77  C   UNL A   1      48.903  26.623  24.886  1.00  0.00     0.198 A 
ATOM     78  C   UNL A   1      46.702  27.530  24.608  1.00  0.00     0.198 A 
ATOM     79  F   UNL A   1      45.167  27.473  26.391  1.00  0.00    -0.203 F 
ATOM     80  F   UNL A   1      50.107  26.318  24.378  1.00  0.00    -0.200 F 
ATOM     81  C   UNL A   1      47.955  27.242  24.089  1.00  0.00     0.200 A 
ATOM     82  F   UNL A   1      45.764  28.079  23.823  1.00  0.00    -0.200 F 
ATOM     83  F   UNL A   1      48.237  27.535  22.812  1.00  0.00    -0.200 F 
ENDBRANCH  50  73
ENDBRANCH  24  25
ENDBRANCH  17  19
ENDBRANCH  16  17
ENDBRANCH  15  16
ENDBRANCH   1  15
TORSDOF 13
ENDMDL
MODEL 2
REMARK VINA RESULT:     -11.4      4.012      6.303
REMARK SMILES Cc1n[nH]c(CCC(=O)OCCOC(=O)c2ccc(-c3c4nc(c(-c5c(F)c(F)c(F)c(F)c5F)c5ccc([nH]5)c(-c5c(F)c(F)c(F)c(F)c5F)c5nc(c(-c6c(F)c(F)c(F)c(F)c6F)c6ccc3[nH]6)C=C5)C=C4)cc2)c1C
REMARK SMILES IDX 11 1 10 2 8 3 9 4 7 5 6 6 5 7 1 8 2 9 3 10 79 11 4 12 80 13
REMARK SMILES IDX 12 15 13 16 14 17 15 18 16 19 17 20 78 21 18 22 77 23 19 24
REMARK SMILES IDX 20 25 21 26 71 27 22 28 76 29 70 30 72 31 23 32 75 33 69 34
REMARK SMILES IDX 68 35 24 37 56 38 36 39 55 40 37 41 40 42 54 43 73 44 38 45
REMARK SMILES IDX 39 46 53 48 74 49 41 50 25 51 26 52 34 53 27 54 28 55 32 56
REMARK SMILES IDX 35 57 29 58 30 59 33 60 31 61 57 62 58 63 66 64 59 65 60 66
REMARK SMILES IDX 64 67 67 68 61 69 62 70 65 71 63 72 42 73 43 74 51 75 44 76
REMARK SMILES IDX 45 77 49 78 52 79 46 80 47 81 50 82 48 83
REMARK H PARENT 4 14 72 36 40 47
REMARK Flexibility Score: inf
ROOT
ATOM      1  C   UNL A   1      33.312  34.956  28.776  1.00  0.00     0.274 C 
ENDROOT
BRANCH   1   2
ATOM      2  O   UNL A   1      33.617  34.863  30.182  1.00  0.00    -0.462 OA
BRANCH   2   3
ATOM      3  C   UNL A   1      33.006  35.757  31.001  1.00  0.00     0.306 C 
ATOM      4  O   UNL A   1      32.448  36.780  30.613  1.00  0.00    -0.252 OA
BRANCH   3   5
ATOM      5  C   UNL A   1      33.147  35.429  32.477  1.00  0.00     0.129 C 
BRANCH   5   6
ATOM      6  C   UNL A   1      34.339  36.004  33.254  1.00  0.00     0.067 C 
BRANCH   6   7
ATOM      7  C   UNL A   1      35.235  34.947  33.802  1.00  0.00     0.039 A 
ATOM      8  C   UNL A   1      38.243  33.079  34.684  1.00  0.00     0.069 C 
ATOM      9  C   UNL A   1      36.901  33.673  34.490  1.00  0.00     0.062 A 
ATOM     10  N   UNL A   1      35.986  33.608  35.463  1.00  0.00    -0.181 NA
ATOM     11  C   UNL A   1      36.425  34.396  33.361  1.00  0.00    -0.007 A 
ATOM     12  N   UNL A   1      34.968  34.337  34.996  1.00  0.00    -0.282 N 
ATOM     13  C   UNL A   1      37.123  34.593  32.068  1.00  0.00     0.048 C 
ATOM     14  H   UNL A   1      34.107  34.425  35.466  1.00  0.00     0.190 HD
ENDBRANCH   6   7
ENDBRANCH   5   6
ENDBRANCH   3   5
ENDBRANCH   2   3
ENDBRANCH   1   2
BRANCH   1  15
ATOM     15  C   UNL A   1      33.622  33.677  27.995  1.00  0.00     0.275 C 
BRANCH  15  16
ATOM     16  O   UNL A   1      34.919  33.127  28.262  1.00  0.00    -0.458 OA
BRANCH  16  17
ATOM     17  C   UNL A   1      34.936  31.783  28.287  1.00  0.00     0.338 C 
ATOM     18  O   UNL A   1      34.048  31.024  27.908  1.00  0.00    -0.246 OA
BRANCH  17  19
ATOM     19  C   UNL A   1      36.011  31.232  29.093  1.00  0.00     0.060 A 
ATOM     20  C   UNL A   1      37.038  32.124  29.442  1.00  0.00     0.016 A 
ATOM     21  C   UNL A   1      36.191  29.847  29.099  1.00  0.00     0.016 A 
ATOM     22  C   UNL A   1      38.307  31.633  29.638  1.00  0.00     0.010 A 
ATOM     23  C   UNL A   1      37.463  29.359  29.291  1.00  0.00     0.010 A 
ATOM     24  C   UNL A   1      38.515  30.261  29.493  1.00  0.00    -0.014 A 
BRANCH  24  25
ATOM     25  C   UNL A   1      39.877  29.773  29.573  1.00  0.00     0.031 A 
ATOM     26  C   UNL A   1      40.453  29.698  30.940  1.00  0.00     0.074 A 
ATOM     27  C   UNL A   1      40.479  29.229  28.500  1.00  0.00     0.049 A 
ATOM     28  N   UNL A   1      41.611  30.096  31.360  1.00  0.00    -0.248 NA
ATOM     29  C   UNL A   1      39.590  29.136  31.992  1.00  0.00     0.031 C 
ATOM     30  C   UNL A   1      39.886  28.925  27.195  1.00  0.00     0.029 A 
ATOM     31  N   UNL A   1      41.717  28.674  28.420  1.00  0.00    -0.354 N 
ATOM     32  C   UNL A   1      41.675  29.723  32.700  1.00  0.00     0.074 A 
ATOM     33  C   UNL A   1      40.374  29.227  33.062  1.00  0.00     0.031 C 
ATOM     34  C   UNL A   1      40.672  28.028  26.559  1.00  0.00     0.029 A 
ATOM     35  C   UNL A   1      41.855  27.784  27.370  1.00  0.00     0.049 A 
ATOM     36  H   UNL A   1      42.445  28.884  29.049  1.00  0.00     0.167 HD
ATOM     37  C   UNL A   1      42.837  29.686  33.403  1.00  0.00     0.037 A 
ATOM     38  C   UNL A   1      42.804  26.826  27.262  1.00  0.00     0.037 A 
ATOM     39  C   UNL A   1      43.873  30.468  32.799  1.00  0.00     0.049 A 
ATOM     40  C   UNL A   1      43.901  27.153  28.210  1.00  0.00     0.074 A 
ATOM     41  C   UNL A   1      44.014  31.810  32.496  1.00  0.00     0.029 A 
ATOM     42  N   UNL A   1      44.876  29.831  32.111  1.00  0.00    -0.354 N 
ATOM     43  N   UNL A   1      44.715  28.165  28.085  1.00  0.00    -0.248 NA
ATOM     44  C   UNL A   1      43.836  26.569  29.544  1.00  0.00     0.031 C 
ATOM     45  C   UNL A   1      44.761  31.842  31.284  1.00  0.00     0.029 A 
ATOM     46  C   UNL A   1      45.031  30.520  30.935  1.00  0.00     0.049 A 
ATOM     47  H   UNL A   1      45.382  29.040  32.404  1.00  0.00     0.167 HD
ATOM     48  C   UNL A   1      44.961  28.589  29.384  1.00  0.00     0.074 A 
ATOM     49  C   UNL A   1      44.475  27.512  30.239  1.00  0.00     0.031 C 
ATOM     50  C   UNL A   1      45.277  29.888  29.662  1.00  0.00     0.037 A 
BRANCH  37  51
ATOM     51  C   UNL A   1      43.090  28.719  34.523  1.00  0.00     0.064 A 
ATOM     52  C   UNL A   1      43.481  29.190  35.788  1.00  0.00     0.173 A 
ATOM     53  C   UNL A   1      43.205  27.327  34.318  1.00  0.00     0.173 A 
ATOM     54  F   UNL A   1      43.455  30.502  36.065  1.00  0.00    -0.203 F 
ATOM     55  C   UNL A   1      43.974  28.328  36.770  1.00  0.00     0.198 A 
ATOM     56  C   UNL A   1      43.641  26.462  35.318  1.00  0.00     0.198 A 
ATOM     57  F   UNL A   1      42.993  26.773  33.117  1.00  0.00    -0.203 F 
ATOM     58  F   UNL A   1      44.431  28.828  37.926  1.00  0.00    -0.200 F 
ATOM     59  C   UNL A   1      44.049  26.965  36.536  1.00  0.00     0.200 A 
ATOM     60  F   UNL A   1      43.727  25.149  35.066  1.00  0.00    -0.200 F 
ATOM     61  F   UNL A   1      44.560  26.143  37.462  1.00  0.00    -0.200 F 
ENDBRANCH  37  51
BRANCH  38  62
ATOM     62  C   UNL A   1      42.647  25.493  26.635  1.00  0.00     0.064 A 
ATOM     63  C   UNL A   1      43.422  25.114  25.532  1.00  0.00     0.173 A 
ATOM     64  C   UNL A   1      41.882  24.476  27.242  1.00  0.00     0.173 A 
ATOM     65  F   UNL A   1      44.229  26.006  24.937  1.00  0.00    -0.203 F 
ATOM     66  C   UNL A   1      43.422  23.799  25.054  1.00  0.00     0.198 A 
ATOM     67  C   UNL A   1      41.865  23.170  26.755  1.00  0.00     0.198 A 
ATOM     68  F   UNL A   1      41.199  24.705  28.375  1.00  0.00    -0.203 F 
ATOM     69  F   UNL A   1      44.212  23.461  24.026  1.00  0.00    -0.200 F 
ATOM     70  C   UNL A   1      42.642  22.830  25.665  1.00  0.00     0.200 A 
ATOM     71  F   UNL A   1      41.134  22.236  27.379  1.00  0.00    -0.200 F 
ATOM     72  F   UNL A   1      42.668  21.563  25.230  1.00  0.00    -0.200 F 
ENDBRANCH  38  62
BRANCH  50  73
ATOM     73  C   UNL A   1      45.599  30.799  28.514  1.00  0.00     0.064 A 
ATOM     74  C   UNL A   1      44.616  31.485  27.781  1.00  0.00     0.173 A 
ATOM     75  C   UNL A   1      46.939  31.124  28.263  1.00  0.00     0.173 A 
ATOM     76  F   UNL A   1      43.316  31.313  28.046  1.00  0.00    -0.203 F 
ATOM     77  C   UNL A   1      44.962  32.418  26.806  1.00  0.00     0.198 A 
ATOM     78  C   UNL A   1      47.281  32.083  27.313  1.00  0.00     0.198 A 
ATOM     79  F   UNL A   1      47.916  30.552  28.983  1.00  0.00    -0.203 F 
ATOM     80  F   UNL A   1      44.004  33.055  26.116  1.00  0.00    -0.200 F 
ATOM     81  C   UNL A   1      46.294  32.722  26.579  1.00  0.00     0.200 A 
ATOM     82  F   UNL A   1      48.567  32.416  27.135  1.00  0.00    -0.200 F 
ATOM     83  F   UNL A   1      46.626  33.654  25.674  1.00  0.00    -0.200 F 
ENDBRANCH  50  73
ENDBRANCH  24  25
ENDBRANCH  17  19
ENDBRANCH  16  17
ENDBRANCH  15  16
ENDBRANCH   1  15
TORSDOF 13
ENDMDL
MODEL 3
REMARK VINA RESULT:     -11.2      5.331     11.226
REMARK SMILES Cc1n[nH]c(CCC(=O)OCCOC(=O)c2ccc(-c3c4nc(c(-c5c(F)c(F)c(F)c(F)c5F)c5ccc([nH]5)c(-c5c(F)c(F)c(F)c(F)c5F)c5nc(c(-c6c(F)c(F)c(F)c(F)c6F)c6ccc3[nH]6)C=C5)C=C4)cc2)c1C
REMARK SMILES IDX 11 1 10 2 8 3 9 4 7 5 6 6 5 7 1 8 2 9 3 10 79 11 4 12 80 13
REMARK SMILES IDX 12 15 13 16 14 17 15 18 16 19 17 20 78 21 18 22 77 23 19 24
REMARK SMILES IDX 20 25 21 26 71 27 22 28 76 29 70 30 72 31 23 32 75 33 69 34
REMARK SMILES IDX 68 35 24 37 56 38 36 39 55 40 37 41 40 42 54 43 73 44 38 45
REMARK SMILES IDX 39 46 53 48 74 49 41 50 25 51 26 52 34 53 27 54 28 55 32 56
REMARK SMILES IDX 35 57 29 58 30 59 33 60 31 61 57 62 58 63 66 64 59 65 60 66
REMARK SMILES IDX 64 67 67 68 61 69 62 70 65 71 63 72 42 73 43 74 51 75 44 76
REMARK SMILES IDX 45 77 49 78 52 79 46 80 47 81 50 82 48 83
REMARK H PARENT 4 14 72 36 40 47
REMARK Flexibility Score: inf
ROOT
ATOM      1  C   UNL A   1      41.808  19.185  26.081  1.00  0.00     0.274 C 
ENDROOT
BRANCH   1   2
ATOM      2  O   UNL A   1      43.115  19.791  26.102  1.00  0.00    -0.462 OA
BRANCH   2   3
ATOM      3  C   UNL A   1      44.027  19.311  25.218  1.00  0.00     0.306 C 
ATOM      4  O   UNL A   1      44.227  18.117  25.014  1.00  0.00    -0.252 OA
BRANCH   3   5
ATOM      5  C   UNL A   1      44.861  20.391  24.553  1.00  0.00     0.129 C 
BRANCH   5   6
ATOM      6  C   UNL A   1      45.854  21.193  25.405  1.00  0.00     0.067 C 
BRANCH   6   7
ATOM      7  C   UNL A   1      45.502  22.638  25.498  1.00  0.00     0.039 A 
ATOM      8  C   UNL A   1      45.394  26.105  26.630  1.00  0.00     0.069 C 
ATOM      9  C   UNL A   1      45.312  24.787  25.959  1.00  0.00     0.062 A 
ATOM     10  N   UNL A   1      45.260  24.711  24.625  1.00  0.00    -0.181 NA
ATOM     11  C   UNL A   1      45.331  23.501  26.566  1.00  0.00    -0.007 A 
ATOM     12  N   UNL A   1      45.317  23.398  24.377  1.00  0.00    -0.282 N 
ATOM     13  C   UNL A   1      45.294  23.196  28.016  1.00  0.00     0.048 C 
ATOM     14  H   UNL A   1      45.233  23.016  23.474  1.00  0.00     0.190 HD
ENDBRANCH   6   7
ENDBRANCH   5   6
ENDBRANCH   3   5
ENDBRANCH   2   3
ENDBRANCH   1   2
BRANCH   1  15
ATOM     15  C   UNL A   1      40.675  20.156  26.422  1.00  0.00     0.275 C 
BRANCH  15  16
ATOM     16  O   UNL A   1      41.115  21.486  26.726  1.00  0.00    -0.458 OA
BRANCH  16  17
ATOM     17  C   UNL A   1      40.133  22.402  26.667  1.00  0.00     0.338 C 
ATOM     18  O   UNL A   1      38.956  22.208  26.371  1.00  0.00    -0.246 OA
BRANCH  17  19
ATOM     19  C   UNL A   1      40.614  23.772  26.701  1.00  0.00     0.060 A 
ATOM     20  C   UNL A   1      41.800  23.988  27.421  1.00  0.00     0.016 A 
ATOM     21  C   UNL A   1      39.709  24.798  26.426  1.00  0.00     0.016 A 
ATOM     22  C   UNL A   1      42.003  25.212  28.016  1.00  0.00     0.010 A 
ATOM     23  C   UNL A   1      39.912  26.021  27.026  1.00  0.00     0.010 A 
ATOM     24  C   UNL A   1      41.021  26.191  27.865  1.00  0.00    -0.014 A 
BRANCH  24  25
ATOM     25  C   UNL A   1      41.183  27.428  28.603  1.00  0.00     0.031 A 
ATOM     26  C   UNL A   1      42.301  28.298  28.157  1.00  0.00     0.074 A 
ATOM     27  C   UNL A   1      40.247  27.838  29.477  1.00  0.00     0.049 A 
ATOM     28  N   UNL A   1      43.198  28.903  28.869  1.00  0.00    -0.248 NA
ATOM     29  C   UNL A   1      42.458  28.483  26.705  1.00  0.00     0.031 C 
ATOM     30  C   UNL A   1      38.934  27.239  29.734  1.00  0.00     0.029 A 
ATOM     31  N   UNL A   1      40.215  28.989  30.198  1.00  0.00    -0.354 N 
ATOM     32  C   UNL A   1      43.959  29.644  27.968  1.00  0.00     0.074 A 
ATOM     33  C   UNL A   1      43.526  29.274  26.647  1.00  0.00     0.031 C 
ATOM     34  C   UNL A   1      38.151  28.155  30.345  1.00  0.00     0.029 A 
ATOM     35  C   UNL A   1      38.942  29.349  30.604  1.00  0.00     0.049 A 
ATOM     36  H   UNL A   1      41.018  29.516  30.411  1.00  0.00     0.167 HD
ATOM     37  C   UNL A   1      44.793  30.645  28.353  1.00  0.00     0.037 A 
ATOM     38  C   UNL A   1      38.553  30.586  30.990  1.00  0.00     0.037 A 
ATOM     39  C   UNL A   1      45.148  30.566  29.738  1.00  0.00     0.049 A 
ATOM     40  C   UNL A   1      39.772  31.374  31.314  1.00  0.00     0.074 A 
ATOM     41  C   UNL A   1      45.802  29.626  30.512  1.00  0.00     0.029 A 
ATOM     42  N   UNL A   1      44.553  31.423  30.629  1.00  0.00    -0.354 N 
ATOM     43  N   UNL A   1      40.550  31.151  32.336  1.00  0.00    -0.248 NA
ATOM     44  C   UNL A   1      40.359  32.176  30.248  1.00  0.00     0.031 C 
ATOM     45  C   UNL A   1      45.165  29.682  31.784  1.00  0.00     0.029 A 
ATOM     46  C   UNL A   1      44.173  30.658  31.702  1.00  0.00     0.049 A 
ATOM     47  H   UNL A   1      44.427  32.393  30.521  1.00  0.00     0.167 HD
ATOM     48  C   UNL A   1      41.830  31.442  31.881  1.00  0.00     0.074 A 
ATOM     49  C   UNL A   1      41.638  32.160  30.627  1.00  0.00     0.031 C 
ATOM     50  C   UNL A   1      42.931  30.834  32.413  1.00  0.00     0.037 A 
BRANCH  37  51
ATOM     51  C   UNL A   1      45.082  31.846  27.501  1.00  0.00     0.064 A 
ATOM     52  C   UNL A   1      46.382  32.073  27.018  1.00  0.00     0.173 A 
ATOM     53  C   UNL A   1      44.173  32.916  27.357  1.00  0.00     0.173 A 
ATOM     54  F   UNL A   1      47.332  31.137  27.152  1.00  0.00    -0.203 F 
ATOM     55  C   UNL A   1      46.750  33.296  26.451  1.00  0.00     0.198 A 
ATOM     56  C   UNL A   1      44.525  34.113  26.739  1.00  0.00     0.198 A 
ATOM     57  F   UNL A   1      42.947  32.875  27.897  1.00  0.00    -0.203 F 
ATOM     58  F   UNL A   1      48.024  33.508  26.096  1.00  0.00    -0.200 F 
ATOM     59  C   UNL A   1      45.820  34.312  26.308  1.00  0.00     0.200 A 
ATOM     60  F   UNL A   1      43.618  35.093  26.629  1.00  0.00    -0.200 F 
ATOM     61  F   UNL A   1      46.182  35.498  25.803  1.00  0.00    -0.200 F 
ENDBRANCH  37  51
BRANCH  38  62
ATOM     62  C   UNL A   1      37.225  31.204  30.769  1.00  0.00     0.064 A 
ATOM     63  C   UNL A   1      36.408  31.574  31.845  1.00  0.00     0.173 A 
ATOM     64  C   UNL A   1      36.818  31.647  29.493  1.00  0.00     0.173 A 
ATOM     65  F   UNL A   1      36.759  31.249  33.099  1.00  0.00    -0.203 F 
ATOM     66  C   UNL A   1      35.246  32.330  31.656  1.00  0.00     0.198 A 
ATOM     67  C   UNL A   1      35.650  32.382  29.301  1.00  0.00     0.198 A 
ATOM     68  F   UNL A   1      37.590  31.450  28.413  1.00  0.00    -0.203 F 
ATOM     69  F   UNL A   1      34.514  32.705  32.714  1.00  0.00    -0.200 F 
ATOM     70  C   UNL A   1      34.867  32.730  30.385  1.00  0.00     0.200 A 
ATOM     71  F   UNL A   1      35.317  32.793  28.070  1.00  0.00    -0.200 F 
ATOM     72  F   UNL A   1      33.773  33.482  30.207  1.00  0.00    -0.200 F 
ENDBRANCH  38  62
BRANCH  50  73
ATOM     73  C   UNL A   1      42.758  30.030  33.668  1.00  0.00     0.064 A 
ATOM     74  C   UNL A   1      42.816  30.595  34.953  1.00  0.00     0.173 A 
ATOM     75  C   UNL A   1      42.349  28.694  33.566  1.00  0.00     0.173 A 
ATOM     76  F   UNL A   1      43.084  31.895  35.122  1.00  0.00    -0.203 F 
ATOM     77  C   UNL A   1      42.524  29.840  36.087  1.00  0.00     0.198 A 
ATOM     78  C   UNL A   1      42.024  27.952  34.698  1.00  0.00     0.198 A 
ATOM     79  F   UNL A   1      42.209  28.124  32.359  1.00  0.00    -0.203 F 
ATOM     80  F   UNL A   1      42.592  30.402  37.303  1.00  0.00    -0.200 F 
ATOM     81  C   UNL A   1      42.121  28.522  35.958  1.00  0.00     0.200 A 
ATOM     82  F   UNL A   1      41.580  26.693  34.566  1.00  0.00    -0.200 F 
ATOM     83  F   UNL A   1      41.795  27.809  37.046  1.00  0.00    -0.200 F 
ENDBRANCH  50  73
ENDBRANCH  24  25
ENDBRANCH  17  19
ENDBRANCH  16  17
ENDBRANCH  15  16
ENDBRANCH   1  15
TORSDOF 13
ENDMDL
