MODEL 1
REMARK VINA RESULT:     -11.4      0.000      0.000
REMARK SMILES CCN(Cc1ccccn1)C(=O)N1CCC[C@H](C(=O)OCCOC(=O)c2ccc(-c3c4nc(c(-c5c(F)c(F)c(F)c(F)c5F)c5ccc([nH]5)c(-c5c(F)c(F)c(F)c(F)c5F)c5nc(c(-c6c(F)c(F)c(F)c(F)c6F)c6ccc3[nH]6)C=C5)C=C4)cc2)C1
REMARK SMILES IDX 21 1 20 2 18 3 19 4 17 5 13 6 14 7 89 8 15 9 16 10 11 11
REMARK SMILES IDX 12 12 3 13 2 14 1 15 4 16 5 17 6 18 10 19 7 20 9 21 8 22
REMARK SMILES IDX 22 23 23 24 24 25 25 26 26 27 27 28 88 29 28 30 87 31 29 32
REMARK SMILES IDX 30 33 31 34 81 35 32 36 86 37 80 38 82 39 33 40 85 41 79 42
REMARK SMILES IDX 78 43 34 45 66 46 46 47 65 48 47 49 50 50 64 51 83 52 48 53
REMARK SMILES IDX 49 54 63 56 84 57 51 58 35 59 36 60 44 61 37 62 38 63 42 64
REMARK SMILES IDX 45 65 39 66 40 67 43 68 41 69 67 70 68 71 76 72 69 73 70 74
REMARK SMILES IDX 74 75 77 76 71 77 72 78 75 79 73 80 52 81 53 82 61 83 54 84
REMARK SMILES IDX 55 85 59 86 62 87 56 88 57 89 60 90 58 91
REMARK H PARENT 82 44 50 55
REMARK Flexibility Score: inf
ROOT
ATOM      1  C   UNL A   1      31.712  28.341  26.673  1.00  0.00     0.274 C 
ENDROOT
BRANCH   1   2
ATOM      2  O   UNL A   1      31.631  27.432  25.562  1.00  0.00    -0.462 OA
BRANCH   2   3
ATOM      3  C   UNL A   1      30.684  26.468  25.650  1.00  0.00     0.310 C 
ATOM      4  O   UNL A   1      30.459  25.803  26.657  1.00  0.00    -0.252 OA
BRANCH   3   5
ATOM      5  C   UNL A   1      29.880  26.287  24.371  1.00  0.00     0.119 C 
ATOM      6  N   UNL A   1      31.601  25.456  22.786  1.00  0.00    -0.324 N 
ATOM      7  C   UNL A   1      31.367  26.567  21.870  1.00  0.00     0.121 C 
ATOM      8  C   UNL A   1      30.453  25.102  23.603  1.00  0.00     0.136 C 
ATOM      9  C   UNL A   1      30.891  27.817  22.606  1.00  0.00     0.023 C 
ATOM     10  C   UNL A   1      29.685  27.521  23.494  1.00  0.00     0.019 C 
BRANCH   6  11
ATOM     11  C   UNL A   1      32.900  25.182  23.175  1.00  0.00     0.320 C 
ATOM     12  O   UNL A   1      33.745  26.080  23.163  1.00  0.00    -0.248 OA
BRANCH  11  13
ATOM     13  N   UNL A   1      33.231  23.881  23.520  1.00  0.00    -0.319 N 
BRANCH  13  14
ATOM     14  C   UNL A   1      33.207  22.884  22.450  1.00  0.00     0.118 C 
ATOM     15  C   UNL A   1      32.211  21.763  22.730  1.00  0.00     0.027 C 
ENDBRANCH  13  14
BRANCH  13  16
ATOM     16  C   UNL A   1      33.425  23.354  24.885  1.00  0.00     0.177 C 
BRANCH  16  17
ATOM     17  C   UNL A   1      34.844  22.871  25.178  1.00  0.00     0.060 A 
ATOM     18  C   UNL A   1      35.873  23.808  25.316  1.00  0.00     0.026 A 
ATOM     19  N   UNL A   1      35.092  21.537  25.128  1.00  0.00    -0.259 NA
ATOM     20  C   UNL A   1      37.195  23.370  25.285  1.00  0.00     0.004 A 
ATOM     21  C   UNL A   1      36.384  21.141  25.095  1.00  0.00     0.111 A 
ATOM     22  C   UNL A   1      37.459  22.012  25.151  1.00  0.00     0.020 A 
ENDBRANCH  16  17
ENDBRANCH  13  16
ENDBRANCH  11  13
ENDBRANCH   6  11
ENDBRANCH   3   5
ENDBRANCH   2   3
ENDBRANCH   1   2
BRANCH   1  23
ATOM     23  C   UNL A   1      31.755  29.798  26.202  1.00  0.00     0.275 C 
BRANCH  23  24
ATOM     24  O   UNL A   1      33.103  30.301  26.108  1.00  0.00    -0.458 OA
BRANCH  24  25
ATOM     25  C   UNL A   1      33.413  31.283  26.986  1.00  0.00     0.338 C 
ATOM     26  O   UNL A   1      32.710  32.213  27.343  1.00  0.00    -0.246 OA
BRANCH  25  27
ATOM     27  C   UNL A   1      34.721  31.011  27.601  1.00  0.00     0.060 A 
ATOM     28  C   UNL A   1      35.014  29.690  27.949  1.00  0.00     0.016 A 
ATOM     29  C   UNL A   1      35.604  32.039  27.929  1.00  0.00     0.016 A 
ATOM     30  C   UNL A   1      36.181  29.382  28.634  1.00  0.00     0.010 A 
ATOM     31  C   UNL A   1      36.781  31.733  28.623  1.00  0.00     0.010 A 
ATOM     32  C   UNL A   1      37.065  30.405  28.990  1.00  0.00    -0.014 A 
BRANCH  32  33
ATOM     33  C   UNL A   1      38.244  30.072  29.819  1.00  0.00     0.031 A 
ATOM     34  C   UNL A   1      39.308  29.173  29.263  1.00  0.00     0.074 A 
ATOM     35  C   UNL A   1      38.381  30.622  31.038  1.00  0.00     0.049 A 
ATOM     36  N   UNL A   1      40.391  28.716  29.838  1.00  0.00    -0.248 NA
ATOM     37  C   UNL A   1      39.132  28.735  27.869  1.00  0.00     0.031 C 
ATOM     38  C   UNL A   1      37.439  31.557  31.651  1.00  0.00     0.029 A 
ATOM     39  N   UNL A   1      39.371  30.476  31.976  1.00  0.00    -0.354 N 
ATOM     40  C   UNL A   1      41.013  27.919  28.887  1.00  0.00     0.074 A 
ATOM     41  C   UNL A   1      40.184  27.946  27.700  1.00  0.00     0.031 C 
ATOM     42  C   UNL A   1      37.895  31.901  32.866  1.00  0.00     0.029 A 
ATOM     43  C   UNL A   1      39.136  31.177  33.131  1.00  0.00     0.049 A 
ATOM     44  H   UNL A   1      40.172  29.922  31.833  1.00  0.00     0.167 HD
ATOM     45  C   UNL A   1      42.172  27.227  29.000  1.00  0.00     0.037 A 
ATOM     46  C   UNL A   1      39.831  31.205  34.283  1.00  0.00     0.037 A 
ATOM     47  C   UNL A   1      42.996  27.216  30.179  1.00  0.00     0.049 A 
ATOM     48  C   UNL A   1      41.088  30.385  34.400  1.00  0.00     0.074 A 
ATOM     49  C   UNL A   1      44.189  26.548  30.395  1.00  0.00     0.029 A 
ATOM     50  N   UNL A   1      42.710  27.912  31.346  1.00  0.00    -0.354 N 
ATOM     51  N   UNL A   1      41.661  29.618  33.505  1.00  0.00    -0.248 NA
ATOM     52  C   UNL A   1      41.791  30.432  35.689  1.00  0.00     0.031 C 
ATOM     53  C   UNL A   1      44.605  26.810  31.706  1.00  0.00     0.029 A 
ATOM     54  C   UNL A   1      43.695  27.676  32.291  1.00  0.00     0.049 A 
ATOM     55  H   UNL A   1      41.923  28.487  31.481  1.00  0.00     0.167 HD
ATOM     56  C   UNL A   1      42.798  29.104  34.113  1.00  0.00     0.074 A 
ATOM     57  C   UNL A   1      42.843  29.663  35.449  1.00  0.00     0.031 C 
ATOM     58  C   UNL A   1      43.720  28.245  33.614  1.00  0.00     0.037 A 
BRANCH  45  59
ATOM     59  C   UNL A   1      42.593  26.395  27.826  1.00  0.00     0.064 A 
ATOM     60  C   UNL A   1      43.463  26.888  26.844  1.00  0.00     0.173 A 
ATOM     61  C   UNL A   1      42.135  25.075  27.696  1.00  0.00     0.173 A 
ATOM     62  F   UNL A   1      43.916  28.150  26.914  1.00  0.00    -0.203 F 
ATOM     63  C   UNL A   1      43.842  26.098  25.761  1.00  0.00     0.198 A 
ATOM     64  C   UNL A   1      42.534  24.280  26.625  1.00  0.00     0.198 A 
ATOM     65  F   UNL A   1      41.302  24.556  28.609  1.00  0.00    -0.203 F 
ATOM     66  F   UNL A   1      44.640  26.604  24.810  1.00  0.00    -0.200 F 
ATOM     67  C   UNL A   1      43.382  24.794  25.656  1.00  0.00     0.200 A 
ATOM     68  F   UNL A   1      42.095  23.017  26.529  1.00  0.00    -0.200 F 
ATOM     69  F   UNL A   1      43.749  24.034  24.614  1.00  0.00    -0.200 F 
ENDBRANCH  45  59
BRANCH  46  70
ATOM     70  C   UNL A   1      39.340  32.018  35.424  1.00  0.00     0.064 A 
ATOM     71  C   UNL A   1      38.500  31.465  36.399  1.00  0.00     0.173 A 
ATOM     72  C   UNL A   1      39.700  33.368  35.559  1.00  0.00     0.173 A 
ATOM     73  F   UNL A   1      38.111  30.186  36.298  1.00  0.00    -0.203 F 
ATOM     74  C   UNL A   1      38.027  32.235  37.460  1.00  0.00     0.198 A 
ATOM     75  C   UNL A   1      39.248  34.129  36.634  1.00  0.00     0.198 A 
ATOM     76  F   UNL A   1      40.501  33.944  34.651  1.00  0.00    -0.203 F 
ATOM     77  F   UNL A   1      37.192  31.692  38.357  1.00  0.00    -0.200 F 
ATOM     78  C   UNL A   1      38.406  33.563  37.580  1.00  0.00     0.200 A 
ATOM     79  F   UNL A   1      39.627  35.408  36.754  1.00  0.00    -0.200 F 
ATOM     80  F   UNL A   1      37.954  34.301  38.604  1.00  0.00    -0.200 F 
ENDBRANCH  46  70
BRANCH  58  81
ATOM     81  C   UNL A   1      44.867  27.882  34.510  1.00  0.00     0.064 A 
ATOM     82  C   UNL A   1      44.813  26.761  35.353  1.00  0.00     0.173 A 
ATOM     83  C   UNL A   1      46.041  28.650  34.508  1.00  0.00     0.173 A 
ATOM     84  F   UNL A   1      43.706  26.006  35.402  1.00  0.00    -0.203 F 
ATOM     85  C   UNL A   1      45.885  26.439  36.181  1.00  0.00     0.198 A 
ATOM     86  C   UNL A   1      47.120  28.308  35.318  1.00  0.00     0.198 A 
ATOM     87  F   UNL A   1      46.142  29.727  33.716  1.00  0.00    -0.203 F 
ATOM     88  F   UNL A   1      45.794  25.392  37.014  1.00  0.00    -0.200 F 
ATOM     89  C   UNL A   1      47.038  27.209  36.159  1.00  0.00     0.200 A 
ATOM     90  F   UNL A   1      48.237  29.048  35.288  1.00  0.00    -0.200 F 
ATOM     91  F   UNL A   1      48.069  26.896  36.956  1.00  0.00    -0.200 F 
ENDBRANCH  58  81
ENDBRANCH  32  33
ENDBRANCH  25  27
ENDBRANCH  24  25
ENDBRANCH  23  24
ENDBRANCH   1  23
TORSDOF 16
ENDMDL
MODEL 2
REMARK VINA RESULT:     -11.4      0.935      2.015
REMARK SMILES CCN(Cc1ccccn1)C(=O)N1CCC[C@H](C(=O)OCCOC(=O)c2ccc(-c3c4nc(c(-c5c(F)c(F)c(F)c(F)c5F)c5ccc([nH]5)c(-c5c(F)c(F)c(F)c(F)c5F)c5nc(c(-c6c(F)c(F)c(F)c(F)c6F)c6ccc3[nH]6)C=C5)C=C4)cc2)C1
REMARK SMILES IDX 21 1 20 2 18 3 19 4 17 5 13 6 14 7 89 8 15 9 16 10 11 11
REMARK SMILES IDX 12 12 3 13 2 14 1 15 4 16 5 17 6 18 10 19 7 20 9 21 8 22
REMARK SMILES IDX 22 23 23 24 24 25 25 26 26 27 27 28 88 29 28 30 87 31 29 32
REMARK SMILES IDX 30 33 31 34 81 35 32 36 86 37 80 38 82 39 33 40 85 41 79 42
REMARK SMILES IDX 78 43 34 45 66 46 46 47 65 48 47 49 50 50 64 51 83 52 48 53
REMARK SMILES IDX 49 54 63 56 84 57 51 58 35 59 36 60 44 61 37 62 38 63 42 64
REMARK SMILES IDX 45 65 39 66 40 67 43 68 41 69 67 70 68 71 76 72 69 73 70 74
REMARK SMILES IDX 74 75 77 76 71 77 72 78 75 79 73 80 52 81 53 82 61 83 54 84
REMARK SMILES IDX 55 85 59 86 62 87 56 88 57 89 60 90 58 91
REMARK H PARENT 82 44 50 55
REMARK Flexibility Score: inf
ROOT
ATOM      1  C   UNL A   1      32.684  28.501  25.265  1.00  0.00     0.274 C 
ENDROOT
BRANCH   1   2
ATOM      2  O   UNL A   1      31.399  27.875  25.113  1.00  0.00    -0.462 OA
BRANCH   2   3
ATOM      3  C   UNL A   1      31.043  27.002  26.085  1.00  0.00     0.310 C 
ATOM      4  O   UNL A   1      31.418  27.070  27.252  1.00  0.00    -0.252 OA
BRANCH   3   5
ATOM      5  C   UNL A   1      30.093  25.914  25.608  1.00  0.00     0.119 C 
ATOM      6  N   UNL A   1      31.627  23.988  25.287  1.00  0.00    -0.324 N 
ATOM      7  C   UNL A   1      31.257  23.862  23.881  1.00  0.00     0.121 C 
ATOM      8  C   UNL A   1      30.595  24.573  26.128  1.00  0.00     0.136 C 
ATOM      9  C   UNL A   1      30.845  25.205  23.282  1.00  0.00     0.023 C 
ATOM     10  C   UNL A   1      29.764  25.885  24.118  1.00  0.00     0.019 C 
BRANCH   6  11
ATOM     11  C   UNL A   1      32.969  24.044  25.616  1.00  0.00     0.320 C 
ATOM     12  O   UNL A   1      33.460  25.107  26.005  1.00  0.00    -0.248 OA
BRANCH  11  13
ATOM     13  N   UNL A   1      33.744  22.908  25.445  1.00  0.00    -0.319 N 
BRANCH  13  14
ATOM     14  C   UNL A   1      33.498  21.792  26.358  1.00  0.00     0.118 C 
ATOM     15  C   UNL A   1      33.458  22.239  27.816  1.00  0.00     0.027 C 
ENDBRANCH  13  14
BRANCH  13  16
ATOM     16  C   UNL A   1      34.918  22.767  24.561  1.00  0.00     0.177 C 
BRANCH  16  17
ATOM     17  C   UNL A   1      36.254  22.687  25.295  1.00  0.00     0.060 A 
ATOM     18  C   UNL A   1      36.766  23.831  25.915  1.00  0.00     0.026 A 
ATOM     19  N   UNL A   1      36.984  21.548  25.180  1.00  0.00    -0.259 NA
ATOM     20  C   UNL A   1      38.099  23.841  26.321  1.00  0.00     0.004 A 
ATOM     21  C   UNL A   1      38.275  21.588  25.577  1.00  0.00     0.111 A 
ATOM     22  C   UNL A   1      38.877  22.706  26.130  1.00  0.00     0.020 A 
ENDBRANCH  16  17
ENDBRANCH  13  16
ENDBRANCH  11  13
ENDBRANCH   6  11
ENDBRANCH   3   5
ENDBRANCH   2   3
ENDBRANCH   1   2
BRANCH   1  23
ATOM     23  C   UNL A   1      32.549  30.005  25.518  1.00  0.00     0.275 C 
BRANCH  23  24
ATOM     24  O   UNL A   1      32.581  30.327  26.923  1.00  0.00    -0.458 OA
BRANCH  24  25
ATOM     25  C   UNL A   1      33.229  31.473  27.236  1.00  0.00     0.338 C 
ATOM     26  O   UNL A   1      32.799  32.612  27.178  1.00  0.00    -0.246 OA
BRANCH  25  27
ATOM     27  C   UNL A   1      34.543  31.161  27.818  1.00  0.00     0.060 A 
ATOM     28  C   UNL A   1      34.753  29.865  28.294  1.00  0.00     0.016 A 
ATOM     29  C   UNL A   1      35.518  32.143  27.991  1.00  0.00     0.016 A 
ATOM     30  C   UNL A   1      35.928  29.537  28.956  1.00  0.00     0.010 A 
ATOM     31  C   UNL A   1      36.704  31.817  28.661  1.00  0.00     0.010 A 
ATOM     32  C   UNL A   1      36.905  30.516  29.158  1.00  0.00    -0.014 A 
BRANCH  32  33
ATOM     33  C   UNL A   1      38.098  30.177  29.965  1.00  0.00     0.031 A 
ATOM     34  C   UNL A   1      39.160  29.296  29.378  1.00  0.00     0.074 A 
ATOM     35  C   UNL A   1      38.249  30.708  31.190  1.00  0.00     0.049 A 
ATOM     36  N   UNL A   1      40.254  28.837  29.930  1.00  0.00    -0.248 NA
ATOM     37  C   UNL A   1      38.968  28.881  27.980  1.00  0.00     0.031 C 
ATOM     38  C   UNL A   1      37.309  31.626  31.832  1.00  0.00     0.029 A 
ATOM     39  N   UNL A   1      39.252  30.552  32.112  1.00  0.00    -0.354 N 
ATOM     40  C   UNL A   1      40.868  28.060  28.958  1.00  0.00     0.074 A 
ATOM     41  C   UNL A   1      40.023  28.102  27.783  1.00  0.00     0.031 C 
ATOM     42  C   UNL A   1      37.779  31.952  33.047  1.00  0.00     0.029 A 
ATOM     43  C   UNL A   1      39.029  31.232  33.282  1.00  0.00     0.049 A 
ATOM     44  H   UNL A   1      40.056  30.007  31.949  1.00  0.00     0.167 HD
ATOM     45  C   UNL A   1      42.034  27.375  29.042  1.00  0.00     0.037 A 
ATOM     46  C   UNL A   1      39.740  31.245  34.425  1.00  0.00     0.037 A 
ATOM     47  C   UNL A   1      42.874  27.350  30.209  1.00  0.00     0.049 A 
ATOM     48  C   UNL A   1      41.003  30.432  34.510  1.00  0.00     0.074 A 
ATOM     49  C   UNL A   1      44.074  26.687  30.397  1.00  0.00     0.029 A 
ATOM     50  N   UNL A   1      42.600  28.023  31.392  1.00  0.00    -0.354 N 
ATOM     51  N   UNL A   1      41.570  29.685  33.594  1.00  0.00    -0.248 NA
ATOM     52  C   UNL A   1      41.724  30.463  35.790  1.00  0.00     0.031 C 
ATOM     53  C   UNL A   1      44.507  26.929  31.706  1.00  0.00     0.029 A 
ATOM     54  C   UNL A   1      43.600  27.778  32.318  1.00  0.00     0.049 A 
ATOM     55  H   UNL A   1      41.811  28.591  31.547  1.00  0.00     0.167 HD
ATOM     56  C   UNL A   1      42.718  29.169  34.178  1.00  0.00     0.074 A 
ATOM     57  C   UNL A   1      42.778  29.705  35.522  1.00  0.00     0.031 C 
ATOM     58  C   UNL A   1      43.639  28.325  33.651  1.00  0.00     0.037 A 
BRANCH  45  59
ATOM     59  C   UNL A   1      42.444  26.566  27.849  1.00  0.00     0.064 A 
ATOM     60  C   UNL A   1      41.991  25.253  27.654  1.00  0.00     0.173 A 
ATOM     61  C   UNL A   1      43.286  27.122  26.873  1.00  0.00     0.173 A 
ATOM     62  F   UNL A   1      41.198  24.671  28.566  1.00  0.00    -0.203 F 
ATOM     63  C   UNL A   1      42.384  24.518  26.538  1.00  0.00     0.198 A 
ATOM     64  C   UNL A   1      43.657  26.394  25.747  1.00  0.00     0.198 A 
ATOM     65  F   UNL A   1      43.745  28.375  27.012  1.00  0.00    -0.203 F 
ATOM     66  F   UNL A   1      41.975  23.250  26.394  1.00  0.00    -0.200 F 
ATOM     67  C   UNL A   1      43.212  25.091  25.583  1.00  0.00     0.200 A 
ATOM     68  F   UNL A   1      44.450  26.951  24.821  1.00  0.00    -0.200 F 
ATOM     69  F   UNL A   1      43.587  24.383  24.509  1.00  0.00    -0.200 F 
ENDBRANCH  45  59
BRANCH  46  70
ATOM     70  C   UNL A   1      39.259  32.036  35.587  1.00  0.00     0.064 A 
ATOM     71  C   UNL A   1      38.413  31.468  36.548  1.00  0.00     0.173 A 
ATOM     72  C   UNL A   1      39.635  33.377  35.755  1.00  0.00     0.173 A 
ATOM     73  F   UNL A   1      38.009  30.197  36.416  1.00  0.00    -0.203 F 
ATOM     74  C   UNL A   1      37.950  32.217  37.628  1.00  0.00     0.198 A 
ATOM     75  C   UNL A   1      39.193  34.116  36.849  1.00  0.00     0.198 A 
ATOM     76  F   UNL A   1      40.442  33.966  34.861  1.00  0.00    -0.203 F 
ATOM     77  F   UNL A   1      37.110  31.662  38.512  1.00  0.00    -0.200 F 
ATOM     78  C   UNL A   1      38.345  33.537  37.781  1.00  0.00     0.200 A 
ATOM     79  F   UNL A   1      39.587  35.387  37.000  1.00  0.00    -0.200 F 
ATOM     80  F   UNL A   1      37.903  34.254  38.824  1.00  0.00    -0.200 F 
ENDBRANCH  46  70
BRANCH  58  81
ATOM     81  C   UNL A   1      44.801  27.955  34.525  1.00  0.00     0.064 A 
ATOM     82  C   UNL A   1      45.971  28.729  34.557  1.00  0.00     0.173 A 
ATOM     83  C   UNL A   1      44.733  26.827  35.357  1.00  0.00     0.173 A 
ATOM     84  F   UNL A   1      46.088  29.807  33.767  1.00  0.00    -0.203 F 
ATOM     85  C   UNL A   1      47.041  28.372  35.372  1.00  0.00     0.198 A 
ATOM     86  C   UNL A   1      45.796  26.489  36.190  1.00  0.00     0.198 A 
ATOM     87  F   UNL A   1      43.634  26.058  35.365  1.00  0.00    -0.203 F 
ATOM     88  F   UNL A   1      48.168  29.098  35.351  1.00  0.00    -0.200 F 
ATOM     89  C   UNL A   1      46.951  27.256  36.190  1.00  0.00     0.200 A 
ATOM     90  F   UNL A   1      45.703  25.416  36.987  1.00  0.00    -0.200 F 
ATOM     91  F   UNL A   1      47.983  26.914  36.974  1.00  0.00    -0.200 F 
ENDBRANCH  58  81
ENDBRANCH  32  33
ENDBRANCH  25  27
ENDBRANCH  24  25
ENDBRANCH  23  24
ENDBRANCH   1  23
TORSDOF 16
ENDMDL
MODEL 3
REMARK VINA RESULT:     -11.2      4.230      9.583
REMARK SMILES CCN(Cc1ccccn1)C(=O)N1CCC[C@H](C(=O)OCCOC(=O)c2ccc(-c3c4nc(c(-c5c(F)c(F)c(F)c(F)c5F)c5ccc([nH]5)c(-c5c(F)c(F)c(F)c(F)c5F)c5nc(c(-c6c(F)c(F)c(F)c(F)c6F)c6ccc3[nH]6)C=C5)C=C4)cc2)C1
REMARK SMILES IDX 21 1 20 2 18 3 19 4 17 5 13 6 14 7 89 8 15 9 16 10 11 11
REMARK SMILES IDX 12 12 3 13 2 14 1 15 4 16 5 17 6 18 10 19 7 20 9 21 8 22
REMARK SMILES IDX 22 23 23 24 24 25 25 26 26 27 27 28 88 29 28 30 87 31 29 32
REMARK SMILES IDX 30 33 31 34 81 35 32 36 86 37 80 38 82 39 33 40 85 41 79 42
REMARK SMILES IDX 78 43 34 45 66 46 46 47 65 48 47 49 50 50 64 51 83 52 48 53
REMARK SMILES IDX 49 54 63 56 84 57 51 58 35 59 36 60 44 61 37 62 38 63 42 64
REMARK SMILES IDX 45 65 39 66 40 67 43 68 41 69 67 70 68 71 76 72 69 73 70 74
REMARK SMILES IDX 74 75 77 76 71 77 72 78 75 79 73 80 52 81 53 82 61 83 54 84
REMARK SMILES IDX 55 85 59 86 62 87 56 88 57 89 60 90 58 91
REMARK H PARENT 82 44 50 55
REMARK Flexibility Score: inf
ROOT
ATOM      1  C   UNL A   1      36.615  22.196  23.836  1.00  0.00     0.274 C 
ENDROOT
BRANCH   1   2
ATOM      2  O   UNL A   1      35.214  22.274  24.151  1.00  0.00    -0.462 OA
BRANCH   2   3
ATOM      3  C   UNL A   1      34.461  23.044  23.331  1.00  0.00     0.310 C 
ATOM      4  O   UNL A   1      34.863  24.057  22.764  1.00  0.00    -0.252 OA
BRANCH   3   5
ATOM      5  C   UNL A   1      33.043  22.526  23.142  1.00  0.00     0.119 C 
ATOM      6  N   UNL A   1      31.741  24.010  24.647  1.00  0.00    -0.324 N 
ATOM      7  C   UNL A   1      31.236  22.875  25.413  1.00  0.00     0.121 C 
ATOM      8  C   UNL A   1      32.079  23.699  23.268  1.00  0.00     0.136 C 
ATOM      9  C   UNL A   1      32.218  21.706  25.405  1.00  0.00     0.023 C 
ATOM     10  C   UNL A   1      32.626  21.324  23.985  1.00  0.00     0.019 C 
BRANCH   6  11
ATOM     11  C   UNL A   1      32.316  25.065  25.330  1.00  0.00     0.320 C 
ATOM     12  O   UNL A   1      33.355  24.887  25.971  1.00  0.00    -0.248 OA
BRANCH  11  13
ATOM     13  N   UNL A   1      31.674  26.294  25.321  1.00  0.00    -0.319 N 
BRANCH  13  14
ATOM     14  C   UNL A   1      31.375  26.877  24.013  1.00  0.00     0.118 C 
ATOM     15  C   UNL A   1      29.905  27.260  23.877  1.00  0.00     0.027 C 
ENDBRANCH  13  14
BRANCH  13  16
ATOM     16  C   UNL A   1      31.423  27.166  26.485  1.00  0.00     0.177 C 
BRANCH  16  17
ATOM     17  C   UNL A   1      32.340  28.383  26.570  1.00  0.00     0.060 A 
ATOM     18  C   UNL A   1      33.693  28.203  26.876  1.00  0.00     0.026 A 
ATOM     19  N   UNL A   1      31.778  29.617  26.509  1.00  0.00    -0.259 NA
ATOM     20  C   UNL A   1      34.455  29.310  27.244  1.00  0.00     0.004 A 
ATOM     21  C   UNL A   1      32.540  30.672  26.875  1.00  0.00     0.111 A 
ATOM     22  C   UNL A   1      33.864  30.568  27.265  1.00  0.00     0.020 A 
ENDBRANCH  16  17
ENDBRANCH  13  16
ENDBRANCH  11  13
ENDBRANCH   6  11
ENDBRANCH   3   5
ENDBRANCH   2   3
ENDBRANCH   1   2
BRANCH   1  23
ATOM     23  C   UNL A   1      37.307  21.082  24.627  1.00  0.00     0.275 C 
BRANCH  23  24
ATOM     24  O   UNL A   1      37.727  21.521  25.934  1.00  0.00    -0.458 OA
BRANCH  24  25
ATOM     25  C   UNL A   1      39.038  21.334  26.211  1.00  0.00     0.338 C 
ATOM     26  O   UNL A   1      39.711  20.342  25.992  1.00  0.00    -0.246 OA
BRANCH  25  27
ATOM     27  C   UNL A   1      39.628  22.585  26.710  1.00  0.00     0.060 A 
ATOM     28  C   UNL A   1      39.175  23.785  26.156  1.00  0.00     0.016 A 
ATOM     29  C   UNL A   1      40.679  22.584  27.626  1.00  0.00     0.016 A 
ATOM     30  C   UNL A   1      39.769  24.991  26.500  1.00  0.00     0.010 A 
ATOM     31  C   UNL A   1      41.283  23.798  27.974  1.00  0.00     0.010 A 
ATOM     32  C   UNL A   1      40.838  25.004  27.400  1.00  0.00    -0.014 A 
BRANCH  32  33
ATOM     33  C   UNL A   1      41.531  26.283  27.666  1.00  0.00     0.031 A 
ATOM     34  C   UNL A   1      40.830  27.356  28.444  1.00  0.00     0.074 A 
ATOM     35  C   UNL A   1      42.802  26.452  27.260  1.00  0.00     0.049 A 
ATOM     36  N   UNL A   1      41.235  28.564  28.741  1.00  0.00    -0.248 NA
ATOM     37  C   UNL A   1      39.494  27.021  28.963  1.00  0.00     0.031 C 
ATOM     38  C   UNL A   1      43.600  25.452  26.552  1.00  0.00     0.029 A 
ATOM     39  N   UNL A   1      43.644  27.526  27.391  1.00  0.00    -0.354 N 
ATOM     40  C   UNL A   1      40.197  29.142  29.459  1.00  0.00     0.074 A 
ATOM     41  C   UNL A   1      39.140  28.157  29.547  1.00  0.00     0.031 C 
ATOM     42  C   UNL A   1      44.819  25.961  26.307  1.00  0.00     0.029 A 
ATOM     43  C   UNL A   1      44.869  27.334  26.803  1.00  0.00     0.049 A 
ATOM     44  H   UNL A   1      43.395  28.354  27.862  1.00  0.00     0.167 HD
ATOM     45  C   UNL A   1      40.137  30.384  29.995  1.00  0.00     0.037 A 
ATOM     46  C   UNL A   1      45.902  28.184  26.657  1.00  0.00     0.037 A 
ATOM     47  C   UNL A   1      41.198  31.352  29.914  1.00  0.00     0.049 A 
ATOM     48  C   UNL A   1      45.787  29.577  27.216  1.00  0.00     0.074 A 
ATOM     49  C   UNL A   1      41.237  32.639  30.423  1.00  0.00     0.029 A 
ATOM     50  N   UNL A   1      42.414  31.137  29.281  1.00  0.00    -0.354 N 
ATOM     51  N   UNL A   1      44.798  30.124  27.878  1.00  0.00    -0.248 NA
ATOM     52  C   UNL A   1      46.935  30.471  27.004  1.00  0.00     0.031 C 
ATOM     53  C   UNL A   1      42.462  33.214  30.065  1.00  0.00     0.029 A 
ATOM     54  C   UNL A   1      43.203  32.271  29.372  1.00  0.00     0.049 A 
ATOM     55  H   UNL A   1      42.676  30.300  28.833  1.00  0.00     0.167 HD
ATOM     56  C   UNL A   1      45.205  31.418  28.175  1.00  0.00     0.074 A 
ATOM     57  C   UNL A   1      46.542  31.567  27.637  1.00  0.00     0.031 C 
ATOM     58  C   UNL A   1      44.532  32.396  28.830  1.00  0.00     0.037 A 
BRANCH  45  59
ATOM     59  C   UNL A   1      38.864  30.776  30.683  1.00  0.00     0.064 A 
ATOM     60  C   UNL A   1      38.723  30.705  32.076  1.00  0.00     0.173 A 
ATOM     61  C   UNL A   1      37.774  31.251  29.935  1.00  0.00     0.173 A 
ATOM     62  F   UNL A   1      39.730  30.243  32.833  1.00  0.00    -0.203 F 
ATOM     63  C   UNL A   1      37.531  31.074  32.695  1.00  0.00     0.198 A 
ATOM     64  C   UNL A   1      36.593  31.641  30.559  1.00  0.00     0.198 A 
ATOM     65  F   UNL A   1      37.859  31.338  28.600  1.00  0.00    -0.203 F 
ATOM     66  F   UNL A   1      37.403  30.957  34.024  1.00  0.00    -0.200 F 
ATOM     67  C   UNL A   1      36.470  31.546  31.937  1.00  0.00     0.200 A 
ATOM     68  F   UNL A   1      35.571  32.104  29.826  1.00  0.00    -0.200 F 
ATOM     69  F   UNL A   1      35.324  31.903  32.534  1.00  0.00    -0.200 F 
ENDBRANCH  45  59
BRANCH  46  70
ATOM     70  C   UNL A   1      47.122  27.749  25.931  1.00  0.00     0.064 A 
ATOM     71  C   UNL A   1      48.255  27.302  26.622  1.00  0.00     0.173 A 
ATOM     72  C   UNL A   1      47.179  27.778  24.529  1.00  0.00     0.173 A 
ATOM     73  F   UNL A   1      48.254  27.280  27.963  1.00  0.00    -0.203 F 
ATOM     74  C   UNL A   1      49.405  26.910  25.939  1.00  0.00     0.198 A 
ATOM     75  C   UNL A   1      48.319  27.361  23.847  1.00  0.00     0.198 A 
ATOM     76  F   UNL A   1      46.121  28.200  23.822  1.00  0.00    -0.203 F 
ATOM     77  F   UNL A   1      50.488  26.523  26.626  1.00  0.00    -0.200 F 
ATOM     78  C   UNL A   1      49.433  26.933  24.553  1.00  0.00     0.200 A 
ATOM     79  F   UNL A   1      48.338  27.373  22.508  1.00  0.00    -0.200 F 
ATOM     80  F   UNL A   1      50.538  26.552  23.898  1.00  0.00    -0.200 F 
ENDBRANCH  46  70
BRANCH  58  81
ATOM     81  C   UNL A   1      45.247  33.700  29.022  1.00  0.00     0.064 A 
ATOM     82  C   UNL A   1      46.068  33.930  30.137  1.00  0.00     0.173 A 
ATOM     83  C   UNL A   1      45.129  34.723  28.069  1.00  0.00     0.173 A 
ATOM     84  F   UNL A   1      46.199  32.989  31.083  1.00  0.00    -0.203 F 
ATOM     85  C   UNL A   1      46.722  35.147  30.302  1.00  0.00     0.198 A 
ATOM     86  C   UNL A   1      45.807  35.928  28.225  1.00  0.00     0.198 A 
ATOM     87  F   UNL A   1      44.360  34.549  26.984  1.00  0.00    -0.203 F 
ATOM     88  F   UNL A   1      47.463  35.363  31.399  1.00  0.00    -0.200 F 
ATOM     89  C   UNL A   1      46.596  36.142  29.345  1.00  0.00     0.200 A 
ATOM     90  F   UNL A   1      45.691  36.885  27.294  1.00  0.00    -0.200 F 
ATOM     91  F   UNL A   1      47.228  37.313  29.506  1.00  0.00    -0.200 F 
ENDBRANCH  58  81
ENDBRANCH  32  33
ENDBRANCH  25  27
ENDBRANCH  24  25
ENDBRANCH  23  24
ENDBRANCH   1  23
TORSDOF 16
ENDMDL
