MODEL 1
REMARK VINA RESULT:     -11.6      0.000      0.000
REMARK SMILES CC1(NC(=O)c2csc(/C=C/C(=O)OCCOC(=O)c3ccc(-c4c5nc(c(-c6c(F)c(F)c(F)c(F)c6F)c6ccc([nH]6)c(-c6c(F)c(F)c(F)c(F)c6F)c6nc(c(-c7c(F)c(F)c(F)c(F)c7F)c7ccc4[nH]7)C=C6)C=C5)cc3)c2)CCCCC1
REMARK SMILES IDX 15 1 14 2 12 3 13 4 11 5 10 6 9 7 6 8 7 9 83 10 8 11 4 12
REMARK SMILES IDX 3 13 5 15 2 16 1 17 84 18 88 19 85 20 87 21 86 22 16 23
REMARK SMILES IDX 17 24 18 25 19 26 20 27 21 28 82 29 22 30 81 31 23 32 24 33
REMARK SMILES IDX 25 34 75 35 26 36 80 37 74 38 76 39 27 40 79 41 73 42 72 43
REMARK SMILES IDX 28 45 60 46 40 47 59 48 41 49 44 50 58 51 77 52 42 53 43 54
REMARK SMILES IDX 57 56 78 57 45 58 29 59 30 60 38 61 31 62 32 63 36 64 39 65
REMARK SMILES IDX 33 66 34 67 37 68 35 69 61 70 62 71 70 72 63 73 64 74 68 75
REMARK SMILES IDX 71 76 65 77 66 78 69 79 67 80 46 81 47 82 55 83 48 84 49 85
REMARK SMILES IDX 53 86 56 87 50 88 51 89 54 90 52 91
REMARK H PARENT 3 14 76 44 44 55
REMARK Flexibility Score: inf
ROOT
ATOM      1  C   UNL A   1      33.749  35.566  28.974  1.00  0.00     0.275 C 
ENDROOT
BRANCH   1   2
ATOM      2  O   UNL A   1      33.705  34.142  29.193  1.00  0.00    -0.459 OA
BRANCH   2   3
ATOM      3  C   UNL A   1      34.876  33.488  29.000  1.00  0.00     0.330 C 
ATOM      4  O   UNL A   1      35.991  33.922  29.251  1.00  0.00    -0.247 OA
BRANCH   3   5
ATOM      5  C   UNL A   1      34.699  32.117  28.481  1.00  0.00     0.095 C 
ATOM      6  C   UNL A   1      33.680  31.687  27.722  1.00  0.00     0.026 C 
BRANCH   6   7
ATOM      7  C   UNL A   1      33.544  30.330  27.279  1.00  0.00     0.028 A 
ATOM      8  C   UNL A   1      32.529  28.302  26.578  1.00  0.00     0.051 A 
ATOM      9  C   UNL A   1      33.857  27.939  26.635  1.00  0.00     0.079 A 
ATOM     10  C   UNL A   1      32.375  29.699  26.885  1.00  0.00     0.033 A 
ATOM     11  S   UNL A   1      34.854  29.209  27.191  1.00  0.00    -0.144 S 
BRANCH   8  12
ATOM     12  C   UNL A   1      31.444  27.448  26.141  1.00  0.00     0.252 C 
ATOM     13  N   UNL A   1      30.997  27.447  24.850  1.00  0.00    -0.347 N 
ATOM     14  H   UNL A   1      30.359  26.711  24.707  1.00  0.00     0.164 HD
ATOM     15  O   UNL A   1      30.945  26.629  26.911  1.00  0.00    -0.269 OA
BRANCH  13  16
ATOM     16  C   UNL A   1      31.186  28.223  23.601  1.00  0.00     0.038 C 
ATOM     17  C   UNL A   1      30.261  29.452  23.687  1.00  0.00     0.034 C 
ATOM     18  C   UNL A   1      32.614  28.698  23.258  1.00  0.00     0.028 C 
ATOM     19  C   UNL A   1      30.703  27.323  22.429  1.00  0.00     0.028 C 
ATOM     20  C   UNL A   1      33.591  27.564  22.960  1.00  0.00     0.002 C 
ATOM     21  C   UNL A   1      31.661  26.160  22.154  1.00  0.00     0.002 C 
ATOM     22  C   UNL A   1      33.072  26.656  21.854  1.00  0.00     0.000 C 
ENDBRANCH  13  16
ENDBRANCH   8  12
ENDBRANCH   6   7
ENDBRANCH   3   5
ENDBRANCH   2   3
ENDBRANCH   1   2
BRANCH   1  23
ATOM     23  C   UNL A   1      32.765  36.321  29.876  1.00  0.00     0.275 C 
BRANCH  23  24
ATOM     24  O   UNL A   1      32.318  35.523  30.986  1.00  0.00    -0.458 OA
BRANCH  24  25
ATOM     25  C   UNL A   1      32.772  35.916  32.199  1.00  0.00     0.338 C 
ATOM     26  O   UNL A   1      32.268  36.745  32.944  1.00  0.00    -0.246 OA
BRANCH  25  27
ATOM     27  C   UNL A   1      33.933  35.096  32.586  1.00  0.00     0.060 A 
ATOM     28  C   UNL A   1      35.207  35.656  32.444  1.00  0.00     0.016 A 
ATOM     29  C   UNL A   1      33.782  33.784  33.043  1.00  0.00     0.016 A 
ATOM     30  C   UNL A   1      36.337  34.910  32.777  1.00  0.00     0.010 A 
ATOM     31  C   UNL A   1      34.918  33.036  33.370  1.00  0.00     0.010 A 
ATOM     32  C   UNL A   1      36.202  33.595  33.241  1.00  0.00    -0.014 A 
BRANCH  32  33
ATOM     33  C   UNL A   1      37.404  32.802  33.595  1.00  0.00     0.031 A 
ATOM     34  C   UNL A   1      38.143  33.079  34.871  1.00  0.00     0.074 A 
ATOM     35  C   UNL A   1      37.829  31.832  32.764  1.00  0.00     0.049 A 
ATOM     36  N   UNL A   1      39.262  32.558  35.310  1.00  0.00    -0.248 NA
ATOM     37  C   UNL A   1      37.543  34.071  35.776  1.00  0.00     0.031 C 
ATOM     38  C   UNL A   1      37.172  31.445  31.516  1.00  0.00     0.029 A 
ATOM     39  N   UNL A   1      38.921  31.004  32.839  1.00  0.00    -0.354 N 
ATOM     40  C   UNL A   1      39.497  33.152  36.542  1.00  0.00     0.074 A 
ATOM     41  C   UNL A   1      38.421  34.093  36.771  1.00  0.00     0.031 C 
ATOM     42  C   UNL A   1      37.883  30.466  30.933  1.00  0.00     0.029 A 
ATOM     43  C   UNL A   1      39.065  30.187  31.744  1.00  0.00     0.049 A 
ATOM     44  H   UNL A   1      39.541  30.996  33.604  1.00  0.00     0.167 HD
ATOM     45  C   UNL A   1      40.515  32.922  37.405  1.00  0.00     0.037 A 
ATOM     46  C   UNL A   1      40.059  29.340  31.415  1.00  0.00     0.037 A 
ATOM     47  C   UNL A   1      41.589  31.990  37.171  1.00  0.00     0.049 A 
ATOM     48  C   UNL A   1      41.230  29.179  32.348  1.00  0.00     0.074 A 
ATOM     49  C   UNL A   1      42.665  31.690  37.988  1.00  0.00     0.029 A 
ATOM     50  N   UNL A   1      41.722  31.212  36.032  1.00  0.00    -0.354 N 
ATOM     51  N   UNL A   1      41.442  29.739  33.514  1.00  0.00    -0.248 NA
ATOM     52  C   UNL A   1      42.306  28.275  31.914  1.00  0.00     0.031 C 
ATOM     53  C   UNL A   1      43.471  30.759  37.326  1.00  0.00     0.029 A 
ATOM     54  C   UNL A   1      42.877  30.450  36.113  1.00  0.00     0.049 A 
ATOM     55  H   UNL A   1      41.092  31.202  35.276  1.00  0.00     0.167 HD
ATOM     56  C   UNL A   1      42.662  29.248  33.958  1.00  0.00     0.074 A 
ATOM     57  C   UNL A   1      43.137  28.327  32.946  1.00  0.00     0.031 C 
ATOM     58  C   UNL A   1      43.334  29.538  35.097  1.00  0.00     0.037 A 
BRANCH  45  59
ATOM     59  C   UNL A   1      40.529  33.696  38.689  1.00  0.00     0.064 A 
ATOM     60  C   UNL A   1      39.759  33.294  39.790  1.00  0.00     0.173 A 
ATOM     61  C   UNL A   1      41.372  34.806  38.843  1.00  0.00     0.173 A 
ATOM     62  F   UNL A   1      38.931  32.244  39.688  1.00  0.00    -0.203 F 
ATOM     63  C   UNL A   1      39.825  33.983  40.998  1.00  0.00     0.198 A 
ATOM     64  C   UNL A   1      41.452  35.479  40.060  1.00  0.00     0.198 A 
ATOM     65  F   UNL A   1      42.134  35.224  37.822  1.00  0.00    -0.203 F 
ATOM     66  F   UNL A   1      39.062  33.598  42.031  1.00  0.00    -0.200 F 
ATOM     67  C   UNL A   1      40.677  35.069  41.135  1.00  0.00     0.200 A 
ATOM     68  F   UNL A   1      42.284  36.522  40.193  1.00  0.00    -0.200 F 
ATOM     69  F   UNL A   1      40.750  35.723  42.302  1.00  0.00    -0.200 F 
ENDBRANCH  45  59
BRANCH  46  70
ATOM     70  C   UNL A   1      40.018  28.611  30.121  1.00  0.00     0.064 A 
ATOM     71  C   UNL A   1      39.427  27.346  30.019  1.00  0.00     0.173 A 
ATOM     72  C   UNL A   1      40.605  29.154  28.968  1.00  0.00     0.173 A 
ATOM     73  F   UNL A   1      38.881  26.772  31.101  1.00  0.00    -0.203 F 
ATOM     74  C   UNL A   1      39.442  26.641  28.816  1.00  0.00     0.198 A 
ATOM     75  C   UNL A   1      40.592  28.461  27.759  1.00  0.00     0.198 A 
ATOM     76  F   UNL A   1      41.191  30.360  29.014  1.00  0.00    -0.203 F 
ATOM     77  F   UNL A   1      38.917  25.409  28.759  1.00  0.00    -0.200 F 
ATOM     78  C   UNL A   1      40.019  27.201  27.687  1.00  0.00     0.200 A 
ATOM     79  F   UNL A   1      41.145  29.011  26.669  1.00  0.00    -0.200 F 
ATOM     80  F   UNL A   1      40.036  26.521  26.533  1.00  0.00    -0.200 F 
ENDBRANCH  46  70
BRANCH  58  81
ATOM     81  C   UNL A   1      44.645  28.844  35.320  1.00  0.00     0.064 A 
ATOM     82  C   UNL A   1      45.848  29.396  34.856  1.00  0.00     0.173 A 
ATOM     83  C   UNL A   1      44.705  27.645  36.043  1.00  0.00     0.173 A 
ATOM     84  F   UNL A   1      45.839  30.533  34.143  1.00  0.00    -0.203 F 
ATOM     85  C   UNL A   1      47.064  28.761  35.095  1.00  0.00     0.198 A 
ATOM     86  C   UNL A   1      45.925  27.026  36.302  1.00  0.00     0.198 A 
ATOM     87  F   UNL A   1      43.582  27.081  36.512  1.00  0.00    -0.203 F 
ATOM     88  F   UNL A   1      48.199  29.286  34.611  1.00  0.00    -0.200 F 
ATOM     89  C   UNL A   1      47.102  27.582  35.824  1.00  0.00     0.200 A 
ATOM     90  F   UNL A   1      45.962  25.892  37.016  1.00  0.00    -0.200 F 
ATOM     91  F   UNL A   1      48.274  26.978  36.061  1.00  0.00    -0.200 F 
ENDBRANCH  58  81
ENDBRANCH  32  33
ENDBRANCH  25  27
ENDBRANCH  24  25
ENDBRANCH  23  24
ENDBRANCH   1  23
TORSDOF 14
ENDMDL
MODEL 2
REMARK VINA RESULT:     -11.6      7.501     12.834
REMARK SMILES CC1(NC(=O)c2csc(/C=C/C(=O)OCCOC(=O)c3ccc(-c4c5nc(c(-c6c(F)c(F)c(F)c(F)c6F)c6ccc([nH]6)c(-c6c(F)c(F)c(F)c(F)c6F)c6nc(c(-c7c(F)c(F)c(F)c(F)c7F)c7ccc4[nH]7)C=C6)C=C5)cc3)c2)CCCCC1
REMARK SMILES IDX 15 1 14 2 12 3 13 4 11 5 10 6 9 7 6 8 7 9 83 10 8 11 4 12
REMARK SMILES IDX 3 13 5 15 2 16 1 17 84 18 88 19 85 20 87 21 86 22 16 23
REMARK SMILES IDX 17 24 18 25 19 26 20 27 21 28 82 29 22 30 81 31 23 32 24 33
REMARK SMILES IDX 25 34 75 35 26 36 80 37 74 38 76 39 27 40 79 41 73 42 72 43
REMARK SMILES IDX 28 45 60 46 40 47 59 48 41 49 44 50 58 51 77 52 42 53 43 54
REMARK SMILES IDX 57 56 78 57 45 58 29 59 30 60 38 61 31 62 32 63 36 64 39 65
REMARK SMILES IDX 33 66 34 67 37 68 35 69 61 70 62 71 70 72 63 73 64 74 68 75
REMARK SMILES IDX 71 76 65 77 66 78 69 79 67 80 46 81 47 82 55 83 48 84 49 85
REMARK SMILES IDX 53 86 56 87 50 88 51 89 54 90 52 91
REMARK H PARENT 3 14 76 44 44 55
REMARK Flexibility Score: inf
ROOT
ATOM      1  C   UNL A   1      42.410  19.241  26.542  1.00  0.00     0.275 C 
ENDROOT
BRANCH   1   2
ATOM      2  O   UNL A   1      41.896  20.425  25.898  1.00  0.00    -0.459 OA
BRANCH   2   3
ATOM      3  C   UNL A   1      41.629  21.465  26.723  1.00  0.00     0.330 C 
ATOM      4  O   UNL A   1      42.328  21.844  27.653  1.00  0.00    -0.247 OA
BRANCH   3   5
ATOM      5  C   UNL A   1      40.388  22.183  26.373  1.00  0.00     0.095 C 
ATOM      6  C   UNL A   1      39.212  21.619  26.063  1.00  0.00     0.026 C 
BRANCH   6   7
ATOM      7  C   UNL A   1      38.048  22.371  25.693  1.00  0.00     0.028 A 
ATOM      8  C   UNL A   1      36.057  22.989  24.556  1.00  0.00     0.051 A 
ATOM      9  C   UNL A   1      36.254  24.077  25.377  1.00  0.00     0.079 A 
ATOM     10  C   UNL A   1      37.061  21.987  24.800  1.00  0.00     0.033 A 
ATOM     11  S   UNL A   1      37.689  23.949  26.294  1.00  0.00    -0.144 S 
BRANCH   8  12
ATOM     12  C   UNL A   1      34.931  22.802  23.666  1.00  0.00     0.252 C 
ATOM     13  N   UNL A   1      33.813  22.114  24.045  1.00  0.00    -0.347 N 
ATOM     14  H   UNL A   1      33.103  22.211  23.369  1.00  0.00     0.164 HD
ATOM     15  O   UNL A   1      34.915  23.337  22.558  1.00  0.00    -0.269 OA
BRANCH  13  16
ATOM     16  C   UNL A   1      33.350  21.267  25.170  1.00  0.00     0.038 C 
ATOM     17  C   UNL A   1      33.895  19.848  24.922  1.00  0.00     0.034 C 
ATOM     18  C   UNL A   1      33.727  21.703  26.602  1.00  0.00     0.028 C 
ATOM     19  C   UNL A   1      31.797  21.219  25.093  1.00  0.00     0.028 C 
ATOM     20  C   UNL A   1      33.086  23.017  27.040  1.00  0.00     0.002 C 
ATOM     21  C   UNL A   1      31.153  22.550  25.494  1.00  0.00     0.002 C 
ATOM     22  C   UNL A   1      31.571  22.975  26.898  1.00  0.00     0.000 C 
ENDBRANCH  13  16
ENDBRANCH   8  12
ENDBRANCH   6   7
ENDBRANCH   3   5
ENDBRANCH   2   3
ENDBRANCH   1   2
BRANCH   1  23
ATOM     23  C   UNL A   1      43.293  18.409  25.604  1.00  0.00     0.275 C 
BRANCH  23  24
ATOM     24  O   UNL A   1      43.538  19.073  24.351  1.00  0.00    -0.458 OA
BRANCH  24  25
ATOM     25  C   UNL A   1      44.817  19.467  24.147  1.00  0.00     0.338 C 
ATOM     26  O   UNL A   1      45.717  18.818  23.633  1.00  0.00    -0.246 OA
BRANCH  25  27
ATOM     27  C   UNL A   1      44.968  20.882  24.525  1.00  0.00     0.060 A 
ATOM     28  C   UNL A   1      45.528  21.171  25.774  1.00  0.00     0.016 A 
ATOM     29  C   UNL A   1      44.530  21.913  23.690  1.00  0.00     0.016 A 
ATOM     30  C   UNL A   1      45.671  22.496  26.185  1.00  0.00     0.010 A 
ATOM     31  C   UNL A   1      44.669  23.242  24.107  1.00  0.00     0.010 A 
ATOM     32  C   UNL A   1      45.241  23.541  25.356  1.00  0.00    -0.014 A 
BRANCH  32  33
ATOM     33  C   UNL A   1      45.394  24.950  25.793  1.00  0.00     0.031 A 
ATOM     34  C   UNL A   1      46.730  25.626  25.711  1.00  0.00     0.074 A 
ATOM     35  C   UNL A   1      44.325  25.618  26.264  1.00  0.00     0.049 A 
ATOM     36  N   UNL A   1      47.083  26.817  26.127  1.00  0.00    -0.248 NA
ATOM     37  C   UNL A   1      47.815  24.865  25.073  1.00  0.00     0.031 C 
ATOM     38  C   UNL A   1      42.969  25.080  26.355  1.00  0.00     0.029 A 
ATOM     39  N   UNL A   1      44.216  26.892  26.766  1.00  0.00    -0.354 N 
ATOM     40  C   UNL A   1      48.424  26.951  25.797  1.00  0.00     0.074 A 
ATOM     41  C   UNL A   1      48.832  25.710  25.171  1.00  0.00     0.031 C 
ATOM     42  C   UNL A   1      42.165  26.011  26.897  1.00  0.00     0.029 A 
ATOM     43  C   UNL A   1      42.957  27.191  27.229  1.00  0.00     0.049 A 
ATOM     44  H   UNL A   1      44.966  27.528  26.792  1.00  0.00     0.167 HD
ATOM     45  C   UNL A   1      49.235  28.018  25.992  1.00  0.00     0.037 A 
ATOM     46  C   UNL A   1      42.507  28.280  27.881  1.00  0.00     0.037 A 
ATOM     47  C   UNL A   1      48.829  29.247  26.622  1.00  0.00     0.049 A 
ATOM     48  C   UNL A   1      43.458  29.411  28.174  1.00  0.00     0.074 A 
ATOM     49  C   UNL A   1      49.582  30.384  26.863  1.00  0.00     0.029 A 
ATOM     50  N   UNL A   1      47.558  29.498  27.115  1.00  0.00    -0.354 N 
ATOM     51  N   UNL A   1      44.722  29.532  27.853  1.00  0.00    -0.248 NA
ATOM     52  C   UNL A   1      42.919  30.552  28.930  1.00  0.00     0.031 C 
ATOM     53  C   UNL A   1      48.777  31.307  27.538  1.00  0.00     0.029 A 
ATOM     54  C   UNL A   1      47.511  30.762  27.682  1.00  0.00     0.049 A 
ATOM     55  H   UNL A   1      46.800  28.871  27.070  1.00  0.00     0.167 HD
ATOM     56  C   UNL A   1      45.126  30.763  28.353  1.00  0.00     0.074 A 
ATOM     57  C   UNL A   1      43.967  31.362  28.981  1.00  0.00     0.031 C 
ATOM     58  C   UNL A   1      46.349  31.342  28.302  1.00  0.00     0.037 A 
BRANCH  45  59
ATOM     59  C   UNL A   1      50.656  27.907  25.525  1.00  0.00     0.064 A 
ATOM     60  C   UNL A   1      50.991  28.045  24.171  1.00  0.00     0.173 A 
ATOM     61  C   UNL A   1      51.698  27.735  26.448  1.00  0.00     0.173 A 
ATOM     62  F   UNL A   1      50.029  28.202  23.250  1.00  0.00    -0.203 F 
ATOM     63  C   UNL A   1      52.319  28.002  23.755  1.00  0.00     0.198 A 
ATOM     64  C   UNL A   1      53.027  27.716  26.032  1.00  0.00     0.198 A 
ATOM     65  F   UNL A   1      51.430  27.607  27.756  1.00  0.00    -0.203 F 
ATOM     66  F   UNL A   1      52.617  28.110  22.453  1.00  0.00    -0.200 F 
ATOM     67  C   UNL A   1      53.336  27.846  24.686  1.00  0.00     0.200 A 
ATOM     68  F   UNL A   1      54.008  27.576  26.934  1.00  0.00    -0.200 F 
ATOM     69  F   UNL A   1      54.615  27.820  24.286  1.00  0.00    -0.200 F 
ENDBRANCH  45  59
BRANCH  46  70
ATOM     70  C   UNL A   1      41.097  28.338  28.348  1.00  0.00     0.064 A 
ATOM     71  C   UNL A   1      40.085  28.868  27.538  1.00  0.00     0.173 A 
ATOM     72  C   UNL A   1      40.743  27.896  29.631  1.00  0.00     0.173 A 
ATOM     73  F   UNL A   1      40.381  29.332  26.315  1.00  0.00    -0.203 F 
ATOM     74  C   UNL A   1      38.775  28.972  28.001  1.00  0.00     0.198 A 
ATOM     75  C   UNL A   1      39.427  27.973  30.082  1.00  0.00     0.198 A 
ATOM     76  F   UNL A   1      41.676  27.387  30.450  1.00  0.00    -0.203 F 
ATOM     77  F   UNL A   1      37.836  29.533  27.226  1.00  0.00    -0.200 F 
ATOM     78  C   UNL A   1      38.446  28.521  29.270  1.00  0.00     0.200 A 
ATOM     79  F   UNL A   1      39.113  27.528  31.307  1.00  0.00    -0.200 F 
ATOM     80  F   UNL A   1      37.187  28.626  29.716  1.00  0.00    -0.200 F 
ENDBRANCH  46  70
BRANCH  58  81
ATOM     81  C   UNL A   1      46.496  32.697  28.929  1.00  0.00     0.064 A 
ATOM     82  C   UNL A   1      46.226  33.867  28.205  1.00  0.00     0.173 A 
ATOM     83  C   UNL A   1      46.863  32.825  30.277  1.00  0.00     0.173 A 
ATOM     84  F   UNL A   1      45.888  33.796  26.908  1.00  0.00    -0.203 F 
ATOM     85  C   UNL A   1      46.333  35.119  28.805  1.00  0.00     0.198 A 
ATOM     86  C   UNL A   1      46.945  34.077  30.880  1.00  0.00     0.198 A 
ATOM     87  F   UNL A   1      47.127  31.734  31.012  1.00  0.00    -0.203 F 
ATOM     88  F   UNL A   1      46.106  36.227  28.085  1.00  0.00    -0.200 F 
ATOM     89  C   UNL A   1      46.685  35.223  30.142  1.00  0.00     0.200 A 
ATOM     90  F   UNL A   1      47.275  34.175  32.175  1.00  0.00    -0.200 F 
ATOM     91  F   UNL A   1      46.778  36.428  30.720  1.00  0.00    -0.200 F 
ENDBRANCH  58  81
ENDBRANCH  32  33
ENDBRANCH  25  27
ENDBRANCH  24  25
ENDBRANCH  23  24
ENDBRANCH   1  23
TORSDOF 14
ENDMDL
MODEL 3
REMARK VINA RESULT:     -11.3      4.203      9.257
REMARK SMILES CC1(NC(=O)c2csc(/C=C/C(=O)OCCOC(=O)c3ccc(-c4c5nc(c(-c6c(F)c(F)c(F)c(F)c6F)c6ccc([nH]6)c(-c6c(F)c(F)c(F)c(F)c6F)c6nc(c(-c7c(F)c(F)c(F)c(F)c7F)c7ccc4[nH]7)C=C6)C=C5)cc3)c2)CCCCC1
REMARK SMILES IDX 15 1 14 2 12 3 13 4 11 5 10 6 9 7 6 8 7 9 83 10 8 11 4 12
REMARK SMILES IDX 3 13 5 15 2 16 1 17 84 18 88 19 85 20 87 21 86 22 16 23
REMARK SMILES IDX 17 24 18 25 19 26 20 27 21 28 82 29 22 30 81 31 23 32 24 33
REMARK SMILES IDX 25 34 75 35 26 36 80 37 74 38 76 39 27 40 79 41 73 42 72 43
REMARK SMILES IDX 28 45 60 46 40 47 59 48 41 49 44 50 58 51 77 52 42 53 43 54
REMARK SMILES IDX 57 56 78 57 45 58 29 59 30 60 38 61 31 62 32 63 36 64 39 65
REMARK SMILES IDX 33 66 34 67 37 68 35 69 61 70 62 71 70 72 63 73 64 74 68 75
REMARK SMILES IDX 71 76 65 77 66 78 69 79 67 80 46 81 47 82 55 83 48 84 49 85
REMARK SMILES IDX 53 86 56 87 50 88 51 89 54 90 52 91
REMARK H PARENT 3 14 76 44 44 55
REMARK Flexibility Score: inf
ROOT
ATOM      1  C   UNL A   1      42.152  20.930  26.117  1.00  0.00     0.275 C 
ENDROOT
BRANCH   1   2
ATOM      2  O   UNL A   1      40.844  21.159  25.556  1.00  0.00    -0.459 OA
BRANCH   2   3
ATOM      3  C   UNL A   1      39.883  21.507  26.445  1.00  0.00     0.330 C 
ATOM      4  O   UNL A   1      40.069  21.889  27.592  1.00  0.00    -0.247 OA
BRANCH   3   5
ATOM      5  C   UNL A   1      38.519  21.436  25.886  1.00  0.00     0.095 C 
ATOM      6  C   UNL A   1      37.865  22.435  25.275  1.00  0.00     0.026 C 
BRANCH   6   7
ATOM      7  C   UNL A   1      36.522  22.316  24.785  1.00  0.00     0.028 A 
ATOM      8  C   UNL A   1      34.497  22.854  23.669  1.00  0.00     0.051 A 
ATOM      9  C   UNL A   1      34.166  21.666  24.282  1.00  0.00     0.079 A 
ATOM     10  C   UNL A   1      35.877  23.179  23.913  1.00  0.00     0.033 A 
ATOM     11  S   UNL A   1      35.438  21.052  25.242  1.00  0.00    -0.144 S 
BRANCH   8  12
ATOM     12  C   UNL A   1      33.634  23.614  22.789  1.00  0.00     0.252 C 
ATOM     13  N   UNL A   1      32.688  24.476  23.268  1.00  0.00    -0.347 N 
ATOM     14  H   UNL A   1      32.299  25.004  22.533  1.00  0.00     0.164 HD
ATOM     15  O   UNL A   1      33.787  23.565  21.570  1.00  0.00    -0.269 OA
BRANCH  13  16
ATOM     16  C   UNL A   1      32.074  24.855  24.563  1.00  0.00     0.038 C 
ATOM     17  C   UNL A   1      31.000  23.798  24.881  1.00  0.00     0.034 C 
ATOM     18  C   UNL A   1      33.005  25.002  25.785  1.00  0.00     0.028 C 
ATOM     19  C   UNL A   1      31.370  26.226  24.348  1.00  0.00     0.028 C 
ATOM     20  C   UNL A   1      34.002  26.153  25.672  1.00  0.00     0.002 C 
ATOM     21  C   UNL A   1      32.370  27.376  24.194  1.00  0.00     0.002 C 
ATOM     22  C   UNL A   1      33.300  27.475  25.398  1.00  0.00     0.000 C 
ENDBRANCH  13  16
ENDBRANCH   8  12
ENDBRANCH   6   7
ENDBRANCH   3   5
ENDBRANCH   2   3
ENDBRANCH   1   2
BRANCH   1  23
ATOM     23  C   UNL A   1      43.242  21.726  25.390  1.00  0.00     0.275 C 
BRANCH  23  24
ATOM     24  O   UNL A   1      42.796  23.039  25.006  1.00  0.00    -0.458 OA
BRANCH  24  25
ATOM     25  C   UNL A   1      43.723  24.019  25.123  1.00  0.00     0.338 C 
ATOM     26  O   UNL A   1      44.690  24.212  24.398  1.00  0.00    -0.246 OA
BRANCH  25  27
ATOM     27  C   UNL A   1      43.340  24.942  26.205  1.00  0.00     0.060 A 
ATOM     28  C   UNL A   1      42.398  24.500  27.141  1.00  0.00     0.016 A 
ATOM     29  C   UNL A   1      43.860  26.236  26.281  1.00  0.00     0.016 A 
ATOM     30  C   UNL A   1      41.988  25.346  28.170  1.00  0.00     0.010 A 
ATOM     31  C   UNL A   1      43.441  27.086  27.311  1.00  0.00     0.010 A 
ATOM     32  C   UNL A   1      42.504  26.645  28.262  1.00  0.00    -0.014 A 
BRANCH  32  33
ATOM     33  C   UNL A   1      42.067  27.545  29.357  1.00  0.00     0.031 A 
ATOM     34  C   UNL A   1      42.799  27.552  30.667  1.00  0.00     0.074 A 
ATOM     35  C   UNL A   1      41.010  28.356  29.168  1.00  0.00     0.049 A 
ATOM     36  N   UNL A   1      42.515  28.198  31.770  1.00  0.00    -0.248 NA
ATOM     37  C   UNL A   1      44.014  26.726  30.746  1.00  0.00     0.031 C 
ATOM     38  C   UNL A   1      40.244  28.466  27.928  1.00  0.00     0.029 A 
ATOM     39  N   UNL A   1      40.390  29.232  30.025  1.00  0.00    -0.354 N 
ATOM     40  C   UNL A   1      43.516  27.863  32.672  1.00  0.00     0.074 A 
ATOM     41  C   UNL A   1      44.401  26.935  31.998  1.00  0.00     0.031 C 
ATOM     42  C   UNL A   1      39.246  29.346  28.107  1.00  0.00     0.029 A 
ATOM     43  C   UNL A   1      39.276  29.829  29.485  1.00  0.00     0.049 A 
ATOM     44  H   UNL A   1      40.712  29.415  30.937  1.00  0.00     0.167 HD
ATOM     45  C   UNL A   1      43.683  28.300  33.943  1.00  0.00     0.037 A 
ATOM     46  C   UNL A   1      38.364  30.641  30.052  1.00  0.00     0.037 A 
ATOM     47  C   UNL A   1      42.797  29.217  34.613  1.00  0.00     0.049 A 
ATOM     48  C   UNL A   1      38.521  31.031  31.498  1.00  0.00     0.074 A 
ATOM     49  C   UNL A   1      42.886  29.717  35.901  1.00  0.00     0.029 A 
ATOM     50  N   UNL A   1      41.658  29.768  34.048  1.00  0.00    -0.354 N 
ATOM     51  N   UNL A   1      39.473  30.716  32.342  1.00  0.00    -0.248 NA
ATOM     52  C   UNL A   1      37.469  31.883  32.074  1.00  0.00     0.031 C 
ATOM     53  C   UNL A   1      41.778  30.540  36.129  1.00  0.00     0.029 A 
ATOM     54  C   UNL A   1      41.020  30.583  34.970  1.00  0.00     0.049 A 
ATOM     55  H   UNL A   1      41.346  29.603  33.129  1.00  0.00     0.167 HD
ATOM     56  C   UNL A   1      39.144  31.338  33.538  1.00  0.00     0.074 A 
ATOM     57  C   UNL A   1      37.915  32.068  33.308  1.00  0.00     0.031 C 
ATOM     58  C   UNL A   1      39.798  31.303  34.724  1.00  0.00     0.037 A 
BRANCH  45  59
ATOM     59  C   UNL A   1      44.868  27.788  34.706  1.00  0.00     0.064 A 
ATOM     60  C   UNL A   1      44.793  26.611  35.465  1.00  0.00     0.173 A 
ATOM     61  C   UNL A   1      46.107  28.440  34.620  1.00  0.00     0.173 A 
ATOM     62  F   UNL A   1      43.628  25.958  35.585  1.00  0.00    -0.203 F 
ATOM     63  C   UNL A   1      45.915  26.111  36.120  1.00  0.00     0.198 A 
ATOM     64  C   UNL A   1      47.232  27.925  35.258  1.00  0.00     0.198 A 
ATOM     65  F   UNL A   1      46.232  29.564  33.900  1.00  0.00    -0.203 F 
ATOM     66  F   UNL A   1      45.816  24.998  36.861  1.00  0.00    -0.200 F 
ATOM     67  C   UNL A   1      47.135  26.762  36.009  1.00  0.00     0.200 A 
ATOM     68  F   UNL A   1      48.412  28.549  35.141  1.00  0.00    -0.200 F 
ATOM     69  F   UNL A   1      48.217  26.272  36.629  1.00  0.00    -0.200 F 
ENDBRANCH  45  59
BRANCH  46  70
ATOM     70  C   UNL A   1      37.191  31.106  29.267  1.00  0.00     0.064 A 
ATOM     71  C   UNL A   1      37.099  32.427  28.812  1.00  0.00     0.173 A 
ATOM     72  C   UNL A   1      36.121  30.243  28.988  1.00  0.00     0.173 A 
ATOM     73  F   UNL A   1      38.083  33.298  29.081  1.00  0.00    -0.203 F 
ATOM     74  C   UNL A   1      35.972  32.874  28.125  1.00  0.00     0.198 A 
ATOM     75  C   UNL A   1      35.008  30.682  28.275  1.00  0.00     0.198 A 
ATOM     76  F   UNL A   1      36.156  28.969  29.408  1.00  0.00    -0.203 F 
ATOM     77  F   UNL A   1      35.885  34.157  27.748  1.00  0.00    -0.200 F 
ATOM     78  C   UNL A   1      34.930  32.000  27.853  1.00  0.00     0.200 A 
ATOM     79  F   UNL A   1      34.007  29.831  28.009  1.00  0.00    -0.200 F 
ATOM     80  F   UNL A   1      33.844  32.432  27.197  1.00  0.00    -0.200 F 
ENDBRANCH  46  70
BRANCH  58  81
ATOM     81  C   UNL A   1      39.208  32.085  35.860  1.00  0.00     0.064 A 
ATOM     82  C   UNL A   1      38.311  31.494  36.762  1.00  0.00     0.173 A 
ATOM     83  C   UNL A   1      39.577  33.421  36.075  1.00  0.00     0.173 A 
ATOM     84  F   UNL A   1      37.915  30.224  36.586  1.00  0.00    -0.203 F 
ATOM     85  C   UNL A   1      37.794  32.219  37.832  1.00  0.00     0.198 A 
ATOM     86  C   UNL A   1      39.076  34.134  37.161  1.00  0.00     0.198 A 
ATOM     87  F   UNL A   1      40.435  34.028  35.242  1.00  0.00    -0.203 F 
ATOM     88  F   UNL A   1      36.910  31.646  38.662  1.00  0.00    -0.200 F 
ATOM     89  C   UNL A   1      38.181  33.535  38.035  1.00  0.00     0.200 A 
ATOM     90  F   UNL A   1      39.460  35.402  37.362  1.00  0.00    -0.200 F 
ATOM     91  F   UNL A   1      37.689  34.227  39.071  1.00  0.00    -0.200 F 
ENDBRANCH  58  81
ENDBRANCH  32  33
ENDBRANCH  25  27
ENDBRANCH  24  25
ENDBRANCH  23  24
ENDBRANCH   1  23
TORSDOF 14
ENDMDL
