MODEL 1
REMARK VINA RESULT:     -13.7      0.000      0.000
REMARK SMILES O=C(OCCOC(=O)[C@@H]1C=C[C@@H](NS(=O)(=O)c2ccc(F)c(F)c2F)C1)c1ccc(-c2c3nc(c(-c4c(F)c(F)c(F)c(F)c4F)c4ccc([nH]4)c(-c4c(F)c(F)c(F)c(F)c4F)c4nc(c(-c5c(F)c(F)c(F)c(F)c5F)c5ccc2[nH]5)C=C4)C=C3)cc1
REMARK SMILES IDX 5 1 4 2 3 3 2 4 1 5 27 6 28 7 89 8 29 9 88 10 30 11 31 12
REMARK SMILES IDX 32 13 82 14 33 15 87 16 81 17 83 18 34 19 86 20 80 21 79 22
REMARK SMILES IDX 35 24 67 25 47 26 66 27 48 28 51 29 65 30 84 31 49 32 50 33
REMARK SMILES IDX 64 35 85 36 52 37 36 38 37 39 45 40 38 41 39 42 43 43 46 44
REMARK SMILES IDX 40 45 41 46 44 47 42 48 68 49 69 50 77 51 70 52 71 53 75 54
REMARK SMILES IDX 78 55 72 56 73 57 76 58 74 59 53 60 54 61 62 62 55 63 56 64
REMARK SMILES IDX 60 65 63 66 57 67 58 68 61 69 59 70 6 71 7 72 8 73 9 74
REMARK SMILES IDX 10 75 26 76 11 77 12 78 13 79 14 81 15 82 16 83 17 84 18 85
REMARK SMILES IDX 24 86 19 87 22 88 25 89 20 90 23 91 21 92
REMARK H PARENT 83 23 51 34 13 80
REMARK Flexibility Score: inf
ROOT
ATOM      1  C   UNL A   1      31.958  31.258  26.583  1.00  0.00     0.274 C 
ENDROOT
BRANCH   1   2
ATOM      2  C   UNL A   1      31.755  32.732  27.019  1.00  0.00     0.275 C 
BRANCH   2   3
ATOM      3  O   UNL A   1      32.938  33.492  27.275  1.00  0.00    -0.458 OA
BRANCH   3   4
ATOM      4  C   UNL A   1      33.676  33.475  28.407  1.00  0.00     0.338 C 
ATOM      5  O   UNL A   1      33.398  34.234  29.330  1.00  0.00    -0.246 OA
BRANCH   4   6
ATOM      6  C   UNL A   1      34.964  32.725  28.454  1.00  0.00     0.060 A 
ATOM      7  C   UNL A   1      36.265  33.260  28.404  1.00  0.00     0.016 A 
ATOM      8  C   UNL A   1      34.813  31.377  28.730  1.00  0.00     0.016 A 
ATOM      9  C   UNL A   1      37.364  32.561  28.920  1.00  0.00     0.010 A 
ATOM     10  C   UNL A   1      35.905  30.677  29.203  1.00  0.00     0.010 A 
ATOM     11  C   UNL A   1      37.171  31.284  29.399  1.00  0.00    -0.014 A 
BRANCH  11  12
ATOM     12  C   UNL A   1      38.224  30.433  30.041  1.00  0.00     0.031 A 
ATOM     13  C   UNL A   1      38.530  31.282  31.535  1.00  0.00     0.074 A 
ATOM     14  C   UNL A   1      38.862  29.417  29.237  1.00  0.00     0.049 A 
ATOM     15  N   UNL A   1      39.647  31.560  32.181  1.00  0.00    -0.248 NA
ATOM     16  C   UNL A   1      37.423  31.988  32.237  1.00  0.00     0.031 C 
ATOM     17  C   UNL A   1      38.605  28.874  27.848  1.00  0.00     0.029 A 
ATOM     18  N   UNL A   1      40.060  28.732  29.356  1.00  0.00    -0.354 N 
ATOM     19  C   UNL A   1      39.407  32.155  33.418  1.00  0.00     0.074 A 
ATOM     20  C   UNL A   1      38.040  32.631  33.244  1.00  0.00     0.031 C 
ATOM     21  C   UNL A   1      39.643  28.065  27.403  1.00  0.00     0.029 A 
ATOM     22  C   UNL A   1      40.648  27.911  28.442  1.00  0.00     0.049 A 
ATOM     23  H   UNL A   1      40.545  28.852  30.205  1.00  0.00     0.167 HD
ATOM     24  C   UNL A   1      40.095  32.004  34.627  1.00  0.00     0.037 A 
ATOM     25  C   UNL A   1      41.873  27.298  28.727  1.00  0.00     0.037 A 
ATOM     26  C   UNL A   1      41.228  31.010  34.933  1.00  0.00     0.049 A 
ATOM     27  C   UNL A   1      42.661  27.278  30.266  1.00  0.00     0.074 A 
ATOM     28  C   UNL A   1      41.443  30.319  36.124  1.00  0.00     0.029 A 
ATOM     29  N   UNL A   1      42.126  30.361  34.039  1.00  0.00    -0.354 N 
ATOM     30  N   UNL A   1      42.404  27.964  31.382  1.00  0.00    -0.248 NA
ATOM     31  C   UNL A   1      43.784  26.358  30.519  1.00  0.00     0.031 C 
ATOM     32  C   UNL A   1      42.179  29.138  35.844  1.00  0.00     0.029 A 
ATOM     33  C   UNL A   1      42.511  29.078  34.487  1.00  0.00     0.049 A 
ATOM     34  H   UNL A   1      42.446  30.763  33.199  1.00  0.00     0.167 HD
ATOM     35  C   UNL A   1      43.232  27.589  32.435  1.00  0.00     0.074 A 
ATOM     36  C   UNL A   1      44.058  26.551  31.820  1.00  0.00     0.031 C 
ATOM     37  C   UNL A   1      43.277  28.006  33.758  1.00  0.00     0.037 A 
BRANCH  24  38
ATOM     38  C   UNL A   1      39.370  32.507  35.872  1.00  0.00     0.064 A 
ATOM     39  C   UNL A   1      39.710  33.735  36.457  1.00  0.00     0.173 A 
ATOM     40  C   UNL A   1      38.456  31.701  36.585  1.00  0.00     0.173 A 
ATOM     41  F   UNL A   1      40.651  34.510  35.898  1.00  0.00    -0.203 F 
ATOM     42  C   UNL A   1      39.117  34.160  37.651  1.00  0.00     0.198 A 
ATOM     43  C   UNL A   1      37.829  32.147  37.746  1.00  0.00     0.198 A 
ATOM     44  F   UNL A   1      38.164  30.462  36.162  1.00  0.00    -0.203 F 
ATOM     45  F   UNL A   1      39.485  35.324  38.203  1.00  0.00    -0.200 F 
ATOM     46  C   UNL A   1      38.159  33.379  38.280  1.00  0.00     0.200 A 
ATOM     47  F   UNL A   1      36.913  31.375  38.348  1.00  0.00    -0.200 F 
ATOM     48  F   UNL A   1      37.570  33.801  39.406  1.00  0.00    -0.200 F 
ENDBRANCH  24  38
BRANCH  25  49
ATOM     49  C   UNL A   1      42.636  26.616  27.656  1.00  0.00     0.064 A 
ATOM     50  C   UNL A   1      42.366  25.279  27.331  1.00  0.00     0.173 A 
ATOM     51  C   UNL A   1      43.546  27.311  26.854  1.00  0.00     0.173 A 
ATOM     52  F   UNL A   1      41.444  24.589  28.016  1.00  0.00    -0.203 F 
ATOM     53  C   UNL A   1      43.012  24.649  26.268  1.00  0.00     0.198 A 
ATOM     54  C   UNL A   1      44.186  26.683  25.784  1.00  0.00     0.198 A 
ATOM     55  F   UNL A   1      43.764  28.616  27.066  1.00  0.00    -0.203 F 
ATOM     56  F   UNL A   1      42.736  23.371  25.977  1.00  0.00    -0.200 F 
ATOM     57  C   UNL A   1      43.927  25.351  25.498  1.00  0.00     0.200 A 
ATOM     58  F   UNL A   1      45.031  27.379  25.011  1.00  0.00    -0.200 F 
ATOM     59  F   UNL A   1      44.544  24.750  24.472  1.00  0.00    -0.200 F 
ENDBRANCH  25  49
BRANCH  37  60
ATOM     60  C   UNL A   1      44.131  27.136  34.677  1.00  0.00     0.064 A 
ATOM     61  C   UNL A   1      43.629  25.923  35.195  1.00  0.00     0.173 A 
ATOM     62  C   UNL A   1      45.389  27.551  35.134  1.00  0.00     0.173 A 
ATOM     63  F   UNL A   1      42.426  25.471  34.810  1.00  0.00    -0.203 F 
ATOM     64  C   UNL A   1      44.330  25.193  36.160  1.00  0.00     0.198 A 
ATOM     65  C   UNL A   1      46.101  26.801  36.076  1.00  0.00     0.198 A 
ATOM     66  F   UNL A   1      45.932  28.682  34.664  1.00  0.00    -0.203 F 
ATOM     67  F   UNL A   1      43.795  24.078  36.680  1.00  0.00    -0.200 F 
ATOM     68  C   UNL A   1      45.566  25.634  36.600  1.00  0.00     0.200 A 
ATOM     69  F   UNL A   1      47.309  27.216  36.485  1.00  0.00    -0.200 F 
ATOM     70  F   UNL A   1      46.238  24.938  37.529  1.00  0.00    -0.200 F 
ENDBRANCH  37  60
ENDBRANCH  11  12
ENDBRANCH   4   6
ENDBRANCH   3   4
ENDBRANCH   2   3
ENDBRANCH   1   2
BRANCH   1  71
ATOM     71  O   UNL A   1      31.229  30.748  25.406  1.00  0.00    -0.462 OA
BRANCH  71  72
ATOM     72  C   UNL A   1      31.546  29.481  24.999  1.00  0.00     0.312 C 
ATOM     73  O   UNL A   1      31.193  29.067  23.892  1.00  0.00    -0.252 OA
BRANCH  72  74
ATOM     74  C   UNL A   1      32.298  28.497  25.998  1.00  0.00     0.123 C 
ATOM     75  C   UNL A   1      33.506  27.728  25.506  1.00  0.00    -0.015 C 
ATOM     76  C   UNL A   1      31.652  27.381  26.879  1.00  0.00     0.043 C 
ATOM     77  C   UNL A   1      33.438  26.403  25.786  1.00  0.00    -0.011 C 
ATOM     78  C   UNL A   1      32.056  26.025  26.199  1.00  0.00     0.093 C 
BRANCH  78  79
ATOM     79  N   UNL A   1      31.662  24.666  26.881  1.00  0.00    -0.204 NA
ATOM     80  H   UNL A   1      30.702  24.507  26.576  1.00  0.00     0.142 HD
BRANCH  79  81
ATOM     81  S   UNL A   1      32.502  22.892  26.760  1.00  0.00     0.244 S 
ATOM     82  O   UNL A   1      32.527  22.575  28.169  1.00  0.00    -0.207 OA
ATOM     83  O   UNL A   1      31.525  22.130  25.984  1.00  0.00    -0.207 OA
BRANCH  81  84
ATOM     84  C   UNL A   1      34.538  22.578  25.782  1.00  0.00     0.121 A 
ATOM     85  C   UNL A   1      35.532  23.539  25.643  1.00  0.00     0.028 A 
ATOM     86  C   UNL A   1      35.128  21.379  25.219  1.00  0.00     0.181 A 
ATOM     87  C   UNL A   1      36.934  23.333  25.524  1.00  0.00     0.044 A 
ATOM     88  C   UNL A   1      36.509  21.087  25.198  1.00  0.00     0.195 A 
ATOM     89  F   UNL A   1      34.448  20.396  24.625  1.00  0.00    -0.202 F 
ATOM     90  C   UNL A   1      37.423  22.067  25.430  1.00  0.00     0.161 A 
ATOM     91  F   UNL A   1      36.921  19.838  24.933  1.00  0.00    -0.200 F 
ATOM     92  F   UNL A   1      38.737  21.826  25.453  1.00  0.00    -0.204 F 
ENDBRANCH  81  84
ENDBRANCH  79  81
ENDBRANCH  78  79
ENDBRANCH  72  74
ENDBRANCH  71  72
ENDBRANCH   1  71
TORSDOF 14
ENDMDL
MODEL 2
REMARK VINA RESULT:     -13.6      0.378      1.635
REMARK SMILES O=C(OCCOC(=O)[C@@H]1C=C[C@@H](NS(=O)(=O)c2ccc(F)c(F)c2F)C1)c1ccc(-c2c3nc(c(-c4c(F)c(F)c(F)c(F)c4F)c4ccc([nH]4)c(-c4c(F)c(F)c(F)c(F)c4F)c4nc(c(-c5c(F)c(F)c(F)c(F)c5F)c5ccc2[nH]5)C=C4)C=C3)cc1
REMARK SMILES IDX 5 1 4 2 3 3 2 4 1 5 27 6 28 7 89 8 29 9 88 10 30 11 31 12
REMARK SMILES IDX 32 13 82 14 33 15 87 16 81 17 83 18 34 19 86 20 80 21 79 22
REMARK SMILES IDX 35 24 67 25 47 26 66 27 48 28 51 29 65 30 84 31 49 32 50 33
REMARK SMILES IDX 64 35 85 36 52 37 36 38 37 39 45 40 38 41 39 42 43 43 46 44
REMARK SMILES IDX 40 45 41 46 44 47 42 48 68 49 69 50 77 51 70 52 71 53 75 54
REMARK SMILES IDX 78 55 72 56 73 57 76 58 74 59 53 60 54 61 62 62 55 63 56 64
REMARK SMILES IDX 60 65 63 66 57 67 58 68 61 69 59 70 6 71 7 72 8 73 9 74
REMARK SMILES IDX 10 75 26 76 11 77 12 78 13 79 14 81 15 82 16 83 17 84 18 85
REMARK SMILES IDX 24 86 19 87 22 88 25 89 20 90 23 91 21 92
REMARK H PARENT 83 23 51 34 13 80
REMARK Flexibility Score: inf
ROOT
ATOM      1  C   UNL A   1      31.989  31.571  26.873  1.00  0.00     0.274 C 
ENDROOT
BRANCH   1   2
ATOM      2  C   UNL A   1      31.959  33.089  27.185  1.00  0.00     0.275 C 
BRANCH   2   3
ATOM      3  O   UNL A   1      33.209  33.700  27.511  1.00  0.00    -0.458 OA
BRANCH   3   4
ATOM      4  C   UNL A   1      33.901  33.553  28.663  1.00  0.00     0.338 C 
ATOM      5  O   UNL A   1      33.594  34.216  29.649  1.00  0.00    -0.246 OA
BRANCH   4   6
ATOM      6  C   UNL A   1      35.177  32.783  28.681  1.00  0.00     0.060 A 
ATOM      7  C   UNL A   1      36.485  33.300  28.648  1.00  0.00     0.016 A 
ATOM      8  C   UNL A   1      35.006  31.428  28.909  1.00  0.00     0.016 A 
ATOM      9  C   UNL A   1      37.574  32.566  29.138  1.00  0.00     0.010 A 
ATOM     10  C   UNL A   1      36.087  30.695  29.355  1.00  0.00     0.010 A 
ATOM     11  C   UNL A   1      37.362  31.275  29.571  1.00  0.00    -0.014 A 
BRANCH  11  12
ATOM     12  C   UNL A   1      38.403  30.386  30.181  1.00  0.00     0.031 A 
ATOM     13  C   UNL A   1      38.771  31.212  31.673  1.00  0.00     0.074 A 
ATOM     14  C   UNL A   1      38.989  29.357  29.354  1.00  0.00     0.049 A 
ATOM     15  N   UNL A   1      39.912  31.450  32.294  1.00  0.00    -0.248 NA
ATOM     16  C   UNL A   1      37.705  31.948  32.407  1.00  0.00     0.031 C 
ATOM     17  C   UNL A   1      38.680  28.834  27.967  1.00  0.00     0.029 A 
ATOM     18  N   UNL A   1      40.167  28.633  29.438  1.00  0.00    -0.354 N 
ATOM     19  C   UNL A   1      39.721  32.042  33.540  1.00  0.00     0.074 A 
ATOM     20  C   UNL A   1      38.367  32.562  33.404  1.00  0.00     0.031 C 
ATOM     21  C   UNL A   1      39.681  27.996  27.491  1.00  0.00     0.029 A 
ATOM     22  C   UNL A   1      40.706  27.802  28.504  1.00  0.00     0.049 A 
ATOM     23  H   UNL A   1      40.675  28.731  30.276  1.00  0.00     0.167 HD
ATOM     24  C   UNL A   1      40.433  31.859  34.731  1.00  0.00     0.037 A 
ATOM     25  C   UNL A   1      41.917  27.148  28.754  1.00  0.00     0.037 A 
ATOM     26  C   UNL A   1      41.541  30.827  35.002  1.00  0.00     0.049 A 
ATOM     27  C   UNL A   1      42.740  27.090  30.274  1.00  0.00     0.074 A 
ATOM     28  C   UNL A   1      41.763  30.120  36.182  1.00  0.00     0.029 A 
ATOM     29  N   UNL A   1      42.396  30.157  34.082  1.00  0.00    -0.354 N 
ATOM     30  N   UNL A   1      42.533  27.774  31.401  1.00  0.00    -0.248 NA
ATOM     31  C   UNL A   1      43.839  26.132  30.492  1.00  0.00     0.031 C 
ATOM     32  C   UNL A   1      42.454  28.918  35.875  1.00  0.00     0.029 A 
ATOM     33  C   UNL A   1      42.750  28.859  34.511  1.00  0.00     0.049 A 
ATOM     34  H   UNL A   1      42.708  30.556  33.238  1.00  0.00     0.167 HD
ATOM     35  C   UNL A   1      43.374  27.365  32.430  1.00  0.00     0.074 A 
ATOM     36  C   UNL A   1      44.151  26.306  31.788  1.00  0.00     0.031 C 
ATOM     37  C   UNL A   1      43.463  27.769  33.755  1.00  0.00     0.037 A 
BRANCH  24  38
ATOM     38  C   UNL A   1      39.755  32.375  35.997  1.00  0.00     0.064 A 
ATOM     39  C   UNL A   1      38.728  31.645  36.612  1.00  0.00     0.173 A 
ATOM     40  C   UNL A   1      40.002  33.668  36.507  1.00  0.00     0.173 A 
ATOM     41  F   UNL A   1      38.359  30.454  36.119  1.00  0.00    -0.203 F 
ATOM     42  C   UNL A   1      38.036  32.154  37.717  1.00  0.00     0.198 A 
ATOM     43  C   UNL A   1      39.348  34.152  37.638  1.00  0.00     0.198 A 
ATOM     44  F   UNL A   1      40.883  34.482  35.907  1.00  0.00    -0.203 F 
ATOM     45  F   UNL A   1      37.038  31.448  38.264  1.00  0.00    -0.200 F 
ATOM     46  C   UNL A   1      38.364  33.394  38.244  1.00  0.00     0.200 A 
ATOM     47  F   UNL A   1      39.669  35.358  38.129  1.00  0.00    -0.200 F 
ATOM     48  F   UNL A   1      37.721  33.866  39.321  1.00  0.00    -0.200 F 
ENDBRANCH  24  38
BRANCH  25  49
ATOM     49  C   UNL A   1      42.631  26.451  27.661  1.00  0.00     0.064 A 
ATOM     50  C   UNL A   1      42.295  25.133  27.316  1.00  0.00     0.173 A 
ATOM     51  C   UNL A   1      43.561  27.117  26.857  1.00  0.00     0.173 A 
ATOM     52  F   UNL A   1      41.352  24.474  28.003  1.00  0.00    -0.203 F 
ATOM     53  C   UNL A   1      42.895  24.494  26.232  1.00  0.00     0.198 A 
ATOM     54  C   UNL A   1      44.155  26.480  25.766  1.00  0.00     0.198 A 
ATOM     55  F   UNL A   1      43.843  28.407  27.088  1.00  0.00    -0.203 F 
ATOM     56  F   UNL A   1      42.555  23.235  25.923  1.00  0.00    -0.200 F 
ATOM     57  C   UNL A   1      43.830  25.167  25.461  1.00  0.00     0.200 A 
ATOM     58  F   UNL A   1      45.021  27.150  24.993  1.00  0.00    -0.200 F 
ATOM     59  F   UNL A   1      44.404  24.557  24.415  1.00  0.00    -0.200 F 
ENDBRANCH  25  49
BRANCH  37  60
ATOM     60  C   UNL A   1      44.312  26.864  34.646  1.00  0.00     0.064 A 
ATOM     61  C   UNL A   1      45.655  27.189  34.934  1.00  0.00     0.173 A 
ATOM     62  C   UNL A   1      43.840  25.632  35.117  1.00  0.00     0.173 A 
ATOM     63  F   UNL A   1      46.177  28.348  34.503  1.00  0.00    -0.203 F 
ATOM     64  C   UNL A   1      46.493  26.300  35.613  1.00  0.00     0.198 A 
ATOM     65  C   UNL A   1      44.674  24.760  35.824  1.00  0.00     0.198 A 
ATOM     66  F   UNL A   1      42.567  25.275  34.897  1.00  0.00    -0.203 F 
ATOM     67  F   UNL A   1      47.783  26.612  35.813  1.00  0.00    -0.200 F 
ATOM     68  C   UNL A   1      46.001  25.085  36.057  1.00  0.00     0.200 A 
ATOM     69  F   UNL A   1      44.191  23.593  36.275  1.00  0.00    -0.200 F 
ATOM     70  F   UNL A   1      46.805  24.229  36.704  1.00  0.00    -0.200 F 
ENDBRANCH  37  60
ENDBRANCH  11  12
ENDBRANCH   4   6
ENDBRANCH   3   4
ENDBRANCH   2   3
ENDBRANCH   1   2
BRANCH   1  71
ATOM     71  O   UNL A   1      31.219  31.056  25.724  1.00  0.00    -0.462 OA
BRANCH  71  72
ATOM     72  C   UNL A   1      31.519  29.786  25.314  1.00  0.00     0.312 C 
ATOM     73  O   UNL A   1      31.197  29.393  24.190  1.00  0.00    -0.252 OA
BRANCH  72  74
ATOM     74  C   UNL A   1      32.205  28.771  26.330  1.00  0.00     0.123 C 
ATOM     75  C   UNL A   1      33.461  28.040  25.906  1.00  0.00    -0.015 C 
ATOM     76  C   UNL A   1      31.510  27.611  27.110  1.00  0.00     0.043 C 
ATOM     77  C   UNL A   1      33.394  26.704  26.126  1.00  0.00    -0.011 C 
ATOM     78  C   UNL A   1      31.990  26.290  26.411  1.00  0.00     0.093 C 
BRANCH  78  79
ATOM     79  N   UNL A   1      31.567  24.898  27.002  1.00  0.00    -0.204 NA
ATOM     80  H   UNL A   1      30.578  24.818  26.763  1.00  0.00     0.142 HD
BRANCH  79  81
ATOM     81  S   UNL A   1      32.287  23.100  26.664  1.00  0.00     0.244 S 
ATOM     82  O   UNL A   1      32.185  22.576  28.007  1.00  0.00    -0.207 OA
ATOM     83  O   UNL A   1      31.319  22.542  25.722  1.00  0.00    -0.207 OA
BRANCH  81  84
ATOM     84  C   UNL A   1      34.363  22.771  25.779  1.00  0.00     0.121 A 
ATOM     85  C   UNL A   1      35.375  23.719  25.703  1.00  0.00     0.028 A 
ATOM     86  C   UNL A   1      34.961  21.572  25.226  1.00  0.00     0.181 A 
ATOM     87  C   UNL A   1      36.778  23.495  25.646  1.00  0.00     0.044 A 
ATOM     88  C   UNL A   1      36.338  21.261  25.265  1.00  0.00     0.195 A 
ATOM     89  F   UNL A   1      34.297  20.608  24.585  1.00  0.00    -0.202 F 
ATOM     90  C   UNL A   1      37.253  22.224  25.556  1.00  0.00     0.161 A 
ATOM     91  F   UNL A   1      36.744  20.010  25.001  1.00  0.00    -0.200 F 
ATOM     92  F   UNL A   1      38.562  21.963  25.637  1.00  0.00    -0.204 F 
ENDBRANCH  81  84
ENDBRANCH  79  81
ENDBRANCH  78  79
ENDBRANCH  72  74
ENDBRANCH  71  72
ENDBRANCH   1  71
TORSDOF 14
ENDMDL
MODEL 3
REMARK VINA RESULT:     -13.6      5.730     11.325
REMARK SMILES O=C(OCCOC(=O)[C@@H]1C=C[C@@H](NS(=O)(=O)c2ccc(F)c(F)c2F)C1)c1ccc(-c2c3nc(c(-c4c(F)c(F)c(F)c(F)c4F)c4ccc([nH]4)c(-c4c(F)c(F)c(F)c(F)c4F)c4nc(c(-c5c(F)c(F)c(F)c(F)c5F)c5ccc2[nH]5)C=C4)C=C3)cc1
REMARK SMILES IDX 5 1 4 2 3 3 2 4 1 5 27 6 28 7 89 8 29 9 88 10 30 11 31 12
REMARK SMILES IDX 32 13 82 14 33 15 87 16 81 17 83 18 34 19 86 20 80 21 79 22
REMARK SMILES IDX 35 24 67 25 47 26 66 27 48 28 51 29 65 30 84 31 49 32 50 33
REMARK SMILES IDX 64 35 85 36 52 37 36 38 37 39 45 40 38 41 39 42 43 43 46 44
REMARK SMILES IDX 40 45 41 46 44 47 42 48 68 49 69 50 77 51 70 52 71 53 75 54
REMARK SMILES IDX 78 55 72 56 73 57 76 58 74 59 53 60 54 61 62 62 55 63 56 64
REMARK SMILES IDX 60 65 63 66 57 67 58 68 61 69 59 70 6 71 7 72 8 73 9 74
REMARK SMILES IDX 10 75 26 76 11 77 12 78 13 79 14 81 15 82 16 83 17 84 18 85
REMARK SMILES IDX 24 86 19 87 22 88 25 89 20 90 23 91 21 92
REMARK H PARENT 83 23 51 34 13 80
REMARK Flexibility Score: inf
ROOT
ATOM      1  C   UNL A   1      41.193  20.687  26.169  1.00  0.00     0.274 C 
ENDROOT
BRANCH   1   2
ATOM      2  C   UNL A   1      41.948  19.336  26.088  1.00  0.00     0.275 C 
BRANCH   2   3
ATOM      3  O   UNL A   1      42.789  19.140  24.950  1.00  0.00    -0.458 OA
BRANCH   3   4
ATOM      4  C   UNL A   1      44.112  19.410  24.870  1.00  0.00     0.338 C 
ATOM      5  O   UNL A   1      44.929  18.503  24.994  1.00  0.00    -0.246 OA
BRANCH   4   6
ATOM      6  C   UNL A   1      44.593  20.820  24.878  1.00  0.00     0.060 A 
ATOM      7  C   UNL A   1      44.573  21.734  23.808  1.00  0.00     0.016 A 
ATOM      8  C   UNL A   1      44.946  21.281  26.135  1.00  0.00     0.016 A 
ATOM      9  C   UNL A   1      44.593  23.118  24.027  1.00  0.00     0.010 A 
ATOM     10  C   UNL A   1      45.003  22.644  26.344  1.00  0.00     0.010 A 
ATOM     11  C   UNL A   1      44.730  23.582  25.317  1.00  0.00    -0.014 A 
BRANCH  11  12
ATOM     12  C   UNL A   1      44.702  25.025  25.724  1.00  0.00     0.031 A 
ATOM     13  C   UNL A   1      46.388  25.361  26.022  1.00  0.00     0.074 A 
ATOM     14  C   UNL A   1      43.422  25.623  26.022  1.00  0.00     0.049 A 
ATOM     15  N   UNL A   1      46.999  26.045  26.972  1.00  0.00    -0.248 NA
ATOM     16  C   UNL A   1      47.442  24.700  25.203  1.00  0.00     0.031 C 
ATOM     17  C   UNL A   1      41.991  25.150  25.874  1.00  0.00     0.029 A 
ATOM     18  N   UNL A   1      43.048  26.744  26.745  1.00  0.00    -0.354 N 
ATOM     19  C   UNL A   1      48.368  26.161  26.742  1.00  0.00     0.074 A 
ATOM     20  C   UNL A   1      48.590  25.076  25.794  1.00  0.00     0.031 C 
ATOM     21  C   UNL A   1      41.095  25.985  26.531  1.00  0.00     0.029 A 
ATOM     22  C   UNL A   1      41.792  27.123  27.108  1.00  0.00     0.049 A 
ATOM     23  H   UNL A   1      43.779  27.339  27.028  1.00  0.00     0.167 HD
ATOM     24  C   UNL A   1      49.227  27.233  27.005  1.00  0.00     0.037 A 
ATOM     25  C   UNL A   1      41.593  28.294  27.848  1.00  0.00     0.037 A 
ATOM     26  C   UNL A   1      48.837  28.637  27.495  1.00  0.00     0.049 A 
ATOM     27  C   UNL A   1      42.791  29.496  28.181  1.00  0.00     0.074 A 
ATOM     28  C   UNL A   1      49.408  29.851  27.116  1.00  0.00     0.029 A 
ATOM     29  N   UNL A   1      47.673  29.057  28.200  1.00  0.00    -0.354 N 
ATOM     30  N   UNL A   1      44.113  29.477  28.002  1.00  0.00    -0.248 NA
ATOM     31  C   UNL A   1      42.398  30.816  28.706  1.00  0.00     0.031 C 
ATOM     32  C   UNL A   1      48.457  30.888  27.311  1.00  0.00     0.029 A 
ATOM     33  C   UNL A   1      47.286  30.377  27.879  1.00  0.00     0.049 A 
ATOM     34  H   UNL A   1      47.189  28.489  28.841  1.00  0.00     0.167 HD
ATOM     35  C   UNL A   1      44.708  30.692  28.326  1.00  0.00     0.074 A 
ATOM     36  C   UNL A   1      43.557  31.497  28.736  1.00  0.00     0.031 C 
ATOM     37  C   UNL A   1      46.027  31.116  28.248  1.00  0.00     0.037 A 
BRANCH  24  38
ATOM     38  C   UNL A   1      50.585  27.184  26.310  1.00  0.00     0.064 A 
ATOM     39  C   UNL A   1      50.704  27.470  24.942  1.00  0.00     0.173 A 
ATOM     40  C   UNL A   1      51.740  26.690  26.954  1.00  0.00     0.173 A 
ATOM     41  F   UNL A   1      49.628  27.839  24.235  1.00  0.00    -0.203 F 
ATOM     42  C   UNL A   1      51.928  27.335  24.276  1.00  0.00     0.198 A 
ATOM     43  C   UNL A   1      52.969  26.605  26.302  1.00  0.00     0.198 A 
ATOM     44  F   UNL A   1      51.688  26.279  28.230  1.00  0.00    -0.203 F 
ATOM     45  F   UNL A   1      52.005  27.584  22.963  1.00  0.00    -0.200 F 
ATOM     46  C   UNL A   1      53.063  26.928  24.962  1.00  0.00     0.200 A 
ATOM     47  F   UNL A   1      54.054  26.200  26.977  1.00  0.00    -0.200 F 
ATOM     48  F   UNL A   1      54.240  26.829  24.330  1.00  0.00    -0.200 F 
ENDBRANCH  24  38
BRANCH  25  49
ATOM     49  C   UNL A   1      40.275  28.579  28.459  1.00  0.00     0.064 A 
ATOM     50  C   UNL A   1      39.244  29.149  27.697  1.00  0.00     0.173 A 
ATOM     51  C   UNL A   1      39.973  28.173  29.763  1.00  0.00     0.173 A 
ATOM     52  F   UNL A   1      39.455  29.483  26.417  1.00  0.00    -0.203 F 
ATOM     53  C   UNL A   1      37.971  29.341  28.232  1.00  0.00     0.198 A 
ATOM     54  C   UNL A   1      38.696  28.357  30.295  1.00  0.00     0.198 A 
ATOM     55  F   UNL A   1      40.897  27.536  30.496  1.00  0.00    -0.203 F 
ATOM     56  F   UNL A   1      37.003  29.886  27.483  1.00  0.00    -0.200 F 
ATOM     57  C   UNL A   1      37.699  28.950  29.534  1.00  0.00     0.200 A 
ATOM     58  F   UNL A   1      38.423  27.931  31.537  1.00  0.00    -0.200 F 
ATOM     59  F   UNL A   1      36.475  29.127  30.049  1.00  0.00    -0.200 F 
ENDBRANCH  25  49
BRANCH  37  60
ATOM     60  C   UNL A   1      46.229  32.621  28.410  1.00  0.00     0.064 A 
ATOM     61  C   UNL A   1      46.565  33.173  29.665  1.00  0.00     0.173 A 
ATOM     62  C   UNL A   1      45.980  33.521  27.366  1.00  0.00     0.173 A 
ATOM     63  F   UNL A   1      46.804  32.370  30.713  1.00  0.00    -0.203 F 
ATOM     64  C   UNL A   1      46.598  34.555  29.872  1.00  0.00     0.198 A 
ATOM     65  C   UNL A   1      46.046  34.903  27.569  1.00  0.00     0.198 A 
ATOM     66  F   UNL A   1      45.678  33.061  26.144  1.00  0.00    -0.203 F 
ATOM     67  F   UNL A   1      46.858  35.047  31.094  1.00  0.00    -0.200 F 
ATOM     68  C   UNL A   1      46.338  35.419  28.823  1.00  0.00     0.200 A 
ATOM     69  F   UNL A   1      45.817  35.741  26.547  1.00  0.00    -0.200 F 
ATOM     70  F   UNL A   1      46.365  36.745  29.020  1.00  0.00    -0.200 F 
ENDBRANCH  37  60
ENDBRANCH  11  12
ENDBRANCH   4   6
ENDBRANCH   3   4
ENDBRANCH   2   3
ENDBRANCH   1   2
BRANCH   1  71
ATOM     71  O   UNL A   1      39.718  20.692  26.117  1.00  0.00    -0.462 OA
BRANCH  71  72
ATOM     72  C   UNL A   1      39.113  21.914  26.219  1.00  0.00     0.312 C 
ATOM     73  O   UNL A   1      39.530  22.761  27.014  1.00  0.00    -0.252 OA
BRANCH  72  74
ATOM     74  C   UNL A   1      37.799  22.217  25.374  1.00  0.00     0.123 C 
ATOM     75  C   UNL A   1      37.393  23.655  25.132  1.00  0.00    -0.015 C 
ATOM     76  C   UNL A   1      36.379  21.607  25.595  1.00  0.00     0.043 C 
ATOM     77  C   UNL A   1      36.091  23.893  25.427  1.00  0.00    -0.011 C 
ATOM     78  C   UNL A   1      35.517  22.763  26.214  1.00  0.00     0.093 C 
BRANCH  78  79
ATOM     79  N   UNL A   1      33.986  22.538  26.476  1.00  0.00    -0.204 NA
ATOM     80  H   UNL A   1      33.639  23.463  26.728  1.00  0.00     0.142 HD
BRANCH  79  81
ATOM     81  S   UNL A   1      32.588  21.808  25.301  1.00  0.00     0.244 S 
ATOM     82  O   UNL A   1      31.445  22.073  26.143  1.00  0.00    -0.207 OA
ATOM     83  O   UNL A   1      32.684  22.666  24.122  1.00  0.00    -0.207 OA
BRANCH  81  84
ATOM     84  C   UNL A   1      32.622  19.647  24.570  1.00  0.00     0.121 A 
ATOM     85  C   UNL A   1      32.438  19.228  23.259  1.00  0.00     0.028 A 
ATOM     86  C   UNL A   1      32.880  18.421  25.298  1.00  0.00     0.181 A 
ATOM     87  C   UNL A   1      32.917  18.037  22.648  1.00  0.00     0.044 A 
ATOM     88  C   UNL A   1      33.472  17.262  24.751  1.00  0.00     0.195 A 
ATOM     89  F   UNL A   1      32.576  18.212  26.581  1.00  0.00    -0.202 F 
ATOM     90  C   UNL A   1      33.559  17.105  23.403  1.00  0.00     0.161 A 
ATOM     91  F   UNL A   1      33.937  16.304  25.567  1.00  0.00    -0.200 F 
ATOM     92  F   UNL A   1      34.141  16.040  22.844  1.00  0.00    -0.204 F 
ENDBRANCH  81  84
ENDBRANCH  79  81
ENDBRANCH  78  79
ENDBRANCH  72  74
ENDBRANCH  71  72
ENDBRANCH   1  71
TORSDOF 14
ENDMDL
