MODEL 1
REMARK VINA RESULT:     -12.2      0.000      0.000
REMARK SMILES O=C(OCCOC(=O)[C@@H]([NH2+]C[C@@H]1CCCO1)c1cncn1C1CC1)c1ccc(-c2c3nc(c(-c4c(F)c(F)c(F)c(F)c4F)c4ccc([nH]4)c(-c4c(F)c(F)c(F)c(F)c4F)c4nc(c(-c5c(F)c(F)c(F)c(F)c5F)c5ccc2[nH]5)C=C4)C=C3)cc1
REMARK SMILES IDX 5 1 4 2 3 3 2 4 1 5 25 6 26 7 87 8 27 9 86 10 28 11 29 12
REMARK SMILES IDX 30 13 80 14 31 15 85 16 79 17 81 18 32 19 84 20 78 21 77 22
REMARK SMILES IDX 33 24 65 25 45 26 64 27 46 28 49 29 63 30 82 31 47 32 48 33
REMARK SMILES IDX 62 35 83 36 50 37 34 38 35 39 43 40 36 41 37 42 41 43 44 44
REMARK SMILES IDX 38 45 39 46 42 47 40 48 66 49 67 50 75 51 68 52 69 53 73 54
REMARK SMILES IDX 76 55 70 56 71 57 74 58 72 59 51 60 52 61 60 62 53 63 54 64
REMARK SMILES IDX 58 65 61 66 55 67 56 68 59 69 57 70 6 71 7 72 8 73 9 74
REMARK SMILES IDX 10 75 11 78 12 79 13 80 16 81 14 82 15 83 17 84 18 85 21 86
REMARK SMILES IDX 19 87 20 88 22 89 23 90 24 91
REMARK H PARENT 81 23 49 34 10 76 10 77
REMARK Flexibility Score: inf
ROOT
ATOM      1  C   UNL A   1      31.809  30.221  26.796  1.00  0.00     0.274 C 
ENDROOT
BRANCH   1   2
ATOM      2  C   UNL A   1      32.851  31.267  27.196  1.00  0.00     0.275 C 
BRANCH   2   3
ATOM      3  O   UNL A   1      34.130  30.771  27.618  1.00  0.00    -0.458 OA
BRANCH   3   4
ATOM      4  C   UNL A   1      35.107  31.684  27.753  1.00  0.00     0.338 C 
ATOM      5  O   UNL A   1      34.983  32.891  27.599  1.00  0.00    -0.246 OA
BRANCH   4   6
ATOM      6  C   UNL A   1      36.334  31.051  28.253  1.00  0.00     0.060 A 
ATOM      7  C   UNL A   1      37.309  31.749  28.983  1.00  0.00     0.016 A 
ATOM      8  C   UNL A   1      36.479  29.695  27.976  1.00  0.00     0.016 A 
ATOM      9  C   UNL A   1      38.481  31.111  29.347  1.00  0.00     0.010 A 
ATOM     10  C   UNL A   1      37.632  29.053  28.364  1.00  0.00     0.010 A 
ATOM     11  C   UNL A   1      38.653  29.776  28.985  1.00  0.00    -0.014 A 
BRANCH  11  12
ATOM     12  C   UNL A   1      39.913  29.115  29.273  1.00  0.00     0.031 A 
ATOM     13  C   UNL A   1      40.257  28.969  30.715  1.00  0.00     0.074 A 
ATOM     14  C   UNL A   1      40.607  28.513  28.286  1.00  0.00     0.049 A 
ATOM     15  N   UNL A   1      41.235  29.501  31.369  1.00  0.00    -0.248 NA
ATOM     16  C   UNL A   1      39.313  28.234  31.566  1.00  0.00     0.031 C 
ATOM     17  C   UNL A   1      40.234  28.342  26.878  1.00  0.00     0.029 A 
ATOM     18  N   UNL A   1      41.764  27.812  28.376  1.00  0.00    -0.354 N 
ATOM     19  C   UNL A   1      41.145  29.010  32.674  1.00  0.00     0.074 A 
ATOM     20  C   UNL A   1      39.844  28.408  32.776  1.00  0.00     0.031 C 
ATOM     21  C   UNL A   1      41.006  27.383  26.321  1.00  0.00     0.029 A 
ATOM     22  C   UNL A   1      42.032  27.011  27.274  1.00  0.00     0.049 A 
ATOM     23  H   UNL A   1      42.364  27.868  29.154  1.00  0.00     0.167 HD
ATOM     24  C   UNL A   1      42.252  28.911  33.468  1.00  0.00     0.037 A 
ATOM     25  C   UNL A   1      43.004  26.071  27.198  1.00  0.00     0.037 A 
ATOM     26  C   UNL A   1      43.316  29.740  32.953  1.00  0.00     0.049 A 
ATOM     27  C   UNL A   1      43.997  26.387  28.260  1.00  0.00     0.074 A 
ATOM     28  C   UNL A   1      43.459  31.090  32.695  1.00  0.00     0.029 A 
ATOM     29  N   UNL A   1      44.331  29.129  32.257  1.00  0.00    -0.354 N 
ATOM     30  N   UNL A   1      44.740  27.463  28.245  1.00  0.00    -0.248 NA
ATOM     31  C   UNL A   1      43.796  25.786  29.572  1.00  0.00     0.031 C 
ATOM     32  C   UNL A   1      44.186  31.149  31.466  1.00  0.00     0.029 A 
ATOM     33  C   UNL A   1      44.515  29.842  31.103  1.00  0.00     0.049 A 
ATOM     34  H   UNL A   1      44.832  28.328  32.537  1.00  0.00     0.167 HD
ATOM     35  C   UNL A   1      44.747  27.909  29.559  1.00  0.00     0.074 A 
ATOM     36  C   UNL A   1      44.200  26.800  30.341  1.00  0.00     0.031 C 
ATOM     37  C   UNL A   1      44.905  29.233  29.856  1.00  0.00     0.037 A 
BRANCH  24  38
ATOM     38  C   UNL A   1      42.538  27.767  34.432  1.00  0.00     0.064 A 
ATOM     39  C   UNL A   1      43.094  26.577  33.908  1.00  0.00     0.173 A 
ATOM     40  C   UNL A   1      41.993  27.646  35.728  1.00  0.00     0.173 A 
ATOM     41  F   UNL A   1      43.686  26.567  32.705  1.00  0.00    -0.203 F 
ATOM     42  C   UNL A   1      42.951  25.343  34.549  1.00  0.00     0.198 A 
ATOM     43  C   UNL A   1      41.893  26.418  36.386  1.00  0.00     0.198 A 
ATOM     44  F   UNL A   1      41.447  28.673  36.384  1.00  0.00    -0.203 F 
ATOM     45  F   UNL A   1      43.343  24.223  33.927  1.00  0.00    -0.200 F 
ATOM     46  C   UNL A   1      42.325  25.261  35.777  1.00  0.00     0.200 A 
ATOM     47  F   UNL A   1      41.288  26.363  37.581  1.00  0.00    -0.200 F 
ATOM     48  F   UNL A   1      42.103  24.074  36.353  1.00  0.00    -0.200 F 
ENDBRANCH  24  38
BRANCH  25  49
ATOM     49  C   UNL A   1      42.927  24.757  26.521  1.00  0.00     0.064 A 
ATOM     50  C   UNL A   1      43.733  24.464  25.410  1.00  0.00     0.173 A 
ATOM     51  C   UNL A   1      42.249  23.670  27.109  1.00  0.00     0.173 A 
ATOM     52  F   UNL A   1      44.447  25.436  24.824  1.00  0.00    -0.203 F 
ATOM     53  C   UNL A   1      43.868  23.157  24.929  1.00  0.00     0.198 A 
ATOM     54  C   UNL A   1      42.380  22.369  26.624  1.00  0.00     0.198 A 
ATOM     55  F   UNL A   1      41.520  23.835  28.223  1.00  0.00    -0.203 F 
ATOM     56  F   UNL A   1      44.689  22.906  23.900  1.00  0.00    -0.200 F 
ATOM     57  C   UNL A   1      43.199  22.109  25.542  1.00  0.00     0.200 A 
ATOM     58  F   UNL A   1      41.758  21.360  27.251  1.00  0.00    -0.200 F 
ATOM     59  F   UNL A   1      43.374  20.852  25.117  1.00  0.00    -0.200 F 
ENDBRANCH  25  49
BRANCH  37  60
ATOM     60  C   UNL A   1      45.287  30.170  28.746  1.00  0.00     0.064 A 
ATOM     61  C   UNL A   1      44.361  30.838  27.927  1.00  0.00     0.173 A 
ATOM     62  C   UNL A   1      46.633  30.538  28.626  1.00  0.00     0.173 A 
ATOM     63  F   UNL A   1      43.048  30.623  28.056  1.00  0.00    -0.203 F 
ATOM     64  C   UNL A   1      44.769  31.799  27.003  1.00  0.00     0.198 A 
ATOM     65  C   UNL A   1      47.035  31.524  27.728  1.00  0.00     0.198 A 
ATOM     66  F   UNL A   1      47.555  29.982  29.426  1.00  0.00    -0.203 F 
ATOM     67  F   UNL A   1      43.862  32.419  26.233  1.00  0.00    -0.200 F 
ATOM     68  C   UNL A   1      46.105  32.146  26.910  1.00  0.00     0.200 A 
ATOM     69  F   UNL A   1      48.322  31.895  27.681  1.00  0.00    -0.200 F 
ATOM     70  F   UNL A   1      46.495  33.103  26.056  1.00  0.00    -0.200 F 
ENDBRANCH  37  60
ENDBRANCH  11  12
ENDBRANCH   4   6
ENDBRANCH   3   4
ENDBRANCH   2   3
ENDBRANCH   1   2
BRANCH   1  71
ATOM     71  O   UNL A   1      31.400  30.355  25.412  1.00  0.00    -0.457 OA
BRANCH  71  72
ATOM     72  C   UNL A   1      31.794  29.339  24.573  1.00  0.00     0.371 C 
ATOM     73  O   UNL A   1      32.858  29.335  23.960  1.00  0.00    -0.245 OA
BRANCH  72  74
ATOM     74  C   UNL A   1      30.771  28.190  24.453  1.00  0.00     0.343 C 
BRANCH  74  75
ATOM     75  N   UNL A   1      30.167  28.073  23.103  1.00  0.00    -0.327 N 
ATOM     76  H   UNL A   1      30.423  27.163  22.720  1.00  0.00     0.347 HD
ATOM     77  H   UNL A   1      30.529  28.860  22.563  1.00  0.00     0.347 HD
BRANCH  75  78
ATOM     78  C   UNL A   1      28.690  28.189  23.055  1.00  0.00     0.293 C 
BRANCH  78  79
ATOM     79  C   UNL A   1      27.980  29.457  22.483  1.00  0.00     0.173 C 
ATOM     80  C   UNL A   1      28.771  30.335  21.532  1.00  0.00     0.040 C 
ATOM     81  O   UNL A   1      27.497  30.305  23.534  1.00  0.00    -0.372 OA
ATOM     82  C   UNL A   1      28.295  31.736  21.826  1.00  0.00     0.031 C 
ATOM     83  C   UNL A   1      27.847  31.664  23.263  1.00  0.00     0.161 C 
ENDBRANCH  78  79
ENDBRANCH  75  78
ENDBRANCH  74  75
BRANCH  74  84
ATOM     84  C   UNL A   1      31.239  26.870  25.015  1.00  0.00     0.108 A 
ATOM     85  C   UNL A   1      30.683  26.259  26.141  1.00  0.00     0.141 A 
ATOM     86  N   UNL A   1      32.227  25.966  24.649  1.00  0.00    -0.326 N 
ATOM     87  N   UNL A   1      31.245  25.057  26.438  1.00  0.00    -0.245 NA
ATOM     88  C   UNL A   1      32.164  24.906  25.522  1.00  0.00     0.200 A 
BRANCH  86  89
ATOM     89  C   UNL A   1      33.238  25.901  23.609  1.00  0.00     0.089 C 
ATOM     90  C   UNL A   1      33.816  24.633  23.045  1.00  0.00     0.027 C 
ATOM     91  C   UNL A   1      32.971  25.513  22.178  1.00  0.00     0.027 C 
ENDBRANCH  86  89
ENDBRANCH  74  84
ENDBRANCH  72  74
ENDBRANCH  71  72
ENDBRANCH   1  71
TORSDOF 16
ENDMDL
MODEL 2
REMARK VINA RESULT:     -12.1      3.969      8.993
REMARK SMILES O=C(OCCOC(=O)[C@@H]([NH2+]C[C@@H]1CCCO1)c1cncn1C1CC1)c1ccc(-c2c3nc(c(-c4c(F)c(F)c(F)c(F)c4F)c4ccc([nH]4)c(-c4c(F)c(F)c(F)c(F)c4F)c4nc(c(-c5c(F)c(F)c(F)c(F)c5F)c5ccc2[nH]5)C=C4)C=C3)cc1
REMARK SMILES IDX 5 1 4 2 3 3 2 4 1 5 25 6 26 7 87 8 27 9 86 10 28 11 29 12
REMARK SMILES IDX 30 13 80 14 31 15 85 16 79 17 81 18 32 19 84 20 78 21 77 22
REMARK SMILES IDX 33 24 65 25 45 26 64 27 46 28 49 29 63 30 82 31 47 32 48 33
REMARK SMILES IDX 62 35 83 36 50 37 34 38 35 39 43 40 36 41 37 42 41 43 44 44
REMARK SMILES IDX 38 45 39 46 42 47 40 48 66 49 67 50 75 51 68 52 69 53 73 54
REMARK SMILES IDX 76 55 70 56 71 57 74 58 72 59 51 60 52 61 60 62 53 63 54 64
REMARK SMILES IDX 58 65 61 66 55 67 56 68 59 69 57 70 6 71 7 72 8 73 9 74
REMARK SMILES IDX 10 75 11 78 12 79 13 80 16 81 14 82 15 83 17 84 18 85 21 86
REMARK SMILES IDX 19 87 20 88 22 89 23 90 24 91
REMARK H PARENT 81 23 49 34 10 76 10 77
REMARK Flexibility Score: inf
ROOT
ATOM      1  C   UNL A   1      36.231  21.145  25.097  1.00  0.00     0.274 C 
ENDROOT
BRANCH   1   2
ATOM      2  C   UNL A   1      37.714  21.518  25.136  1.00  0.00     0.275 C 
BRANCH   2   3
ATOM      3  O   UNL A   1      38.237  21.939  26.405  1.00  0.00    -0.458 OA
BRANCH   3   4
ATOM      4  C   UNL A   1      39.554  22.202  26.448  1.00  0.00     0.338 C 
ATOM      5  O   UNL A   1      40.432  21.537  25.916  1.00  0.00    -0.246 OA
BRANCH   4   6
ATOM      6  C   UNL A   1      39.798  23.488  27.113  1.00  0.00     0.060 A 
ATOM      7  C   UNL A   1      38.880  24.550  27.077  1.00  0.00     0.016 A 
ATOM      8  C   UNL A   1      40.999  23.600  27.806  1.00  0.00     0.016 A 
ATOM      9  C   UNL A   1      39.214  25.764  27.651  1.00  0.00     0.010 A 
ATOM     10  C   UNL A   1      41.317  24.799  28.402  1.00  0.00     0.010 A 
ATOM     11  C   UNL A   1      40.458  25.891  28.265  1.00  0.00    -0.014 A 
BRANCH  11  12
ATOM     12  C   UNL A   1      40.866  27.182  28.790  1.00  0.00     0.031 A 
ATOM     13  C   UNL A   1      42.062  27.796  28.151  1.00  0.00     0.074 A 
ATOM     14  C   UNL A   1      40.078  27.840  29.664  1.00  0.00     0.049 A 
ATOM     15  N   UNL A   1      43.217  28.047  28.674  1.00  0.00    -0.248 NA
ATOM     16  C   UNL A   1      42.005  28.047  26.706  1.00  0.00     0.031 C 
ATOM     17  C   UNL A   1      38.744  27.472  30.152  1.00  0.00     0.029 A 
ATOM     18  N   UNL A   1      40.271  29.063  30.216  1.00  0.00    -0.354 N 
ATOM     19  C   UNL A   1      43.970  28.671  27.675  1.00  0.00     0.074 A 
ATOM     20  C   UNL A   1      43.248  28.458  26.451  1.00  0.00     0.031 C 
ATOM     21  C   UNL A   1      38.154  28.552  30.707  1.00  0.00     0.029 A 
ATOM     22  C   UNL A   1      39.130  29.622  30.774  1.00  0.00     0.049 A 
ATOM     23  H   UNL A   1      41.145  29.515  30.222  1.00  0.00     0.167 HD
ATOM     24  C   UNL A   1      44.983  29.532  27.990  1.00  0.00     0.037 A 
ATOM     25  C   UNL A   1      39.004  30.901  31.203  1.00  0.00     0.037 A 
ATOM     26  C   UNL A   1      45.395  29.342  29.361  1.00  0.00     0.049 A 
ATOM     27  C   UNL A   1      40.381  31.421  31.423  1.00  0.00     0.074 A 
ATOM     28  C   UNL A   1      45.896  28.279  30.088  1.00  0.00     0.029 A 
ATOM     29  N   UNL A   1      44.958  30.248  30.297  1.00  0.00    -0.354 N 
ATOM     30  N   UNL A   1      41.177  30.962  32.353  1.00  0.00    -0.248 NA
ATOM     31  C   UNL A   1      41.042  32.074  30.302  1.00  0.00     0.031 C 
ATOM     32  C   UNL A   1      45.247  28.372  31.358  1.00  0.00     0.029 A 
ATOM     33  C   UNL A   1      44.467  29.530  31.354  1.00  0.00     0.049 A 
ATOM     34  H   UNL A   1      44.993  31.230  30.222  1.00  0.00     0.167 HD
ATOM     35  C   UNL A   1      42.423  30.887  31.748  1.00  0.00     0.074 A 
ATOM     36  C   UNL A   1      42.290  31.644  30.504  1.00  0.00     0.031 C 
ATOM     37  C   UNL A   1      43.352  29.970  32.155  1.00  0.00     0.037 A 
BRANCH  24  38
ATOM     38  C   UNL A   1      45.304  30.817  27.239  1.00  0.00     0.064 A 
ATOM     39  C   UNL A   1      46.655  31.078  26.911  1.00  0.00     0.173 A 
ATOM     40  C   UNL A   1      44.443  31.931  27.138  1.00  0.00     0.173 A 
ATOM     41  F   UNL A   1      47.567  30.095  26.921  1.00  0.00    -0.203 F 
ATOM     42  C   UNL A   1      47.128  32.373  26.682  1.00  0.00     0.198 A 
ATOM     43  C   UNL A   1      44.913  33.217  26.863  1.00  0.00     0.198 A 
ATOM     44  F   UNL A   1      43.134  31.860  27.388  1.00  0.00    -0.203 F 
ATOM     45  F   UNL A   1      48.445  32.585  26.549  1.00  0.00    -0.200 F 
ATOM     46  C   UNL A   1      46.260  33.446  26.685  1.00  0.00     0.200 A 
ATOM     47  F   UNL A   1      44.051  34.243  26.864  1.00  0.00    -0.200 F 
ATOM     48  F   UNL A   1      46.718  34.697  26.560  1.00  0.00    -0.200 F 
ENDBRANCH  24  38
BRANCH  25  49
ATOM     49  C   UNL A   1      37.814  31.773  31.083  1.00  0.00     0.064 A 
ATOM     50  C   UNL A   1      37.364  32.219  29.831  1.00  0.00     0.173 A 
ATOM     51  C   UNL A   1      36.940  31.972  32.172  1.00  0.00     0.173 A 
ATOM     52  F   UNL A   1      38.117  32.025  28.739  1.00  0.00    -0.203 F 
ATOM     53  C   UNL A   1      36.106  32.812  29.675  1.00  0.00     0.198 A 
ATOM     54  C   UNL A   1      35.689  32.567  32.014  1.00  0.00     0.198 A 
ATOM     55  F   UNL A   1      37.245  31.506  33.392  1.00  0.00    -0.203 F 
ATOM     56  F   UNL A   1      35.687  33.176  28.455  1.00  0.00    -0.200 F 
ATOM     57  C   UNL A   1      35.266  32.976  30.764  1.00  0.00     0.200 A 
ATOM     58  F   UNL A   1      34.871  32.685  33.071  1.00  0.00    -0.200 F 
ATOM     59  F   UNL A   1      34.039  33.490  30.604  1.00  0.00    -0.200 F 
ENDBRANCH  25  49
BRANCH  37  60
ATOM     60  C   UNL A   1      43.081  29.191  33.409  1.00  0.00     0.064 A 
ATOM     61  C   UNL A   1      42.382  27.972  33.442  1.00  0.00     0.173 A 
ATOM     62  C   UNL A   1      43.704  29.605  34.592  1.00  0.00     0.173 A 
ATOM     63  F   UNL A   1      41.851  27.452  32.330  1.00  0.00    -0.203 F 
ATOM     64  C   UNL A   1      42.278  27.226  34.614  1.00  0.00     0.198 A 
ATOM     65  C   UNL A   1      43.630  28.841  35.754  1.00  0.00     0.198 A 
ATOM     66  F   UNL A   1      44.440  30.727  34.606  1.00  0.00    -0.203 F 
ATOM     67  F   UNL A   1      41.603  26.065  34.616  1.00  0.00    -0.200 F 
ATOM     68  C   UNL A   1      42.909  27.657  35.768  1.00  0.00     0.200 A 
ATOM     69  F   UNL A   1      44.288  29.236  36.852  1.00  0.00    -0.200 F 
ATOM     70  F   UNL A   1      42.850  26.919  36.884  1.00  0.00    -0.200 F 
ENDBRANCH  37  60
ENDBRANCH  11  12
ENDBRANCH   4   6
ENDBRANCH   3   4
ENDBRANCH   2   3
ENDBRANCH   1   2
BRANCH   1  71
ATOM     71  O   UNL A   1      35.381  22.224  25.560  1.00  0.00    -0.457 OA
BRANCH  71  72
ATOM     72  C   UNL A   1      34.268  21.841  26.272  1.00  0.00     0.371 C 
ATOM     73  O   UNL A   1      34.306  21.452  27.437  1.00  0.00    -0.245 OA
BRANCH  72  74
ATOM     74  C   UNL A   1      32.950  21.929  25.475  1.00  0.00     0.343 C 
BRANCH  74  75
ATOM     75  N   UNL A   1      32.237  20.632  25.366  1.00  0.00    -0.327 N 
ATOM     76  H   UNL A   1      31.236  20.825  25.333  1.00  0.00     0.347 HD
ATOM     77  H   UNL A   1      32.522  20.084  26.178  1.00  0.00     0.347 HD
BRANCH  75  78
ATOM     78  C   UNL A   1      32.584  19.815  24.178  1.00  0.00     0.293 C 
BRANCH  78  79
ATOM     79  C   UNL A   1      33.510  18.562  24.281  1.00  0.00     0.173 C 
ATOM     80  C   UNL A   1      33.395  17.514  23.189  1.00  0.00     0.040 C 
ATOM     81  O   UNL A   1      33.338  17.885  25.532  1.00  0.00    -0.372 OA
ATOM     82  C   UNL A   1      33.648  16.205  23.894  1.00  0.00     0.031 C 
ATOM     83  C   UNL A   1      33.218  16.478  25.313  1.00  0.00     0.161 C 
ENDBRANCH  78  79
ENDBRANCH  75  78
ENDBRANCH  74  75
BRANCH  74  84
ATOM     84  C   UNL A   1      32.051  23.074  25.871  1.00  0.00     0.108 A 
ATOM     85  C   UNL A   1      30.875  22.925  26.608  1.00  0.00     0.141 A 
ATOM     86  N   UNL A   1      32.095  24.447  25.664  1.00  0.00    -0.326 N 
ATOM     87  N   UNL A   1      30.250  24.103  26.876  1.00  0.00    -0.245 NA
ATOM     88  C   UNL A   1      31.009  24.997  26.302  1.00  0.00     0.200 A 
BRANCH  86  89
ATOM     89  C   UNL A   1      32.985  25.362  24.973  1.00  0.00     0.089 C 
ATOM     90  C   UNL A   1      33.383  26.721  25.475  1.00  0.00     0.027 C 
ATOM     91  C   UNL A   1      34.410  25.637  25.375  1.00  0.00     0.027 C 
ENDBRANCH  86  89
ENDBRANCH  74  84
ENDBRANCH  72  74
ENDBRANCH  71  72
ENDBRANCH   1  71
TORSDOF 16
ENDMDL
MODEL 3
REMARK VINA RESULT:     -12.1      4.076      9.267
REMARK SMILES O=C(OCCOC(=O)[C@@H]([NH2+]C[C@@H]1CCCO1)c1cncn1C1CC1)c1ccc(-c2c3nc(c(-c4c(F)c(F)c(F)c(F)c4F)c4ccc([nH]4)c(-c4c(F)c(F)c(F)c(F)c4F)c4nc(c(-c5c(F)c(F)c(F)c(F)c5F)c5ccc2[nH]5)C=C4)C=C3)cc1
REMARK SMILES IDX 5 1 4 2 3 3 2 4 1 5 25 6 26 7 87 8 27 9 86 10 28 11 29 12
REMARK SMILES IDX 30 13 80 14 31 15 85 16 79 17 81 18 32 19 84 20 78 21 77 22
REMARK SMILES IDX 33 24 65 25 45 26 64 27 46 28 49 29 63 30 82 31 47 32 48 33
REMARK SMILES IDX 62 35 83 36 50 37 34 38 35 39 43 40 36 41 37 42 41 43 44 44
REMARK SMILES IDX 38 45 39 46 42 47 40 48 66 49 67 50 75 51 68 52 69 53 73 54
REMARK SMILES IDX 76 55 70 56 71 57 74 58 72 59 51 60 52 61 60 62 53 63 54 64
REMARK SMILES IDX 58 65 61 66 55 67 56 68 59 69 57 70 6 71 7 72 8 73 9 74
REMARK SMILES IDX 10 75 11 78 12 79 13 80 16 81 14 82 15 83 17 84 18 85 21 86
REMARK SMILES IDX 19 87 20 88 22 89 23 90 24 91
REMARK H PARENT 81 23 49 34 10 76 10 77
REMARK Flexibility Score: inf
ROOT
ATOM      1  C   UNL A   1      36.996  21.358  24.701  1.00  0.00     0.274 C 
ENDROOT
BRANCH   1   2
ATOM      2  C   UNL A   1      38.362  21.371  25.389  1.00  0.00     0.275 C 
BRANCH   2   3
ATOM      3  O   UNL A   1      38.678  22.535  26.167  1.00  0.00    -0.458 OA
BRANCH   3   4
ATOM      4  C   UNL A   1      39.833  22.497  26.853  1.00  0.00     0.338 C 
ATOM      5  O   UNL A   1      40.557  21.520  26.978  1.00  0.00    -0.246 OA
BRANCH   4   6
ATOM      6  C   UNL A   1      40.192  23.840  27.327  1.00  0.00     0.060 A 
ATOM      7  C   UNL A   1      41.360  24.103  28.061  1.00  0.00     0.016 A 
ATOM      8  C   UNL A   1      39.308  24.863  26.994  1.00  0.00     0.016 A 
ATOM      9  C   UNL A   1      41.589  25.376  28.551  1.00  0.00     0.010 A 
ATOM     10  C   UNL A   1      39.553  26.135  27.457  1.00  0.00     0.010 A 
ATOM     11  C   UNL A   1      40.651  26.371  28.286  1.00  0.00    -0.014 A 
BRANCH  11  12
ATOM     12  C   UNL A   1      40.826  27.690  28.870  1.00  0.00     0.031 A 
ATOM     13  C   UNL A   1      41.947  28.501  28.322  1.00  0.00     0.074 A 
ATOM     14  C   UNL A   1      39.897  28.188  29.711  1.00  0.00     0.049 A 
ATOM     15  N   UNL A   1      43.018  28.906  28.920  1.00  0.00    -0.248 NA
ATOM     16  C   UNL A   1      41.934  28.792  26.883  1.00  0.00     0.031 C 
ATOM     17  C   UNL A   1      38.611  27.605  30.106  1.00  0.00     0.029 A 
ATOM     18  N   UNL A   1      39.868  29.406  30.306  1.00  0.00    -0.354 N 
ATOM     19  C   UNL A   1      43.721  29.673  27.987  1.00  0.00     0.074 A 
ATOM     20  C   UNL A   1      43.111  29.396  26.716  1.00  0.00     0.031 C 
ATOM     21  C   UNL A   1      37.831  28.562  30.653  1.00  0.00     0.029 A 
ATOM     22  C   UNL A   1      38.625  29.765  30.808  1.00  0.00     0.049 A 
ATOM     23  H   UNL A   1      40.660  29.986  30.378  1.00  0.00     0.167 HD
ATOM     24  C   UNL A   1      44.570  30.665  28.386  1.00  0.00     0.037 A 
ATOM     25  C   UNL A   1      38.280  30.994  31.263  1.00  0.00     0.037 A 
ATOM     26  C   UNL A   1      44.929  30.491  29.774  1.00  0.00     0.049 A 
ATOM     27  C   UNL A   1      39.546  31.709  31.581  1.00  0.00     0.074 A 
ATOM     28  C   UNL A   1      45.545  29.492  30.502  1.00  0.00     0.029 A 
ATOM     29  N   UNL A   1      44.306  31.287  30.706  1.00  0.00    -0.354 N 
ATOM     30  N   UNL A   1      40.349  31.344  32.545  1.00  0.00    -0.248 NA
ATOM     31  C   UNL A   1      40.161  32.495  30.520  1.00  0.00     0.031 C 
ATOM     32  C   UNL A   1      44.819  29.439  31.731  1.00  0.00     0.029 A 
ATOM     33  C   UNL A   1      43.872  30.464  31.710  1.00  0.00     0.049 A 
ATOM     34  H   UNL A   1      44.192  32.264  30.659  1.00  0.00     0.167 HD
ATOM     35  C   UNL A   1      41.624  31.480  32.015  1.00  0.00     0.074 A 
ATOM     36  C   UNL A   1      41.447  32.252  30.786  1.00  0.00     0.031 C 
ATOM     37  C   UNL A   1      42.659  30.701  32.453  1.00  0.00     0.037 A 
BRANCH  24  38
ATOM     38  C   UNL A   1      44.732  32.010  27.690  1.00  0.00     0.064 A 
ATOM     39  C   UNL A   1      45.873  32.210  26.880  1.00  0.00     0.173 A 
ATOM     40  C   UNL A   1      44.041  33.190  28.042  1.00  0.00     0.173 A 
ATOM     41  F   UNL A   1      46.592  31.167  26.438  1.00  0.00    -0.203 F 
ATOM     42  C   UNL A   1      46.376  33.484  26.603  1.00  0.00     0.198 A 
ATOM     43  C   UNL A   1      44.521  34.461  27.722  1.00  0.00     0.198 A 
ATOM     44  F   UNL A   1      42.930  33.186  28.782  1.00  0.00    -0.203 F 
ATOM     45  F   UNL A   1      47.555  33.610  25.978  1.00  0.00    -0.200 F 
ATOM     46  C   UNL A   1      45.713  34.609  27.048  1.00  0.00     0.200 A 
ATOM     47  F   UNL A   1      43.858  35.541  28.159  1.00  0.00    -0.200 F 
ATOM     48  F   UNL A   1      46.237  35.828  26.866  1.00  0.00    -0.200 F 
ENDBRANCH  24  38
BRANCH  25  49
ATOM     49  C   UNL A   1      36.979  31.678  31.093  1.00  0.00     0.064 A 
ATOM     50  C   UNL A   1      36.149  31.944  32.192  1.00  0.00     0.173 A 
ATOM     51  C   UNL A   1      36.642  32.318  29.882  1.00  0.00     0.173 A 
ATOM     52  F   UNL A   1      36.429  31.410  33.389  1.00  0.00    -0.203 F 
ATOM     53  C   UNL A   1      35.057  32.814  32.091  1.00  0.00     0.198 A 
ATOM     54  C   UNL A   1      35.550  33.181  29.782  1.00  0.00     0.198 A 
ATOM     55  F   UNL A   1      37.421  32.193  28.798  1.00  0.00    -0.203 F 
ATOM     56  F   UNL A   1      34.318  33.087  33.176  1.00  0.00    -0.200 F 
ATOM     57  C   UNL A   1      34.765  33.439  30.889  1.00  0.00     0.200 A 
ATOM     58  F   UNL A   1      35.303  33.808  28.623  1.00  0.00    -0.200 F 
ATOM     59  F   UNL A   1      33.756  34.316  30.808  1.00  0.00    -0.200 F 
ENDBRANCH  25  49
BRANCH  37  60
ATOM     60  C   UNL A   1      42.441  29.845  33.668  1.00  0.00     0.064 A 
ATOM     61  C   UNL A   1      41.960  28.525  33.623  1.00  0.00     0.173 A 
ATOM     62  C   UNL A   1      42.902  30.319  34.902  1.00  0.00     0.173 A 
ATOM     63  F   UNL A   1      41.602  27.962  32.464  1.00  0.00    -0.203 F 
ATOM     64  C   UNL A   1      41.906  27.733  34.768  1.00  0.00     0.198 A 
ATOM     65  C   UNL A   1      42.881  29.514  36.038  1.00  0.00     0.198 A 
ATOM     66  F   UNL A   1      43.432  31.548  34.993  1.00  0.00    -0.203 F 
ATOM     67  F   UNL A   1      41.440  26.476  34.696  1.00  0.00    -0.200 F 
ATOM     68  C   UNL A   1      42.374  28.226  35.974  1.00  0.00     0.200 A 
ATOM     69  F   UNL A   1      43.386  29.978  37.190  1.00  0.00    -0.200 F 
ATOM     70  F   UNL A   1      42.367  27.451  37.067  1.00  0.00    -0.200 F 
ENDBRANCH  37  60
ENDBRANCH  11  12
ENDBRANCH   4   6
ENDBRANCH   3   4
ENDBRANCH   2   3
ENDBRANCH   1   2
BRANCH   1  71
ATOM     71  O   UNL A   1      35.952  20.844  25.566  1.00  0.00    -0.457 OA
BRANCH  71  72
ATOM     72  C   UNL A   1      34.856  21.661  25.725  1.00  0.00     0.371 C 
ATOM     73  O   UNL A   1      34.716  22.435  26.667  1.00  0.00    -0.245 OA
BRANCH  72  74
ATOM     74  C   UNL A   1      33.796  21.514  24.613  1.00  0.00     0.343 C 
BRANCH  74  75
ATOM     75  N   UNL A   1      32.600  20.742  25.034  1.00  0.00    -0.327 N 
ATOM     76  H   UNL A   1      32.030  20.568  24.206  1.00  0.00     0.347 HD
ATOM     77  H   UNL A   1      32.132  21.310  25.740  1.00  0.00     0.347 HD
BRANCH  75  78
ATOM     78  C   UNL A   1      32.881  19.437  25.678  1.00  0.00     0.293 C 
BRANCH  78  79
ATOM     79  C   UNL A   1      32.923  18.106  24.862  1.00  0.00     0.173 C 
ATOM     80  C   UNL A   1      34.286  17.564  24.475  1.00  0.00     0.040 C 
ATOM     81  O   UNL A   1      32.154  18.206  23.657  1.00  0.00    -0.372 OA
ATOM     82  C   UNL A   1      34.068  16.919  23.129  1.00  0.00     0.031 C 
ATOM     83  C   UNL A   1      32.899  17.679  22.557  1.00  0.00     0.161 C 
ENDBRANCH  78  79
ENDBRANCH  75  78
ENDBRANCH  74  75
BRANCH  74  84
ATOM     84  C   UNL A   1      33.457  22.797  23.894  1.00  0.00     0.108 A 
ATOM     85  C   UNL A   1      34.082  23.223  22.721  1.00  0.00     0.141 A 
ATOM     86  N   UNL A   1      32.547  23.819  24.130  1.00  0.00    -0.326 N 
ATOM     87  N   UNL A   1      33.585  24.393  22.237  1.00  0.00    -0.245 NA
ATOM     88  C   UNL A   1      32.662  24.722  23.100  1.00  0.00     0.200 A 
BRANCH  86  89
ATOM     89  C   UNL A   1      31.563  24.113  25.155  1.00  0.00     0.089 C 
ATOM     90  C   UNL A   1      30.840  23.084  25.978  1.00  0.00     0.027 C 
ATOM     91  C   UNL A   1      31.813  24.011  26.637  1.00  0.00     0.027 C 
ENDBRANCH  86  89
ENDBRANCH  74  84
ENDBRANCH  72  74
ENDBRANCH  71  72
ENDBRANCH   1  71
TORSDOF 16
ENDMDL
