MODEL 1
REMARK VINA RESULT:     -12.1      0.000      0.000
REMARK SMILES CCOc1ccc(N2C[C@H](C(=O)OCCOC(=O)c3ccc(-c4c5nc(c(-c6c(F)c(F)c(F)c(F)c6F)c6ccc([nH]6)c(-c6c(F)c(F)c(F)c(F)c6F)c6nc(c(-c7c(F)c(F)c(F)c(F)c7F)c7ccc4[nH]7)C=C6)C=C5)cc3)CC2=O)cc1C(F)(F)F
REMARK SMILES IDX 14 1 13 2 11 3 12 4 10 5 8 6 9 7 83 8 82 9 84 10 7 11 4 12
REMARK SMILES IDX 5 13 86 14 6 15 85 16 3 17 2 18 1 19 87 20 88 21 89 22 90 23
REMARK SMILES IDX 15 24 16 25 17 26 18 27 19 28 20 29 81 30 21 31 80 32 22 33
REMARK SMILES IDX 23 34 24 35 74 36 25 37 79 38 73 39 75 40 26 41 78 42 72 43
REMARK SMILES IDX 71 44 27 46 59 47 39 48 58 49 40 50 43 51 57 52 76 53 41 54
REMARK SMILES IDX 42 55 56 57 77 58 44 59 28 60 29 61 37 62 30 63 31 64 35 65
REMARK SMILES IDX 38 66 32 67 33 68 36 69 34 70 60 71 61 72 69 73 62 74 63 75
REMARK SMILES IDX 67 76 70 77 64 78 65 79 68 80 66 81 45 82 46 83 54 84 47 85
REMARK SMILES IDX 48 86 52 87 55 88 49 89 50 90 53 91 51 92
REMARK H PARENT 75 45 43 56
REMARK Flexibility Score: inf
ROOT
ATOM      1  C   UNL A   1      31.660  29.229  24.412  1.00  0.00     0.274 C 
ENDROOT
BRANCH   1   2
ATOM      2  O   UNL A   1      30.292  28.828  24.194  1.00  0.00    -0.462 OA
BRANCH   2   3
ATOM      3  C   UNL A   1      30.041  28.174  23.033  1.00  0.00     0.311 C 
ATOM      4  O   UNL A   1      30.014  28.689  21.922  1.00  0.00    -0.252 OA
BRANCH   3   5
ATOM      5  C   UNL A   1      29.822  26.695  23.237  1.00  0.00     0.128 C 
ATOM      6  N   UNL A   1      31.396  25.446  24.471  1.00  0.00    -0.312 N 
ATOM      7  C   UNL A   1      31.108  25.901  23.137  1.00  0.00     0.141 C 
ATOM      8  C   UNL A   1      30.363  25.743  25.360  1.00  0.00     0.227 C 
ATOM      9  C   UNL A   1      29.235  26.385  24.599  1.00  0.00     0.117 C 
ATOM     10  O   UNL A   1      30.305  25.529  26.562  1.00  0.00    -0.274 OA
BRANCH   6  11
ATOM     11  C   UNL A   1      32.566  24.709  24.787  1.00  0.00     0.044 A 
ATOM     12  C   UNL A   1      34.862  23.202  25.421  1.00  0.00     0.131 A 
ATOM     13  C   UNL A   1      34.942  24.591  25.302  1.00  0.00     0.049 A 
ATOM     14  C   UNL A   1      33.644  22.548  25.232  1.00  0.00     0.100 A 
ATOM     15  C   UNL A   1      33.806  25.337  24.961  1.00  0.00     0.030 A 
ATOM     16  C   UNL A   1      32.509  23.317  24.916  1.00  0.00     0.043 A 
BRANCH  12  17
ATOM     17  O   UNL A   1      35.941  22.491  25.857  1.00  0.00    -0.493 OA
BRANCH  17  18
ATOM     18  C   UNL A   1      36.996  22.383  24.897  1.00  0.00     0.226 C 
ATOM     19  C   UNL A   1      37.602  20.994  24.998  1.00  0.00     0.049 C 
ENDBRANCH  17  18
ENDBRANCH  12  17
BRANCH  14  20
ATOM     20  C   UNL A   1      33.524  21.048  25.271  1.00  0.00     0.420 C 
ATOM     21  F   UNL A   1      33.822  20.519  26.493  1.00  0.00    -0.166 F 
ATOM     22  F   UNL A   1      32.246  20.641  25.010  1.00  0.00    -0.166 F 
ATOM     23  F   UNL A   1      34.317  20.383  24.388  1.00  0.00    -0.166 F 
ENDBRANCH  14  20
ENDBRANCH   6  11
ENDBRANCH   3   5
ENDBRANCH   2   3
ENDBRANCH   1   2
BRANCH   1  24
ATOM     24  C   UNL A   1      31.784  30.135  25.636  1.00  0.00     0.275 C 
BRANCH  24  25
ATOM     25  O   UNL A   1      33.164  30.289  26.017  1.00  0.00    -0.458 OA
BRANCH  25  26
ATOM     26  C   UNL A   1      33.408  31.215  26.968  1.00  0.00     0.338 C 
ATOM     27  O   UNL A   1      32.695  32.136  27.326  1.00  0.00    -0.246 OA
BRANCH  26  28
ATOM     28  C   UNL A   1      34.693  30.924  27.612  1.00  0.00     0.060 A 
ATOM     29  C   UNL A   1      35.008  29.604  27.944  1.00  0.00     0.016 A 
ATOM     30  C   UNL A   1      35.525  31.975  27.994  1.00  0.00     0.016 A 
ATOM     31  C   UNL A   1      36.148  29.329  28.692  1.00  0.00     0.010 A 
ATOM     32  C   UNL A   1      36.690  31.694  28.710  1.00  0.00     0.010 A 
ATOM     33  C   UNL A   1      36.999  30.372  29.078  1.00  0.00    -0.014 A 
BRANCH  33  34
ATOM     34  C   UNL A   1      38.205  30.096  29.890  1.00  0.00     0.031 A 
ATOM     35  C   UNL A   1      39.286  29.211  29.346  1.00  0.00     0.074 A 
ATOM     36  C   UNL A   1      38.315  30.626  31.122  1.00  0.00     0.049 A 
ATOM     37  N   UNL A   1      40.336  28.716  29.949  1.00  0.00    -0.248 NA
ATOM     38  C   UNL A   1      39.167  28.828  27.931  1.00  0.00     0.031 C 
ATOM     39  C   UNL A   1      37.357  31.547  31.733  1.00  0.00     0.029 A 
ATOM     40  N   UNL A   1      39.278  30.454  32.083  1.00  0.00    -0.354 N 
ATOM     41  C   UNL A   1      40.985  27.939  29.000  1.00  0.00     0.074 A 
ATOM     42  C   UNL A   1      40.207  28.021  27.781  1.00  0.00     0.031 C 
ATOM     43  C   UNL A   1      37.783  31.863  32.966  1.00  0.00     0.029 A 
ATOM     44  C   UNL A   1      39.006  31.120  33.251  1.00  0.00     0.049 A 
ATOM     45  H   UNL A   1      40.086  29.908  31.946  1.00  0.00     0.167 HD
ATOM     46  C   UNL A   1      42.125  27.222  29.139  1.00  0.00     0.037 A 
ATOM     47  C   UNL A   1      39.653  31.100  34.431  1.00  0.00     0.037 A 
ATOM     48  C   UNL A   1      42.898  27.159  30.352  1.00  0.00     0.049 A 
ATOM     49  C   UNL A   1      40.868  30.230  34.585  1.00  0.00     0.074 A 
ATOM     50  C   UNL A   1      44.075  26.472  30.594  1.00  0.00     0.029 A 
ATOM     51  N   UNL A   1      42.567  27.811  31.531  1.00  0.00    -0.354 N 
ATOM     52  N   UNL A   1      41.464  29.477  33.693  1.00  0.00    -0.248 NA
ATOM     53  C   UNL A   1      41.491  30.197  35.915  1.00  0.00     0.031 C 
ATOM     54  C   UNL A   1      44.436  26.679  31.931  1.00  0.00     0.029 A 
ATOM     55  C   UNL A   1      43.505  27.526  32.511  1.00  0.00     0.049 A 
ATOM     56  H   UNL A   1      41.781  28.391  31.654  1.00  0.00     0.167 HD
ATOM     57  C   UNL A   1      42.542  28.897  34.345  1.00  0.00     0.074 A 
ATOM     58  C   UNL A   1      42.522  29.391  35.708  1.00  0.00     0.031 C 
ATOM     59  C   UNL A   1      43.467  28.033  33.858  1.00  0.00     0.037 A 
BRANCH  46  60
ATOM     60  C   UNL A   1      42.579  26.418  27.957  1.00  0.00     0.064 A 
ATOM     61  C   UNL A   1      42.147  25.099  27.751  1.00  0.00     0.173 A 
ATOM     62  C   UNL A   1      43.454  26.977  27.014  1.00  0.00     0.173 A 
ATOM     63  F   UNL A   1      41.324  24.513  28.633  1.00  0.00    -0.203 F 
ATOM     64  C   UNL A   1      42.598  24.361  26.660  1.00  0.00     0.198 A 
ATOM     65  C   UNL A   1      43.883  26.245  25.912  1.00  0.00     0.198 A 
ATOM     66  F   UNL A   1      43.896  28.235  27.166  1.00  0.00    -0.203 F 
ATOM     67  F   UNL A   1      42.213  23.086  26.510  1.00  0.00    -0.200 F 
ATOM     68  C   UNL A   1      43.462  24.935  25.739  1.00  0.00     0.200 A 
ATOM     69  F   UNL A   1      44.714  26.803  25.019  1.00  0.00    -0.200 F 
ATOM     70  F   UNL A   1      43.899  24.221  24.691  1.00  0.00    -0.200 F 
ENDBRANCH  46  60
BRANCH  47  71
ATOM     71  C   UNL A   1      39.147  31.920  35.560  1.00  0.00     0.064 A 
ATOM     72  C   UNL A   1      38.299  31.360  36.524  1.00  0.00     0.173 A 
ATOM     73  C   UNL A   1      39.512  33.264  35.710  1.00  0.00     0.173 A 
ATOM     74  F   UNL A   1      37.904  30.083  36.408  1.00  0.00    -0.203 F 
ATOM     75  C   UNL A   1      37.832  32.116  37.597  1.00  0.00     0.198 A 
ATOM     76  C   UNL A   1      39.065  34.015  36.795  1.00  0.00     0.198 A 
ATOM     77  F   UNL A   1      40.322  33.845  34.811  1.00  0.00    -0.203 F 
ATOM     78  F   UNL A   1      37.001  31.566  38.490  1.00  0.00    -0.200 F 
ATOM     79  C   UNL A   1      38.222  33.441  37.735  1.00  0.00     0.200 A 
ATOM     80  F   UNL A   1      39.452  35.290  36.931  1.00  0.00    -0.200 F 
ATOM     81  F   UNL A   1      37.782  34.166  38.772  1.00  0.00    -0.200 F 
ENDBRANCH  47  71
BRANCH  59  82
ATOM     82  C   UNL A   1      44.554  27.601  34.797  1.00  0.00     0.064 A 
ATOM     83  C   UNL A   1      44.433  26.441  35.575  1.00  0.00     0.173 A 
ATOM     84  C   UNL A   1      45.741  28.343  34.896  1.00  0.00     0.173 A 
ATOM     85  F   UNL A   1      43.309  25.710  35.527  1.00  0.00    -0.203 F 
ATOM     86  C   UNL A   1      45.455  26.049  36.435  1.00  0.00     0.198 A 
ATOM     87  C   UNL A   1      46.769  27.935  35.739  1.00  0.00     0.198 A 
ATOM     88  F   UNL A   1      45.903  29.459  34.170  1.00  0.00    -0.203 F 
ATOM     89  F   UNL A   1      45.303  24.959  37.200  1.00  0.00    -0.200 F 
ATOM     90  C   UNL A   1      46.624  26.793  36.512  1.00  0.00     0.200 A 
ATOM     91  F   UNL A   1      47.901  28.650  35.807  1.00  0.00    -0.200 F 
ATOM     92  F   UNL A   1      47.608  26.412  37.338  1.00  0.00    -0.200 F 
ENDBRANCH  59  82
ENDBRANCH  33  34
ENDBRANCH  26  28
ENDBRANCH  25  26
ENDBRANCH  24  25
ENDBRANCH   1  24
TORSDOF 15
ENDMDL
MODEL 2
REMARK VINA RESULT:     -12.1      0.245      1.993
REMARK SMILES CCOc1ccc(N2C[C@H](C(=O)OCCOC(=O)c3ccc(-c4c5nc(c(-c6c(F)c(F)c(F)c(F)c6F)c6ccc([nH]6)c(-c6c(F)c(F)c(F)c(F)c6F)c6nc(c(-c7c(F)c(F)c(F)c(F)c7F)c7ccc4[nH]7)C=C6)C=C5)cc3)CC2=O)cc1C(F)(F)F
REMARK SMILES IDX 14 1 13 2 11 3 12 4 10 5 8 6 9 7 83 8 82 9 84 10 7 11 4 12
REMARK SMILES IDX 5 13 86 14 6 15 85 16 3 17 2 18 1 19 87 20 88 21 89 22 90 23
REMARK SMILES IDX 15 24 16 25 17 26 18 27 19 28 20 29 81 30 21 31 80 32 22 33
REMARK SMILES IDX 23 34 24 35 74 36 25 37 79 38 73 39 75 40 26 41 78 42 72 43
REMARK SMILES IDX 71 44 27 46 59 47 39 48 58 49 40 50 43 51 57 52 76 53 41 54
REMARK SMILES IDX 42 55 56 57 77 58 44 59 28 60 29 61 37 62 30 63 31 64 35 65
REMARK SMILES IDX 38 66 32 67 33 68 36 69 34 70 60 71 61 72 69 73 62 74 63 75
REMARK SMILES IDX 67 76 70 77 64 78 65 79 68 80 66 81 45 82 46 83 54 84 47 85
REMARK SMILES IDX 48 86 52 87 55 88 49 89 50 90 53 91 51 92
REMARK H PARENT 75 45 43 56
REMARK Flexibility Score: inf
ROOT
ATOM      1  C   UNL A   1      31.659  29.314  24.403  1.00  0.00     0.274 C 
ENDROOT
BRANCH   1   2
ATOM      2  O   UNL A   1      30.278  29.035  24.096  1.00  0.00    -0.462 OA
BRANCH   2   3
ATOM      3  C   UNL A   1      30.048  28.381  22.931  1.00  0.00     0.311 C 
ATOM      4  O   UNL A   1      30.052  28.893  21.819  1.00  0.00    -0.252 OA
BRANCH   3   5
ATOM      5  C   UNL A   1      29.809  26.905  23.134  1.00  0.00     0.128 C 
ATOM      6  N   UNL A   1      31.320  25.651  24.439  1.00  0.00    -0.312 N 
ATOM      7  C   UNL A   1      31.092  26.101  23.091  1.00  0.00     0.141 C 
ATOM      8  C   UNL A   1      30.252  25.961  25.282  1.00  0.00     0.227 C 
ATOM      9  C   UNL A   1      29.162  26.607  24.471  1.00  0.00     0.117 C 
ATOM     10  O   UNL A   1      30.143  25.753  26.481  1.00  0.00    -0.274 OA
BRANCH   6  11
ATOM     11  C   UNL A   1      32.469  24.907  24.807  1.00  0.00     0.044 A 
ATOM     12  C   UNL A   1      34.725  23.386  25.547  1.00  0.00     0.131 A 
ATOM     13  C   UNL A   1      34.831  24.768  25.382  1.00  0.00     0.049 A 
ATOM     14  C   UNL A   1      33.501  22.746  25.352  1.00  0.00     0.100 A 
ATOM     15  C   UNL A   1      33.715  25.520  24.989  1.00  0.00     0.030 A 
ATOM     16  C   UNL A   1      32.386  23.520  24.983  1.00  0.00     0.043 A 
BRANCH  12  17
ATOM     17  O   UNL A   1      35.782  22.674  26.032  1.00  0.00    -0.493 OA
BRANCH  17  18
ATOM     18  C   UNL A   1      37.021  22.943  25.371  1.00  0.00     0.226 C 
ATOM     19  C   UNL A   1      37.030  22.208  24.041  1.00  0.00     0.049 C 
ENDBRANCH  17  18
ENDBRANCH  12  17
BRANCH  14  20
ATOM     20  C   UNL A   1      33.354  21.250  25.439  1.00  0.00     0.420 C 
ATOM     21  F   UNL A   1      34.204  20.580  24.607  1.00  0.00    -0.166 F 
ATOM     22  F   UNL A   1      33.647  20.789  26.691  1.00  0.00    -0.166 F 
ATOM     23  F   UNL A   1      32.114  20.774  25.145  1.00  0.00    -0.166 F 
ENDBRANCH  14  20
ENDBRANCH   6  11
ENDBRANCH   3   5
ENDBRANCH   2   3
ENDBRANCH   1   2
BRANCH   1  24
ATOM     24  C   UNL A   1      31.788  30.128  25.690  1.00  0.00     0.275 C 
BRANCH  24  25
ATOM     25  O   UNL A   1      33.158  30.174  26.128  1.00  0.00    -0.458 OA
BRANCH  25  26
ATOM     26  C   UNL A   1      33.464  31.167  26.990  1.00  0.00     0.338 C 
ATOM     27  O   UNL A   1      32.797  32.143  27.284  1.00  0.00    -0.246 OA
BRANCH  26  28
ATOM     28  C   UNL A   1      34.753  30.879  27.627  1.00  0.00     0.060 A 
ATOM     29  C   UNL A   1      35.055  29.566  27.996  1.00  0.00     0.016 A 
ATOM     30  C   UNL A   1      35.605  31.930  27.964  1.00  0.00     0.016 A 
ATOM     31  C   UNL A   1      36.201  29.299  28.738  1.00  0.00     0.010 A 
ATOM     32  C   UNL A   1      36.774  31.656  28.674  1.00  0.00     0.010 A 
ATOM     33  C   UNL A   1      37.071  30.343  29.080  1.00  0.00    -0.014 A 
BRANCH  33  34
ATOM     34  C   UNL A   1      38.283  30.076  29.885  1.00  0.00     0.031 A 
ATOM     35  C   UNL A   1      39.369  29.201  29.334  1.00  0.00     0.074 A 
ATOM     36  C   UNL A   1      38.397  30.606  31.116  1.00  0.00     0.049 A 
ATOM     37  N   UNL A   1      40.426  28.714  29.931  1.00  0.00    -0.248 NA
ATOM     38  C   UNL A   1      39.245  28.818  27.919  1.00  0.00     0.031 C 
ATOM     39  C   UNL A   1      37.434  31.518  31.734  1.00  0.00     0.029 A 
ATOM     40  N   UNL A   1      39.366  30.442  32.072  1.00  0.00    -0.354 N 
ATOM     41  C   UNL A   1      41.077  27.943  28.977  1.00  0.00     0.074 A 
ATOM     42  C   UNL A   1      40.292  28.020  27.763  1.00  0.00     0.031 C 
ATOM     43  C   UNL A   1      37.864  31.837  32.965  1.00  0.00     0.029 A 
ATOM     44  C   UNL A   1      39.095  31.104  33.242  1.00  0.00     0.049 A 
ATOM     45  H   UNL A   1      40.177  29.902  31.930  1.00  0.00     0.167 HD
ATOM     46  C   UNL A   1      42.224  27.236  29.109  1.00  0.00     0.037 A 
ATOM     47  C   UNL A   1      39.748  31.089  34.418  1.00  0.00     0.037 A 
ATOM     48  C   UNL A   1      43.005  27.178  30.317  1.00  0.00     0.049 A 
ATOM     49  C   UNL A   1      40.972  30.229  34.564  1.00  0.00     0.074 A 
ATOM     50  C   UNL A   1      44.188  26.502  30.552  1.00  0.00     0.029 A 
ATOM     51  N   UNL A   1      42.674  27.827  31.499  1.00  0.00    -0.354 N 
ATOM     52  N   UNL A   1      41.569  29.481  33.669  1.00  0.00    -0.248 NA
ATOM     53  C   UNL A   1      41.602  30.200  35.891  1.00  0.00     0.031 C 
ATOM     54  C   UNL A   1      44.555  26.710  31.888  1.00  0.00     0.029 A 
ATOM     55  C   UNL A   1      43.620  27.549  32.473  1.00  0.00     0.049 A 
ATOM     56  H   UNL A   1      41.884  28.399  31.627  1.00  0.00     0.167 HD
ATOM     57  C   UNL A   1      42.656  28.910  34.314  1.00  0.00     0.074 A 
ATOM     58  C   UNL A   1      42.640  29.403  35.677  1.00  0.00     0.031 C 
ATOM     59  C   UNL A   1      43.586  28.055  33.821  1.00  0.00     0.037 A 
BRANCH  46  60
ATOM     60  C   UNL A   1      42.678  26.436  27.924  1.00  0.00     0.064 A 
ATOM     61  C   UNL A   1      43.607  26.942  27.003  1.00  0.00     0.173 A 
ATOM     62  C   UNL A   1      42.178  25.143  27.711  1.00  0.00     0.173 A 
ATOM     63  F   UNL A   1      44.100  28.181  27.153  1.00  0.00    -0.203 F 
ATOM     64  C   UNL A   1      43.998  26.193  25.896  1.00  0.00     0.198 A 
ATOM     65  C   UNL A   1      42.590  24.387  26.617  1.00  0.00     0.198 A 
ATOM     66  F   UNL A   1      41.288  24.613  28.563  1.00  0.00    -0.203 F 
ATOM     67  F   UNL A   1      44.847  26.716  25.001  1.00  0.00    -0.200 F 
ATOM     68  C   UNL A   1      43.492  24.915  25.706  1.00  0.00     0.200 A 
ATOM     69  F   UNL A   1      42.106  23.150  26.438  1.00  0.00    -0.200 F 
ATOM     70  F   UNL A   1      43.867  24.196  24.638  1.00  0.00    -0.200 F 
ENDBRANCH  46  60
BRANCH  47  71
ATOM     71  C   UNL A   1      39.243  31.903  35.551  1.00  0.00     0.064 A 
ATOM     72  C   UNL A   1      39.607  33.250  35.680  1.00  0.00     0.173 A 
ATOM     73  C   UNL A   1      38.376  31.364  36.511  1.00  0.00     0.173 A 
ATOM     74  F   UNL A   1      40.453  33.801  34.797  1.00  0.00    -0.203 F 
ATOM     75  C   UNL A   1      39.124  34.027  36.730  1.00  0.00     0.198 A 
ATOM     76  C   UNL A   1      37.875  32.148  37.548  1.00  0.00     0.198 A 
ATOM     77  F   UNL A   1      38.000  30.078  36.431  1.00  0.00    -0.203 F 
ATOM     78  F   UNL A   1      39.508  35.305  36.846  1.00  0.00    -0.200 F 
ATOM     79  C   UNL A   1      38.252  33.477  37.659  1.00  0.00     0.200 A 
ATOM     80  F   UNL A   1      37.025  31.616  38.437  1.00  0.00    -0.200 F 
ATOM     81  F   UNL A   1      37.780  34.228  38.663  1.00  0.00    -0.200 F 
ENDBRANCH  47  71
BRANCH  59  82
ATOM     82  C   UNL A   1      44.681  27.631  34.753  1.00  0.00     0.064 A 
ATOM     83  C   UNL A   1      45.856  28.383  34.896  1.00  0.00     0.173 A 
ATOM     84  C   UNL A   1      44.539  26.472  35.532  1.00  0.00     0.173 A 
ATOM     85  F   UNL A   1      46.044  29.487  34.158  1.00  0.00    -0.203 F 
ATOM     86  C   UNL A   1      46.859  27.980  35.772  1.00  0.00     0.198 A 
ATOM     87  C   UNL A   1      45.534  26.085  36.424  1.00  0.00     0.198 A 
ATOM     88  F   UNL A   1      43.432  25.722  35.432  1.00  0.00    -0.203 F 
ATOM     89  F   UNL A   1      47.992  28.690  35.864  1.00  0.00    -0.200 F 
ATOM     90  C   UNL A   1      46.695  26.835  36.540  1.00  0.00     0.200 A 
ATOM     91  F   UNL A   1      45.371  24.984  37.170  1.00  0.00    -0.200 F 
ATOM     92  F   UNL A   1      47.661  26.450  37.385  1.00  0.00    -0.200 F 
ENDBRANCH  59  82
ENDBRANCH  33  34
ENDBRANCH  26  28
ENDBRANCH  25  26
ENDBRANCH  24  25
ENDBRANCH   1  24
TORSDOF 15
ENDMDL
MODEL 3
REMARK VINA RESULT:     -12.0      1.239      2.422
REMARK SMILES CCOc1ccc(N2C[C@H](C(=O)OCCOC(=O)c3ccc(-c4c5nc(c(-c6c(F)c(F)c(F)c(F)c6F)c6ccc([nH]6)c(-c6c(F)c(F)c(F)c(F)c6F)c6nc(c(-c7c(F)c(F)c(F)c(F)c7F)c7ccc4[nH]7)C=C6)C=C5)cc3)CC2=O)cc1C(F)(F)F
REMARK SMILES IDX 14 1 13 2 11 3 12 4 10 5 8 6 9 7 83 8 82 9 84 10 7 11 4 12
REMARK SMILES IDX 5 13 86 14 6 15 85 16 3 17 2 18 1 19 87 20 88 21 89 22 90 23
REMARK SMILES IDX 15 24 16 25 17 26 18 27 19 28 20 29 81 30 21 31 80 32 22 33
REMARK SMILES IDX 23 34 24 35 74 36 25 37 79 38 73 39 75 40 26 41 78 42 72 43
REMARK SMILES IDX 71 44 27 46 59 47 39 48 58 49 40 50 43 51 57 52 76 53 41 54
REMARK SMILES IDX 42 55 56 57 77 58 44 59 28 60 29 61 37 62 30 63 31 64 35 65
REMARK SMILES IDX 38 66 32 67 33 68 36 69 34 70 60 71 61 72 69 73 62 74 63 75
REMARK SMILES IDX 67 76 70 77 64 78 65 79 68 80 66 81 45 82 46 83 54 84 47 85
REMARK SMILES IDX 48 86 52 87 55 88 49 89 50 90 53 91 51 92
REMARK H PARENT 75 45 43 56
REMARK Flexibility Score: inf
ROOT
ATOM      1  C   UNL A   1      31.123  29.857  24.970  1.00  0.00     0.274 C 
ENDROOT
BRANCH   1   2
ATOM      2  O   UNL A   1      31.888  29.155  23.969  1.00  0.00    -0.462 OA
BRANCH   2   3
ATOM      3  C   UNL A   1      31.865  27.800  24.045  1.00  0.00     0.311 C 
ATOM      4  O   UNL A   1      30.874  27.121  24.279  1.00  0.00    -0.252 OA
BRANCH   3   5
ATOM      5  C   UNL A   1      33.215  27.183  23.774  1.00  0.00     0.128 C 
ATOM      6  N   UNL A   1      33.402  24.841  23.566  1.00  0.00    -0.312 N 
ATOM      7  C   UNL A   1      33.426  25.896  24.545  1.00  0.00     0.141 C 
ATOM      8  C   UNL A   1      33.345  25.338  22.263  1.00  0.00     0.227 C 
ATOM      9  C   UNL A   1      33.406  26.840  22.311  1.00  0.00     0.117 C 
ATOM     10  O   UNL A   1      33.276  24.717  21.213  1.00  0.00    -0.274 OA
BRANCH   6  11
ATOM     11  C   UNL A   1      33.512  23.473  23.920  1.00  0.00     0.044 A 
ATOM     12  C   UNL A   1      33.783  20.756  24.622  1.00  0.00     0.131 A 
ATOM     13  C   UNL A   1      32.523  21.290  24.347  1.00  0.00     0.049 A 
ATOM     14  C   UNL A   1      34.920  21.561  24.547  1.00  0.00     0.100 A 
ATOM     15  C   UNL A   1      32.386  22.647  24.024  1.00  0.00     0.030 A 
ATOM     16  C   UNL A   1      34.766  22.914  24.196  1.00  0.00     0.043 A 
BRANCH  12  17
ATOM     17  O   UNL A   1      33.926  19.416  24.830  1.00  0.00    -0.493 OA
BRANCH  17  18
ATOM     18  C   UNL A   1      32.952  18.613  24.156  1.00  0.00     0.226 C 
ATOM     19  C   UNL A   1      33.660  17.436  23.507  1.00  0.00     0.049 C 
ENDBRANCH  17  18
ENDBRANCH  12  17
BRANCH  14  20
ATOM     20  C   UNL A   1      36.289  21.053  24.913  1.00  0.00     0.420 C 
ATOM     21  F   UNL A   1      36.367  19.690  24.928  1.00  0.00    -0.166 F 
ATOM     22  F   UNL A   1      37.230  21.452  24.007  1.00  0.00    -0.166 F 
ATOM     23  F   UNL A   1      36.747  21.451  26.130  1.00  0.00    -0.166 F 
ENDBRANCH  14  20
ENDBRANCH   6  11
ENDBRANCH   3   5
ENDBRANCH   2   3
ENDBRANCH   1   2
BRANCH   1  24
ATOM     24  C   UNL A   1      31.835  29.843  26.322  1.00  0.00     0.275 C 
BRANCH  24  25
ATOM     25  O   UNL A   1      33.163  30.384  26.203  1.00  0.00    -0.458 OA
BRANCH  25  26
ATOM     26  C   UNL A   1      33.488  31.340  27.099  1.00  0.00     0.338 C 
ATOM     27  O   UNL A   1      32.837  32.315  27.432  1.00  0.00    -0.246 OA
BRANCH  26  28
ATOM     28  C   UNL A   1      34.776  31.009  27.719  1.00  0.00     0.060 A 
ATOM     29  C   UNL A   1      35.019  29.696  28.129  1.00  0.00     0.016 A 
ATOM     30  C   UNL A   1      35.686  32.027  28.001  1.00  0.00     0.016 A 
ATOM     31  C   UNL A   1      36.168  29.397  28.855  1.00  0.00     0.010 A 
ATOM     32  C   UNL A   1      36.856  31.719  28.695  1.00  0.00     0.010 A 
ATOM     33  C   UNL A   1      37.096  30.407  29.141  1.00  0.00    -0.014 A 
BRANCH  33  34
ATOM     34  C   UNL A   1      38.312  30.108  29.930  1.00  0.00     0.031 A 
ATOM     35  C   UNL A   1      39.362  29.198  29.367  1.00  0.00     0.074 A 
ATOM     36  C   UNL A   1      38.459  30.639  31.157  1.00  0.00     0.049 A 
ATOM     37  N   UNL A   1      40.414  28.682  29.950  1.00  0.00    -0.248 NA
ATOM     38  C   UNL A   1      39.206  28.813  27.955  1.00  0.00     0.031 C 
ATOM     39  C   UNL A   1      37.533  31.581  31.784  1.00  0.00     0.029 A 
ATOM     40  N   UNL A   1      39.437  30.449  32.099  1.00  0.00    -0.354 N 
ATOM     41  C   UNL A   1      41.027  27.889  28.991  1.00  0.00     0.074 A 
ATOM     42  C   UNL A   1      40.226  27.984  27.788  1.00  0.00     0.031 C 
ATOM     43  C   UNL A   1      37.991  31.892  33.007  1.00  0.00     0.029 A 
ATOM     44  C   UNL A   1      39.203  31.124  33.270  1.00  0.00     0.049 A 
ATOM     45  H   UNL A   1      40.230  29.885  31.948  1.00  0.00     0.167 HD
ATOM     46  C   UNL A   1      42.154  27.148  29.109  1.00  0.00     0.037 A 
ATOM     47  C   UNL A   1      39.873  31.094  34.437  1.00  0.00     0.037 A 
ATOM     48  C   UNL A   1      42.950  27.071  30.306  1.00  0.00     0.049 A 
ATOM     49  C   UNL A   1      41.073  30.199  34.569  1.00  0.00     0.074 A 
ATOM     50  C   UNL A   1      44.117  26.361  30.527  1.00  0.00     0.029 A 
ATOM     51  N   UNL A   1      42.657  27.734  31.489  1.00  0.00    -0.354 N 
ATOM     52  N   UNL A   1      41.634  29.430  33.668  1.00  0.00    -0.248 NA
ATOM     53  C   UNL A   1      41.721  30.156  35.886  1.00  0.00     0.031 C 
ATOM     54  C   UNL A   1      44.508  26.563  31.856  1.00  0.00     0.029 A 
ATOM     55  C   UNL A   1      43.608  27.432  32.451  1.00  0.00     0.049 A 
ATOM     56  H   UNL A   1      41.886  28.331  31.626  1.00  0.00     0.167 HD
ATOM     57  C   UNL A   1      42.713  28.829  34.300  1.00  0.00     0.074 A 
ATOM     58  C   UNL A   1      42.731  29.327  35.661  1.00  0.00     0.031 C 
ATOM     59  C   UNL A   1      43.609  27.944  33.797  1.00  0.00     0.037 A 
BRANCH  46  60
ATOM     60  C   UNL A   1      42.566  26.330  27.921  1.00  0.00     0.064 A 
ATOM     61  C   UNL A   1      43.495  26.804  26.983  1.00  0.00     0.173 A 
ATOM     62  C   UNL A   1      42.026  25.050  27.722  1.00  0.00     0.173 A 
ATOM     63  F   UNL A   1      44.026  28.029  27.120  1.00  0.00    -0.203 F 
ATOM     64  C   UNL A   1      43.847  26.039  25.875  1.00  0.00     0.198 A 
ATOM     65  C   UNL A   1      42.399  24.278  26.625  1.00  0.00     0.198 A 
ATOM     66  F   UNL A   1      41.134  24.550  28.590  1.00  0.00    -0.203 F 
ATOM     67  F   UNL A   1      44.698  26.534  24.964  1.00  0.00    -0.200 F 
ATOM     68  C   UNL A   1      43.302  24.776  25.698  1.00  0.00     0.200 A 
ATOM     69  F   UNL A   1      41.876  23.055  26.459  1.00  0.00    -0.200 F 
ATOM     70  F   UNL A   1      43.639  24.042  24.628  1.00  0.00    -0.200 F 
ENDBRANCH  46  60
BRANCH  47  71
ATOM     71  C   UNL A   1      39.409  31.928  35.573  1.00  0.00     0.064 A 
ATOM     72  C   UNL A   1      38.491  31.420  36.502  1.00  0.00     0.173 A 
ATOM     73  C   UNL A   1      39.881  33.233  35.764  1.00  0.00     0.173 A 
ATOM     74  F   UNL A   1      37.994  30.184  36.344  1.00  0.00    -0.203 F 
ATOM     75  C   UNL A   1      38.062  32.189  37.581  1.00  0.00     0.198 A 
ATOM     76  C   UNL A   1      39.469  33.994  36.856  1.00  0.00     0.198 A 
ATOM     77  F   UNL A   1      40.760  33.764  34.900  1.00  0.00    -0.203 F 
ATOM     78  F   UNL A   1      37.164  31.690  38.440  1.00  0.00    -0.200 F 
ATOM     79  C   UNL A   1      38.557  33.472  37.761  1.00  0.00     0.200 A 
ATOM     80  F   UNL A   1      39.958  35.229  37.033  1.00  0.00    -0.200 F 
ATOM     81  F   UNL A   1      38.152  34.208  38.805  1.00  0.00    -0.200 F 
ENDBRANCH  47  71
BRANCH  59  82
ATOM     82  C   UNL A   1      44.705  27.491  34.715  1.00  0.00     0.064 A 
ATOM     83  C   UNL A   1      45.911  28.198  34.823  1.00  0.00     0.173 A 
ATOM     84  C   UNL A   1      44.533  26.351  35.515  1.00  0.00     0.173 A 
ATOM     85  F   UNL A   1      46.128  29.282  34.064  1.00  0.00    -0.203 F 
ATOM     86  C   UNL A   1      46.915  27.769  35.686  1.00  0.00     0.198 A 
ATOM     87  C   UNL A   1      45.529  25.939  36.394  1.00  0.00     0.198 A 
ATOM     88  F   UNL A   1      43.395  25.644  35.448  1.00  0.00    -0.203 F 
ATOM     89  F   UNL A   1      48.076  28.435  35.746  1.00  0.00    -0.200 F 
ATOM     90  C   UNL A   1      46.721  26.643  36.475  1.00  0.00     0.200 A 
ATOM     91  F   UNL A   1      45.337  24.856  37.161  1.00  0.00    -0.200 F 
ATOM     92  F   UNL A   1      47.686  26.233  37.308  1.00  0.00    -0.200 F 
ENDBRANCH  59  82
ENDBRANCH  33  34
ENDBRANCH  26  28
ENDBRANCH  25  26
ENDBRANCH  24  25
ENDBRANCH   1  24
TORSDOF 15
ENDMDL
