MODEL 1
REMARK VINA RESULT:     -11.8      0.000      0.000
REMARK SMILES COc1cc(N[C@H]2C=C[C@@H](C(=O)OCCOC(=O)c3ccc(-c4c5nc(c(-c6c(F)c(F)c(F)c(F)c6F)c6ccc([nH]6)c(-c6c(F)c(F)c(F)c(F)c6F)c6nc(c(-c7c(F)c(F)c(F)c(F)c7F)c7ccc4[nH]7)C=C6)C=C5)cc3)C2)c([N+](=O)[O-])cc1F
REMARK SMILES IDX 14 1 13 2 11 3 12 4 10 5 7 6 8 7 82 8 9 9 6 10 5 12 3 13
REMARK SMILES IDX 4 14 88 15 87 16 89 17 83 18 2 19 1 20 84 21 85 22 86 23
REMARK SMILES IDX 15 24 16 25 17 26 18 27 19 28 20 29 81 30 21 31 80 32 22 33
REMARK SMILES IDX 23 34 24 35 74 36 25 37 79 38 73 39 75 40 26 41 78 42 72 43
REMARK SMILES IDX 71 44 27 46 59 47 39 48 58 49 40 50 43 51 57 52 76 53 41 54
REMARK SMILES IDX 42 55 56 57 77 58 44 59 28 60 29 61 37 62 30 63 31 64 35 65
REMARK SMILES IDX 38 66 32 67 33 68 36 69 34 70 60 71 61 72 69 73 62 74 63 75
REMARK SMILES IDX 67 76 70 77 64 78 65 79 68 80 66 81 45 82 46 83 54 84 47 85
REMARK SMILES IDX 48 86 52 87 55 88 49 89 50 90 53 91 51 92
REMARK H PARENT 6 11 75 45 43 56
REMARK Flexibility Score: inf
ROOT
ATOM      1  C   UNL A   1      31.361  29.400  24.126  1.00  0.00     0.274 C 
ENDROOT
BRANCH   1   2
ATOM      2  O   UNL A   1      31.837  28.042  24.061  1.00  0.00    -0.462 OA
BRANCH   2   3
ATOM      3  C   UNL A   1      31.265  27.136  24.892  1.00  0.00     0.312 C 
ATOM      4  O   UNL A   1      30.076  26.833  24.876  1.00  0.00    -0.252 OA
BRANCH   3   5
ATOM      5  C   UNL A   1      32.256  26.488  25.861  1.00  0.00     0.124 C 
ATOM      6  C   UNL A   1      33.381  24.335  26.161  1.00  0.00     0.103 C 
ATOM      7  C   UNL A   1      34.261  25.324  25.480  1.00  0.00    -0.006 C 
ATOM      8  C   UNL A   1      32.014  25.019  26.255  1.00  0.00     0.048 C 
ATOM      9  C   UNL A   1      33.651  26.501  25.309  1.00  0.00    -0.014 C 
BRANCH   6  10
ATOM     10  N   UNL A   1      33.380  23.062  25.465  1.00  0.00    -0.373 N 
ATOM     11  H   UNL A   1      32.535  22.852  25.007  1.00  0.00     0.161 HD
BRANCH  10  12
ATOM     12  C   UNL A   1      34.356  22.090  25.327  1.00  0.00     0.117 A 
ATOM     13  C   UNL A   1      36.721  21.410  25.469  1.00  0.00     0.157 A 
ATOM     14  C   UNL A   1      35.698  22.344  25.659  1.00  0.00     0.082 A 
ATOM     15  C   UNL A   1      36.403  20.143  25.001  1.00  0.00     0.172 A 
ATOM     16  C   UNL A   1      35.089  19.818  24.697  1.00  0.00     0.131 A 
ATOM     17  F   UNL A   1      37.344  19.201  24.855  1.00  0.00    -0.203 F 
ATOM     18  C   UNL A   1      34.074  20.783  24.852  1.00  0.00     0.295 A 
BRANCH  13  19
ATOM     19  O   UNL A   1      37.977  21.828  25.816  1.00  0.00    -0.494 OA
ATOM     20  C   UNL A   1      38.102  23.245  25.905  1.00  0.00     0.278 C 
ENDBRANCH  13  19
BRANCH  18  21
ATOM     21  N   UNL A   1      32.701  20.362  24.505  1.00  0.00     0.065 N 
ATOM     22  O   UNL A   1      32.153  19.487  25.193  1.00  0.00    -0.258 OA
ATOM     23  O   UNL A   1      32.159  20.915  23.536  1.00  0.00    -0.258 OA
ENDBRANCH  18  21
ENDBRANCH  10  12
ENDBRANCH   6  10
ENDBRANCH   3   5
ENDBRANCH   2   3
ENDBRANCH   1   2
BRANCH   1  24
ATOM     24  C   UNL A   1      31.521  29.952  25.544  1.00  0.00     0.275 C 
BRANCH  24  25
ATOM     25  O   UNL A   1      32.907  30.207  25.845  1.00  0.00    -0.458 OA
BRANCH  25  26
ATOM     26  C   UNL A   1      33.120  31.150  26.791  1.00  0.00     0.338 C 
ATOM     27  O   UNL A   1      32.346  32.008  27.178  1.00  0.00    -0.246 OA
BRANCH  26  28
ATOM     28  C   UNL A   1      34.405  30.889  27.453  1.00  0.00     0.060 A 
ATOM     29  C   UNL A   1      34.678  29.569  27.820  1.00  0.00     0.016 A 
ATOM     30  C   UNL A   1      35.296  31.914  27.772  1.00  0.00     0.016 A 
ATOM     31  C   UNL A   1      35.843  29.260  28.509  1.00  0.00     0.010 A 
ATOM     32  C   UNL A   1      36.466  31.604  28.472  1.00  0.00     0.010 A 
ATOM     33  C   UNL A   1      36.740  30.277  28.851  1.00  0.00    -0.014 A 
BRANCH  33  34
ATOM     34  C   UNL A   1      37.930  29.945  29.665  1.00  0.00     0.031 A 
ATOM     35  C   UNL A   1      38.994  29.058  29.091  1.00  0.00     0.074 A 
ATOM     36  C   UNL A   1      38.077  30.489  30.887  1.00  0.00     0.049 A 
ATOM     37  N   UNL A   1      40.070  28.584  29.662  1.00  0.00    -0.248 NA
ATOM     38  C   UNL A   1      38.829  28.657  27.685  1.00  0.00     0.031 C 
ATOM     39  C   UNL A   1      37.144  31.428  31.509  1.00  0.00     0.029 A 
ATOM     40  N   UNL A   1      39.073  30.338  31.818  1.00  0.00    -0.354 N 
ATOM     41  C   UNL A   1      40.699  27.812  28.695  1.00  0.00     0.074 A 
ATOM     42  C   UNL A   1      39.883  27.874  27.501  1.00  0.00     0.031 C 
ATOM     43  C   UNL A   1      37.617  31.779  32.716  1.00  0.00     0.029 A 
ATOM     44  C   UNL A   1      38.855  31.049  32.972  1.00  0.00     0.049 A 
ATOM     45  H   UNL A   1      39.867  29.774  31.672  1.00  0.00     0.167 HD
ATOM     46  C   UNL A   1      41.856  27.118  28.801  1.00  0.00     0.037 A 
ATOM     47  C   UNL A   1      39.566  31.084  34.116  1.00  0.00     0.037 A 
ATOM     48  C   UNL A   1      42.670  27.081  29.985  1.00  0.00     0.049 A 
ATOM     49  C   UNL A   1      40.809  30.245  34.230  1.00  0.00     0.074 A 
ATOM     50  C   UNL A   1      43.853  26.394  30.197  1.00  0.00     0.029 A 
ATOM     51  N   UNL A   1      42.390  27.770  31.155  1.00  0.00    -0.354 N 
ATOM     52  N   UNL A   1      41.372  29.478  33.328  1.00  0.00    -0.248 NA
ATOM     53  C   UNL A   1      41.507  30.263  35.524  1.00  0.00     0.031 C 
ATOM     54  C   UNL A   1      44.271  26.641  31.508  1.00  0.00     0.029 A 
ATOM     55  C   UNL A   1      43.372  27.514  32.098  1.00  0.00     0.049 A 
ATOM     56  H   UNL A   1      41.610  28.355  31.295  1.00  0.00     0.167 HD
ATOM     57  C   UNL A   1      42.496  28.936  33.937  1.00  0.00     0.074 A 
ATOM     58  C   UNL A   1      42.544  29.472  35.281  1.00  0.00     0.031 C 
ATOM     59  C   UNL A   1      43.404  28.069  33.427  1.00  0.00     0.037 A 
BRANCH  46  60
ATOM     60  C   UNL A   1      42.305  26.319  27.615  1.00  0.00     0.064 A 
ATOM     61  C   UNL A   1      41.800  25.028  27.401  1.00  0.00     0.173 A 
ATOM     62  C   UNL A   1      43.286  26.798  26.736  1.00  0.00     0.173 A 
ATOM     63  F   UNL A   1      40.861  24.525  28.216  1.00  0.00    -0.203 F 
ATOM     64  C   UNL A   1      42.275  24.237  26.359  1.00  0.00     0.198 A 
ATOM     65  C   UNL A   1      43.743  26.013  25.681  1.00  0.00     0.198 A 
ATOM     66  F   UNL A   1      43.787  28.032  26.891  1.00  0.00    -0.203 F 
ATOM     67  F   UNL A   1      41.800  22.995  26.191  1.00  0.00    -0.200 F 
ATOM     68  C   UNL A   1      43.245  24.730  25.499  1.00  0.00     0.200 A 
ATOM     69  F   UNL A   1      44.667  26.496  24.839  1.00  0.00    -0.200 F 
ATOM     70  F   UNL A   1      43.700  23.970  24.494  1.00  0.00    -0.200 F 
ENDBRANCH  46  60
BRANCH  47  71
ATOM     71  C   UNL A   1      39.102  31.927  35.248  1.00  0.00     0.064 A 
ATOM     72  C   UNL A   1      38.349  31.383  36.301  1.00  0.00     0.173 A 
ATOM     73  C   UNL A   1      39.397  33.295  35.295  1.00  0.00     0.173 A 
ATOM     74  F   UNL A   1      38.046  30.078  36.305  1.00  0.00    -0.203 F 
ATOM     75  C   UNL A   1      37.893  32.183  37.346  1.00  0.00     0.198 A 
ATOM     76  C   UNL A   1      38.962  34.089  36.356  1.00  0.00     0.198 A 
ATOM     77  F   UNL A   1      40.136  33.855  34.326  1.00  0.00    -0.203 F 
ATOM     78  F   UNL A   1      37.151  31.645  38.323  1.00  0.00    -0.200 F 
ATOM     79  C   UNL A   1      38.203  33.534  37.375  1.00  0.00     0.200 A 
ATOM     80  F   UNL A   1      39.286  35.388  36.394  1.00  0.00    -0.200 F 
ATOM     81  F   UNL A   1      37.777  34.299  38.390  1.00  0.00    -0.200 F 
ENDBRANCH  47  71
BRANCH  59  82
ATOM     82  C   UNL A   1      44.542  27.660  34.312  1.00  0.00     0.064 A 
ATOM     83  C   UNL A   1      45.741  28.389  34.307  1.00  0.00     0.173 A 
ATOM     84  C   UNL A   1      44.473  26.504  35.101  1.00  0.00     0.173 A 
ATOM     85  F   UNL A   1      45.855  29.498  33.561  1.00  0.00    -0.203 F 
ATOM     86  C   UNL A   1      46.837  27.964  35.052  1.00  0.00     0.198 A 
ATOM     87  C   UNL A   1      45.564  26.095  35.863  1.00  0.00     0.198 A 
ATOM     88  F   UNL A   1      43.343  25.783  35.145  1.00  0.00    -0.203 F 
ATOM     89  F   UNL A   1      47.983  28.658  35.010  1.00  0.00    -0.200 F 
ATOM     90  C   UNL A   1      46.748  26.820  35.830  1.00  0.00     0.200 A 
ATOM     91  F   UNL A   1      45.471  25.001  36.630  1.00  0.00    -0.200 F 
ATOM     92  F   UNL A   1      47.802  26.415  36.552  1.00  0.00    -0.200 F 
ENDBRANCH  59  82
ENDBRANCH  33  34
ENDBRANCH  26  28
ENDBRANCH  25  26
ENDBRANCH  24  25
ENDBRANCH   1  24
TORSDOF 15
ENDMDL
MODEL 2
REMARK VINA RESULT:     -11.8      1.200      2.468
REMARK SMILES COc1cc(N[C@H]2C=C[C@@H](C(=O)OCCOC(=O)c3ccc(-c4c5nc(c(-c6c(F)c(F)c(F)c(F)c6F)c6ccc([nH]6)c(-c6c(F)c(F)c(F)c(F)c6F)c6nc(c(-c7c(F)c(F)c(F)c(F)c7F)c7ccc4[nH]7)C=C6)C=C5)cc3)C2)c([N+](=O)[O-])cc1F
REMARK SMILES IDX 14 1 13 2 11 3 12 4 10 5 7 6 8 7 82 8 9 9 6 10 5 12 3 13
REMARK SMILES IDX 4 14 88 15 87 16 89 17 83 18 2 19 1 20 84 21 85 22 86 23
REMARK SMILES IDX 15 24 16 25 17 26 18 27 19 28 20 29 81 30 21 31 80 32 22 33
REMARK SMILES IDX 23 34 24 35 74 36 25 37 79 38 73 39 75 40 26 41 78 42 72 43
REMARK SMILES IDX 71 44 27 46 59 47 39 48 58 49 40 50 43 51 57 52 76 53 41 54
REMARK SMILES IDX 42 55 56 57 77 58 44 59 28 60 29 61 37 62 30 63 31 64 35 65
REMARK SMILES IDX 38 66 32 67 33 68 36 69 34 70 60 71 61 72 69 73 62 74 63 75
REMARK SMILES IDX 67 76 70 77 64 78 65 79 68 80 66 81 45 82 46 83 54 84 47 85
REMARK SMILES IDX 48 86 52 87 55 88 49 89 50 90 53 91 51 92
REMARK H PARENT 6 11 75 45 43 56
REMARK Flexibility Score: inf
ROOT
ATOM      1  C   UNL A   1      31.563  29.237  24.504  1.00  0.00     0.274 C 
ENDROOT
BRANCH   1   2
ATOM      2  O   UNL A   1      32.458  28.109  24.532  1.00  0.00    -0.462 OA
BRANCH   2   3
ATOM      3  C   UNL A   1      32.176  27.104  25.397  1.00  0.00     0.312 C 
ATOM      4  O   UNL A   1      32.768  26.910  26.454  1.00  0.00    -0.252 OA
BRANCH   3   5
ATOM      5  C   UNL A   1      31.010  26.222  24.945  1.00  0.00     0.124 C 
ATOM      6  C   UNL A   1      30.662  24.149  23.690  1.00  0.00     0.103 C 
ATOM      7  C   UNL A   1      30.640  23.912  25.160  1.00  0.00    -0.006 C 
ATOM      8  C   UNL A   1      31.079  25.615  23.531  1.00  0.00     0.048 C 
ATOM      9  C   UNL A   1      30.834  25.039  25.851  1.00  0.00    -0.014 C 
BRANCH   6  10
ATOM     10  N   UNL A   1      31.518  23.194  23.014  1.00  0.00    -0.373 N 
ATOM     11  H   UNL A   1      31.409  23.175  22.035  1.00  0.00     0.161 HD
BRANCH  10  12
ATOM     12  C   UNL A   1      32.463  22.305  23.495  1.00  0.00     0.117 A 
ATOM     13  C   UNL A   1      33.063  20.038  24.253  1.00  0.00     0.157 A 
ATOM     14  C   UNL A   1      32.156  20.950  23.704  1.00  0.00     0.082 A 
ATOM     15  C   UNL A   1      34.354  20.456  24.541  1.00  0.00     0.172 A 
ATOM     16  C   UNL A   1      34.730  21.772  24.316  1.00  0.00     0.131 A 
ATOM     17  F   UNL A   1      35.270  19.603  25.017  1.00  0.00    -0.203 F 
ATOM     18  C   UNL A   1      33.794  22.692  23.803  1.00  0.00     0.295 A 
BRANCH  13  19
ATOM     19  O   UNL A   1      32.594  18.762  24.418  1.00  0.00    -0.494 OA
ATOM     20  C   UNL A   1      32.722  17.952  23.253  1.00  0.00     0.278 C 
ENDBRANCH  13  19
BRANCH  18  21
ATOM     21  N   UNL A   1      34.269  24.075  23.593  1.00  0.00     0.065 N 
ATOM     22  O   UNL A   1      34.637  24.735  24.577  1.00  0.00    -0.258 OA
ATOM     23  O   UNL A   1      34.279  24.507  22.431  1.00  0.00    -0.258 OA
ENDBRANCH  18  21
ENDBRANCH  10  12
ENDBRANCH   6  10
ENDBRANCH   3   5
ENDBRANCH   2   3
ENDBRANCH   1   2
BRANCH   1  24
ATOM     24  C   UNL A   1      31.739  30.086  25.766  1.00  0.00     0.275 C 
BRANCH  24  25
ATOM     25  O   UNL A   1      33.134  30.312  26.044  1.00  0.00    -0.458 OA
BRANCH  25  26
ATOM     26  C   UNL A   1      33.385  31.293  26.941  1.00  0.00     0.338 C 
ATOM     27  O   UNL A   1      32.650  32.208  27.271  1.00  0.00    -0.246 OA
BRANCH  26  28
ATOM     28  C   UNL A   1      34.648  31.006  27.633  1.00  0.00     0.060 A 
ATOM     29  C   UNL A   1      34.889  29.680  27.997  1.00  0.00     0.016 A 
ATOM     30  C   UNL A   1      35.547  32.014  27.981  1.00  0.00     0.016 A 
ATOM     31  C   UNL A   1      36.032  29.347  28.713  1.00  0.00     0.010 A 
ATOM     32  C   UNL A   1      36.694  31.680  28.707  1.00  0.00     0.010 A 
ATOM     33  C   UNL A   1      36.936  30.347  29.084  1.00  0.00    -0.014 A 
BRANCH  33  34
ATOM     34  C   UNL A   1      38.100  29.990  29.926  1.00  0.00     0.031 A 
ATOM     35  C   UNL A   1      39.167  29.095  29.370  1.00  0.00     0.074 A 
ATOM     36  C   UNL A   1      38.222  30.517  31.157  1.00  0.00     0.049 A 
ATOM     37  N   UNL A   1      40.221  28.599  29.962  1.00  0.00    -0.248 NA
ATOM     38  C   UNL A   1      39.034  28.711  27.955  1.00  0.00     0.031 C 
ATOM     39  C   UNL A   1      37.285  31.461  31.766  1.00  0.00     0.029 A 
ATOM     40  N   UNL A   1      39.190  30.342  32.112  1.00  0.00    -0.354 N 
ATOM     41  C   UNL A   1      40.865  27.830  29.004  1.00  0.00     0.074 A 
ATOM     42  C   UNL A   1      40.083  27.917  27.790  1.00  0.00     0.031 C 
ATOM     43  C   UNL A   1      37.730  31.792  32.989  1.00  0.00     0.029 A 
ATOM     44  C   UNL A   1      38.951  31.043  33.269  1.00  0.00     0.049 A 
ATOM     45  H   UNL A   1      39.980  29.769  31.981  1.00  0.00     0.167 HD
ATOM     46  C   UNL A   1      42.010  27.119  29.132  1.00  0.00     0.037 A 
ATOM     47  C   UNL A   1      39.632  31.055  34.431  1.00  0.00     0.037 A 
ATOM     48  C   UNL A   1      42.792  27.058  30.337  1.00  0.00     0.049 A 
ATOM     49  C   UNL A   1      40.860  30.198  34.568  1.00  0.00     0.074 A 
ATOM     50  C   UNL A   1      43.959  26.353  30.572  1.00  0.00     0.029 A 
ATOM     51  N   UNL A   1      42.490  27.738  31.507  1.00  0.00    -0.354 N 
ATOM     52  N   UNL A   1      41.437  29.434  33.673  1.00  0.00    -0.248 NA
ATOM     53  C   UNL A   1      41.524  30.192  35.880  1.00  0.00     0.031 C 
ATOM     54  C   UNL A   1      44.346  26.580  31.896  1.00  0.00     0.029 A 
ATOM     55  C   UNL A   1      43.443  27.458  32.473  1.00  0.00     0.049 A 
ATOM     56  H   UNL A   1      41.714  28.331  31.633  1.00  0.00     0.167 HD
ATOM     57  C   UNL A   1      42.537  28.870  34.304  1.00  0.00     0.074 A 
ATOM     58  C   UNL A   1      42.557  29.390  35.655  1.00  0.00     0.031 C 
ATOM     59  C   UNL A   1      43.447  27.997  33.808  1.00  0.00     0.037 A 
BRANCH  46  60
ATOM     60  C   UNL A   1      42.479  26.328  27.949  1.00  0.00     0.064 A 
ATOM     61  C   UNL A   1      43.376  26.896  27.031  1.00  0.00     0.173 A 
ATOM     62  C   UNL A   1      41.988  25.044  27.683  1.00  0.00     0.173 A 
ATOM     63  F   UNL A   1      43.872  28.124  27.242  1.00  0.00    -0.203 F 
ATOM     64  C   UNL A   1      43.750  26.211  25.879  1.00  0.00     0.198 A 
ATOM     65  C   UNL A   1      42.382  24.352  26.540  1.00  0.00     0.198 A 
ATOM     66  F   UNL A   1      41.142  24.454  28.539  1.00  0.00    -0.203 F 
ATOM     67  F   UNL A   1      44.585  26.784  25.001  1.00  0.00    -0.200 F 
ATOM     68  C   UNL A   1      43.254  24.940  25.634  1.00  0.00     0.200 A 
ATOM     69  F   UNL A   1      41.917  23.115  26.314  1.00  0.00    -0.200 F 
ATOM     70  F   UNL A   1      43.616  24.279  24.526  1.00  0.00    -0.200 F 
ENDBRANCH  46  60
BRANCH  47  71
ATOM     71  C   UNL A   1      39.150  31.891  35.561  1.00  0.00     0.064 A 
ATOM     72  C   UNL A   1      38.305  31.363  36.549  1.00  0.00     0.173 A 
ATOM     73  C   UNL A   1      39.519  33.238  35.668  1.00  0.00     0.173 A 
ATOM     74  F   UNL A   1      37.928  30.078  36.494  1.00  0.00    -0.203 F 
ATOM     75  C   UNL A   1      37.832  32.158  37.591  1.00  0.00     0.198 A 
ATOM     76  C   UNL A   1      39.066  34.025  36.726  1.00  0.00     0.198 A 
ATOM     77  F   UNL A   1      40.345  33.781  34.763  1.00  0.00    -0.203 F 
ATOM     78  F   UNL A   1      37.003  31.637  38.505  1.00  0.00    -0.200 F 
ATOM     79  C   UNL A   1      38.216  33.487  37.681  1.00  0.00     0.200 A 
ATOM     80  F   UNL A   1      39.460  35.302  36.825  1.00  0.00    -0.200 F 
ATOM     81  F   UNL A   1      37.774  34.247  38.693  1.00  0.00    -0.200 F 
ENDBRANCH  47  71
BRANCH  59  82
ATOM     82  C   UNL A   1      44.556  27.563  34.718  1.00  0.00     0.064 A 
ATOM     83  C   UNL A   1      44.382  26.462  35.571  1.00  0.00     0.173 A 
ATOM     84  C   UNL A   1      45.755  28.283  34.803  1.00  0.00     0.173 A 
ATOM     85  F   UNL A   1      43.248  25.747  35.530  1.00  0.00    -0.203 F 
ATOM     86  C   UNL A   1      45.367  26.108  36.488  1.00  0.00     0.198 A 
ATOM     87  C   UNL A   1      46.747  27.912  35.705  1.00  0.00     0.198 A 
ATOM     88  F   UNL A   1      45.968  29.335  33.998  1.00  0.00    -0.203 F 
ATOM     89  F   UNL A   1      45.169  25.072  37.315  1.00  0.00    -0.200 F 
ATOM     90  C   UNL A   1      46.548  26.832  36.554  1.00  0.00     0.200 A 
ATOM     91  F   UNL A   1      47.896  28.599  35.754  1.00  0.00    -0.200 F 
ATOM     92  F   UNL A   1      47.499  26.486  37.433  1.00  0.00    -0.200 F 
ENDBRANCH  59  82
ENDBRANCH  33  34
ENDBRANCH  26  28
ENDBRANCH  25  26
ENDBRANCH  24  25
ENDBRANCH   1  24
TORSDOF 15
ENDMDL
MODEL 3
REMARK VINA RESULT:     -11.8      1.193      2.192
REMARK SMILES COc1cc(N[C@H]2C=C[C@@H](C(=O)OCCOC(=O)c3ccc(-c4c5nc(c(-c6c(F)c(F)c(F)c(F)c6F)c6ccc([nH]6)c(-c6c(F)c(F)c(F)c(F)c6F)c6nc(c(-c7c(F)c(F)c(F)c(F)c7F)c7ccc4[nH]7)C=C6)C=C5)cc3)C2)c([N+](=O)[O-])cc1F
REMARK SMILES IDX 14 1 13 2 11 3 12 4 10 5 7 6 8 7 82 8 9 9 6 10 5 12 3 13
REMARK SMILES IDX 4 14 88 15 87 16 89 17 83 18 2 19 1 20 84 21 85 22 86 23
REMARK SMILES IDX 15 24 16 25 17 26 18 27 19 28 20 29 81 30 21 31 80 32 22 33
REMARK SMILES IDX 23 34 24 35 74 36 25 37 79 38 73 39 75 40 26 41 78 42 72 43
REMARK SMILES IDX 71 44 27 46 59 47 39 48 58 49 40 50 43 51 57 52 76 53 41 54
REMARK SMILES IDX 42 55 56 57 77 58 44 59 28 60 29 61 37 62 30 63 31 64 35 65
REMARK SMILES IDX 38 66 32 67 33 68 36 69 34 70 60 71 61 72 69 73 62 74 63 75
REMARK SMILES IDX 67 76 70 77 64 78 65 79 68 80 66 81 45 82 46 83 54 84 47 85
REMARK SMILES IDX 48 86 52 87 55 88 49 89 50 90 53 91 51 92
REMARK H PARENT 6 11 75 45 43 56
REMARK Flexibility Score: inf
ROOT
ATOM      1  C   UNL A   1      31.592  29.231  24.509  1.00  0.00     0.274 C 
ENDROOT
BRANCH   1   2
ATOM      2  O   UNL A   1      32.482  28.099  24.528  1.00  0.00    -0.462 OA
BRANCH   2   3
ATOM      3  C   UNL A   1      32.194  27.087  25.382  1.00  0.00     0.312 C 
ATOM      4  O   UNL A   1      32.778  26.885  26.442  1.00  0.00    -0.252 OA
BRANCH   3   5
ATOM      5  C   UNL A   1      31.033  26.207  24.915  1.00  0.00     0.124 C 
ATOM      6  C   UNL A   1      30.698  24.130  23.663  1.00  0.00     0.103 C 
ATOM      7  C   UNL A   1      30.650  23.899  25.133  1.00  0.00    -0.006 C 
ATOM      8  C   UNL A   1      31.123  25.593  23.505  1.00  0.00     0.048 C 
ATOM      9  C   UNL A   1      30.837  25.029  25.822  1.00  0.00    -0.014 C 
BRANCH   6  10
ATOM     10  N   UNL A   1      31.562  23.169  23.006  1.00  0.00    -0.373 N 
ATOM     11  H   UNL A   1      31.484  23.160  22.024  1.00  0.00     0.161 HD
BRANCH  10  12
ATOM     12  C   UNL A   1      32.478  22.261  23.509  1.00  0.00     0.117 A 
ATOM     13  C   UNL A   1      33.031  19.970  24.230  1.00  0.00     0.157 A 
ATOM     14  C   UNL A   1      32.157  20.902  23.662  1.00  0.00     0.082 A 
ATOM     15  C   UNL A   1      34.307  20.374  24.596  1.00  0.00     0.172 A 
ATOM     16  C   UNL A   1      34.698  21.695  24.429  1.00  0.00     0.131 A 
ATOM     17  F   UNL A   1      35.194  19.503  25.093  1.00  0.00    -0.203 F 
ATOM     18  C   UNL A   1      33.792  22.633  23.896  1.00  0.00     0.295 A 
BRANCH  13  19
ATOM     19  O   UNL A   1      32.550  18.693  24.333  1.00  0.00    -0.494 OA
ATOM     20  C   UNL A   1      32.732  17.917  23.151  1.00  0.00     0.278 C 
ENDBRANCH  13  19
BRANCH  18  21
ATOM     21  N   UNL A   1      34.282  24.019  23.751  1.00  0.00     0.065 N 
ATOM     22  O   UNL A   1      34.552  24.666  24.775  1.00  0.00    -0.258 OA
ATOM     23  O   UNL A   1      34.403  24.468  22.602  1.00  0.00    -0.258 OA
ENDBRANCH  18  21
ENDBRANCH  10  12
ENDBRANCH   6  10
ENDBRANCH   3   5
ENDBRANCH   2   3
ENDBRANCH   1   2
BRANCH   1  24
ATOM     24  C   UNL A   1      31.764  30.063  25.783  1.00  0.00     0.275 C 
BRANCH  24  25
ATOM     25  O   UNL A   1      33.158  30.296  26.061  1.00  0.00    -0.458 OA
BRANCH  25  26
ATOM     26  C   UNL A   1      33.403  31.276  26.960  1.00  0.00     0.338 C 
ATOM     27  O   UNL A   1      32.663  32.185  27.294  1.00  0.00    -0.246 OA
BRANCH  26  28
ATOM     28  C   UNL A   1      34.670  30.995  27.650  1.00  0.00     0.060 A 
ATOM     29  C   UNL A   1      34.921  29.670  28.009  1.00  0.00     0.016 A 
ATOM     30  C   UNL A   1      35.562  32.008  28.000  1.00  0.00     0.016 A 
ATOM     31  C   UNL A   1      36.067  29.342  28.721  1.00  0.00     0.010 A 
ATOM     32  C   UNL A   1      36.713  31.680  28.724  1.00  0.00     0.010 A 
ATOM     33  C   UNL A   1      36.965  30.347  29.095  1.00  0.00    -0.014 A 
BRANCH  33  34
ATOM     34  C   UNL A   1      38.132  29.995  29.934  1.00  0.00     0.031 A 
ATOM     35  C   UNL A   1      39.202  29.105  29.375  1.00  0.00     0.074 A 
ATOM     36  C   UNL A   1      38.254  30.523  31.165  1.00  0.00     0.049 A 
ATOM     37  N   UNL A   1      40.260  28.615  29.965  1.00  0.00    -0.248 NA
ATOM     38  C   UNL A   1      39.068  28.722  27.960  1.00  0.00     0.031 C 
ATOM     39  C   UNL A   1      37.314  31.461  31.776  1.00  0.00     0.029 A 
ATOM     40  N   UNL A   1      39.226  30.351  32.118  1.00  0.00    -0.354 N 
ATOM     41  C   UNL A   1      40.906  27.849  29.004  1.00  0.00     0.074 A 
ATOM     42  C   UNL A   1      40.120  27.933  27.792  1.00  0.00     0.031 C 
ATOM     43  C   UNL A   1      37.760  31.794  32.999  1.00  0.00     0.029 A 
ATOM     44  C   UNL A   1      38.986  31.050  33.275  1.00  0.00     0.049 A 
ATOM     45  H   UNL A   1      40.018  29.782  31.984  1.00  0.00     0.167 HD
ATOM     46  C   UNL A   1      42.054  27.144  29.129  1.00  0.00     0.037 A 
ATOM     47  C   UNL A   1      39.669  31.065  34.436  1.00  0.00     0.037 A 
ATOM     48  C   UNL A   1      42.839  27.086  30.332  1.00  0.00     0.049 A 
ATOM     49  C   UNL A   1      40.902  30.214  34.570  1.00  0.00     0.074 A 
ATOM     50  C   UNL A   1      44.010  26.386  30.564  1.00  0.00     0.029 A 
ATOM     51  N   UNL A   1      42.537  27.763  31.503  1.00  0.00    -0.354 N 
ATOM     52  N   UNL A   1      41.481  29.453  33.672  1.00  0.00    -0.248 NA
ATOM     53  C   UNL A   1      41.569  30.210  35.880  1.00  0.00     0.031 C 
ATOM     54  C   UNL A   1      44.399  26.614  31.887  1.00  0.00     0.029 A 
ATOM     55  C   UNL A   1      43.493  27.487  32.467  1.00  0.00     0.049 A 
ATOM     56  H   UNL A   1      41.758  28.353  31.631  1.00  0.00     0.167 HD
ATOM     57  C   UNL A   1      42.585  28.894  34.301  1.00  0.00     0.074 A 
ATOM     58  C   UNL A   1      42.605  29.414  35.652  1.00  0.00     0.031 C 
ATOM     59  C   UNL A   1      43.498  28.026  33.802  1.00  0.00     0.037 A 
BRANCH  46  60
ATOM     60  C   UNL A   1      42.525  26.356  27.944  1.00  0.00     0.064 A 
ATOM     61  C   UNL A   1      43.436  26.920  27.038  1.00  0.00     0.173 A 
ATOM     62  C   UNL A   1      42.021  25.079  27.665  1.00  0.00     0.173 A 
ATOM     63  F   UNL A   1      43.944  28.140  27.262  1.00  0.00    -0.203 F 
ATOM     64  C   UNL A   1      43.812  26.239  25.884  1.00  0.00     0.198 A 
ATOM     65  C   UNL A   1      42.417  24.390  26.521  1.00  0.00     0.198 A 
ATOM     66  F   UNL A   1      41.161  24.492  28.510  1.00  0.00    -0.203 F 
ATOM     67  F   UNL A   1      44.660  26.809  25.017  1.00  0.00    -0.200 F 
ATOM     68  C   UNL A   1      43.303  24.975  25.627  1.00  0.00     0.200 A 
ATOM     69  F   UNL A   1      41.939  23.161  26.282  1.00  0.00    -0.200 F 
ATOM     70  F   UNL A   1      43.667  24.317  24.517  1.00  0.00    -0.200 F 
ENDBRANCH  46  60
BRANCH  47  71
ATOM     71  C   UNL A   1      39.186  31.898  35.567  1.00  0.00     0.064 A 
ATOM     72  C   UNL A   1      38.336  31.369  36.551  1.00  0.00     0.173 A 
ATOM     73  C   UNL A   1      39.559  33.244  35.682  1.00  0.00     0.173 A 
ATOM     74  F   UNL A   1      37.954  30.085  36.489  1.00  0.00    -0.203 F 
ATOM     75  C   UNL A   1      37.862  32.161  37.594  1.00  0.00     0.198 A 
ATOM     76  C   UNL A   1      39.105  34.028  36.741  1.00  0.00     0.198 A 
ATOM     77  F   UNL A   1      40.391  33.787  34.782  1.00  0.00    -0.203 F 
ATOM     78  F   UNL A   1      37.028  31.639  38.503  1.00  0.00    -0.200 F 
ATOM     79  C   UNL A   1      38.250  33.489  37.691  1.00  0.00     0.200 A 
ATOM     80  F   UNL A   1      39.504  35.303  36.847  1.00  0.00    -0.200 F 
ATOM     81  F   UNL A   1      37.807  34.245  38.704  1.00  0.00    -0.200 F 
ENDBRANCH  47  71
BRANCH  59  82
ATOM     82  C   UNL A   1      44.611  27.596  34.709  1.00  0.00     0.064 A 
ATOM     83  C   UNL A   1      45.839  28.274  34.694  1.00  0.00     0.173 A 
ATOM     84  C   UNL A   1      44.488  26.468  35.531  1.00  0.00     0.173 A 
ATOM     85  F   UNL A   1      46.005  29.355  33.917  1.00  0.00    -0.203 F 
ATOM     86  C   UNL A   1      46.911  27.827  35.461  1.00  0.00     0.198 A 
ATOM     87  C   UNL A   1      45.555  26.037  36.314  1.00  0.00     0.198 A 
ATOM     88  F   UNL A   1      43.328  25.796  35.586  1.00  0.00    -0.203 F 
ATOM     89  F   UNL A   1      48.085  28.471  35.410  1.00  0.00    -0.200 F 
ATOM     90  C   UNL A   1      46.768  26.710  36.271  1.00  0.00     0.200 A 
ATOM     91  F   UNL A   1      45.410  24.971  37.112  1.00  0.00    -0.200 F 
ATOM     92  F   UNL A   1      47.798  26.284  37.014  1.00  0.00    -0.200 F 
ENDBRANCH  59  82
ENDBRANCH  33  34
ENDBRANCH  26  28
ENDBRANCH  25  26
ENDBRANCH  24  25
ENDBRANCH   1  24
TORSDOF 15
ENDMDL
