MODEL 1
REMARK VINA RESULT:     -10.5      0.000      0.000
REMARK SMILES COc1ccc([C@H]2C[NH2+]C[C@@H]2C(=O)OCCOC(=O)c2ccc(-c3c4nc(c(-c5c(F)c(F)c(F)c(F)c5F)c5ccc([nH]5)c(-c5c(F)c(F)c(F)c(F)c5F)c5nc(c(-c6c(F)c(F)c(F)c(F)c6F)c6ccc3[nH]6)C=C5)C=C4)cc2)cc1
REMARK SMILES IDX 15 1 14 2 12 3 13 4 11 5 7 6 8 7 9 8 10 9 6 12 3 13 4 14
REMARK SMILES IDX 84 15 5 16 83 17 2 18 1 19 16 20 17 21 18 22 19 23 20 24
REMARK SMILES IDX 21 25 82 26 22 27 81 28 23 29 24 30 25 31 75 32 26 33 80 34
REMARK SMILES IDX 74 35 76 36 27 37 79 38 73 39 72 40 28 42 60 43 40 44 59 45
REMARK SMILES IDX 41 46 44 47 58 48 77 49 42 50 43 51 57 53 78 54 45 55 29 56
REMARK SMILES IDX 30 57 38 58 31 59 32 60 36 61 39 62 33 63 34 64 37 65 35 66
REMARK SMILES IDX 61 67 62 68 70 69 63 70 64 71 68 72 71 73 65 74 66 75 69 76
REMARK SMILES IDX 67 77 46 78 47 79 55 80 48 81 49 82 53 83 56 84 50 85 51 86
REMARK SMILES IDX 54 87 52 88
REMARK H PARENT 9 10 9 11 76 41 44 52
REMARK Flexibility Score: inf
ROOT
ATOM      1  C   UNL A   1      42.105  19.404  26.270  1.00  0.00     0.274 C 
ENDROOT
BRANCH   1   2
ATOM      2  O   UNL A   1      42.961  20.095  25.339  1.00  0.00    -0.462 OA
BRANCH   2   3
ATOM      3  C   UNL A   1      44.197  19.573  25.143  1.00  0.00     0.315 C 
ATOM      4  O   UNL A   1      44.403  18.448  24.701  1.00  0.00    -0.252 OA
BRANCH   3   5
ATOM      5  C   UNL A   1      45.322  20.564  25.402  1.00  0.00     0.167 C 
ATOM      6  C   UNL A   1      44.747  21.990  25.532  1.00  0.00     0.094 C 
ATOM      7  C   UNL A   1      45.100  22.578  24.159  1.00  0.00     0.269 C 
ATOM      8  N   UNL A   1      46.441  22.054  23.869  1.00  0.00    -0.345 N 
ATOM      9  C   UNL A   1      46.394  20.654  24.317  1.00  0.00     0.276 C 
ATOM     10  H   UNL A   1      47.151  22.575  24.385  1.00  0.00     0.346 HD
ATOM     11  H   UNL A   1      46.685  22.138  22.882  1.00  0.00     0.346 HD
BRANCH   6  12
ATOM     12  C   UNL A   1      45.258  22.876  26.671  1.00  0.00    -0.038 A 
ATOM     13  C   UNL A   1      46.028  24.501  28.855  1.00  0.00     0.118 A 
ATOM     14  C   UNL A   1      44.896  23.701  28.946  1.00  0.00     0.047 A 
ATOM     15  C   UNL A   1      46.810  24.453  27.704  1.00  0.00     0.047 A 
ATOM     16  C   UNL A   1      44.515  22.898  27.868  1.00  0.00     0.008 A 
ATOM     17  C   UNL A   1      46.423  23.655  26.618  1.00  0.00     0.008 A 
BRANCH  13  18
ATOM     18  O   UNL A   1      46.317  25.263  29.953  1.00  0.00    -0.497 OA
ATOM     19  C   UNL A   1      45.428  26.361  30.143  1.00  0.00     0.278 C 
ENDBRANCH  13  18
ENDBRANCH   6  12
ENDBRANCH   3   5
ENDBRANCH   2   3
ENDBRANCH   1   2
BRANCH   1  20
ATOM     20  C   UNL A   1      40.626  19.585  25.911  1.00  0.00     0.275 C 
BRANCH  20  21
ATOM     21  O   UNL A   1      39.942  20.461  26.831  1.00  0.00    -0.458 OA
BRANCH  21  22
ATOM     22  C   UNL A   1      39.305  21.506  26.254  1.00  0.00     0.338 C 
ATOM     23  O   UNL A   1      38.378  21.459  25.461  1.00  0.00    -0.246 OA
BRANCH  22  24
ATOM     24  C   UNL A   1      39.790  22.780  26.808  1.00  0.00     0.060 A 
ATOM     25  C   UNL A   1      39.414  23.947  26.143  1.00  0.00     0.016 A 
ATOM     26  C   UNL A   1      40.686  22.836  27.877  1.00  0.00     0.016 A 
ATOM     27  C   UNL A   1      39.959  25.170  26.505  1.00  0.00     0.010 A 
ATOM     28  C   UNL A   1      41.218  24.075  28.260  1.00  0.00     0.010 A 
ATOM     29  C   UNL A   1      40.875  25.246  27.561  1.00  0.00    -0.014 A 
BRANCH  29  30
ATOM     30  C   UNL A   1      41.476  26.565  27.874  1.00  0.00     0.031 A 
ATOM     31  C   UNL A   1      42.819  26.936  27.316  1.00  0.00     0.074 A 
ATOM     32  C   UNL A   1      40.761  27.465  28.574  1.00  0.00     0.049 A 
ATOM     33  N   UNL A   1      43.487  28.055  27.443  1.00  0.00    -0.248 NA
ATOM     34  C   UNL A   1      43.502  25.918  26.504  1.00  0.00     0.031 C 
ATOM     35  C   UNL A   1      39.424  27.232  29.124  1.00  0.00     0.029 A 
ATOM     36  N   UNL A   1      41.042  28.763  28.914  1.00  0.00    -0.354 N 
ATOM     37  C   UNL A   1      44.673  27.869  26.747  1.00  0.00     0.074 A 
ATOM     38  C   UNL A   1      44.644  26.525  26.211  1.00  0.00     0.031 C 
ATOM     39  C   UNL A   1      38.987  28.361  29.702  1.00  0.00     0.029 A 
ATOM     40  C   UNL A   1      40.027  29.380  29.602  1.00  0.00     0.049 A 
ATOM     41  H   UNL A   1      41.889  29.210  28.687  1.00  0.00     0.167 HD
ATOM     42  C   UNL A   1      45.692  28.745  26.569  1.00  0.00     0.037 A 
ATOM     43  C   UNL A   1      39.948  30.628  30.104  1.00  0.00     0.037 A 
ATOM     44  C   UNL A   1      45.708  30.090  27.083  1.00  0.00     0.049 A 
ATOM     45  C   UNL A   1      41.105  31.568  29.913  1.00  0.00     0.074 A 
ATOM     46  C   UNL A   1      46.695  31.053  26.953  1.00  0.00     0.029 A 
ATOM     47  N   UNL A   1      44.684  30.665  27.821  1.00  0.00    -0.354 N 
ATOM     48  N   UNL A   1      42.231  31.375  29.269  1.00  0.00    -0.248 NA
ATOM     49  C   UNL A   1      40.982  32.898  30.525  1.00  0.00     0.031 C 
ATOM     50  C   UNL A   1      46.280  32.200  27.641  1.00  0.00     0.029 A 
ATOM     51  C   UNL A   1      45.021  31.964  28.167  1.00  0.00     0.049 A 
ATOM     52  H   UNL A   1      43.843  30.215  28.064  1.00  0.00     0.167 HD
ATOM     53  C   UNL A   1      42.946  32.557  29.392  1.00  0.00     0.074 A 
ATOM     54  C   UNL A   1      42.116  33.472  30.149  1.00  0.00     0.031 C 
ATOM     55  C   UNL A   1      44.184  32.856  28.928  1.00  0.00     0.037 A 
BRANCH  42  56
ATOM     56  C   UNL A   1      46.890  28.263  25.806  1.00  0.00     0.064 A 
ATOM     57  C   UNL A   1      46.887  28.175  24.407  1.00  0.00     0.173 A 
ATOM     58  C   UNL A   1      48.066  27.915  26.485  1.00  0.00     0.173 A 
ATOM     59  F   UNL A   1      45.781  28.482  23.713  1.00  0.00    -0.203 F 
ATOM     60  C   UNL A   1      48.014  27.735  23.716  1.00  0.00     0.198 A 
ATOM     61  C   UNL A   1      49.198  27.497  25.791  1.00  0.00     0.198 A 
ATOM     62  F   UNL A   1      48.121  27.984  27.824  1.00  0.00    -0.203 F 
ATOM     63  F   UNL A   1      47.977  27.620  22.381  1.00  0.00    -0.200 F 
ATOM     64  C   UNL A   1      49.169  27.403  24.407  1.00  0.00     0.200 A 
ATOM     65  F   UNL A   1      50.316  27.184  26.460  1.00  0.00    -0.200 F 
ATOM     66  F   UNL A   1      50.254  26.983  23.740  1.00  0.00    -0.200 F 
ENDBRANCH  42  56
BRANCH  43  67
ATOM     67  C   UNL A   1      38.732  31.050  30.841  1.00  0.00     0.064 A 
ATOM     68  C   UNL A   1      37.642  31.624  30.172  1.00  0.00     0.173 A 
ATOM     69  C   UNL A   1      38.634  30.887  32.231  1.00  0.00     0.173 A 
ATOM     70  F   UNL A   1      37.701  31.826  28.847  1.00  0.00    -0.203 F 
ATOM     71  C   UNL A   1      36.505  32.029  30.866  1.00  0.00     0.198 A 
ATOM     72  C   UNL A   1      37.486  31.267  32.921  1.00  0.00     0.198 A 
ATOM     73  F   UNL A   1      39.651  30.347  32.917  1.00  0.00    -0.203 F 
ATOM     74  F   UNL A   1      35.493  32.613  30.210  1.00  0.00    -0.200 F 
ATOM     75  C   UNL A   1      36.424  31.843  32.239  1.00  0.00     0.200 A 
ATOM     76  F   UNL A   1      37.409  31.078  34.245  1.00  0.00    -0.200 F 
ATOM     77  F   UNL A   1      35.329  32.229  32.907  1.00  0.00    -0.200 F 
ENDBRANCH  43  67
BRANCH  55  78
ATOM     78  C   UNL A   1      44.704  34.231  29.223  1.00  0.00     0.064 A 
ATOM     79  C   UNL A   1      44.392  35.321  28.396  1.00  0.00     0.173 A 
ATOM     80  C   UNL A   1      45.510  34.463  30.346  1.00  0.00     0.173 A 
ATOM     81  F   UNL A   1      43.638  35.143  27.301  1.00  0.00    -0.203 F 
ATOM     82  C   UNL A   1      44.894  36.591  28.670  1.00  0.00     0.198 A 
ATOM     83  C   UNL A   1      45.989  35.739  30.630  1.00  0.00     0.198 A 
ATOM     84  F   UNL A   1      45.832  33.454  31.169  1.00  0.00    -0.203 F 
ATOM     85  F   UNL A   1      44.624  37.608  27.840  1.00  0.00    -0.200 F 
ATOM     86  C   UNL A   1      45.687  36.799  29.788  1.00  0.00     0.200 A 
ATOM     87  F   UNL A   1      46.749  35.941  31.714  1.00  0.00    -0.200 F 
ATOM     88  F   UNL A   1      46.171  38.021  30.048  1.00  0.00    -0.200 F 
ENDBRANCH  55  78
ENDBRANCH  29  30
ENDBRANCH  22  24
ENDBRANCH  21  22
ENDBRANCH  20  21
ENDBRANCH   1  20
TORSDOF 13
ENDMDL
MODEL 2
REMARK VINA RESULT:     -10.4      5.260     12.275
REMARK SMILES COc1ccc([C@H]2C[NH2+]C[C@@H]2C(=O)OCCOC(=O)c2ccc(-c3c4nc(c(-c5c(F)c(F)c(F)c(F)c5F)c5ccc([nH]5)c(-c5c(F)c(F)c(F)c(F)c5F)c5nc(c(-c6c(F)c(F)c(F)c(F)c6F)c6ccc3[nH]6)C=C5)C=C4)cc2)cc1
REMARK SMILES IDX 15 1 14 2 12 3 13 4 11 5 7 6 8 7 9 8 10 9 6 12 3 13 4 14
REMARK SMILES IDX 84 15 5 16 83 17 2 18 1 19 16 20 17 21 18 22 19 23 20 24
REMARK SMILES IDX 21 25 82 26 22 27 81 28 23 29 24 30 25 31 75 32 26 33 80 34
REMARK SMILES IDX 74 35 76 36 27 37 79 38 73 39 72 40 28 42 60 43 40 44 59 45
REMARK SMILES IDX 41 46 44 47 58 48 77 49 42 50 43 51 57 53 78 54 45 55 29 56
REMARK SMILES IDX 30 57 38 58 31 59 32 60 36 61 39 62 33 63 34 64 37 65 35 66
REMARK SMILES IDX 61 67 62 68 70 69 63 70 64 71 68 72 71 73 65 74 66 75 69 76
REMARK SMILES IDX 67 77 46 78 47 79 55 80 48 81 49 82 53 83 56 84 50 85 51 86
REMARK SMILES IDX 54 87 52 88
REMARK H PARENT 9 10 9 11 76 41 44 52
REMARK Flexibility Score: inf
ROOT
ATOM      1  C   UNL A   1      33.641  34.760  28.899  1.00  0.00     0.274 C 
ENDROOT
BRANCH   1   2
ATOM      2  O   UNL A   1      33.279  34.624  30.287  1.00  0.00    -0.462 OA
BRANCH   2   3
ATOM      3  C   UNL A   1      33.193  35.767  31.010  1.00  0.00     0.315 C 
ATOM      4  O   UNL A   1      32.240  36.538  30.963  1.00  0.00    -0.252 OA
BRANCH   3   5
ATOM      5  C   UNL A   1      34.338  35.948  31.996  1.00  0.00     0.167 C 
ATOM      6  C   UNL A   1      35.066  34.605  32.210  1.00  0.00     0.094 C 
ATOM      7  C   UNL A   1      34.505  34.178  33.573  1.00  0.00     0.269 C 
ATOM      8  N   UNL A   1      34.439  35.423  34.349  1.00  0.00    -0.345 N 
ATOM      9  C   UNL A   1      33.946  36.426  33.394  1.00  0.00     0.276 C 
ATOM     10  H   UNL A   1      35.363  35.679  34.698  1.00  0.00     0.346 HD
ATOM     11  H   UNL A   1      33.837  35.338  35.168  1.00  0.00     0.346 HD
BRANCH   6  12
ATOM     12  C   UNL A   1      36.597  34.601  32.205  1.00  0.00    -0.038 A 
ATOM     13  C   UNL A   1      39.419  34.531  32.016  1.00  0.00     0.118 A 
ATOM     14  C   UNL A   1      38.642  34.521  30.864  1.00  0.00     0.047 A 
ATOM     15  C   UNL A   1      38.799  34.633  33.259  1.00  0.00     0.047 A 
ATOM     16  C   UNL A   1      37.249  34.556  30.957  1.00  0.00     0.008 A 
ATOM     17  C   UNL A   1      37.400  34.658  33.353  1.00  0.00     0.008 A 
BRANCH  13  18
ATOM     18  O   UNL A   1      40.772  34.481  31.831  1.00  0.00    -0.497 OA
ATOM     19  C   UNL A   1      41.215  33.328  31.119  1.00  0.00     0.278 C 
ENDBRANCH  13  18
ENDBRANCH   6  12
ENDBRANCH   3   5
ENDBRANCH   2   3
ENDBRANCH   1   2
BRANCH   1  20
ATOM     20  C   UNL A   1      32.933  33.716  28.030  1.00  0.00     0.275 C 
BRANCH  20  21
ATOM     21  O   UNL A   1      33.858  32.946  27.234  1.00  0.00    -0.458 OA
BRANCH  21  22
ATOM     22  C   UNL A   1      33.864  31.619  27.493  1.00  0.00     0.338 C 
ATOM     23  O   UNL A   1      32.964  30.821  27.287  1.00  0.00    -0.246 OA
BRANCH  22  24
ATOM     24  C   UNL A   1      35.191  31.188  27.962  1.00  0.00     0.060 A 
ATOM     25  C   UNL A   1      35.298  29.890  28.463  1.00  0.00     0.016 A 
ATOM     26  C   UNL A   1      36.280  32.059  28.024  1.00  0.00     0.016 A 
ATOM     27  C   UNL A   1      36.471  29.464  29.069  1.00  0.00     0.010 A 
ATOM     28  C   UNL A   1      37.474  31.622  28.615  1.00  0.00     0.010 A 
ATOM     29  C   UNL A   1      37.568  30.329  29.161  1.00  0.00    -0.014 A 
BRANCH  29  30
ATOM     30  C   UNL A   1      38.780  29.851  29.870  1.00  0.00     0.031 A 
ATOM     31  C   UNL A   1      39.036  30.263  31.291  1.00  0.00     0.074 A 
ATOM     32  C   UNL A   1      39.589  28.963  29.265  1.00  0.00     0.049 A 
ATOM     33  N   UNL A   1      40.015  29.915  32.089  1.00  0.00    -0.248 NA
ATOM     34  C   UNL A   1      38.063  31.182  31.900  1.00  0.00     0.031 C 
ATOM     35  C   UNL A   1      39.411  28.455  27.904  1.00  0.00     0.029 A 
ATOM     36  N   UNL A   1      40.702  28.307  29.725  1.00  0.00    -0.354 N 
ATOM     37  C   UNL A   1      39.788  30.587  33.282  1.00  0.00     0.074 A 
ATOM     38  C   UNL A   1      38.587  31.376  33.102  1.00  0.00     0.031 C 
ATOM     39  C   UNL A   1      40.359  27.540  27.652  1.00  0.00     0.029 A 
ATOM     40  C   UNL A   1      41.236  27.430  28.814  1.00  0.00     0.049 A 
ATOM     41  H   UNL A   1      41.081  28.450  30.622  1.00  0.00     0.167 HD
ATOM     42  C   UNL A   1      40.515  30.544  34.424  1.00  0.00     0.037 A 
ATOM     43  C   UNL A   1      42.317  26.633  28.904  1.00  0.00     0.037 A 
ATOM     44  C   UNL A   1      41.695  29.740  34.609  1.00  0.00     0.049 A 
ATOM     45  C   UNL A   1      43.119  26.627  30.175  1.00  0.00     0.074 A 
ATOM     46  C   UNL A   1      42.498  29.628  35.732  1.00  0.00     0.029 A 
ATOM     47  N   UNL A   1      42.237  28.903  33.645  1.00  0.00    -0.354 N 
ATOM     48  N   UNL A   1      42.906  27.281  31.291  1.00  0.00    -0.248 NA
ATOM     49  C   UNL A   1      44.316  25.775  30.195  1.00  0.00     0.031 C 
ATOM     50  C   UNL A   1      43.545  28.748  35.435  1.00  0.00     0.029 A 
ATOM     51  C   UNL A   1      43.373  28.282  34.141  1.00  0.00     0.049 A 
ATOM     52  H   UNL A   1      41.870  28.770  32.742  1.00  0.00     0.167 HD
ATOM     53  C   UNL A   1      43.935  26.917  32.147  1.00  0.00     0.074 A 
ATOM     54  C   UNL A   1      44.757  25.962  31.431  1.00  0.00     0.031 C 
ATOM     55  C   UNL A   1      44.183  27.342  33.410  1.00  0.00     0.037 A 
BRANCH  42  56
ATOM     56  C   UNL A   1      40.067  31.416  35.560  1.00  0.00     0.064 A 
ATOM     57  C   UNL A   1      40.736  32.603  35.887  1.00  0.00     0.173 A 
ATOM     58  C   UNL A   1      38.933  31.070  36.310  1.00  0.00     0.173 A 
ATOM     59  F   UNL A   1      41.834  32.969  35.209  1.00  0.00    -0.203 F 
ATOM     60  C   UNL A   1      40.298  33.404  36.940  1.00  0.00     0.198 A 
ATOM     61  C   UNL A   1      38.485  31.884  37.347  1.00  0.00     0.198 A 
ATOM     62  F   UNL A   1      38.256  29.946  36.035  1.00  0.00    -0.203 F 
ATOM     63  F   UNL A   1      40.976  34.514  37.262  1.00  0.00    -0.200 F 
ATOM     64  C   UNL A   1      39.170  33.048  37.664  1.00  0.00     0.200 A 
ATOM     65  F   UNL A   1      37.390  31.543  38.040  1.00  0.00    -0.200 F 
ATOM     66  F   UNL A   1      38.748  33.821  38.674  1.00  0.00    -0.200 F 
ENDBRANCH  42  56
BRANCH  43  67
ATOM     67  C   UNL A   1      42.705  25.784  27.750  1.00  0.00     0.064 A 
ATOM     68  C   UNL A   1      42.146  24.512  27.567  1.00  0.00     0.173 A 
ATOM     69  C   UNL A   1      43.642  26.228  26.806  1.00  0.00     0.173 A 
ATOM     70  F   UNL A   1      41.266  24.033  28.459  1.00  0.00    -0.203 F 
ATOM     71  C   UNL A   1      42.517  23.712  26.489  1.00  0.00     0.198 A 
ATOM     72  C   UNL A   1      43.993  25.440  25.714  1.00  0.00     0.198 A 
ATOM     73  F   UNL A   1      44.209  27.437  26.940  1.00  0.00    -0.203 F 
ATOM     74  F   UNL A   1      41.999  22.484  26.357  1.00  0.00    -0.200 F 
ATOM     75  C   UNL A   1      43.435  24.180  25.558  1.00  0.00     0.200 A 
ATOM     76  F   UNL A   1      44.873  25.899  24.814  1.00  0.00    -0.200 F 
ATOM     77  F   UNL A   1      43.789  23.412  24.519  1.00  0.00    -0.200 F 
ENDBRANCH  43  67
BRANCH  55  78
ATOM     78  C   UNL A   1      45.387  26.767  34.094  1.00  0.00     0.064 A 
ATOM     79  C   UNL A   1      45.323  25.543  34.776  1.00  0.00     0.173 A 
ATOM     80  C   UNL A   1      46.617  27.438  34.056  1.00  0.00     0.173 A 
ATOM     81  F   UNL A   1      44.163  24.873  34.853  1.00  0.00    -0.203 F 
ATOM     82  C   UNL A   1      46.443  25.026  35.422  1.00  0.00     0.198 A 
ATOM     83  C   UNL A   1      47.741  26.906  34.682  1.00  0.00     0.198 A 
ATOM     84  F   UNL A   1      46.730  28.609  33.412  1.00  0.00    -0.203 F 
ATOM     85  F   UNL A   1      46.348  23.880  36.110  1.00  0.00    -0.200 F 
ATOM     86  C   UNL A   1      47.651  25.706  35.370  1.00  0.00     0.200 A 
ATOM     87  F   UNL A   1      48.909  27.559  34.625  1.00  0.00    -0.200 F 
ATOM     88  F   UNL A   1      48.727  25.208  35.994  1.00  0.00    -0.200 F 
ENDBRANCH  55  78
ENDBRANCH  29  30
ENDBRANCH  22  24
ENDBRANCH  21  22
ENDBRANCH  20  21
ENDBRANCH   1  20
TORSDOF 13
ENDMDL
MODEL 3
REMARK VINA RESULT:     -10.3      3.180      6.105
REMARK SMILES COc1ccc([C@H]2C[NH2+]C[C@@H]2C(=O)OCCOC(=O)c2ccc(-c3c4nc(c(-c5c(F)c(F)c(F)c(F)c5F)c5ccc([nH]5)c(-c5c(F)c(F)c(F)c(F)c5F)c5nc(c(-c6c(F)c(F)c(F)c(F)c6F)c6ccc3[nH]6)C=C5)C=C4)cc2)cc1
REMARK SMILES IDX 15 1 14 2 12 3 13 4 11 5 7 6 8 7 9 8 10 9 6 12 3 13 4 14
REMARK SMILES IDX 84 15 5 16 83 17 2 18 1 19 16 20 17 21 18 22 19 23 20 24
REMARK SMILES IDX 21 25 82 26 22 27 81 28 23 29 24 30 25 31 75 32 26 33 80 34
REMARK SMILES IDX 74 35 76 36 27 37 79 38 73 39 72 40 28 42 60 43 40 44 59 45
REMARK SMILES IDX 41 46 44 47 58 48 77 49 42 50 43 51 57 53 78 54 45 55 29 56
REMARK SMILES IDX 30 57 38 58 31 59 32 60 36 61 39 62 33 63 34 64 37 65 35 66
REMARK SMILES IDX 61 67 62 68 70 69 63 70 64 71 68 72 71 73 65 74 66 75 69 76
REMARK SMILES IDX 67 77 46 78 47 79 55 80 48 81 49 82 53 83 56 84 50 85 51 86
REMARK SMILES IDX 54 87 52 88
REMARK H PARENT 9 10 9 11 76 41 44 52
REMARK Flexibility Score: inf
ROOT
ATOM      1  C   UNL A   1      36.652  22.626  23.636  1.00  0.00     0.274 C 
ENDROOT
BRANCH   1   2
ATOM      2  O   UNL A   1      36.060  23.584  24.534  1.00  0.00    -0.462 OA
BRANCH   2   3
ATOM      3  C   UNL A   1      34.707  23.673  24.527  1.00  0.00     0.315 C 
ATOM      4  O   UNL A   1      34.083  24.588  23.999  1.00  0.00    -0.252 OA
BRANCH   3   5
ATOM      5  C   UNL A   1      34.016  22.458  25.128  1.00  0.00     0.167 C 
ATOM      6  C   UNL A   1      33.110  21.792  24.072  1.00  0.00     0.094 C 
ATOM      7  C   UNL A   1      31.727  22.285  24.516  1.00  0.00     0.269 C 
ATOM      8  N   UNL A   1      31.771  22.231  25.983  1.00  0.00    -0.345 N 
ATOM      9  C   UNL A   1      33.111  22.731  26.329  1.00  0.00     0.276 C 
ATOM     10  H   UNL A   1      31.646  21.274  26.313  1.00  0.00     0.346 HD
ATOM     11  H   UNL A   1      31.028  22.783  26.414  1.00  0.00     0.346 HD
BRANCH   6  12
ATOM     12  C   UNL A   1      33.149  20.267  23.941  1.00  0.00    -0.038 A 
ATOM     13  C   UNL A   1      33.396  17.454  23.777  1.00  0.00     0.118 A 
ATOM     14  C   UNL A   1      34.224  18.178  24.626  1.00  0.00     0.047 A 
ATOM     15  C   UNL A   1      32.410  18.117  23.053  1.00  0.00     0.047 A 
ATOM     16  C   UNL A   1      34.102  19.568  24.707  1.00  0.00     0.008 A 
ATOM     17  C   UNL A   1      32.293  19.512  23.127  1.00  0.00     0.008 A 
BRANCH  13  18
ATOM     18  O   UNL A   1      33.595  16.101  23.752  1.00  0.00    -0.497 OA
ATOM     19  C   UNL A   1      33.276  15.448  24.978  1.00  0.00     0.278 C 
ENDBRANCH  13  18
ENDBRANCH   6  12
ENDBRANCH   3   5
ENDBRANCH   2   3
ENDBRANCH   1   2
BRANCH   1  20
ATOM     20  C   UNL A   1      37.242  21.435  24.397  1.00  0.00     0.275 C 
BRANCH  20  21
ATOM     21  O   UNL A   1      37.604  21.775  25.752  1.00  0.00    -0.458 OA
BRANCH  21  22
ATOM     22  C   UNL A   1      38.905  21.568  26.062  1.00  0.00     0.338 C 
ATOM     23  O   UNL A   1      39.579  20.585  25.803  1.00  0.00    -0.246 OA
BRANCH  22  24
ATOM     24  C   UNL A   1      39.491  22.775  26.668  1.00  0.00     0.060 A 
ATOM     25  C   UNL A   1      39.048  24.007  26.188  1.00  0.00     0.016 A 
ATOM     26  C   UNL A   1      40.533  22.713  27.595  1.00  0.00     0.016 A 
ATOM     27  C   UNL A   1      39.665  25.183  26.591  1.00  0.00     0.010 A 
ATOM     28  C   UNL A   1      41.141  23.902  28.022  1.00  0.00     0.010 A 
ATOM     29  C   UNL A   1      40.725  25.142  27.505  1.00  0.00    -0.014 A 
BRANCH  29  30
ATOM     30  C   UNL A   1      41.392  26.417  27.861  1.00  0.00     0.031 A 
ATOM     31  C   UNL A   1      42.779  26.709  27.365  1.00  0.00     0.074 A 
ATOM     32  C   UNL A   1      40.705  27.352  28.542  1.00  0.00     0.049 A 
ATOM     33  N   UNL A   1      43.509  27.784  27.535  1.00  0.00    -0.248 NA
ATOM     34  C   UNL A   1      43.431  25.660  26.568  1.00  0.00     0.031 C 
ATOM     35  C   UNL A   1      39.335  27.197  29.032  1.00  0.00     0.029 A 
ATOM     36  N   UNL A   1      41.051  28.626  28.911  1.00  0.00    -0.354 N 
ATOM     37  C   UNL A   1      44.710  27.531  26.887  1.00  0.00     0.074 A 
ATOM     38  C   UNL A   1      44.620  26.197  26.332  1.00  0.00     0.031 C 
ATOM     39  C   UNL A   1      38.944  28.345  29.606  1.00  0.00     0.029 A 
ATOM     40  C   UNL A   1      40.048  29.298  29.564  1.00  0.00     0.049 A 
ATOM     41  H   UNL A   1      41.933  29.022  28.726  1.00  0.00     0.167 HD
ATOM     42  C   UNL A   1      45.787  28.344  26.764  1.00  0.00     0.037 A 
ATOM     43  C   UNL A   1      40.025  30.542  30.079  1.00  0.00     0.037 A 
ATOM     44  C   UNL A   1      45.865  29.680  27.296  1.00  0.00     0.049 A 
ATOM     45  C   UNL A   1      41.245  31.411  29.950  1.00  0.00     0.074 A 
ATOM     46  C   UNL A   1      46.914  30.581  27.221  1.00  0.00     0.029 A 
ATOM     47  N   UNL A   1      44.848  30.309  27.998  1.00  0.00    -0.354 N 
ATOM     48  N   UNL A   1      42.384  31.155  29.352  1.00  0.00    -0.248 NA
ATOM     49  C   UNL A   1      41.178  32.739  30.575  1.00  0.00     0.031 C 
ATOM     50  C   UNL A   1      46.542  31.744  27.906  1.00  0.00     0.029 A 
ATOM     51  C   UNL A   1      45.249  31.581  28.376  1.00  0.00     0.049 A 
ATOM     52  H   UNL A   1      43.971  29.910  28.200  1.00  0.00     0.167 HD
ATOM     53  C   UNL A   1      43.164  32.288  29.521  1.00  0.00     0.074 A 
ATOM     54  C   UNL A   1      42.361  33.245  30.254  1.00  0.00     0.031 C 
ATOM     55  C   UNL A   1      44.438  32.515  29.113  1.00  0.00     0.037 A 
BRANCH  42  56
ATOM     56  C   UNL A   1      46.985  27.797  26.045  1.00  0.00     0.064 A 
ATOM     57  C   UNL A   1      47.088  27.835  24.648  1.00  0.00     0.173 A 
ATOM     58  C   UNL A   1      48.057  27.255  26.770  1.00  0.00     0.173 A 
ATOM     59  F   UNL A   1      46.082  28.329  23.909  1.00  0.00    -0.203 F 
ATOM     60  C   UNL A   1      48.213  27.331  24.000  1.00  0.00     0.198 A 
ATOM     61  C   UNL A   1      49.190  26.773  26.121  1.00  0.00     0.198 A 
ATOM     62  F   UNL A   1      48.008  27.198  28.109  1.00  0.00    -0.203 F 
ATOM     63  F   UNL A   1      48.274  27.340  22.661  1.00  0.00    -0.200 F 
ATOM     64  C   UNL A   1      49.265  26.807  24.736  1.00  0.00     0.200 A 
ATOM     65  F   UNL A   1      50.209  26.275  26.834  1.00  0.00    -0.200 F 
ATOM     66  F   UNL A   1      50.349  26.325  24.111  1.00  0.00    -0.200 F 
ENDBRANCH  42  56
BRANCH  43  67
ATOM     67  C   UNL A   1      38.807  31.032  30.770  1.00  0.00     0.064 A 
ATOM     68  C   UNL A   1      37.756  31.621  30.055  1.00  0.00     0.173 A 
ATOM     69  C   UNL A   1      38.668  30.919  32.161  1.00  0.00     0.173 A 
ATOM     70  F   UNL A   1      37.855  31.776  28.726  1.00  0.00    -0.203 F 
ATOM     71  C   UNL A   1      36.617  32.089  30.706  1.00  0.00     0.198 A 
ATOM     72  C   UNL A   1      37.518  31.362  32.809  1.00  0.00     0.198 A 
ATOM     73  F   UNL A   1      39.648  30.366  32.891  1.00  0.00    -0.203 F 
ATOM     74  F   UNL A   1      35.643  32.686  30.005  1.00  0.00    -0.200 F 
ATOM     75  C   UNL A   1      36.495  31.952  32.081  1.00  0.00     0.200 A 
ATOM     76  F   UNL A   1      37.402  31.220  34.136  1.00  0.00    -0.200 F 
ATOM     77  F   UNL A   1      35.398  32.398  32.707  1.00  0.00    -0.200 F 
ENDBRANCH  43  67
BRANCH  55  78
ATOM     78  C   UNL A   1      45.028  33.851  29.448  1.00  0.00     0.064 A 
ATOM     79  C   UNL A   1      45.768  34.047  30.624  1.00  0.00     0.173 A 
ATOM     80  C   UNL A   1      44.866  34.941  28.582  1.00  0.00     0.173 A 
ATOM     81  F   UNL A   1      45.936  33.038  31.492  1.00  0.00    -0.203 F 
ATOM     82  C   UNL A   1      46.298  35.297  30.934  1.00  0.00     0.198 A 
ATOM     83  C   UNL A   1      45.419  36.182  28.883  1.00  0.00     0.198 A 
ATOM     84  F   UNL A   1      44.172  34.802  27.442  1.00  0.00    -0.203 F 
ATOM     85  F   UNL A   1      46.959  35.474  32.086  1.00  0.00    -0.200 F 
ATOM     86  C   UNL A   1      46.127  36.361  30.062  1.00  0.00     0.200 A 
ATOM     87  F   UNL A   1      45.260  37.208  28.035  1.00  0.00    -0.200 F 
ATOM     88  F   UNL A   1      46.637  37.563  30.363  1.00  0.00    -0.200 F 
ENDBRANCH  55  78
ENDBRANCH  29  30
ENDBRANCH  22  24
ENDBRANCH  21  22
ENDBRANCH  20  21
ENDBRANCH   1  20
TORSDOF 13
ENDMDL
