MODEL 1
REMARK VINA RESULT:     -10.1      0.000      0.000
REMARK SMILES C[C@@](O)(c1ccc(Cl)cc1Cl)[C@@H](F)C(=O)OCCOC(=O)c1ccc(-c2c3nc(c(-c4c(F)c(F)c(F)c(F)c4F)c4ccc([nH]4)c(-c4c(F)c(F)c(F)c(F)c4F)c4nc(c(-c5c(F)c(F)c(F)c(F)c5F)c5ccc2[nH]5)C=C4)C=C3)cc1
REMARK SMILES IDX 17 1 16 2 14 3 15 4 12 5 13 6 2 7 1 8 3 9 4 11 5 12 10 13
REMARK SMILES IDX 6 14 9 15 11 16 7 17 8 18 18 19 19 20 20 21 21 22 22 23
REMARK SMILES IDX 23 24 84 25 24 26 83 27 25 28 26 29 27 30 77 31 28 32 82 33
REMARK SMILES IDX 76 34 78 35 29 36 81 37 75 38 74 39 30 41 62 42 42 43 61 44
REMARK SMILES IDX 43 45 46 46 60 47 79 48 44 49 45 50 59 52 80 53 47 54 31 55
REMARK SMILES IDX 32 56 40 57 33 58 34 59 38 60 41 61 35 62 36 63 39 64 37 65
REMARK SMILES IDX 63 66 64 67 72 68 65 69 66 70 70 71 73 72 67 73 68 74 71 75
REMARK SMILES IDX 69 76 48 77 49 78 57 79 50 80 51 81 55 82 58 83 52 84 53 85
REMARK SMILES IDX 56 86 54 87
REMARK H PARENT 3 10 78 40 46 51
REMARK Flexibility Score: inf
ROOT
ATOM      1  C   UNL A   1      32.977  35.172  28.463  1.00  0.00     0.274 C 
ENDROOT
BRANCH   1   2
ATOM      2  O   UNL A   1      34.129  35.297  29.325  1.00  0.00    -0.460 OA
BRANCH   2   3
ATOM      3  C   UNL A   1      33.979  34.845  30.597  1.00  0.00     0.344 C 
ATOM      4  O   UNL A   1      33.034  35.152  31.320  1.00  0.00    -0.249 OA
BRANCH   3   5
ATOM      5  C   UNL A   1      35.139  33.994  31.100  1.00  0.00     0.311 C 
ATOM      6  F   UNL A   1      34.776  32.674  31.147  1.00  0.00    -0.231 F 
BRANCH   5   7
ATOM      7  C   UNL A   1      35.828  34.396  32.442  1.00  0.00     0.130 C 
ATOM      8  C   UNL A   1      35.352  33.459  33.568  1.00  0.00     0.051 C 
BRANCH   7   9
ATOM      9  O   UNL A   1      35.502  35.759  32.713  1.00  0.00    -0.382 OA
ATOM     10  H   UNL A   1      36.221  36.331  32.402  1.00  0.00     0.212 HD
ENDBRANCH   7   9
BRANCH   7  11
ATOM     11  C   UNL A   1      37.377  34.412  32.366  1.00  0.00     0.006 A 
ATOM     12  C   UNL A   1      38.047  34.415  31.120  1.00  0.00     0.010 A 
ATOM     13  C   UNL A   1      38.202  34.494  33.520  1.00  0.00     0.048 A 
ATOM     14  C   UNL A   1      39.441  34.512  31.025  1.00  0.00     0.021 A 
ATOM     15  C   UNL A   1      39.600  34.562  33.420  1.00  0.00     0.041 A 
ATOM     16  Cl  UNL A   1      37.588  34.553  35.144  1.00  0.00    -0.084 Cl
ATOM     17  C   UNL A   1      40.211  34.580  32.176  1.00  0.00     0.042 A 
ATOM     18  Cl  UNL A   1      41.922  34.695  32.058  1.00  0.00    -0.084 Cl
ENDBRANCH   7  11
ENDBRANCH   5   7
ENDBRANCH   3   5
ENDBRANCH   2   3
ENDBRANCH   1   2
BRANCH   1  19
ATOM     19  C   UNL A   1      32.882  33.798  27.790  1.00  0.00     0.275 C 
BRANCH  19  20
ATOM     20  O   UNL A   1      34.170  33.165  27.665  1.00  0.00    -0.458 OA
BRANCH  20  21
ATOM     21  C   UNL A   1      34.126  31.813  27.620  1.00  0.00     0.338 C 
ATOM     22  O   UNL A   1      33.214  31.135  27.177  1.00  0.00    -0.246 OA
BRANCH  21  23
ATOM     23  C   UNL A   1      35.419  31.247  28.048  1.00  0.00     0.060 A 
ATOM     24  C   UNL A   1      35.468  29.890  28.382  1.00  0.00     0.016 A 
ATOM     25  C   UNL A   1      36.547  32.052  28.211  1.00  0.00     0.016 A 
ATOM     26  C   UNL A   1      36.631  29.335  28.908  1.00  0.00     0.010 A 
ATOM     27  C   UNL A   1      37.720  31.493  28.736  1.00  0.00     0.010 A 
ATOM     28  C   UNL A   1      37.760  30.136  29.106  1.00  0.00    -0.014 A 
BRANCH  28  29
ATOM     29  C   UNL A   1      38.944  29.555  29.783  1.00  0.00     0.031 A 
ATOM     30  C   UNL A   1      39.303  30.003  31.171  1.00  0.00     0.074 A 
ATOM     31  C   UNL A   1      39.658  28.587  29.181  1.00  0.00     0.049 A 
ATOM     32  N   UNL A   1      40.303  29.635  31.929  1.00  0.00    -0.248 NA
ATOM     33  C   UNL A   1      38.414  31.001  31.786  1.00  0.00     0.031 C 
ATOM     34  C   UNL A   1      39.377  28.030  27.859  1.00  0.00     0.029 A 
ATOM     35  N   UNL A   1      40.764  27.897  29.610  1.00  0.00    -0.354 N 
ATOM     36  C   UNL A   1      40.177  30.367  33.101  1.00  0.00     0.074 A 
ATOM     37  C   UNL A   1      39.012  31.212  32.950  1.00  0.00     0.031 C 
ATOM     38  C   UNL A   1      40.282  27.074  27.588  1.00  0.00     0.029 A 
ATOM     39  C   UNL A   1      41.223  26.978  28.701  1.00  0.00     0.049 A 
ATOM     40  H   UNL A   1      41.185  28.045  30.487  1.00  0.00     0.167 HD
ATOM     41  C   UNL A   1      40.962  30.333  34.206  1.00  0.00     0.037 A 
ATOM     42  C   UNL A   1      42.293  26.162  28.756  1.00  0.00     0.037 A 
ATOM     43  C   UNL A   1      42.105  29.474  34.368  1.00  0.00     0.049 A 
ATOM     44  C   UNL A   1      43.173  26.178  29.977  1.00  0.00     0.074 A 
ATOM     45  C   UNL A   1      42.949  29.353  35.459  1.00  0.00     0.029 A 
ATOM     46  N   UNL A   1      42.564  28.584  33.408  1.00  0.00    -0.354 N 
ATOM     47  N   UNL A   1      43.047  26.872  31.081  1.00  0.00    -0.248 NA
ATOM     48  C   UNL A   1      44.348  25.295  29.954  1.00  0.00     0.031 C 
ATOM     49  C   UNL A   1      43.939  28.416  35.146  1.00  0.00     0.029 A 
ATOM     50  C   UNL A   1      43.691  27.924  33.874  1.00  0.00     0.049 A 
ATOM     51  H   UNL A   1      42.150  28.442  32.526  1.00  0.00     0.167 HD
ATOM     52  C   UNL A   1      44.107  26.494  31.893  1.00  0.00     0.074 A 
ATOM     53  C   UNL A   1      44.863  25.501  31.159  1.00  0.00     0.031 C 
ATOM     54  C   UNL A   1      44.425  26.932  33.135  1.00  0.00     0.037 A 
BRANCH  41  55
ATOM     55  C   UNL A   1      40.625  31.280  35.318  1.00  0.00     0.064 A 
ATOM     56  C   UNL A   1      41.393  32.427  35.567  1.00  0.00     0.173 A 
ATOM     57  C   UNL A   1      39.504  31.047  36.127  1.00  0.00     0.173 A 
ATOM     58  F   UNL A   1      42.482  32.684  34.829  1.00  0.00    -0.203 F 
ATOM     59  C   UNL A   1      41.061  33.295  36.604  1.00  0.00     0.198 A 
ATOM     60  C   UNL A   1      39.161  31.929  37.147  1.00  0.00     0.198 A 
ATOM     61  F   UNL A   1      38.737  29.965  35.925  1.00  0.00    -0.203 F 
ATOM     62  F   UNL A   1      41.829  34.365  36.853  1.00  0.00    -0.200 F 
ATOM     63  C   UNL A   1      39.944  33.049  37.389  1.00  0.00     0.200 A 
ATOM     64  F   UNL A   1      38.077  31.694  37.900  1.00  0.00    -0.200 F 
ATOM     65  F   UNL A   1      39.624  33.888  38.385  1.00  0.00    -0.200 F 
ENDBRANCH  41  55
BRANCH  42  66
ATOM     66  C   UNL A   1      42.592  25.257  27.619  1.00  0.00     0.064 A 
ATOM     67  C   UNL A   1      43.535  25.612  26.645  1.00  0.00     0.173 A 
ATOM     68  C   UNL A   1      41.935  24.026  27.476  1.00  0.00     0.173 A 
ATOM     69  F   UNL A   1      44.169  26.791  26.727  1.00  0.00    -0.203 F 
ATOM     70  C   UNL A   1      43.801  24.775  25.564  1.00  0.00     0.198 A 
ATOM     71  C   UNL A   1      42.218  23.180  26.407  1.00  0.00     0.198 A 
ATOM     72  F   UNL A   1      41.020  23.645  28.379  1.00  0.00    -0.203 F 
ATOM     73  F   UNL A   1      44.677  25.157  24.624  1.00  0.00    -0.200 F 
ATOM     74  C   UNL A   1      43.146  23.558  25.448  1.00  0.00     0.200 A 
ATOM     75  F   UNL A   1      41.589  22.002  26.302  1.00  0.00    -0.200 F 
ATOM     76  F   UNL A   1      43.403  22.753  24.408  1.00  0.00    -0.200 F 
ENDBRANCH  42  66
BRANCH  54  77
ATOM     77  C   UNL A   1      45.622  26.311  33.794  1.00  0.00     0.064 A 
ATOM     78  C   UNL A   1      45.503  25.173  34.606  1.00  0.00     0.173 A 
ATOM     79  C   UNL A   1      46.902  26.843  33.586  1.00  0.00     0.173 A 
ATOM     80  F   UNL A   1      44.298  24.638  34.847  1.00  0.00    -0.203 F 
ATOM     81  C   UNL A   1      46.625  24.605  35.206  1.00  0.00     0.198 A 
ATOM     82  C   UNL A   1      48.024  26.258  34.169  1.00  0.00     0.198 A 
ATOM     83  F   UNL A   1      47.067  27.927  32.813  1.00  0.00    -0.203 F 
ATOM     84  F   UNL A   1      46.485  23.545  36.014  1.00  0.00    -0.200 F 
ATOM     85  C   UNL A   1      47.883  25.145  34.983  1.00  0.00     0.200 A 
ATOM     86  F   UNL A   1      49.240  26.775  33.945  1.00  0.00    -0.200 F 
ATOM     87  F   UNL A   1      48.961  24.596  35.561  1.00  0.00    -0.200 F 
ENDBRANCH  54  77
ENDBRANCH  28  29
ENDBRANCH  21  23
ENDBRANCH  20  21
ENDBRANCH  19  20
ENDBRANCH   1  19
TORSDOF 14
ENDMDL
MODEL 2
REMARK VINA RESULT:     -10.1      3.867      9.652
REMARK SMILES C[C@@](O)(c1ccc(Cl)cc1Cl)[C@@H](F)C(=O)OCCOC(=O)c1ccc(-c2c3nc(c(-c4c(F)c(F)c(F)c(F)c4F)c4ccc([nH]4)c(-c4c(F)c(F)c(F)c(F)c4F)c4nc(c(-c5c(F)c(F)c(F)c(F)c5F)c5ccc2[nH]5)C=C4)C=C3)cc1
REMARK SMILES IDX 17 1 16 2 14 3 15 4 12 5 13 6 2 7 1 8 3 9 4 11 5 12 10 13
REMARK SMILES IDX 6 14 9 15 11 16 7 17 8 18 18 19 19 20 20 21 21 22 22 23
REMARK SMILES IDX 23 24 84 25 24 26 83 27 25 28 26 29 27 30 77 31 28 32 82 33
REMARK SMILES IDX 76 34 78 35 29 36 81 37 75 38 74 39 30 41 62 42 42 43 61 44
REMARK SMILES IDX 43 45 46 46 60 47 79 48 44 49 45 50 59 52 80 53 47 54 31 55
REMARK SMILES IDX 32 56 40 57 33 58 34 59 38 60 41 61 35 62 36 63 39 64 37 65
REMARK SMILES IDX 63 66 64 67 72 68 65 69 66 70 70 71 73 72 67 73 68 74 71 75
REMARK SMILES IDX 69 76 48 77 49 78 57 79 50 80 51 81 55 82 58 83 52 84 53 85
REMARK SMILES IDX 56 86 54 87
REMARK H PARENT 3 10 78 40 46 51
REMARK Flexibility Score: inf
ROOT
ATOM      1  C   UNL A   1      31.777  28.516  27.487  1.00  0.00     0.274 C 
ENDROOT
BRANCH   1   2
ATOM      2  O   UNL A   1      32.761  27.611  26.941  1.00  0.00    -0.460 OA
BRANCH   2   3
ATOM      3  C   UNL A   1      32.279  26.496  26.333  1.00  0.00     0.344 C 
ATOM      4  O   UNL A   1      31.394  25.790  26.811  1.00  0.00    -0.249 OA
BRANCH   3   5
ATOM      5  C   UNL A   1      32.996  26.129  25.040  1.00  0.00     0.311 C 
ATOM      6  F   UNL A   1      34.322  25.882  25.283  1.00  0.00    -0.231 F 
BRANCH   5   7
ATOM      7  C   UNL A   1      32.858  27.088  23.816  1.00  0.00     0.130 C 
ATOM      8  C   UNL A   1      33.318  26.364  22.536  1.00  0.00     0.051 C 
BRANCH   7   9
ATOM      9  O   UNL A   1      33.643  28.251  24.077  1.00  0.00    -0.382 OA
ATOM     10  H   UNL A   1      33.098  28.915  24.528  1.00  0.00     0.212 HD
ENDBRANCH   7   9
BRANCH   7  11
ATOM     11  C   UNL A   1      31.428  27.662  23.632  1.00  0.00     0.006 A 
ATOM     12  C   UNL A   1      31.209  29.056  23.530  1.00  0.00     0.010 A 
ATOM     13  C   UNL A   1      30.282  26.835  23.489  1.00  0.00     0.048 A 
ATOM     14  C   UNL A   1      29.939  29.592  23.283  1.00  0.00     0.021 A 
ATOM     15  C   UNL A   1      29.007  27.379  23.270  1.00  0.00     0.041 A 
ATOM     16  Cl  UNL A   1      30.330  25.100  23.532  1.00  0.00    -0.084 Cl
ATOM     17  C   UNL A   1      28.844  28.752  23.158  1.00  0.00     0.042 A 
ATOM     18  Cl  UNL A   1      27.285  29.412  22.858  1.00  0.00    -0.084 Cl
ENDBRANCH   7  11
ENDBRANCH   5   7
ENDBRANCH   3   5
ENDBRANCH   2   3
ENDBRANCH   1   2
BRANCH   1  19
ATOM     19  C   UNL A   1      31.779  29.885  26.797  1.00  0.00     0.275 C 
BRANCH  19  20
ATOM     20  O   UNL A   1      33.106  30.303  26.422  1.00  0.00    -0.458 OA
BRANCH  20  21
ATOM     21  C   UNL A   1      33.583  31.350  27.135  1.00  0.00     0.338 C 
ATOM     22  O   UNL A   1      32.996  32.394  27.366  1.00  0.00    -0.246 OA
BRANCH  21  23
ATOM     23  C   UNL A   1      34.879  31.001  27.745  1.00  0.00     0.060 A 
ATOM     24  C   UNL A   1      35.083  29.680  28.157  1.00  0.00     0.016 A 
ATOM     25  C   UNL A   1      35.849  31.973  28.000  1.00  0.00     0.016 A 
ATOM     26  C   UNL A   1      36.237  29.327  28.848  1.00  0.00     0.010 A 
ATOM     27  C   UNL A   1      37.014  31.616  28.692  1.00  0.00     0.010 A 
ATOM     28  C   UNL A   1      37.203  30.296  29.137  1.00  0.00    -0.014 A 
BRANCH  28  29
ATOM     29  C   UNL A   1      38.363  29.924  29.982  1.00  0.00     0.031 A 
ATOM     30  C   UNL A   1      39.428  29.021  29.430  1.00  0.00     0.074 A 
ATOM     31  C   UNL A   1      38.491  30.441  31.218  1.00  0.00     0.049 A 
ATOM     32  N   UNL A   1      40.509  28.563  30.007  1.00  0.00    -0.248 NA
ATOM     33  C   UNL A   1      39.250  28.575  28.040  1.00  0.00     0.031 C 
ATOM     34  C   UNL A   1      37.552  31.370  31.845  1.00  0.00     0.029 A 
ATOM     35  N   UNL A   1      39.470  30.261  32.163  1.00  0.00    -0.354 N 
ATOM     36  C   UNL A   1      41.131  27.761  29.061  1.00  0.00     0.074 A 
ATOM     37  C   UNL A   1      40.299  27.782  27.875  1.00  0.00     0.031 C 
ATOM     38  C   UNL A   1      38.007  31.688  33.069  1.00  0.00     0.029 A 
ATOM     39  C   UNL A   1      39.247  30.959  33.322  1.00  0.00     0.049 A 
ATOM     40  H   UNL A   1      40.258  29.688  32.021  1.00  0.00     0.167 HD
ATOM     41  C   UNL A   1      42.292  27.072  29.170  1.00  0.00     0.037 A 
ATOM     42  C   UNL A   1      39.958  30.993  34.466  1.00  0.00     0.037 A 
ATOM     43  C   UNL A   1      43.133  27.071  30.338  1.00  0.00     0.049 A 
ATOM     44  C   UNL A   1      41.220  30.182  34.576  1.00  0.00     0.074 A 
ATOM     45  C   UNL A   1      44.340  26.422  30.535  1.00  0.00     0.029 A 
ATOM     46  N   UNL A   1      42.854  27.760  31.510  1.00  0.00    -0.354 N 
ATOM     47  N   UNL A   1      41.802  29.427  33.677  1.00  0.00    -0.248 NA
ATOM     48  C   UNL A   1      41.925  30.229  35.865  1.00  0.00     0.031 C 
ATOM     49  C   UNL A   1      44.773  26.688  31.839  1.00  0.00     0.029 A 
ATOM     50  C   UNL A   1      43.856  27.534  32.441  1.00  0.00     0.049 A 
ATOM     51  H   UNL A   1      42.061  28.324  31.658  1.00  0.00     0.167 HD
ATOM     52  C   UNL A   1      42.949  28.929  34.279  1.00  0.00     0.074 A 
ATOM     53  C   UNL A   1      42.989  29.476  35.619  1.00  0.00     0.031 C 
ATOM     54  C   UNL A   1      43.885  28.094  33.767  1.00  0.00     0.037 A 
BRANCH  41  55
ATOM     55  C   UNL A   1      42.707  26.233  28.000  1.00  0.00     0.064 A 
ATOM     56  C   UNL A   1      42.244  24.920  27.833  1.00  0.00     0.173 A 
ATOM     57  C   UNL A   1      43.560  26.761  27.021  1.00  0.00     0.173 A 
ATOM     58  F   UNL A   1      41.438  24.366  28.750  1.00  0.00    -0.203 F 
ATOM     59  C   UNL A   1      42.640  24.158  26.737  1.00  0.00     0.198 A 
ATOM     60  C   UNL A   1      43.936  26.005  25.914  1.00  0.00     0.198 A 
ATOM     61  F   UNL A   1      44.028  28.013  27.135  1.00  0.00    -0.203 F 
ATOM     62  F   UNL A   1      42.218  22.891  26.615  1.00  0.00    -0.200 F 
ATOM     63  C   UNL A   1      43.479  24.702  25.776  1.00  0.00     0.200 A 
ATOM     64  F   UNL A   1      44.741  26.535  24.983  1.00  0.00    -0.200 F 
ATOM     65  F   UNL A   1      43.858  23.968  24.720  1.00  0.00    -0.200 F 
ENDBRANCH  41  55
BRANCH  42  66
ATOM     66  C   UNL A   1      39.492  31.826  35.602  1.00  0.00     0.064 A 
ATOM     67  C   UNL A   1      38.524  31.349  36.496  1.00  0.00     0.173 A 
ATOM     68  C   UNL A   1      39.995  33.118  35.810  1.00  0.00     0.173 A 
ATOM     69  F   UNL A   1      37.995  30.129  36.320  1.00  0.00    -0.203 F 
ATOM     70  C   UNL A   1      38.068  32.138  37.549  1.00  0.00     0.198 A 
ATOM     71  C   UNL A   1      39.555  33.898  36.877  1.00  0.00     0.198 A 
ATOM     72  F   UNL A   1      40.918  33.622  34.978  1.00  0.00    -0.203 F 
ATOM     73  F   UNL A   1      37.112  31.673  38.366  1.00  0.00    -0.200 F 
ATOM     74  C   UNL A   1      38.587  33.409  37.742  1.00  0.00     0.200 A 
ATOM     75  F   UNL A   1      40.064  35.123  37.064  1.00  0.00    -0.200 F 
ATOM     76  F   UNL A   1      38.148  34.168  38.756  1.00  0.00    -0.200 F 
ENDBRANCH  42  66
BRANCH  54  77
ATOM     77  C   UNL A   1      45.050  27.751  34.647  1.00  0.00     0.064 A 
ATOM     78  C   UNL A   1      46.210  28.540  34.668  1.00  0.00     0.173 A 
ATOM     79  C   UNL A   1      44.994  26.638  35.498  1.00  0.00     0.173 A 
ATOM     80  F   UNL A   1      46.317  29.606  33.860  1.00  0.00    -0.203 F 
ATOM     81  C   UNL A   1      47.282  28.212  35.495  1.00  0.00     0.198 A 
ATOM     82  C   UNL A   1      46.059  26.327  36.340  1.00  0.00     0.198 A 
ATOM     83  F   UNL A   1      43.905  25.856  35.517  1.00  0.00    -0.203 F 
ATOM     84  F   UNL A   1      48.398  28.953  35.469  1.00  0.00    -0.200 F 
ATOM     85  C   UNL A   1      47.203  27.109  36.333  1.00  0.00     0.200 A 
ATOM     86  F   UNL A   1      45.978  25.266  37.156  1.00  0.00    -0.200 F 
ATOM     87  F   UNL A   1      48.235  26.795  37.128  1.00  0.00    -0.200 F 
ENDBRANCH  54  77
ENDBRANCH  28  29
ENDBRANCH  21  23
ENDBRANCH  20  21
ENDBRANCH  19  20
ENDBRANCH   1  19
TORSDOF 14
ENDMDL
MODEL 3
REMARK VINA RESULT:     -10.0      6.374      9.719
REMARK SMILES C[C@@](O)(c1ccc(Cl)cc1Cl)[C@@H](F)C(=O)OCCOC(=O)c1ccc(-c2c3nc(c(-c4c(F)c(F)c(F)c(F)c4F)c4ccc([nH]4)c(-c4c(F)c(F)c(F)c(F)c4F)c4nc(c(-c5c(F)c(F)c(F)c(F)c5F)c5ccc2[nH]5)C=C4)C=C3)cc1
REMARK SMILES IDX 17 1 16 2 14 3 15 4 12 5 13 6 2 7 1 8 3 9 4 11 5 12 10 13
REMARK SMILES IDX 6 14 9 15 11 16 7 17 8 18 18 19 19 20 20 21 21 22 22 23
REMARK SMILES IDX 23 24 84 25 24 26 83 27 25 28 26 29 27 30 77 31 28 32 82 33
REMARK SMILES IDX 76 34 78 35 29 36 81 37 75 38 74 39 30 41 62 42 42 43 61 44
REMARK SMILES IDX 43 45 46 46 60 47 79 48 44 49 45 50 59 52 80 53 47 54 31 55
REMARK SMILES IDX 32 56 40 57 33 58 34 59 38 60 41 61 35 62 36 63 39 64 37 65
REMARK SMILES IDX 63 66 64 67 72 68 65 69 66 70 70 71 73 72 67 73 68 74 71 75
REMARK SMILES IDX 69 76 48 77 49 78 57 79 50 80 51 81 55 82 58 83 52 84 53 85
REMARK SMILES IDX 56 86 54 87
REMARK H PARENT 3 10 78 40 46 51
REMARK Flexibility Score: inf
ROOT
ATOM      1  C   UNL A   1      36.790  22.586  23.531  1.00  0.00     0.274 C 
ENDROOT
BRANCH   1   2
ATOM      2  O   UNL A   1      36.145  23.645  24.270  1.00  0.00    -0.460 OA
BRANCH   2   3
ATOM      3  C   UNL A   1      34.868  23.936  23.909  1.00  0.00     0.344 C 
ATOM      4  O   UNL A   1      34.521  24.146  22.749  1.00  0.00    -0.249 OA
BRANCH   3   5
ATOM      5  C   UNL A   1      33.903  24.081  25.080  1.00  0.00     0.311 C 
ATOM      6  F   UNL A   1      34.316  25.086  25.916  1.00  0.00    -0.231 F 
BRANCH   5   7
ATOM      7  C   UNL A   1      33.558  22.811  25.919  1.00  0.00     0.130 C 
ATOM      8  C   UNL A   1      32.331  23.095  26.806  1.00  0.00     0.051 C 
BRANCH   7   9
ATOM      9  O   UNL A   1      34.706  22.471  26.696  1.00  0.00    -0.382 OA
ATOM     10  H   UNL A   1      35.509  22.670  26.190  1.00  0.00     0.212 HD
ENDBRANCH   7   9
BRANCH   7  11
ATOM     11  C   UNL A   1      33.325  21.541  25.059  1.00  0.00     0.006 A 
ATOM     12  C   UNL A   1      34.003  20.332  25.344  1.00  0.00     0.010 A 
ATOM     13  C   UNL A   1      32.384  21.496  23.996  1.00  0.00     0.048 A 
ATOM     14  C   UNL A   1      33.749  19.153  24.634  1.00  0.00     0.021 A 
ATOM     15  C   UNL A   1      32.154  20.318  23.268  1.00  0.00     0.041 A 
ATOM     16  Cl  UNL A   1      31.409  22.848  23.510  1.00  0.00    -0.084 Cl
ATOM     17  C   UNL A   1      32.829  19.152  23.597  1.00  0.00     0.042 A 
ATOM     18  Cl  UNL A   1      32.520  17.703  22.723  1.00  0.00    -0.084 Cl
ENDBRANCH   7  11
ENDBRANCH   5   7
ENDBRANCH   3   5
ENDBRANCH   2   3
ENDBRANCH   1   2
BRANCH   1  19
ATOM     19  C   UNL A   1      37.165  21.387  24.410  1.00  0.00     0.275 C 
BRANCH  19  20
ATOM     20  O   UNL A   1      37.480  21.782  25.759  1.00  0.00    -0.458 OA
BRANCH  20  21
ATOM     21  C   UNL A   1      38.761  21.543  26.126  1.00  0.00     0.338 C 
ATOM     22  O   UNL A   1      39.382  20.507  25.950  1.00  0.00    -0.246 OA
BRANCH  21  23
ATOM     23  C   UNL A   1      39.381  22.777  26.643  1.00  0.00     0.060 A 
ATOM     24  C   UNL A   1      38.939  24.002  26.134  1.00  0.00     0.016 A 
ATOM     25  C   UNL A   1      40.446  22.735  27.543  1.00  0.00     0.016 A 
ATOM     26  C   UNL A   1      39.573  25.186  26.496  1.00  0.00     0.010 A 
ATOM     27  C   UNL A   1      41.082  23.927  27.912  1.00  0.00     0.010 A 
ATOM     28  C   UNL A   1      40.662  25.157  27.373  1.00  0.00    -0.014 A 
BRANCH  28  29
ATOM     29  C   UNL A   1      41.400  26.413  27.645  1.00  0.00     0.031 A 
ATOM     30  C   UNL A   1      40.747  27.501  28.447  1.00  0.00     0.074 A 
ATOM     31  C   UNL A   1      42.671  26.553  27.226  1.00  0.00     0.049 A 
ATOM     32  N   UNL A   1      41.210  28.679  28.780  1.00  0.00    -0.248 NA
ATOM     33  C   UNL A   1      39.388  27.226  28.939  1.00  0.00     0.031 C 
ATOM     34  C   UNL A   1      43.431  25.547  26.486  1.00  0.00     0.029 A 
ATOM     35  N   UNL A   1      43.547  27.599  27.372  1.00  0.00    -0.354 N 
ATOM     36  C   UNL A   1      40.197  29.292  29.504  1.00  0.00     0.074 A 
ATOM     37  C   UNL A   1      39.087  28.363  29.549  1.00  0.00     0.031 C 
ATOM     38  C   UNL A   1      44.667  26.021  26.252  1.00  0.00     0.029 A 
ATOM     39  C   UNL A   1      44.770  27.374  26.794  1.00  0.00     0.049 A 
ATOM     40  H   UNL A   1      43.321  28.430  27.849  1.00  0.00     0.167 HD
ATOM     41  C   UNL A   1      40.195  30.518  30.081  1.00  0.00     0.037 A 
ATOM     42  C   UNL A   1      45.848  28.176  26.700  1.00  0.00     0.037 A 
ATOM     43  C   UNL A   1      41.307  31.431  30.059  1.00  0.00     0.049 A 
ATOM     44  C   UNL A   1      45.801  29.550  27.311  1.00  0.00     0.074 A 
ATOM     45  C   UNL A   1      41.407  32.686  30.634  1.00  0.00     0.029 A 
ATOM     46  N   UNL A   1      42.518  31.184  29.428  1.00  0.00    -0.354 N 
ATOM     47  N   UNL A   1      44.840  30.122  27.993  1.00  0.00    -0.248 NA
ATOM     48  C   UNL A   1      46.994  30.392  27.134  1.00  0.00     0.031 C 
ATOM     49  C   UNL A   1      42.664  33.214  30.321  1.00  0.00     0.029 A 
ATOM     50  C   UNL A   1      43.363  32.271  29.583  1.00  0.00     0.049 A 
ATOM     51  H   UNL A   1      42.742  30.358  28.942  1.00  0.00     0.167 HD
ATOM     52  C   UNL A   1      45.318  31.376  28.349  1.00  0.00     0.074 A 
ATOM     53  C   UNL A   1      46.660  31.480  27.815  1.00  0.00     0.031 C 
ATOM     54  C   UNL A   1      44.699  32.354  29.054  1.00  0.00     0.037 A 
BRANCH  41  55
ATOM     55  C   UNL A   1      38.933  30.956  30.761  1.00  0.00     0.064 A 
ATOM     56  C   UNL A   1      37.902  31.597  30.061  1.00  0.00     0.173 A 
ATOM     57  C   UNL A   1      38.746  30.706  32.128  1.00  0.00     0.173 A 
ATOM     58  F   UNL A   1      38.040  31.870  28.755  1.00  0.00    -0.203 F 
ATOM     59  C   UNL A   1      36.737  31.993  30.712  1.00  0.00     0.198 A 
ATOM     60  C   UNL A   1      37.571  31.083  32.771  1.00  0.00     0.198 A 
ATOM     61  F   UNL A   1      39.704  30.093  32.841  1.00  0.00    -0.203 F 
ATOM     62  F   UNL A   1      35.778  32.640  30.034  1.00  0.00    -0.200 F 
ATOM     63  C   UNL A   1      36.569  31.731  32.063  1.00  0.00     0.200 A 
ATOM     64  F   UNL A   1      37.408  30.822  34.076  1.00  0.00    -0.200 F 
ATOM     65  F   UNL A   1      35.446  32.111  32.688  1.00  0.00    -0.200 F 
ENDBRANCH  41  55
BRANCH  42  66
ATOM     66  C   UNL A   1      47.065  27.701  25.998  1.00  0.00     0.064 A 
ATOM     67  C   UNL A   1      47.154  27.742  24.600  1.00  0.00     0.173 A 
ATOM     68  C   UNL A   1      48.159  27.185  26.708  1.00  0.00     0.173 A 
ATOM     69  F   UNL A   1      46.121  28.203  23.878  1.00  0.00    -0.203 F 
ATOM     70  C   UNL A   1      48.286  27.274  23.937  1.00  0.00     0.198 A 
ATOM     71  C   UNL A   1      49.300  26.738  26.046  1.00  0.00     0.198 A 
ATOM     72  F   UNL A   1      48.120  27.119  28.046  1.00  0.00    -0.203 F 
ATOM     73  F   UNL A   1      48.329  27.288  22.598  1.00  0.00    -0.200 F 
ATOM     74  C   UNL A   1      49.361  26.778  24.661  1.00  0.00     0.200 A 
ATOM     75  F   UNL A   1      50.338  26.266  26.748  1.00  0.00    -0.200 F 
ATOM     76  F   UNL A   1      50.450  26.328  24.023  1.00  0.00    -0.200 F 
ENDBRANCH  42  66
BRANCH  54  77
ATOM     77  C   UNL A   1      45.482  33.605  29.321  1.00  0.00     0.064 A 
ATOM     78  C   UNL A   1      46.304  33.729  30.451  1.00  0.00     0.173 A 
ATOM     79  C   UNL A   1      45.430  34.680  28.422  1.00  0.00     0.173 A 
ATOM     80  F   UNL A   1      46.374  32.734  31.348  1.00  0.00    -0.203 F 
ATOM     81  C   UNL A   1      47.030  34.895  30.681  1.00  0.00     0.198 A 
ATOM     82  C   UNL A   1      46.176  35.835  28.644  1.00  0.00     0.198 A 
ATOM     83  F   UNL A   1      44.662  34.608  27.325  1.00  0.00    -0.203 F 
ATOM     84  F   UNL A   1      47.775  35.010  31.789  1.00  0.00    -0.200 F 
ATOM     85  C   UNL A   1      46.968  35.944  29.776  1.00  0.00     0.200 A 
ATOM     86  F   UNL A   1      46.122  36.845  27.764  1.00  0.00    -0.200 F 
ATOM     87  F   UNL A   1      47.668  37.066  30.000  1.00  0.00    -0.200 F 
ENDBRANCH  54  77
ENDBRANCH  28  29
ENDBRANCH  21  23
ENDBRANCH  20  21
ENDBRANCH  19  20
ENDBRANCH   1  19
TORSDOF 14
ENDMDL
