MODEL 1
REMARK VINA RESULT:      -9.2      0.000      0.000
REMARK SMILES CC(C)C[C@H](NC(=O)[C@@H](NC(=O)[C@H](C)NC(=O)CNC(=O)OCc1ccccc1)C(C)C)C(=O)OCCOC(=O)c1ccc(-c2c3nc(c(-c4c(F)c(F)c(F)c(F)c4F)c4ccc([nH]4)c(-c4c(F)c(F)c(F)c(F)c4F)c4nc(c(-c5c(F)c(F)c(F)c(F)c5F)c5ccc2[nH]5)C=C4)C=C3)cc1
REMARK SMILES IDX 6 1 7 2 8 3 5 5 4 6 2 7 1 8 3 9 33 10 34 11 35 12 36 13
REMARK SMILES IDX 37 14 38 15 39 16 40 17 41 18 42 19 103 20 43 21 102 22
REMARK SMILES IDX 44 23 45 24 46 25 96 26 47 27 101 28 95 29 97 30 48 31
REMARK SMILES IDX 100 32 94 33 93 34 49 36 81 37 61 38 80 39 62 40 65 41 79 42
REMARK SMILES IDX 98 43 63 44 64 45 78 47 99 48 66 49 50 50 51 51 59 52 52 53
REMARK SMILES IDX 53 54 57 55 60 56 54 57 55 58 58 59 56 60 82 61 83 62 91 63
REMARK SMILES IDX 84 64 85 65 89 66 92 67 86 68 87 69 90 70 88 71 67 72 68 73
REMARK SMILES IDX 76 74 69 75 70 76 74 77 77 78 71 79 72 80 75 81 73 82 9 83
REMARK SMILES IDX 10 84 11 85 12 87 13 88 14 89 15 90 16 91 17 93 18 94 19 95
REMARK SMILES IDX 20 96 21 98 22 99 23 100 24 101 25 102 29 103 26 104 28 105
REMARK SMILES IDX 27 106 30 107 31 108 32 109
REMARK H PARENT 6 4 97 35 65 46 10 86 15 92 19 97
REMARK Flexibility Score: inf
ROOT
ATOM      1  N   UNL A   1      48.671  37.987  28.242  1.00  0.00    -0.341 N 
ATOM      2  C   UNL A   1      48.449  37.298  27.122  1.00  0.00     0.243 C 
ATOM      3  O   UNL A   1      49.338  36.527  26.745  1.00  0.00    -0.273 OA
ATOM      4  H   UNL A   1      49.602  37.971  28.562  1.00  0.00     0.164 HD
ENDROOT
BRANCH   1   5
ATOM      5  C   UNL A   1      47.754  38.757  29.062  1.00  0.00     0.192 C 
BRANCH   5   6
ATOM      6  C   UNL A   1      47.414  38.399  30.570  1.00  0.00     0.040 C 
BRANCH   6   7
ATOM      7  C   UNL A   1      48.638  37.778  31.852  1.00  0.00    -0.015 C 
ATOM      8  C   UNL A   1      50.185  36.347  31.380  1.00  0.00     0.007 C 
ATOM      9  C   UNL A   1      48.430  39.197  32.708  1.00  0.00     0.007 C 
ENDBRANCH   6   7
ENDBRANCH   5   6
BRANCH   5  10
ATOM     10  C   UNL A   1      48.095  40.234  29.041  1.00  0.00     0.328 C 
ATOM     11  O   UNL A   1      49.185  40.651  28.673  1.00  0.00    -0.250 OA
BRANCH  10  12
ATOM     12  O   UNL A   1      47.025  41.002  29.393  1.00  0.00    -0.461 OA
BRANCH  12  13
ATOM     13  C   UNL A   1      47.341  42.063  30.294  1.00  0.00     0.274 C 
BRANCH  13  14
ATOM     14  C   UNL A   1      46.130  42.392  31.168  1.00  0.00     0.275 C 
BRANCH  14  15
ATOM     15  O   UNL A   1      45.528  41.220  31.751  1.00  0.00    -0.458 OA
BRANCH  15  16
ATOM     16  C   UNL A   1      44.258  40.931  31.365  1.00  0.00     0.338 C 
ATOM     17  O   UNL A   1      43.387  41.718  31.039  1.00  0.00    -0.246 OA
BRANCH  16  18
ATOM     18  C   UNL A   1      44.130  39.474  31.171  1.00  0.00     0.060 A 
ATOM     19  C   UNL A   1      43.906  38.977  29.881  1.00  0.00     0.016 A 
ATOM     20  C   UNL A   1      44.234  38.598  32.252  1.00  0.00     0.016 A 
ATOM     21  C   UNL A   1      43.870  37.608  29.658  1.00  0.00     0.010 A 
ATOM     22  C   UNL A   1      44.181  37.224  32.030  1.00  0.00     0.010 A 
ATOM     23  C   UNL A   1      44.034  36.727  30.727  1.00  0.00    -0.014 A 
BRANCH  23  24
ATOM     24  C   UNL A   1      43.884  35.278  30.513  1.00  0.00     0.031 A 
ATOM     25  C   UNL A   1      45.086  34.516  30.070  1.00  0.00     0.074 A 
ATOM     26  C   UNL A   1      42.696  34.675  30.684  1.00  0.00     0.049 A 
ATOM     27  N   UNL A   1      45.174  33.295  29.622  1.00  0.00    -0.248 NA
ATOM     28  C   UNL A   1      46.360  35.249  30.109  1.00  0.00     0.031 C 
ATOM     29  C   UNL A   1      41.490  35.328  31.189  1.00  0.00     0.029 A 
ATOM     30  N   UNL A   1      42.313  33.378  30.462  1.00  0.00    -0.354 N 
ATOM     31  C   UNL A   1      46.501  33.134  29.258  1.00  0.00     0.074 A 
ATOM     32  C   UNL A   1      47.184  34.372  29.565  1.00  0.00     0.031 C 
ATOM     33  C   UNL A   1      40.504  34.416  31.265  1.00  0.00     0.029 A 
ATOM     34  C   UNL A   1      40.986  33.146  30.722  1.00  0.00     0.049 A 
ATOM     35  H   UNL A   1      42.932  32.679  30.147  1.00  0.00     0.167 HD
ATOM     36  C   UNL A   1      47.076  32.060  28.673  1.00  0.00     0.037 A 
ATOM     37  C   UNL A   1      40.242  32.044  30.499  1.00  0.00     0.037 A 
ATOM     38  C   UNL A   1      46.355  30.856  28.354  1.00  0.00     0.049 A 
ATOM     39  C   UNL A   1      40.894  30.866  29.816  1.00  0.00     0.074 A 
ATOM     40  C   UNL A   1      46.820  29.709  27.742  1.00  0.00     0.029 A 
ATOM     41  N   UNL A   1      45.002  30.658  28.609  1.00  0.00    -0.354 N 
ATOM     42  N   UNL A   1      42.138  30.723  29.424  1.00  0.00    -0.248 NA
ATOM     43  C   UNL A   1      40.036  29.714  29.509  1.00  0.00     0.031 C 
ATOM     44  C   UNL A   1      45.733  28.852  27.550  1.00  0.00     0.029 A 
ATOM     45  C   UNL A   1      44.608  29.418  28.134  1.00  0.00     0.049 A 
ATOM     46  H   UNL A   1      44.412  31.304  29.060  1.00  0.00     0.167 HD
ATOM     47  C   UNL A   1      42.217  29.469  28.832  1.00  0.00     0.074 A 
ATOM     48  C   UNL A   1      40.895  28.882  28.935  1.00  0.00     0.031 C 
ATOM     49  C   UNL A   1      43.283  28.858  28.256  1.00  0.00     0.037 A 
BRANCH  36  50
ATOM     50  C   UNL A   1      48.504  32.210  28.236  1.00  0.00     0.064 A 
ATOM     51  C   UNL A   1      49.587  31.894  29.071  1.00  0.00     0.173 A 
ATOM     52  C   UNL A   1      48.791  32.754  26.973  1.00  0.00     0.173 A 
ATOM     53  F   UNL A   1      49.371  31.396  30.298  1.00  0.00    -0.203 F 
ATOM     54  C   UNL A   1      50.895  32.174  28.685  1.00  0.00     0.198 A 
ATOM     55  C   UNL A   1      50.103  32.987  26.572  1.00  0.00     0.198 A 
ATOM     56  F   UNL A   1      47.797  33.081  26.135  1.00  0.00    -0.203 F 
ATOM     57  F   UNL A   1      51.906  31.957  29.539  1.00  0.00    -0.200 F 
ATOM     58  C   UNL A   1      51.153  32.716  27.434  1.00  0.00     0.200 A 
ATOM     59  F   UNL A   1      50.348  33.499  25.358  1.00  0.00    -0.200 F 
ATOM     60  F   UNL A   1      52.411  32.996  27.068  1.00  0.00    -0.200 F 
ENDBRANCH  36  50
BRANCH  37  61
ATOM     61  C   UNL A   1      38.798  32.034  30.862  1.00  0.00     0.064 A 
ATOM     62  C   UNL A   1      37.813  32.438  29.949  1.00  0.00     0.173 A 
ATOM     63  C   UNL A   1      38.367  31.593  32.123  1.00  0.00     0.173 A 
ATOM     64  F   UNL A   1      38.167  32.899  28.741  1.00  0.00    -0.203 F 
ATOM     65  C   UNL A   1      36.458  32.398  30.283  1.00  0.00     0.198 A 
ATOM     66  C   UNL A   1      37.013  31.514  32.441  1.00  0.00     0.198 A 
ATOM     67  F   UNL A   1      39.264  31.206  33.042  1.00  0.00    -0.203 F 
ATOM     68  F   UNL A   1      35.541  32.826  29.405  1.00  0.00    -0.200 F 
ATOM     69  C   UNL A   1      36.059  31.921  31.522  1.00  0.00     0.200 A 
ATOM     70  F   UNL A   1      36.634  31.035  33.633  1.00  0.00    -0.200 F 
ATOM     71  F   UNL A   1      34.757  31.860  31.833  1.00  0.00    -0.200 F 
ENDBRANCH  37  61
BRANCH  49  72
ATOM     72  C   UNL A   1      43.089  27.463  27.732  1.00  0.00     0.064 A 
ATOM     73  C   UNL A   1      43.206  26.333  28.552  1.00  0.00     0.173 A 
ATOM     74  C   UNL A   1      42.687  27.268  26.400  1.00  0.00     0.173 A 
ATOM     75  F   UNL A   1      43.596  26.462  29.830  1.00  0.00    -0.203 F 
ATOM     76  C   UNL A   1      42.943  25.058  28.055  1.00  0.00     0.198 A 
ATOM     77  C   UNL A   1      42.388  25.998  25.917  1.00  0.00     0.198 A 
ATOM     78  F   UNL A   1      42.551  28.317  25.575  1.00  0.00    -0.203 F 
ATOM     79  F   UNL A   1      43.099  23.987  28.845  1.00  0.00    -0.200 F 
ATOM     80  C   UNL A   1      42.522  24.894  26.743  1.00  0.00     0.200 A 
ATOM     81  F   UNL A   1      41.959  25.847  24.657  1.00  0.00    -0.200 F 
ATOM     82  F   UNL A   1      42.247  23.669  26.274  1.00  0.00    -0.200 F 
ENDBRANCH  49  72
ENDBRANCH  23  24
ENDBRANCH  16  18
ENDBRANCH  15  16
ENDBRANCH  14  15
ENDBRANCH  13  14
ENDBRANCH  12  13
ENDBRANCH  10  12
ENDBRANCH   5  10
ENDBRANCH   1   5
BRANCH   2  83
ATOM     83  C   UNL A   1      47.016  37.279  26.568  1.00  0.00     0.174 C 
BRANCH  83  84
ATOM     84  N   UNL A   1      47.546  38.285  24.971  1.00  0.00    -0.342 N 
ATOM     85  C   UNL A   1      46.720  39.875  24.640  1.00  0.00     0.242 C 
ATOM     86  H   UNL A   1      48.239  37.940  24.364  1.00  0.00     0.164 HD
ATOM     87  O   UNL A   1      46.776  40.406  23.535  1.00  0.00    -0.273 OA
BRANCH  85  88
ATOM     88  C   UNL A   1      45.592  40.407  26.222  1.00  0.00     0.168 C 
ATOM     89  C   UNL A   1      44.221  39.749  26.220  1.00  0.00     0.041 C 
BRANCH  88  90
ATOM     90  N   UNL A   1      45.760  42.089  27.114  1.00  0.00    -0.343 N 
ATOM     91  C   UNL A   1      45.576  43.754  26.936  1.00  0.00     0.240 C 
ATOM     92  H   UNL A   1      46.076  41.915  28.030  1.00  0.00     0.164 HD
ATOM     93  O   UNL A   1      45.276  44.263  28.043  1.00  0.00    -0.273 OA
BRANCH  91  94
ATOM     94  C   UNL A   1      45.496  45.071  25.481  1.00  0.00     0.219 C 
BRANCH  94  95
ATOM     95  N   UNL A   1      45.041  45.202  23.690  1.00  0.00    -0.312 N 
ATOM     96  C   UNL A   1      45.186  44.503  22.378  1.00  0.00     0.407 C 
ATOM     97  H   UNL A   1      44.518  46.026  23.555  1.00  0.00     0.167 HD
ATOM     98  O   UNL A   1      46.264  44.475  21.786  1.00  0.00    -0.225 OA
BRANCH  96  99
ATOM     99  O   UNL A   1      44.078  43.879  21.784  1.00  0.00    -0.445 OA
BRANCH  99 100
ATOM    100  C   UNL A   1      44.040  43.637  20.289  1.00  0.00     0.270 C 
BRANCH 100 101
ATOM    101  C   UNL A   1      42.956  43.961  19.243  1.00  0.00    -0.011 A 
ATOM    102  C   UNL A   1      43.140  44.906  18.213  1.00  0.00     0.007 A 
ATOM    103  C   UNL A   1      41.630  43.562  19.474  1.00  0.00     0.007 A 
ATOM    104  C   UNL A   1      42.102  45.256  17.329  1.00  0.00     0.000 A 
ATOM    105  C   UNL A   1      40.578  43.953  18.626  1.00  0.00     0.000 A 
ATOM    106  C   UNL A   1      40.824  44.759  17.520  1.00  0.00     0.000 A 
ENDBRANCH 100 101
ENDBRANCH  99 100
ENDBRANCH  96  99
ENDBRANCH  94  95
ENDBRANCH  91  94
ENDBRANCH  88  90
ENDBRANCH  85  88
ENDBRANCH  83  84
BRANCH  83 107
ATOM    107  C   UNL A   1      45.432  35.919  26.682  1.00  0.00     0.015 C 
ATOM    108  C   UNL A   1      43.614  36.138  26.768  1.00  0.00     0.010 C 
ATOM    109  C   UNL A   1      44.900  34.462  25.885  1.00  0.00     0.010 C 
ENDBRANCH  83 107
ENDBRANCH   2  83
TORSDOF 24
ENDMDL
MODEL 2
REMARK VINA RESULT:      -8.9      5.564     11.939
REMARK SMILES CC(C)C[C@H](NC(=O)[C@@H](NC(=O)[C@H](C)NC(=O)CNC(=O)OCc1ccccc1)C(C)C)C(=O)OCCOC(=O)c1ccc(-c2c3nc(c(-c4c(F)c(F)c(F)c(F)c4F)c4ccc([nH]4)c(-c4c(F)c(F)c(F)c(F)c4F)c4nc(c(-c5c(F)c(F)c(F)c(F)c5F)c5ccc2[nH]5)C=C4)C=C3)cc1
REMARK SMILES IDX 6 1 7 2 8 3 5 5 4 6 2 7 1 8 3 9 33 10 34 11 35 12 36 13
REMARK SMILES IDX 37 14 38 15 39 16 40 17 41 18 42 19 103 20 43 21 102 22
REMARK SMILES IDX 44 23 45 24 46 25 96 26 47 27 101 28 95 29 97 30 48 31
REMARK SMILES IDX 100 32 94 33 93 34 49 36 81 37 61 38 80 39 62 40 65 41 79 42
REMARK SMILES IDX 98 43 63 44 64 45 78 47 99 48 66 49 50 50 51 51 59 52 52 53
REMARK SMILES IDX 53 54 57 55 60 56 54 57 55 58 58 59 56 60 82 61 83 62 91 63
REMARK SMILES IDX 84 64 85 65 89 66 92 67 86 68 87 69 90 70 88 71 67 72 68 73
REMARK SMILES IDX 76 74 69 75 70 76 74 77 77 78 71 79 72 80 75 81 73 82 9 83
REMARK SMILES IDX 10 84 11 85 12 87 13 88 14 89 15 90 16 91 17 93 18 94 19 95
REMARK SMILES IDX 20 96 21 98 22 99 23 100 24 101 25 102 29 103 26 104 28 105
REMARK SMILES IDX 27 106 30 107 31 108 32 109
REMARK H PARENT 6 4 97 35 65 46 10 86 15 92 19 97
REMARK Flexibility Score: inf
ROOT
ATOM      1  N   UNL A   1      42.399  29.357  32.485  1.00  0.00    -0.341 N 
ATOM      2  C   UNL A   1      43.497  29.348  31.728  1.00  0.00     0.243 C 
ATOM      3  O   UNL A   1      44.240  30.334  31.795  1.00  0.00    -0.273 OA
ATOM      4  H   UNL A   1      42.174  30.229  32.881  1.00  0.00     0.164 HD
ENDROOT
BRANCH   1   5
ATOM      5  C   UNL A   1      41.486  28.279  32.815  1.00  0.00     0.192 C 
BRANCH   5   6
ATOM      6  C   UNL A   1      41.687  27.307  34.054  1.00  0.00     0.040 C 
BRANCH   6   7
ATOM      7  C   UNL A   1      43.053  27.434  35.336  1.00  0.00    -0.015 C 
ATOM      8  C   UNL A   1      43.564  29.294  36.307  1.00  0.00     0.007 C 
ATOM      9  C   UNL A   1      42.826  25.821  35.707  1.00  0.00     0.007 C 
ENDBRANCH   6   7
ENDBRANCH   5   6
BRANCH   5  10
ATOM     10  C   UNL A   1      40.052  28.766  32.886  1.00  0.00     0.328 C 
ATOM     11  O   UNL A   1      39.118  28.024  33.162  1.00  0.00    -0.250 OA
BRANCH  10  12
ATOM     12  O   UNL A   1      39.969  30.113  32.693  1.00  0.00    -0.461 OA
BRANCH  12  13
ATOM     13  C   UNL A   1      39.004  30.761  33.521  1.00  0.00     0.274 C 
BRANCH  13  14
ATOM     14  C   UNL A   1      38.190  31.763  32.701  1.00  0.00     0.275 C 
BRANCH  14  15
ATOM     15  O   UNL A   1      38.601  33.127  32.920  1.00  0.00    -0.458 OA
BRANCH  15  16
ATOM     16  C   UNL A   1      38.344  34.009  31.920  1.00  0.00     0.338 C 
ATOM     17  O   UNL A   1      37.311  34.626  31.725  1.00  0.00    -0.246 OA
BRANCH  16  18
ATOM     18  C   UNL A   1      39.598  34.304  31.200  1.00  0.00     0.060 A 
ATOM     19  C   UNL A   1      39.538  34.646  29.843  1.00  0.00     0.016 A 
ATOM     20  C   UNL A   1      40.828  34.251  31.857  1.00  0.00     0.016 A 
ATOM     21  C   UNL A   1      40.691  35.013  29.166  1.00  0.00     0.010 A 
ATOM     22  C   UNL A   1      41.987  34.605  31.171  1.00  0.00     0.010 A 
ATOM     23  C   UNL A   1      41.916  35.020  29.834  1.00  0.00    -0.014 A 
BRANCH  23  24
ATOM     24  C   UNL A   1      43.156  35.300  29.091  1.00  0.00     0.031 A 
ATOM     25  C   UNL A   1      44.005  34.139  28.699  1.00  0.00     0.074 A 
ATOM     26  C   UNL A   1      43.518  36.561  28.806  1.00  0.00     0.049 A 
ATOM     27  N   UNL A   1      45.222  34.124  28.230  1.00  0.00    -0.248 NA
ATOM     28  C   UNL A   1      43.406  32.811  28.896  1.00  0.00     0.031 C 
ATOM     29  C   UNL A   1      42.712  37.748  29.083  1.00  0.00     0.029 A 
ATOM     30  N   UNL A   1      44.651  37.051  28.211  1.00  0.00    -0.354 N 
ATOM     31  C   UNL A   1      45.561  32.783  28.141  1.00  0.00     0.074 A 
ATOM     32  C   UNL A   1      44.414  32.019  28.577  1.00  0.00     0.031 C 
ATOM     33  C   UNL A   1      43.368  38.831  28.631  1.00  0.00     0.029 A 
ATOM     34  C   UNL A   1      44.677  38.421  28.125  1.00  0.00     0.049 A 
ATOM     35  H   UNL A   1      45.377  36.476  27.877  1.00  0.00     0.167 HD
ATOM     36  C   UNL A   1      46.749  32.252  27.774  1.00  0.00     0.037 A 
ATOM     37  C   UNL A   1      45.668  39.243  27.726  1.00  0.00     0.037 A 
ATOM     38  C   UNL A   1      47.879  33.048  27.376  1.00  0.00     0.049 A 
ATOM     39  C   UNL A   1      46.997  38.632  27.350  1.00  0.00     0.074 A 
ATOM     40  C   UNL A   1      49.141  32.629  27.004  1.00  0.00     0.029 A 
ATOM     41  N   UNL A   1      47.882  34.438  27.321  1.00  0.00    -0.354 N 
ATOM     42  N   UNL A   1      47.344  37.367  27.310  1.00  0.00    -0.248 NA
ATOM     43  C   UNL A   1      48.083  39.559  27.003  1.00  0.00     0.031 C 
ATOM     44  C   UNL A   1      49.931  33.764  26.805  1.00  0.00     0.029 A 
ATOM     45  C   UNL A   1      49.137  34.893  26.952  1.00  0.00     0.049 A 
ATOM     46  H   UNL A   1      47.108  35.012  27.515  1.00  0.00     0.167 HD
ATOM     47  C   UNL A   1      48.678  37.342  26.928  1.00  0.00     0.074 A 
ATOM     48  C   UNL A   1      49.075  38.723  26.729  1.00  0.00     0.031 C 
ATOM     49  C   UNL A   1      49.502  36.277  26.758  1.00  0.00     0.037 A 
BRANCH  36  50
ATOM     50  C   UNL A   1      46.899  30.765  27.919  1.00  0.00     0.064 A 
ATOM     51  C   UNL A   1      47.396  30.166  29.087  1.00  0.00     0.173 A 
ATOM     52  C   UNL A   1      46.602  29.927  26.831  1.00  0.00     0.173 A 
ATOM     53  F   UNL A   1      47.720  30.922  30.148  1.00  0.00    -0.203 F 
ATOM     54  C   UNL A   1      47.649  28.798  29.138  1.00  0.00     0.198 A 
ATOM     55  C   UNL A   1      46.812  28.554  26.904  1.00  0.00     0.198 A 
ATOM     56  F   UNL A   1      46.130  30.443  25.687  1.00  0.00    -0.203 F 
ATOM     57  F   UNL A   1      48.219  28.264  30.228  1.00  0.00    -0.200 F 
ATOM     58  C   UNL A   1      47.354  27.992  28.049  1.00  0.00     0.200 A 
ATOM     59  F   UNL A   1      46.513  27.778  25.853  1.00  0.00    -0.200 F 
ATOM     60  F   UNL A   1      47.610  26.678  28.095  1.00  0.00    -0.200 F 
ENDBRANCH  36  50
BRANCH  37  61
ATOM     61  C   UNL A   1      45.459  40.717  27.729  1.00  0.00     0.064 A 
ATOM     62  C   UNL A   1      45.834  41.505  28.826  1.00  0.00     0.173 A 
ATOM     63  C   UNL A   1      44.905  41.376  26.620  1.00  0.00     0.173 A 
ATOM     64  F   UNL A   1      46.340  40.927  29.926  1.00  0.00    -0.203 F 
ATOM     65  C   UNL A   1      45.665  42.891  28.812  1.00  0.00     0.198 A 
ATOM     66  C   UNL A   1      44.776  42.763  26.590  1.00  0.00     0.198 A 
ATOM     67  F   UNL A   1      44.516  40.673  25.546  1.00  0.00    -0.203 F 
ATOM     68  F   UNL A   1      45.998  43.615  29.890  1.00  0.00    -0.200 F 
ATOM     69  C   UNL A   1      45.152  43.519  27.688  1.00  0.00     0.200 A 
ATOM     70  F   UNL A   1      44.296  43.365  25.493  1.00  0.00    -0.200 F 
ATOM     71  F   UNL A   1      45.013  44.852  27.666  1.00  0.00    -0.200 F 
ENDBRANCH  37  61
BRANCH  49  72
ATOM     72  C   UNL A   1      50.904  36.546  26.287  1.00  0.00     0.064 A 
ATOM     73  C   UNL A   1      51.973  36.709  27.179  1.00  0.00     0.173 A 
ATOM     74  C   UNL A   1      51.189  36.549  24.912  1.00  0.00     0.173 A 
ATOM     75  F   UNL A   1      51.755  36.725  28.502  1.00  0.00    -0.203 F 
ATOM     76  C   UNL A   1      53.274  36.879  26.710  1.00  0.00     0.198 A 
ATOM     77  C   UNL A   1      52.494  36.680  24.448  1.00  0.00     0.198 A 
ATOM     78  F   UNL A   1      50.203  36.387  24.017  1.00  0.00    -0.203 F 
ATOM     79  F   UNL A   1      54.277  37.073  27.578  1.00  0.00    -0.200 F 
ATOM     80  C   UNL A   1      53.534  36.851  25.347  1.00  0.00     0.200 A 
ATOM     81  F   UNL A   1      52.744  36.629  23.134  1.00  0.00    -0.200 F 
ATOM     82  F   UNL A   1      54.790  36.992  24.900  1.00  0.00    -0.200 F 
ENDBRANCH  49  72
ENDBRANCH  23  24
ENDBRANCH  16  18
ENDBRANCH  15  16
ENDBRANCH  14  15
ENDBRANCH  13  14
ENDBRANCH  12  13
ENDBRANCH  10  12
ENDBRANCH   5  10
ENDBRANCH   1   5
BRANCH   2  83
ATOM     83  C   UNL A   1      43.908  28.017  31.080  1.00  0.00     0.174 C 
BRANCH  83  84
ATOM     84  N   UNL A   1      43.971  28.824  29.295  1.00  0.00    -0.342 N 
ATOM     85  C   UNL A   1      42.598  28.484  28.146  1.00  0.00     0.242 C 
ATOM     86  H   UNL A   1      44.724  29.398  29.026  1.00  0.00     0.164 HD
ATOM     87  O   UNL A   1      42.704  28.698  26.942  1.00  0.00    -0.273 OA
BRANCH  85  88
ATOM     88  C   UNL A   1      41.107  27.537  29.115  1.00  0.00     0.168 C 
ATOM     89  C   UNL A   1      40.908  26.106  28.640  1.00  0.00     0.041 C 
BRANCH  88  90
ATOM     90  N   UNL A   1      39.593  28.439  29.853  1.00  0.00    -0.343 N 
ATOM     91  C   UNL A   1      38.030  28.975  29.527  1.00  0.00     0.240 C 
ATOM     92  H   UNL A   1      39.811  28.686  30.781  1.00  0.00     0.164 HD
ATOM     93  O   UNL A   1      37.354  28.963  30.584  1.00  0.00    -0.273 OA
BRANCH  91  94
ATOM     94  C   UNL A   1      36.928  29.408  27.960  1.00  0.00     0.219 C 
BRANCH  94  95
ATOM     95  N   UNL A   1      35.863  30.765  27.287  1.00  0.00    -0.312 N 
ATOM     96  C   UNL A   1      34.763  31.704  27.664  1.00  0.00     0.407 C 
ATOM     97  H   UNL A   1      36.109  30.926  26.347  1.00  0.00     0.167 HD
ATOM     98  O   UNL A   1      33.613  31.301  27.833  1.00  0.00    -0.225 OA
BRANCH  96  99
ATOM     99  O   UNL A   1      35.023  33.074  27.811  1.00  0.00    -0.445 OA
BRANCH  99 100
ATOM    100  C   UNL A   1      34.179  33.923  28.740  1.00  0.00     0.270 C 
BRANCH 100 101
ATOM    101  C   UNL A   1      34.077  33.939  30.277  1.00  0.00    -0.011 A 
ATOM    102  C   UNL A   1      33.851  35.116  31.020  1.00  0.00     0.007 A 
ATOM    103  C   UNL A   1      34.530  32.834  31.013  1.00  0.00     0.007 A 
ATOM    104  C   UNL A   1      33.859  35.123  32.428  1.00  0.00     0.000 A 
ATOM    105  C   UNL A   1      34.593  32.851  32.418  1.00  0.00     0.000 A 
ATOM    106  C   UNL A   1      34.205  33.980  33.129  1.00  0.00     0.000 A 
ENDBRANCH 100 101
ENDBRANCH  99 100
ENDBRANCH  96  99
ENDBRANCH  94  95
ENDBRANCH  91  94
ENDBRANCH  88  90
ENDBRANCH  85  88
ENDBRANCH  83  84
BRANCH  83 107
ATOM    107  C   UNL A   1      45.041  26.380  31.717  1.00  0.00     0.015 C 
ATOM    108  C   UNL A   1      44.609  24.633  32.066  1.00  0.00     0.010 C 
ATOM    109  C   UNL A   1      46.546  25.596  31.316  1.00  0.00     0.010 C 
ENDBRANCH  83 107
ENDBRANCH   2  83
TORSDOF 24
ENDMDL
MODEL 3
REMARK VINA RESULT:      -8.8      5.989     13.009
REMARK SMILES CC(C)C[C@H](NC(=O)[C@@H](NC(=O)[C@H](C)NC(=O)CNC(=O)OCc1ccccc1)C(C)C)C(=O)OCCOC(=O)c1ccc(-c2c3nc(c(-c4c(F)c(F)c(F)c(F)c4F)c4ccc([nH]4)c(-c4c(F)c(F)c(F)c(F)c4F)c4nc(c(-c5c(F)c(F)c(F)c(F)c5F)c5ccc2[nH]5)C=C4)C=C3)cc1
REMARK SMILES IDX 6 1 7 2 8 3 5 5 4 6 2 7 1 8 3 9 33 10 34 11 35 12 36 13
REMARK SMILES IDX 37 14 38 15 39 16 40 17 41 18 42 19 103 20 43 21 102 22
REMARK SMILES IDX 44 23 45 24 46 25 96 26 47 27 101 28 95 29 97 30 48 31
REMARK SMILES IDX 100 32 94 33 93 34 49 36 81 37 61 38 80 39 62 40 65 41 79 42
REMARK SMILES IDX 98 43 63 44 64 45 78 47 99 48 66 49 50 50 51 51 59 52 52 53
REMARK SMILES IDX 53 54 57 55 60 56 54 57 55 58 58 59 56 60 82 61 83 62 91 63
REMARK SMILES IDX 84 64 85 65 89 66 92 67 86 68 87 69 90 70 88 71 67 72 68 73
REMARK SMILES IDX 76 74 69 75 70 76 74 77 77 78 71 79 72 80 75 81 73 82 9 83
REMARK SMILES IDX 10 84 11 85 12 87 13 88 14 89 15 90 16 91 17 93 18 94 19 95
REMARK SMILES IDX 20 96 21 98 22 99 23 100 24 101 25 102 29 103 26 104 28 105
REMARK SMILES IDX 27 106 30 107 31 108 32 109
REMARK H PARENT 6 4 97 35 65 46 10 86 15 92 19 97
REMARK Flexibility Score: inf
ROOT
ATOM      1  N   UNL A   1      47.211  30.102  26.518  1.00  0.00    -0.341 N 
ATOM      2  C   UNL A   1      47.323  28.798  26.258  1.00  0.00     0.243 C 
ATOM      3  O   UNL A   1      48.405  28.399  25.816  1.00  0.00    -0.273 OA
ATOM      4  H   UNL A   1      47.932  30.662  26.150  1.00  0.00     0.164 HD
ENDROOT
BRANCH   1   5
ATOM      5  C   UNL A   1      46.192  30.821  27.259  1.00  0.00     0.192 C 
BRANCH   5   6
ATOM      6  C   UNL A   1      46.146  30.892  28.844  1.00  0.00     0.040 C 
BRANCH   6   7
ATOM      7  C   UNL A   1      44.593  30.852  29.899  1.00  0.00    -0.015 C 
ATOM      8  C   UNL A   1      43.466  29.040  30.234  1.00  0.00     0.007 C 
ATOM      9  C   UNL A   1      45.157  32.179  30.743  1.00  0.00     0.007 C 
ENDBRANCH   6   7
ENDBRANCH   5   6
BRANCH   5  10
ATOM     10  C   UNL A   1      46.048  32.248  26.765  1.00  0.00     0.328 C 
ATOM     11  O   UNL A   1      45.167  32.997  27.169  1.00  0.00    -0.250 OA
BRANCH  10  12
ATOM     12  O   UNL A   1      47.053  32.587  25.910  1.00  0.00    -0.461 OA
BRANCH  12  13
ATOM     13  C   UNL A   1      47.877  33.655  26.375  1.00  0.00     0.274 C 
BRANCH  13  14
ATOM     14  C   UNL A   1      47.756  34.862  25.444  1.00  0.00     0.275 C 
BRANCH  14  15
ATOM     15  O   UNL A   1      46.511  35.571  25.610  1.00  0.00    -0.458 OA
BRANCH  15  16
ATOM     16  C   UNL A   1      46.556  36.719  26.335  1.00  0.00     0.338 C 
ATOM     17  O   UNL A   1      46.998  37.799  25.983  1.00  0.00    -0.246 OA
BRANCH  16  18
ATOM     18  C   UNL A   1      45.770  36.543  27.571  1.00  0.00     0.060 A 
ATOM     19  C   UNL A   1      46.333  35.832  28.639  1.00  0.00     0.016 A 
ATOM     20  C   UNL A   1      44.486  37.078  27.683  1.00  0.00     0.016 A 
ATOM     21  C   UNL A   1      45.650  35.728  29.842  1.00  0.00     0.010 A 
ATOM     22  C   UNL A   1      43.796  36.959  28.886  1.00  0.00     0.010 A 
ATOM     23  C   UNL A   1      44.392  36.314  29.979  1.00  0.00    -0.014 A 
BRANCH  23  24
ATOM     24  C   UNL A   1      43.618  36.110  31.215  1.00  0.00     0.031 A 
ATOM     25  C   UNL A   1      43.932  36.985  32.380  1.00  0.00     0.074 A 
ATOM     26  C   UNL A   1      42.685  35.148  31.293  1.00  0.00     0.049 A 
ATOM     27  N   UNL A   1      43.551  36.879  33.623  1.00  0.00    -0.248 NA
ATOM     28  C   UNL A   1      44.829  38.118  32.108  1.00  0.00     0.031 C 
ATOM     29  C   UNL A   1      42.260  34.300  30.182  1.00  0.00     0.029 A 
ATOM     30  N   UNL A   1      41.919  34.731  32.351  1.00  0.00    -0.354 N 
ATOM     31  C   UNL A   1      44.217  37.890  34.296  1.00  0.00     0.074 A 
ATOM     32  C   UNL A   1      45.001  38.614  33.320  1.00  0.00     0.031 C 
ATOM     33  C   UNL A   1      41.286  33.479  30.612  1.00  0.00     0.029 A 
ATOM     34  C   UNL A   1      41.090  33.679  32.047  1.00  0.00     0.049 A 
ATOM     35  H   UNL A   1      41.958  35.147  33.242  1.00  0.00     0.167 HD
ATOM     36  C   UNL A   1      44.204  38.150  35.623  1.00  0.00     0.037 A 
ATOM     37  C   UNL A   1      40.306  32.938  32.854  1.00  0.00     0.037 A 
ATOM     38  C   UNL A   1      43.434  37.387  36.568  1.00  0.00     0.049 A 
ATOM     39  C   UNL A   1      40.330  33.222  34.336  1.00  0.00     0.074 A 
ATOM     40  C   UNL A   1      43.356  37.538  37.939  1.00  0.00     0.029 A 
ATOM     41  N   UNL A   1      42.621  36.309  36.233  1.00  0.00    -0.354 N 
ATOM     42  N   UNL A   1      40.995  34.147  34.990  1.00  0.00    -0.248 NA
ATOM     43  C   UNL A   1      39.530  32.342  35.198  1.00  0.00     0.031 C 
ATOM     44  C   UNL A   1      42.564  36.502  38.442  1.00  0.00     0.029 A 
ATOM     45  C   UNL A   1      42.063  35.765  37.378  1.00  0.00     0.049 A 
ATOM     46  H   UNL A   1      42.465  35.983  35.319  1.00  0.00     0.167 HD
ATOM     47  C   UNL A   1      40.691  33.967  36.333  1.00  0.00     0.074 A 
ATOM     48  C   UNL A   1      39.763  32.854  36.399  1.00  0.00     0.031 C 
ATOM     49  C   UNL A   1      41.138  34.657  37.412  1.00  0.00     0.037 A 
BRANCH  36  50
ATOM     50  C   UNL A   1      45.147  39.211  36.113  1.00  0.00     0.064 A 
ATOM     51  C   UNL A   1      46.388  38.910  36.695  1.00  0.00     0.173 A 
ATOM     52  C   UNL A   1      44.760  40.561  36.062  1.00  0.00     0.173 A 
ATOM     53  F   UNL A   1      46.796  37.635  36.793  1.00  0.00    -0.203 F 
ATOM     54  C   UNL A   1      47.175  39.910  37.261  1.00  0.00     0.198 A 
ATOM     55  C   UNL A   1      45.572  41.562  36.586  1.00  0.00     0.198 A 
ATOM     56  F   UNL A   1      43.583  40.909  35.523  1.00  0.00    -0.203 F 
ATOM     57  F   UNL A   1      48.308  39.586  37.901  1.00  0.00    -0.200 F 
ATOM     58  C   UNL A   1      46.769  41.234  37.203  1.00  0.00     0.200 A 
ATOM     59  F   UNL A   1      45.182  42.842  36.516  1.00  0.00    -0.200 F 
ATOM     60  F   UNL A   1      47.521  42.194  37.759  1.00  0.00    -0.200 F 
ENDBRANCH  36  50
BRANCH  37  61
ATOM     61  C   UNL A   1      39.493  31.826  32.286  1.00  0.00     0.064 A 
ATOM     62  C   UNL A   1      38.173  32.031  31.860  1.00  0.00     0.173 A 
ATOM     63  C   UNL A   1      40.029  30.538  32.129  1.00  0.00     0.173 A 
ATOM     64  F   UNL A   1      37.598  33.233  32.014  1.00  0.00    -0.203 F 
ATOM     65  C   UNL A   1      37.425  30.995  31.299  1.00  0.00     0.198 A 
ATOM     66  C   UNL A   1      39.297  29.515  31.531  1.00  0.00     0.198 A 
ATOM     67  F   UNL A   1      41.283  30.279  32.529  1.00  0.00    -0.203 F 
ATOM     68  F   UNL A   1      36.153  31.210  30.936  1.00  0.00    -0.200 F 
ATOM     69  C   UNL A   1      37.993  29.743  31.120  1.00  0.00     0.200 A 
ATOM     70  F   UNL A   1      39.859  28.313  31.345  1.00  0.00    -0.200 F 
ATOM     71  F   UNL A   1      37.283  28.755  30.560  1.00  0.00    -0.200 F 
ENDBRANCH  37  61
BRANCH  49  72
ATOM     72  C   UNL A   1      40.598  34.270  38.761  1.00  0.00     0.064 A 
ATOM     73  C   UNL A   1      39.455  34.867  39.308  1.00  0.00     0.173 A 
ATOM     74  C   UNL A   1      41.191  33.213  39.471  1.00  0.00     0.173 A 
ATOM     75  F   UNL A   1      38.855  35.887  38.676  1.00  0.00    -0.203 F 
ATOM     76  C   UNL A   1      38.934  34.432  40.525  1.00  0.00     0.198 A 
ATOM     77  C   UNL A   1      40.646  32.755  40.666  1.00  0.00     0.198 A 
ATOM     78  F   UNL A   1      42.281  32.600  38.987  1.00  0.00    -0.203 F 
ATOM     79  F   UNL A   1      37.863  35.043  41.050  1.00  0.00    -0.200 F 
ATOM     80  C   UNL A   1      39.521  33.368  41.195  1.00  0.00     0.200 A 
ATOM     81  F   UNL A   1      41.202  31.713  41.298  1.00  0.00    -0.200 F 
ATOM     82  F   UNL A   1      39.004  32.936  42.353  1.00  0.00    -0.200 F 
ENDBRANCH  49  72
ENDBRANCH  23  24
ENDBRANCH  16  18
ENDBRANCH  15  16
ENDBRANCH  14  15
ENDBRANCH  13  14
ENDBRANCH  12  13
ENDBRANCH  10  12
ENDBRANCH   5  10
ENDBRANCH   1   5
BRANCH   2  83
ATOM     83  C   UNL A   1      46.231  27.865  26.806  1.00  0.00     0.174 C 
BRANCH  83  84
ATOM     84  N   UNL A   1      47.292  27.444  28.399  1.00  0.00    -0.342 N 
ATOM     85  C   UNL A   1      47.089  25.801  29.161  1.00  0.00     0.242 C 
ATOM     86  H   UNL A   1      47.917  28.103  28.779  1.00  0.00     0.164 HD
ATOM     87  O   UNL A   1      47.479  25.572  30.301  1.00  0.00    -0.273 OA
BRANCH  85  88
ATOM     88  C   UNL A   1      45.975  24.621  27.967  1.00  0.00     0.168 C 
ATOM     89  C   UNL A   1      45.034  23.713  28.743  1.00  0.00     0.041 C 
BRANCH  88  90
ATOM     90  N   UNL A   1      46.548  24.029  26.243  1.00  0.00    -0.343 N 
ATOM     91  C   UNL A   1      46.074  23.194  24.859  1.00  0.00     0.240 C 
ATOM     92  H   UNL A   1      47.478  24.326  26.114  1.00  0.00     0.164 HD
ATOM     93  O   UNL A   1      46.683  23.654  23.863  1.00  0.00    -0.273 OA
BRANCH  91  94
ATOM     94  C   UNL A   1      44.718  21.872  24.338  1.00  0.00     0.219 C 
BRANCH  94  95
ATOM     95  N   UNL A   1      44.383  20.052  24.423  1.00  0.00    -0.312 N 
ATOM     96  C   UNL A   1      44.773  18.810  25.156  1.00  0.00     0.407 C 
ATOM     97  H   UNL A   1      43.708  19.821  23.745  1.00  0.00     0.167 HD
ATOM     98  O   UNL A   1      45.875  18.289  24.985  1.00  0.00    -0.225 OA
BRANCH  96  99
ATOM     99  O   UNL A   1      43.873  18.201  26.043  1.00  0.00    -0.445 OA
BRANCH  99 100
ATOM    100  C   UNL A   1      42.410  18.592  26.046  1.00  0.00     0.270 C 
BRANCH 100 101
ATOM    101  C   UNL A   1      41.699  19.833  26.617  1.00  0.00    -0.011 A 
ATOM    102  C   UNL A   1      40.468  20.310  26.122  1.00  0.00     0.007 A 
ATOM    103  C   UNL A   1      42.411  20.723  27.436  1.00  0.00     0.007 A 
ATOM    104  C   UNL A   1      39.885  21.502  26.594  1.00  0.00     0.000 A 
ATOM    105  C   UNL A   1      41.857  21.942  27.867  1.00  0.00     0.000 A 
ATOM    106  C   UNL A   1      40.570  22.307  27.489  1.00  0.00     0.000 A 
ENDBRANCH 100 101
ENDBRANCH  99 100
ENDBRANCH  96  99
ENDBRANCH  94  95
ENDBRANCH  91  94
ENDBRANCH  88  90
ENDBRANCH  85  88
ENDBRANCH  83  84
BRANCH  83 107
ATOM    107  C   UNL A   1      44.144  27.848  26.692  1.00  0.00     0.015 C 
ATOM    108  C   UNL A   1      42.897  29.188  26.577  1.00  0.00     0.010 C 
ATOM    109  C   UNL A   1      42.890  27.037  25.791  1.00  0.00     0.010 C 
ENDBRANCH  83 107
ENDBRANCH   2  83
TORSDOF 24
ENDMDL
