MODEL 1
REMARK VINA RESULT:     -12.6      0.000      0.000
REMARK SMILES C=Cc1cc(Cl)cc2c1O[C@H](C(F)(F)F)C(C(=O)OCCOC(=O)c1ccc(-c3c4nc(c(-c5c(F)c(F)c(F)c(F)c5F)c5ccc([nH]5)c(-c5c(F)c(F)c(F)c(F)c5F)c5nc(c(-c6c(F)c(F)c(F)c(F)c6F)c6ccc3[nH]6)C=C5)C=C4)cc1)=C2
REMARK SMILES IDX 21 1 20 2 19 3 17 4 18 5 16 6 3 7 4 8 9 9 5 10 8 11 10 12
REMARK SMILES IDX 6 13 7 14 88 15 11 16 2 17 1 18 12 19 13 20 14 21 15 22
REMARK SMILES IDX 22 23 23 24 24 25 25 26 26 27 87 28 27 29 86 30 28 31 29 32
REMARK SMILES IDX 30 33 80 34 31 35 85 36 79 37 81 38 32 39 84 40 78 41 77 42
REMARK SMILES IDX 33 44 65 45 45 46 64 47 46 48 49 49 63 50 82 51 47 52 48 53
REMARK SMILES IDX 62 55 83 56 50 57 34 58 35 59 43 60 36 61 37 62 41 63 44 64
REMARK SMILES IDX 38 65 39 66 42 67 40 68 66 69 67 70 75 71 68 72 69 73 73 74
REMARK SMILES IDX 76 75 70 76 71 77 74 78 72 79 51 80 52 81 60 82 53 83 54 84
REMARK SMILES IDX 58 85 61 86 55 87 56 88 59 89 57 90
REMARK H PARENT 81 43 49 54
REMARK Flexibility Score: inf
ROOT
ATOM      1  C   UNL A   1      31.692  30.437  25.753  1.00  0.00     0.275 C 
ENDROOT
BRANCH   1   2
ATOM      2  C   UNL A   1      31.626  29.073  25.062  1.00  0.00     0.275 C 
BRANCH   2   3
ATOM      3  O   UNL A   1      32.501  28.109  25.690  1.00  0.00    -0.459 OA
BRANCH   3   4
ATOM      4  C   UNL A   1      31.889  27.134  26.403  1.00  0.00     0.338 C 
ATOM      5  O   UNL A   1      31.059  27.290  27.285  1.00  0.00    -0.246 OA
BRANCH   4   6
ATOM      6  C   UNL A   1      32.316  25.800  25.930  1.00  0.00     0.087 C 
ATOM      7  C   UNL A   1      33.632  22.103  24.420  1.00  0.00     0.018 A 
ATOM      8  C   UNL A   1      35.014  21.843  24.403  1.00  0.00     0.032 A 
ATOM      9  C   UNL A   1      33.170  23.328  24.939  1.00  0.00     0.135 A 
ATOM     10  C   UNL A   1      35.913  22.767  24.928  1.00  0.00     0.042 A 
ATOM     11  C   UNL A   1      34.088  24.259  25.432  1.00  0.00     0.019 A 
ATOM     12  O   UNL A   1      31.818  23.549  24.967  1.00  0.00    -0.475 OA
ATOM     13  Cl  UNL A   1      37.600  22.427  24.922  1.00  0.00    -0.084 Cl
ATOM     14  C   UNL A   1      35.458  23.972  25.445  1.00  0.00     0.032 A 
ATOM     15  C   UNL A   1      33.628  25.540  25.921  1.00  0.00     0.027 C 
ATOM     16  C   UNL A   1      31.298  24.849  25.372  1.00  0.00     0.316 C 
BRANCH   7  17
ATOM     17  C   UNL A   1      32.693  21.135  23.831  1.00  0.00     0.004 C 
ATOM     18  C   UNL A   1      32.402  19.945  24.372  1.00  0.00     0.009 C 
ENDBRANCH   7  17
BRANCH  16  19
ATOM     19  C   UNL A   1      30.573  25.475  24.168  1.00  0.00     0.430 C 
ATOM     20  F   UNL A   1      30.000  24.531  23.385  1.00  0.00    -0.167 F 
ATOM     21  F   UNL A   1      29.580  26.308  24.562  1.00  0.00    -0.167 F 
ATOM     22  F   UNL A   1      31.415  26.194  23.390  1.00  0.00    -0.167 F 
ENDBRANCH  16  19
ENDBRANCH   4   6
ENDBRANCH   3   4
ENDBRANCH   2   3
ENDBRANCH   1   2
BRANCH   1  23
ATOM     23  O   UNL A   1      32.541  30.376  26.914  1.00  0.00    -0.458 OA
BRANCH  23  24
ATOM     24  C   UNL A   1      33.178  31.524  27.231  1.00  0.00     0.338 C 
ATOM     25  O   UNL A   1      32.720  32.655  27.239  1.00  0.00    -0.246 OA
BRANCH  24  26
ATOM     26  C   UNL A   1      34.533  31.217  27.706  1.00  0.00     0.060 A 
ATOM     27  C   UNL A   1      35.459  32.213  27.991  1.00  0.00     0.016 A 
ATOM     28  C   UNL A   1      34.817  29.895  28.022  1.00  0.00     0.016 A 
ATOM     29  C   UNL A   1      36.677  31.856  28.585  1.00  0.00     0.010 A 
ATOM     30  C   UNL A   1      35.967  29.558  28.727  1.00  0.00     0.010 A 
ATOM     31  C   UNL A   1      36.933  30.529  28.996  1.00  0.00    -0.014 A 
BRANCH  31  32
ATOM     32  C   UNL A   1      38.191  30.163  29.711  1.00  0.00     0.031 A 
ATOM     33  C   UNL A   1      38.463  30.639  31.119  1.00  0.00     0.074 A 
ATOM     34  C   UNL A   1      39.123  29.424  29.074  1.00  0.00     0.049 A 
ATOM     35  N   UNL A   1      39.485  30.376  31.897  1.00  0.00    -0.248 NA
ATOM     36  C   UNL A   1      37.489  31.564  31.721  1.00  0.00     0.031 C 
ATOM     37  C   UNL A   1      39.054  29.001  27.675  1.00  0.00     0.029 A 
ATOM     38  N   UNL A   1      40.302  28.880  29.524  1.00  0.00    -0.354 N 
ATOM     39  C   UNL A   1      39.284  31.115  33.057  1.00  0.00     0.074 A 
ATOM     40  C   UNL A   1      38.086  31.897  32.856  1.00  0.00     0.031 C 
ATOM     41  C   UNL A   1      40.091  28.192  27.407  1.00  0.00     0.029 A 
ATOM     42  C   UNL A   1      40.918  28.067  28.603  1.00  0.00     0.049 A 
ATOM     43  H   UNL A   1      40.671  29.056  30.420  1.00  0.00     0.167 HD
ATOM     44  C   UNL A   1      40.002  31.109  34.207  1.00  0.00     0.037 A 
ATOM     45  C   UNL A   1      42.008  27.283  28.716  1.00  0.00     0.037 A 
ATOM     46  C   UNL A   1      41.153  30.280  34.436  1.00  0.00     0.049 A 
ATOM     47  C   UNL A   1      42.743  27.228  30.027  1.00  0.00     0.074 A 
ATOM     48  C   UNL A   1      41.891  30.130  35.597  1.00  0.00     0.029 A 
ATOM     49  N   UNL A   1      41.725  29.446  33.487  1.00  0.00    -0.354 N 
ATOM     50  N   UNL A   1      42.483  27.859  31.145  1.00  0.00    -0.248 NA
ATOM     51  C   UNL A   1      43.918  26.347  30.093  1.00  0.00     0.031 C 
ATOM     52  C   UNL A   1      42.927  29.225  35.343  1.00  0.00     0.029 A 
ATOM     53  C   UNL A   1      42.811  28.784  34.034  1.00  0.00     0.049 A 
ATOM     54  H   UNL A   1      41.406  29.340  32.561  1.00  0.00     0.167 HD
ATOM     55  C   UNL A   1      43.452  27.445  32.049  1.00  0.00     0.074 A 
ATOM     56  C   UNL A   1      44.291  26.490  31.357  1.00  0.00     0.031 C 
ATOM     57  C   UNL A   1      43.632  27.832  33.335  1.00  0.00     0.037 A 
BRANCH  44  58
ATOM     58  C   UNL A   1      39.531  31.986  35.333  1.00  0.00     0.064 A 
ATOM     59  C   UNL A   1      39.951  33.321  35.441  1.00  0.00     0.173 A 
ATOM     60  C   UNL A   1      38.601  31.515  36.272  1.00  0.00     0.173 A 
ATOM     61  F   UNL A   1      40.843  33.819  34.571  1.00  0.00    -0.203 F 
ATOM     62  C   UNL A   1      39.481  34.143  36.461  1.00  0.00     0.198 A 
ATOM     63  C   UNL A   1      38.108  32.349  37.273  1.00  0.00     0.198 A 
ATOM     64  F   UNL A   1      38.155  30.251  36.208  1.00  0.00    -0.203 F 
ATOM     65  F   UNL A   1      39.930  35.401  36.567  1.00  0.00    -0.200 F 
ATOM     66  C   UNL A   1      38.553  33.659  37.370  1.00  0.00     0.200 A 
ATOM     67  F   UNL A   1      37.199  31.886  38.142  1.00  0.00    -0.200 F 
ATOM     68  F   UNL A   1      38.088  34.455  38.344  1.00  0.00    -0.200 F 
ENDBRANCH  44  58
BRANCH  45  69
ATOM     69  C   UNL A   1      42.412  26.419  27.576  1.00  0.00     0.064 A 
ATOM     70  C   UNL A   1      43.420  26.833  26.693  1.00  0.00     0.173 A 
ATOM     71  C   UNL A   1      41.834  25.161  27.364  1.00  0.00     0.173 A 
ATOM     72  F   UNL A   1      43.991  28.038  26.846  1.00  0.00    -0.203 F 
ATOM     73  C   UNL A   1      43.828  26.024  25.635  1.00  0.00     0.198 A 
ATOM     74  C   UNL A   1      42.261  24.340  26.322  1.00  0.00     0.198 A 
ATOM     75  F   UNL A   1      40.873  24.716  28.186  1.00  0.00    -0.203 F 
ATOM     76  F   UNL A   1      44.773  26.456  24.789  1.00  0.00    -0.200 F 
ATOM     77  C   UNL A   1      43.253  24.774  25.456  1.00  0.00     0.200 A 
ATOM     78  F   UNL A   1      41.715  23.127  26.158  1.00  0.00    -0.200 F 
ATOM     79  F   UNL A   1      43.656  23.990  24.446  1.00  0.00    -0.200 F 
ENDBRANCH  45  69
BRANCH  57  80
ATOM     80  C   UNL A   1      44.775  27.223  34.089  1.00  0.00     0.064 A 
ATOM     81  C   UNL A   1      46.026  27.854  34.146  1.00  0.00     0.173 A 
ATOM     82  C   UNL A   1      44.595  26.045  34.829  1.00  0.00     0.173 A 
ATOM     83  F   UNL A   1      46.249  28.975  33.445  1.00  0.00    -0.203 F 
ATOM     84  C   UNL A   1      47.060  27.321  34.911  1.00  0.00     0.198 A 
ATOM     85  C   UNL A   1      45.623  25.529  35.612  1.00  0.00     0.198 A 
ATOM     86  F   UNL A   1      43.413  25.411  34.813  1.00  0.00    -0.203 F 
ATOM     87  F   UNL A   1      48.256  27.924  34.931  1.00  0.00    -0.200 F 
ATOM     88  C   UNL A   1      46.854  26.165  35.651  1.00  0.00     0.200 A 
ATOM     89  F   UNL A   1      45.418  24.421  36.337  1.00  0.00    -0.200 F 
ATOM     90  F   UNL A   1      47.846  25.664  36.400  1.00  0.00    -0.200 F 
ENDBRANCH  57  80
ENDBRANCH  31  32
ENDBRANCH  24  26
ENDBRANCH  23  24
ENDBRANCH   1  23
TORSDOF 13
ENDMDL
MODEL 2
REMARK VINA RESULT:     -12.6      0.268      1.683
REMARK SMILES C=Cc1cc(Cl)cc2c1O[C@H](C(F)(F)F)C(C(=O)OCCOC(=O)c1ccc(-c3c4nc(c(-c5c(F)c(F)c(F)c(F)c5F)c5ccc([nH]5)c(-c5c(F)c(F)c(F)c(F)c5F)c5nc(c(-c6c(F)c(F)c(F)c(F)c6F)c6ccc3[nH]6)C=C5)C=C4)cc1)=C2
REMARK SMILES IDX 21 1 20 2 19 3 17 4 18 5 16 6 3 7 4 8 9 9 5 10 8 11 10 12
REMARK SMILES IDX 6 13 7 14 88 15 11 16 2 17 1 18 12 19 13 20 14 21 15 22
REMARK SMILES IDX 22 23 23 24 24 25 25 26 26 27 87 28 27 29 86 30 28 31 29 32
REMARK SMILES IDX 30 33 80 34 31 35 85 36 79 37 81 38 32 39 84 40 78 41 77 42
REMARK SMILES IDX 33 44 65 45 45 46 64 47 46 48 49 49 63 50 82 51 47 52 48 53
REMARK SMILES IDX 62 55 83 56 50 57 34 58 35 59 43 60 36 61 37 62 41 63 44 64
REMARK SMILES IDX 38 65 39 66 42 67 40 68 66 69 67 70 75 71 68 72 69 73 73 74
REMARK SMILES IDX 76 75 70 76 71 77 74 78 72 79 51 80 52 81 60 82 53 83 54 84
REMARK SMILES IDX 58 85 61 86 55 87 56 88 59 89 57 90
REMARK H PARENT 81 43 49 54
REMARK Flexibility Score: inf
ROOT
ATOM      1  C   UNL A   1      31.652  30.464  25.717  1.00  0.00     0.275 C 
ENDROOT
BRANCH   1   2
ATOM      2  C   UNL A   1      31.456  29.103  25.045  1.00  0.00     0.275 C 
BRANCH   2   3
ATOM      3  O   UNL A   1      32.366  28.109  25.567  1.00  0.00    -0.459 OA
BRANCH   3   4
ATOM      4  C   UNL A   1      31.806  27.136  26.323  1.00  0.00     0.338 C 
ATOM      5  O   UNL A   1      31.028  27.293  27.251  1.00  0.00    -0.246 OA
BRANCH   4   6
ATOM      6  C   UNL A   1      32.215  25.801  25.836  1.00  0.00     0.087 C 
ATOM      7  C   UNL A   1      33.478  22.102  24.287  1.00  0.00     0.018 A 
ATOM      8  C   UNL A   1      34.857  21.830  24.251  1.00  0.00     0.032 A 
ATOM      9  C   UNL A   1      33.033  23.328  24.819  1.00  0.00     0.135 A 
ATOM     10  C   UNL A   1      35.771  22.742  24.770  1.00  0.00     0.042 A 
ATOM     11  C   UNL A   1      33.966  24.247  25.306  1.00  0.00     0.019 A 
ATOM     12  O   UNL A   1      31.684  23.561  24.866  1.00  0.00    -0.475 OA
ATOM     13  Cl  UNL A   1      37.455  22.387  24.741  1.00  0.00    -0.084 Cl
ATOM     14  C   UNL A   1      35.334  23.948  25.301  1.00  0.00     0.032 A 
ATOM     15  C   UNL A   1      33.523  25.529  25.809  1.00  0.00     0.027 C 
ATOM     16  C   UNL A   1      31.181  24.862  25.284  1.00  0.00     0.316 C 
BRANCH   7  17
ATOM     17  C   UNL A   1      32.523  21.146  23.703  1.00  0.00     0.004 C 
ATOM     18  C   UNL A   1      32.153  21.144  22.417  1.00  0.00     0.009 C 
ENDBRANCH   7  17
BRANCH  16  19
ATOM     19  C   UNL A   1      30.447  25.503  24.094  1.00  0.00     0.430 C 
ATOM     20  F   UNL A   1      31.286  26.241  23.330  1.00  0.00    -0.167 F 
ATOM     21  F   UNL A   1      29.903  24.566  23.281  1.00  0.00    -0.167 F 
ATOM     22  F   UNL A   1      29.443  26.316  24.498  1.00  0.00    -0.167 F 
ENDBRANCH  16  19
ENDBRANCH   4   6
ENDBRANCH   3   4
ENDBRANCH   2   3
ENDBRANCH   1   2
BRANCH   1  23
ATOM     23  O   UNL A   1      32.546  30.350  26.840  1.00  0.00    -0.458 OA
BRANCH  23  24
ATOM     24  C   UNL A   1      33.157  31.494  27.216  1.00  0.00     0.338 C 
ATOM     25  O   UNL A   1      32.685  32.618  27.251  1.00  0.00    -0.246 OA
BRANCH  24  26
ATOM     26  C   UNL A   1      34.502  31.188  27.721  1.00  0.00     0.060 A 
ATOM     27  C   UNL A   1      35.423  32.183  28.020  1.00  0.00     0.016 A 
ATOM     28  C   UNL A   1      34.778  29.866  28.047  1.00  0.00     0.016 A 
ATOM     29  C   UNL A   1      36.629  31.827  28.641  1.00  0.00     0.010 A 
ATOM     30  C   UNL A   1      35.912  29.530  28.777  1.00  0.00     0.010 A 
ATOM     31  C   UNL A   1      36.874  30.501  29.062  1.00  0.00    -0.014 A 
BRANCH  31  32
ATOM     32  C   UNL A   1      38.116  30.136  29.805  1.00  0.00     0.031 A 
ATOM     33  C   UNL A   1      38.363  30.624  31.214  1.00  0.00     0.074 A 
ATOM     34  C   UNL A   1      39.058  29.388  29.193  1.00  0.00     0.049 A 
ATOM     35  N   UNL A   1      39.369  30.363  32.014  1.00  0.00    -0.248 NA
ATOM     36  C   UNL A   1      37.382  31.558  31.789  1.00  0.00     0.031 C 
ATOM     37  C   UNL A   1      39.014  28.953  27.796  1.00  0.00     0.029 A 
ATOM     38  N   UNL A   1      40.226  28.843  29.670  1.00  0.00    -0.354 N 
ATOM     39  C   UNL A   1      39.148  31.114  33.163  1.00  0.00     0.074 A 
ATOM     40  C   UNL A   1      37.958  31.898  32.932  1.00  0.00     0.031 C 
ATOM     41  C   UNL A   1      40.052  28.138  27.555  1.00  0.00     0.029 A 
ATOM     42  C   UNL A   1      40.856  28.019  28.768  1.00  0.00     0.049 A 
ATOM     43  H   UNL A   1      40.577  29.026  30.572  1.00  0.00     0.167 HD
ATOM     44  C   UNL A   1      39.844  31.115  34.326  1.00  0.00     0.037 A 
ATOM     45  C   UNL A   1      41.940  27.232  28.909  1.00  0.00     0.037 A 
ATOM     46  C   UNL A   1      40.987  30.283  34.585  1.00  0.00     0.049 A 
ATOM     47  C   UNL A   1      42.649  27.186  30.234  1.00  0.00     0.074 A 
ATOM     48  C   UNL A   1      41.702  30.141  35.761  1.00  0.00     0.029 A 
ATOM     49  N   UNL A   1      41.574  29.438  33.654  1.00  0.00    -0.354 N 
ATOM     50  N   UNL A   1      42.370  27.828  31.342  1.00  0.00    -0.248 NA
ATOM     51  C   UNL A   1      43.819  26.301  30.331  1.00  0.00     0.031 C 
ATOM     52  C   UNL A   1      42.739  29.229  35.535  1.00  0.00     0.029 A 
ATOM     53  C   UNL A   1      42.647  28.777  34.229  1.00  0.00     0.049 A 
ATOM     54  H   UNL A   1      41.272  29.326  32.724  1.00  0.00     0.167 HD
ATOM     55  C   UNL A   1      43.320  27.418  32.268  1.00  0.00     0.074 A 
ATOM     56  C   UNL A   1      44.168  26.454  31.601  1.00  0.00     0.031 C 
ATOM     57  C   UNL A   1      43.477  27.816  33.553  1.00  0.00     0.037 A 
BRANCH  44  58
ATOM     58  C   UNL A   1      39.356  32.004  35.435  1.00  0.00     0.064 A 
ATOM     59  C   UNL A   1      38.487  31.522  36.427  1.00  0.00     0.173 A 
ATOM     60  C   UNL A   1      39.811  33.326  35.551  1.00  0.00     0.173 A 
ATOM     61  F   UNL A   1      38.019  30.267  36.360  1.00  0.00    -0.203 F 
ATOM     62  C   UNL A   1      38.070  32.336  37.476  1.00  0.00     0.198 A 
ATOM     63  C   UNL A   1      39.417  34.129  36.619  1.00  0.00     0.198 A 
ATOM     64  F   UNL A   1      40.654  33.835  34.639  1.00  0.00    -0.203 F 
ATOM     65  F   UNL A   1      37.207  31.864  38.385  1.00  0.00    -0.200 F 
ATOM     66  C   UNL A   1      38.542  33.636  37.576  1.00  0.00     0.200 A 
ATOM     67  F   UNL A   1      39.887  35.380  36.725  1.00  0.00    -0.200 F 
ATOM     68  F   UNL A   1      38.153  34.415  38.595  1.00  0.00    -0.200 F 
ENDBRANCH  44  58
BRANCH  45  69
ATOM     69  C   UNL A   1      42.362  26.357  27.784  1.00  0.00     0.064 A 
ATOM     70  C   UNL A   1      41.728  25.126  27.564  1.00  0.00     0.173 A 
ATOM     71  C   UNL A   1      43.373  26.741  26.893  1.00  0.00     0.173 A 
ATOM     72  F   UNL A   1      40.766  24.709  28.401  1.00  0.00    -0.203 F 
ATOM     73  C   UNL A   1      42.096  24.307  26.499  1.00  0.00     0.198 A 
ATOM     74  C   UNL A   1      43.723  25.933  25.813  1.00  0.00     0.198 A 
ATOM     75  F   UNL A   1      44.004  27.912  27.057  1.00  0.00    -0.203 F 
ATOM     76  F   UNL A   1      41.493  23.123  26.329  1.00  0.00    -0.200 F 
ATOM     77  C   UNL A   1      43.087  24.716  25.619  1.00  0.00     0.200 A 
ATOM     78  F   UNL A   1      44.671  26.335  24.955  1.00  0.00    -0.200 F 
ATOM     79  F   UNL A   1      43.431  23.934  24.587  1.00  0.00    -0.200 F 
ENDBRANCH  45  69
BRANCH  57  80
ATOM     80  C   UNL A   1      44.603  27.209  34.335  1.00  0.00     0.064 A 
ATOM     81  C   UNL A   1      45.855  27.835  34.410  1.00  0.00     0.173 A 
ATOM     82  C   UNL A   1      44.403  26.038  35.081  1.00  0.00     0.173 A 
ATOM     83  F   UNL A   1      46.096  28.949  33.704  1.00  0.00    -0.203 F 
ATOM     84  C   UNL A   1      46.872  27.304  35.200  1.00  0.00     0.198 A 
ATOM     85  C   UNL A   1      45.414  25.524  35.889  1.00  0.00     0.198 A 
ATOM     86  F   UNL A   1      43.219  25.409  35.048  1.00  0.00    -0.203 F 
ATOM     87  F   UNL A   1      48.069  27.903  35.238  1.00  0.00    -0.200 F 
ATOM     88  C   UNL A   1      46.647  26.156  35.946  1.00  0.00     0.200 A 
ATOM     89  F   UNL A   1      45.190  24.424  36.620  1.00  0.00    -0.200 F 
ATOM     90  F   UNL A   1      47.621  25.658  36.718  1.00  0.00    -0.200 F 
ENDBRANCH  57  80
ENDBRANCH  31  32
ENDBRANCH  24  26
ENDBRANCH  23  24
ENDBRANCH   1  23
TORSDOF 13
ENDMDL
MODEL 3
REMARK VINA RESULT:     -12.6      0.235      1.630
REMARK SMILES C=Cc1cc(Cl)cc2c1O[C@H](C(F)(F)F)C(C(=O)OCCOC(=O)c1ccc(-c3c4nc(c(-c5c(F)c(F)c(F)c(F)c5F)c5ccc([nH]5)c(-c5c(F)c(F)c(F)c(F)c5F)c5nc(c(-c6c(F)c(F)c(F)c(F)c6F)c6ccc3[nH]6)C=C5)C=C4)cc1)=C2
REMARK SMILES IDX 21 1 20 2 19 3 17 4 18 5 16 6 3 7 4 8 9 9 5 10 8 11 10 12
REMARK SMILES IDX 6 13 7 14 88 15 11 16 2 17 1 18 12 19 13 20 14 21 15 22
REMARK SMILES IDX 22 23 23 24 24 25 25 26 26 27 87 28 27 29 86 30 28 31 29 32
REMARK SMILES IDX 30 33 80 34 31 35 85 36 79 37 81 38 32 39 84 40 78 41 77 42
REMARK SMILES IDX 33 44 65 45 45 46 64 47 46 48 49 49 63 50 82 51 47 52 48 53
REMARK SMILES IDX 62 55 83 56 50 57 34 58 35 59 43 60 36 61 37 62 41 63 44 64
REMARK SMILES IDX 38 65 39 66 42 67 40 68 66 69 67 70 75 71 68 72 69 73 73 74
REMARK SMILES IDX 76 75 70 76 71 77 74 78 72 79 51 80 52 81 60 82 53 83 54 84
REMARK SMILES IDX 58 85 61 86 55 87 56 88 59 89 57 90
REMARK H PARENT 81 43 49 54
REMARK Flexibility Score: inf
ROOT
ATOM      1  C   UNL A   1      31.665  30.466  25.753  1.00  0.00     0.275 C 
ENDROOT
BRANCH   1   2
ATOM      2  C   UNL A   1      31.597  29.108  25.050  1.00  0.00     0.275 C 
BRANCH   2   3
ATOM      3  O   UNL A   1      32.465  28.135  25.675  1.00  0.00    -0.459 OA
BRANCH   3   4
ATOM      4  C   UNL A   1      31.845  27.167  26.390  1.00  0.00     0.338 C 
ATOM      5  O   UNL A   1      31.033  27.331  27.287  1.00  0.00    -0.246 OA
BRANCH   4   6
ATOM      6  C   UNL A   1      32.238  25.828  25.900  1.00  0.00     0.087 C 
ATOM      7  C   UNL A   1      33.454  22.118  24.339  1.00  0.00     0.018 A 
ATOM      8  C   UNL A   1      34.830  21.831  24.296  1.00  0.00     0.032 A 
ATOM      9  C   UNL A   1      33.025  23.348  24.875  1.00  0.00     0.135 A 
ATOM     10  C   UNL A   1      35.756  22.732  24.813  1.00  0.00     0.042 A 
ATOM     11  C   UNL A   1      33.970  24.256  25.360  1.00  0.00     0.019 A 
ATOM     12  O   UNL A   1      31.678  23.596  24.928  1.00  0.00    -0.475 OA
ATOM     13  Cl  UNL A   1      37.435  22.359  24.776  1.00  0.00    -0.084 Cl
ATOM     14  C   UNL A   1      35.334  23.942  25.347  1.00  0.00     0.032 A 
ATOM     15  C   UNL A   1      33.543  25.542  25.866  1.00  0.00     0.027 C 
ATOM     16  C   UNL A   1      31.191  24.902  25.351  1.00  0.00     0.316 C 
BRANCH   7  17
ATOM     17  C   UNL A   1      32.486  21.174  23.758  1.00  0.00     0.004 C 
ATOM     18  C   UNL A   1      32.116  21.173  22.471  1.00  0.00     0.009 C 
ENDBRANCH   7  17
BRANCH  16  19
ATOM     19  C   UNL A   1      30.459  25.552  24.165  1.00  0.00     0.430 C 
ATOM     20  F   UNL A   1      29.899  24.623  23.355  1.00  0.00    -0.167 F 
ATOM     21  F   UNL A   1      29.455  26.361  24.581  1.00  0.00    -0.167 F 
ATOM     22  F   UNL A   1      31.292  26.303  23.408  1.00  0.00    -0.167 F 
ENDBRANCH  16  19
ENDBRANCH   4   6
ENDBRANCH   3   4
ENDBRANCH   2   3
ENDBRANCH   1   2
BRANCH   1  23
ATOM     23  O   UNL A   1      32.536  30.401  26.897  1.00  0.00    -0.458 OA
BRANCH  23  24
ATOM     24  C   UNL A   1      33.162  31.554  27.218  1.00  0.00     0.338 C 
ATOM     25  O   UNL A   1      32.697  32.681  27.222  1.00  0.00    -0.246 OA
BRANCH  24  26
ATOM     26  C   UNL A   1      34.516  31.257  27.705  1.00  0.00     0.060 A 
ATOM     27  C   UNL A   1      35.437  32.259  27.982  1.00  0.00     0.016 A 
ATOM     28  C   UNL A   1      34.802  29.939  28.038  1.00  0.00     0.016 A 
ATOM     29  C   UNL A   1      36.653  31.913  28.587  1.00  0.00     0.010 A 
ATOM     30  C   UNL A   1      35.948  29.615  28.754  1.00  0.00     0.010 A 
ATOM     31  C   UNL A   1      36.910  30.592  29.016  1.00  0.00    -0.014 A 
BRANCH  31  32
ATOM     32  C   UNL A   1      38.165  30.239  29.743  1.00  0.00     0.031 A 
ATOM     33  C   UNL A   1      38.408  30.697  31.162  1.00  0.00     0.074 A 
ATOM     34  C   UNL A   1      39.121  29.529  29.108  1.00  0.00     0.049 A 
ATOM     35  N   UNL A   1      39.425  30.441  31.951  1.00  0.00    -0.248 NA
ATOM     36  C   UNL A   1      37.408  31.593  31.766  1.00  0.00     0.031 C 
ATOM     37  C   UNL A   1      39.079  29.127  27.701  1.00  0.00     0.029 A 
ATOM     38  N   UNL A   1      40.304  29.000  29.566  1.00  0.00    -0.354 N 
ATOM     39  C   UNL A   1      39.193  31.158  33.119  1.00  0.00     0.074 A 
ATOM     40  C   UNL A   1      37.983  31.919  32.914  1.00  0.00     0.031 C 
ATOM     41  C   UNL A   1      40.135  28.343  27.435  1.00  0.00     0.029 A 
ATOM     42  C   UNL A   1      40.948  28.214  28.640  1.00  0.00     0.049 A 
ATOM     43  H   UNL A   1      40.656  29.169  30.470  1.00  0.00     0.167 HD
ATOM     44  C   UNL A   1      39.895  31.147  34.278  1.00  0.00     0.037 A 
ATOM     45  C   UNL A   1      42.051  27.450  28.756  1.00  0.00     0.037 A 
ATOM     46  C   UNL A   1      41.059  30.336  34.510  1.00  0.00     0.049 A 
ATOM     47  C   UNL A   1      42.769  27.388  30.076  1.00  0.00     0.074 A 
ATOM     48  C   UNL A   1      41.784  30.182  35.679  1.00  0.00     0.029 A 
ATOM     49  N   UNL A   1      41.661  29.529  33.556  1.00  0.00    -0.354 N 
ATOM     50  N   UNL A   1      42.481  27.996  31.200  1.00  0.00    -0.248 NA
ATOM     51  C   UNL A   1      43.960  26.529  30.144  1.00  0.00     0.031 C 
ATOM     52  C   UNL A   1      42.841  29.301  35.426  1.00  0.00     0.029 A 
ATOM     53  C   UNL A   1      42.752  28.880  34.108  1.00  0.00     0.049 A 
ATOM     54  H   UNL A   1      41.356  29.432  32.625  1.00  0.00     0.167 HD
ATOM     55  C   UNL A   1      43.446  27.586  32.111  1.00  0.00     0.074 A 
ATOM     56  C   UNL A   1      44.313  26.659  31.416  1.00  0.00     0.031 C 
ATOM     57  C   UNL A   1      43.600  27.955  33.405  1.00  0.00     0.037 A 
BRANCH  44  58
ATOM     58  C   UNL A   1      39.392  31.996  35.412  1.00  0.00     0.064 A 
ATOM     59  C   UNL A   1      38.507  31.481  36.372  1.00  0.00     0.173 A 
ATOM     60  C   UNL A   1      39.849  33.312  35.582  1.00  0.00     0.173 A 
ATOM     61  F   UNL A   1      38.037  30.230  36.252  1.00  0.00    -0.203 F 
ATOM     62  C   UNL A   1      38.077  32.258  37.443  1.00  0.00     0.198 A 
ATOM     63  C   UNL A   1      39.440  34.077  36.673  1.00  0.00     0.198 A 
ATOM     64  F   UNL A   1      40.707  33.851  34.703  1.00  0.00    -0.203 F 
ATOM     65  F   UNL A   1      37.199  31.755  38.322  1.00  0.00    -0.200 F 
ATOM     66  C   UNL A   1      38.551  33.551  37.598  1.00  0.00     0.200 A 
ATOM     67  F   UNL A   1      39.912  35.321  36.832  1.00  0.00    -0.200 F 
ATOM     68  F   UNL A   1      38.147  34.294  38.639  1.00  0.00    -0.200 F 
ENDBRANCH  44  58
BRANCH  45  69
ATOM     69  C   UNL A   1      42.488  26.613  27.608  1.00  0.00     0.064 A 
ATOM     70  C   UNL A   1      43.480  27.073  26.730  1.00  0.00     0.173 A 
ATOM     71  C   UNL A   1      41.957  25.336  27.383  1.00  0.00     0.173 A 
ATOM     72  F   UNL A   1      44.006  28.296  26.895  1.00  0.00    -0.203 F 
ATOM     73  C   UNL A   1      43.918  26.289  25.665  1.00  0.00     0.198 A 
ATOM     74  C   UNL A   1      42.415  24.542  26.333  1.00  0.00     0.198 A 
ATOM     75  F   UNL A   1      41.012  24.849  28.200  1.00  0.00    -0.203 F 
ATOM     76  F   UNL A   1      44.847  26.764  24.824  1.00  0.00    -0.200 F 
ATOM     77  C   UNL A   1      43.391  25.021  25.473  1.00  0.00     0.200 A 
ATOM     78  F   UNL A   1      41.914  23.311  26.157  1.00  0.00    -0.200 F 
ATOM     79  F   UNL A   1      43.823  24.262  24.456  1.00  0.00    -0.200 F 
ENDBRANCH  45  69
BRANCH  57  80
ATOM     80  C   UNL A   1      44.745  27.356  34.166  1.00  0.00     0.064 A 
ATOM     81  C   UNL A   1      44.614  26.129  34.831  1.00  0.00     0.173 A 
ATOM     82  C   UNL A   1      46.005  27.974  34.161  1.00  0.00     0.173 A 
ATOM     83  F   UNL A   1      43.425  25.509  34.873  1.00  0.00    -0.203 F 
ATOM     84  C   UNL A   1      45.702  25.544  35.471  1.00  0.00     0.198 A 
ATOM     85  C   UNL A   1      47.097  27.373  34.780  1.00  0.00     0.198 A 
ATOM     86  F   UNL A   1      46.181  29.144  33.531  1.00  0.00    -0.203 F 
ATOM     87  F   UNL A   1      45.550  24.383  36.122  1.00  0.00    -0.200 F 
ATOM     88  C   UNL A   1      46.945  26.161  35.436  1.00  0.00     0.200 A 
ATOM     89  F   UNL A   1      48.299  27.963  34.734  1.00  0.00    -0.200 F 
ATOM     90  F   UNL A   1      47.995  25.587  36.038  1.00  0.00    -0.200 F 
ENDBRANCH  57  80
ENDBRANCH  31  32
ENDBRANCH  24  26
ENDBRANCH  23  24
ENDBRANCH   1  23
TORSDOF 13
ENDMDL
