MODEL 1
REMARK VINA RESULT:     -11.7      0.000      0.000
REMARK SMILES Cc1noc(C[N@@H+]2CCC[C@H]2C(=O)OCCOC(=O)c2ccc(-c3c4nc(c(-c5c(F)c(F)c(F)c(F)c5F)c5ccc([nH]5)c(-c5c(F)c(F)c(F)c(F)c5F)c5nc(c(-c6c(F)c(F)c(F)c(F)c6F)c6ccc3[nH]6)C=C5)C=C4)cc2)n1
REMARK SMILES IDX 15 1 14 2 12 3 13 4 11 5 7 6 8 7 9 9 10 10 6 11 5 12 1 13
REMARK SMILES IDX 2 14 3 15 83 16 4 17 16 18 17 19 18 20 19 21 20 22 21 23
REMARK SMILES IDX 82 24 22 25 81 26 23 27 24 28 25 29 75 30 26 31 80 32 74 33
REMARK SMILES IDX 76 34 27 35 79 36 73 37 72 38 28 40 60 41 40 42 59 43 41 44
REMARK SMILES IDX 44 45 58 46 77 47 42 48 43 49 57 51 78 52 45 53 29 54 30 55
REMARK SMILES IDX 38 56 31 57 32 58 36 59 39 60 33 61 34 62 37 63 35 64 61 65
REMARK SMILES IDX 62 66 70 67 63 68 64 69 68 70 71 71 65 72 66 73 69 74 67 75
REMARK SMILES IDX 46 76 47 77 55 78 48 79 49 80 53 81 56 82 50 83 51 84 54 85
REMARK SMILES IDX 52 86
REMARK H PARENT 7 8 76 39 44 50
REMARK Flexibility Score: inf
ROOT
ATOM      1  C   UNL A   1      31.658  28.563  27.464  1.00  0.00     0.274 C 
ENDROOT
BRANCH   1   2
ATOM      2  O   UNL A   1      32.245  27.623  26.541  1.00  0.00    -0.458 OA
BRANCH   2   3
ATOM      3  C   UNL A   1      31.375  26.770  25.919  1.00  0.00     0.365 C 
ATOM      4  O   UNL A   1      30.665  25.958  26.501  1.00  0.00    -0.245 OA
BRANCH   3   5
ATOM      5  C   UNL A   1      31.383  27.026  24.396  1.00  0.00     0.295 C 
ATOM      6  N   UNL A   1      32.398  28.055  24.059  1.00  0.00    -0.315 N 
ATOM      7  C   UNL A   1      33.651  27.329  23.819  1.00  0.00     0.263 C 
ATOM      8  H   UNL A   1      32.504  28.713  24.831  1.00  0.00     0.349 HD
ATOM      9  C   UNL A   1      33.260  25.969  23.262  1.00  0.00     0.068 C 
ATOM     10  C   UNL A   1      31.802  25.760  23.652  1.00  0.00     0.083 C 
BRANCH   6  11
ATOM     11  C   UNL A   1      32.005  28.946  22.945  1.00  0.00     0.364 C 
BRANCH  11  12
ATOM     12  C   UNL A   1      30.565  29.330  22.873  1.00  0.00     0.281 A 
ATOM     13  C   UNL A   1      27.662  31.202  23.456  1.00  0.00     0.093 C 
ATOM     14  C   UNL A   1      28.702  30.263  22.997  1.00  0.00     0.169 A 
ATOM     15  N   UNL A   1      28.650  29.643  21.812  1.00  0.00    -0.063 NA
ATOM     16  N   UNL A   1      29.856  30.062  23.705  1.00  0.00    -0.191 NA
ATOM     17  O   UNL A   1      29.894  29.010  21.728  1.00  0.00    -0.333 OA
ENDBRANCH  11  12
ENDBRANCH   6  11
ENDBRANCH   3   5
ENDBRANCH   2   3
ENDBRANCH   1   2
BRANCH   1  18
ATOM     18  C   UNL A   1      31.520  29.935  26.813  1.00  0.00     0.275 C 
BRANCH  18  19
ATOM     19  O   UNL A   1      32.821  30.403  26.424  1.00  0.00    -0.458 OA
BRANCH  19  20
ATOM     20  C   UNL A   1      33.296  31.470  27.104  1.00  0.00     0.338 C 
ATOM     21  O   UNL A   1      32.761  32.554  27.253  1.00  0.00    -0.246 OA
BRANCH  20  22
ATOM     22  C   UNL A   1      34.613  31.139  27.680  1.00  0.00     0.060 A 
ATOM     23  C   UNL A   1      34.931  29.822  28.006  1.00  0.00     0.016 A 
ATOM     24  C   UNL A   1      35.497  32.170  28.000  1.00  0.00     0.016 A 
ATOM     25  C   UNL A   1      36.084  29.545  28.741  1.00  0.00     0.010 A 
ATOM     26  C   UNL A   1      36.700  31.875  28.649  1.00  0.00     0.010 A 
ATOM     27  C   UNL A   1      36.991  30.564  29.063  1.00  0.00    -0.014 A 
BRANCH  27  28
ATOM     28  C   UNL A   1      38.214  30.276  29.865  1.00  0.00     0.031 A 
ATOM     29  C   UNL A   1      39.311  29.423  29.284  1.00  0.00     0.074 A 
ATOM     30  C   UNL A   1      38.359  30.773  31.109  1.00  0.00     0.049 A 
ATOM     31  N   UNL A   1      40.324  28.848  29.884  1.00  0.00    -0.248 NA
ATOM     32  C   UNL A   1      39.255  29.172  27.834  1.00  0.00     0.031 C 
ATOM     33  C   UNL A   1      37.419  31.669  31.782  1.00  0.00     0.029 A 
ATOM     34  N   UNL A   1      39.361  30.593  32.032  1.00  0.00    -0.354 N 
ATOM     35  C   UNL A   1      40.979  28.112  28.905  1.00  0.00     0.074 A 
ATOM     36  C   UNL A   1      40.262  28.324  27.665  1.00  0.00     0.031 C 
ATOM     37  C   UNL A   1      37.902  31.990  32.991  1.00  0.00     0.029 A 
ATOM     38  C   UNL A   1      39.134  31.242  33.222  1.00  0.00     0.049 A 
ATOM     39  H   UNL A   1      40.164  30.051  31.858  1.00  0.00     0.167 HD
ATOM     40  C   UNL A   1      42.071  27.323  29.034  1.00  0.00     0.037 A 
ATOM     41  C   UNL A   1      39.805  31.199  34.388  1.00  0.00     0.037 A 
ATOM     42  C   UNL A   1      42.824  27.169  30.252  1.00  0.00     0.049 A 
ATOM     43  C   UNL A   1      41.001  30.299  34.516  1.00  0.00     0.074 A 
ATOM     44  C   UNL A   1      43.948  26.396  30.484  1.00  0.00     0.029 A 
ATOM     45  N   UNL A   1      42.540  27.826  31.440  1.00  0.00    -0.354 N 
ATOM     46  N   UNL A   1      41.554  29.528  33.614  1.00  0.00    -0.248 NA
ATOM     47  C   UNL A   1      41.645  30.241  35.836  1.00  0.00     0.031 C 
ATOM     48  C   UNL A   1      44.331  26.566  31.819  1.00  0.00     0.029 A 
ATOM     49  C   UNL A   1      43.464  27.471  32.409  1.00  0.00     0.049 A 
ATOM     50  H   UNL A   1      41.791  28.451  31.575  1.00  0.00     0.167 HD
ATOM     51  C   UNL A   1      42.610  28.893  34.252  1.00  0.00     0.074 A 
ATOM     52  C   UNL A   1      42.635  29.387  35.613  1.00  0.00     0.031 C 
ATOM     53  C   UNL A   1      43.474  27.976  33.757  1.00  0.00     0.037 A 
BRANCH  40  54
ATOM     54  C   UNL A   1      42.503  26.528  27.838  1.00  0.00     0.064 A 
ATOM     55  C   UNL A   1      43.479  26.994  26.946  1.00  0.00     0.173 A 
ATOM     56  C   UNL A   1      41.959  25.253  27.611  1.00  0.00     0.173 A 
ATOM     57  F   UNL A   1      44.018  28.210  27.113  1.00  0.00    -0.203 F 
ATOM     58  C   UNL A   1      43.882  26.220  25.861  1.00  0.00     0.198 A 
ATOM     59  C   UNL A   1      42.381  24.473  26.538  1.00  0.00     0.198 A 
ATOM     60  F   UNL A   1      41.025  24.760  28.437  1.00  0.00    -0.203 F 
ATOM     61  F   UNL A   1      44.792  26.699  25.000  1.00  0.00    -0.200 F 
ATOM     62  C   UNL A   1      43.339  24.958  25.661  1.00  0.00     0.200 A 
ATOM     63  F   UNL A   1      41.862  23.251  26.354  1.00  0.00    -0.200 F 
ATOM     64  F   UNL A   1      43.735  24.214  24.620  1.00  0.00    -0.200 F 
ENDBRANCH  40  54
BRANCH  41  65
ATOM     65  C   UNL A   1      39.318  31.993  35.545  1.00  0.00     0.064 A 
ATOM     66  C   UNL A   1      38.462  31.424  36.498  1.00  0.00     0.173 A 
ATOM     67  C   UNL A   1      39.710  33.327  35.731  1.00  0.00     0.173 A 
ATOM     68  F   UNL A   1      38.036  30.162  36.348  1.00  0.00    -0.203 F 
ATOM     69  C   UNL A   1      38.015  32.163  37.592  1.00  0.00     0.198 A 
ATOM     70  C   UNL A   1      39.287  34.054  36.840  1.00  0.00     0.198 A 
ATOM     71  F   UNL A   1      40.525  33.917  34.844  1.00  0.00    -0.203 F 
ATOM     72  F   UNL A   1      37.170  31.608  38.473  1.00  0.00    -0.200 F 
ATOM     73  C   UNL A   1      38.436  33.473  37.768  1.00  0.00     0.200 A 
ATOM     74  F   UNL A   1      39.707  35.315  37.012  1.00  0.00    -0.200 F 
ATOM     75  F   UNL A   1      38.017  34.178  38.828  1.00  0.00    -0.200 F 
ENDBRANCH  41  65
BRANCH  53  76
ATOM     76  C   UNL A   1      44.531  27.464  34.687  1.00  0.00     0.064 A 
ATOM     77  C   UNL A   1      44.334  26.300  35.444  1.00  0.00     0.173 A 
ATOM     78  C   UNL A   1      45.764  28.123  34.794  1.00  0.00     0.173 A 
ATOM     79  F   UNL A   1      43.164  25.646  35.385  1.00  0.00    -0.203 F 
ATOM     80  C   UNL A   1      45.331  25.823  36.291  1.00  0.00     0.198 A 
ATOM     81  C   UNL A   1      46.766  27.633  35.626  1.00  0.00     0.198 A 
ATOM     82  F   UNL A   1      45.998  29.238  34.087  1.00  0.00    -0.203 F 
ATOM     83  F   UNL A   1      45.110  24.729  37.033  1.00  0.00    -0.200 F 
ATOM     84  C   UNL A   1      46.546  26.486  36.377  1.00  0.00     0.200 A 
ATOM     85  F   UNL A   1      47.942  28.269  35.705  1.00  0.00    -0.200 F 
ATOM     86  F   UNL A   1      47.505  26.024  37.191  1.00  0.00    -0.200 F 
ENDBRANCH  53  76
ENDBRANCH  27  28
ENDBRANCH  20  22
ENDBRANCH  19  20
ENDBRANCH  18  19
ENDBRANCH   1  18
TORSDOF 13
ENDMDL
MODEL 2
REMARK VINA RESULT:     -11.7      0.667      1.433
REMARK SMILES Cc1noc(C[N@@H+]2CCC[C@H]2C(=O)OCCOC(=O)c2ccc(-c3c4nc(c(-c5c(F)c(F)c(F)c(F)c5F)c5ccc([nH]5)c(-c5c(F)c(F)c(F)c(F)c5F)c5nc(c(-c6c(F)c(F)c(F)c(F)c6F)c6ccc3[nH]6)C=C5)C=C4)cc2)n1
REMARK SMILES IDX 15 1 14 2 12 3 13 4 11 5 7 6 8 7 9 9 10 10 6 11 5 12 1 13
REMARK SMILES IDX 2 14 3 15 83 16 4 17 16 18 17 19 18 20 19 21 20 22 21 23
REMARK SMILES IDX 82 24 22 25 81 26 23 27 24 28 25 29 75 30 26 31 80 32 74 33
REMARK SMILES IDX 76 34 27 35 79 36 73 37 72 38 28 40 60 41 40 42 59 43 41 44
REMARK SMILES IDX 44 45 58 46 77 47 42 48 43 49 57 51 78 52 45 53 29 54 30 55
REMARK SMILES IDX 38 56 31 57 32 58 36 59 39 60 33 61 34 62 37 63 35 64 61 65
REMARK SMILES IDX 62 66 70 67 63 68 64 69 68 70 71 71 65 72 66 73 69 74 67 75
REMARK SMILES IDX 46 76 47 77 55 78 48 79 49 80 53 81 56 82 50 83 51 84 54 85
REMARK SMILES IDX 52 86
REMARK H PARENT 7 8 76 39 44 50
REMARK Flexibility Score: inf
ROOT
ATOM      1  C   UNL A   1      31.718  28.419  27.340  1.00  0.00     0.274 C 
ENDROOT
BRANCH   1   2
ATOM      2  O   UNL A   1      31.421  27.445  26.318  1.00  0.00    -0.458 OA
BRANCH   2   3
ATOM      3  C   UNL A   1      32.492  26.981  25.605  1.00  0.00     0.365 C 
ATOM      4  O   UNL A   1      33.579  26.695  26.093  1.00  0.00    -0.245 OA
BRANCH   3   5
ATOM      5  C   UNL A   1      32.106  26.821  24.117  1.00  0.00     0.295 C 
ATOM      6  N   UNL A   1      31.513  28.082  23.608  1.00  0.00    -0.315 N 
ATOM      7  C   UNL A   1      32.634  28.885  23.103  1.00  0.00     0.263 C 
ATOM      8  H   UNL A   1      31.027  28.573  24.359  1.00  0.00     0.349 HD
ATOM      9  C   UNL A   1      33.679  27.899  22.604  1.00  0.00     0.068 C 
ATOM     10  C   UNL A   1      33.355  26.570  23.275  1.00  0.00     0.083 C 
BRANCH   6  11
ATOM     11  C   UNL A   1      30.432  27.883  22.618  1.00  0.00     0.364 C 
BRANCH  11  12
ATOM     12  C   UNL A   1      29.537  29.050  22.363  1.00  0.00     0.281 A 
ATOM     13  C   UNL A   1      27.981  31.629  20.576  1.00  0.00     0.093 C 
ATOM     14  C   UNL A   1      28.419  30.614  21.551  1.00  0.00     0.169 A 
ATOM     15  N   UNL A   1      27.627  30.152  22.527  1.00  0.00    -0.063 NA
ATOM     16  N   UNL A   1      29.630  29.985  21.442  1.00  0.00    -0.191 NA
ATOM     17  O   UNL A   1      28.376  29.108  23.078  1.00  0.00    -0.333 OA
ENDBRANCH  11  12
ENDBRANCH   6  11
ENDBRANCH   3   5
ENDBRANCH   2   3
ENDBRANCH   1   2
BRANCH   1  18
ATOM     18  C   UNL A   1      31.649  29.832  26.767  1.00  0.00     0.275 C 
BRANCH  18  19
ATOM     19  O   UNL A   1      32.977  30.265  26.428  1.00  0.00    -0.458 OA
BRANCH  19  20
ATOM     20  C   UNL A   1      33.440  31.340  27.103  1.00  0.00     0.338 C 
ATOM     21  O   UNL A   1      32.885  32.412  27.265  1.00  0.00    -0.246 OA
BRANCH  20  22
ATOM     22  C   UNL A   1      34.773  31.036  27.656  1.00  0.00     0.060 A 
ATOM     23  C   UNL A   1      35.138  29.722  27.940  1.00  0.00     0.016 A 
ATOM     24  C   UNL A   1      35.627  32.085  27.997  1.00  0.00     0.016 A 
ATOM     25  C   UNL A   1      36.308  29.461  28.655  1.00  0.00     0.010 A 
ATOM     26  C   UNL A   1      36.847  31.812  28.625  1.00  0.00     0.010 A 
ATOM     27  C   UNL A   1      37.184  30.499  28.997  1.00  0.00    -0.014 A 
BRANCH  27  28
ATOM     28  C   UNL A   1      38.425  30.228  29.778  1.00  0.00     0.031 A 
ATOM     29  C   UNL A   1      39.519  29.381  29.182  1.00  0.00     0.074 A 
ATOM     30  C   UNL A   1      38.589  30.736  31.015  1.00  0.00     0.049 A 
ATOM     31  N   UNL A   1      40.548  28.820  29.767  1.00  0.00    -0.248 NA
ATOM     32  C   UNL A   1      39.438  29.119  27.736  1.00  0.00     0.031 C 
ATOM     33  C   UNL A   1      37.653  31.629  31.699  1.00  0.00     0.029 A 
ATOM     34  N   UNL A   1      39.610  30.572  31.920  1.00  0.00    -0.354 N 
ATOM     35  C   UNL A   1      41.191  28.083  28.781  1.00  0.00     0.074 A 
ATOM     36  C   UNL A   1      40.449  28.279  27.554  1.00  0.00     0.031 C 
ATOM     37  C   UNL A   1      38.157  31.963  32.897  1.00  0.00     0.029 A 
ATOM     38  C   UNL A   1      39.399  31.228  33.109  1.00  0.00     0.049 A 
ATOM     39  H   UNL A   1      40.414  30.036  31.735  1.00  0.00     0.167 HD
ATOM     40  C   UNL A   1      42.293  27.304  28.896  1.00  0.00     0.037 A 
ATOM     41  C   UNL A   1      40.092  31.200  34.263  1.00  0.00     0.037 A 
ATOM     42  C   UNL A   1      43.070  27.167  30.100  1.00  0.00     0.049 A 
ATOM     43  C   UNL A   1      41.299  30.312  34.375  1.00  0.00     0.074 A 
ATOM     44  C   UNL A   1      44.206  26.405  30.316  1.00  0.00     0.029 A 
ATOM     45  N   UNL A   1      42.802  27.830  31.289  1.00  0.00    -0.354 N 
ATOM     46  N   UNL A   1      41.842  29.539  33.468  1.00  0.00    -0.248 NA
ATOM     47  C   UNL A   1      41.969  30.269  35.683  1.00  0.00     0.031 C 
ATOM     48  C   UNL A   1      44.612  26.589  31.642  1.00  0.00     0.029 A 
ATOM     49  C   UNL A   1      43.748  27.491  32.243  1.00  0.00     0.049 A 
ATOM     50  H   UNL A   1      42.050  28.449  31.433  1.00  0.00     0.167 HD
ATOM     51  C   UNL A   1      42.916  28.919  34.090  1.00  0.00     0.074 A 
ATOM     52  C   UNL A   1      42.962  29.423  35.447  1.00  0.00     0.031 C 
ATOM     53  C   UNL A   1      43.778  28.005  33.586  1.00  0.00     0.037 A 
BRANCH  40  54
ATOM     54  C   UNL A   1      42.710  26.505  27.697  1.00  0.00     0.064 A 
ATOM     55  C   UNL A   1      43.684  26.960  26.799  1.00  0.00     0.173 A 
ATOM     56  C   UNL A   1      42.152  25.234  27.475  1.00  0.00     0.173 A 
ATOM     57  F   UNL A   1      44.235  28.172  26.960  1.00  0.00    -0.203 F 
ATOM     58  C   UNL A   1      44.072  26.182  25.711  1.00  0.00     0.198 A 
ATOM     59  C   UNL A   1      42.560  24.450  26.400  1.00  0.00     0.198 A 
ATOM     60  F   UNL A   1      41.219  24.751  28.308  1.00  0.00    -0.203 F 
ATOM     61  F   UNL A   1      44.981  26.652  24.844  1.00  0.00    -0.200 F 
ATOM     62  C   UNL A   1      43.516  24.925  25.517  1.00  0.00     0.200 A 
ATOM     63  F   UNL A   1      42.028  23.233  26.221  1.00  0.00    -0.200 F 
ATOM     64  F   UNL A   1      43.898  24.176  24.473  1.00  0.00    -0.200 F 
ENDBRANCH  40  54
BRANCH  41  65
ATOM     65  C   UNL A   1      39.620  31.998  35.423  1.00  0.00     0.064 A 
ATOM     66  C   UNL A   1      40.102  33.294  35.649  1.00  0.00     0.173 A 
ATOM     67  C   UNL A   1      38.668  31.489  36.319  1.00  0.00     0.173 A 
ATOM     68  F   UNL A   1      41.035  33.813  34.838  1.00  0.00    -0.203 F 
ATOM     69  C   UNL A   1      39.649  34.050  36.730  1.00  0.00     0.198 A 
ATOM     70  C   UNL A   1      38.194  32.255  37.380  1.00  0.00     0.198 A 
ATOM     71  F   UNL A   1      38.179  30.252  36.147  1.00  0.00    -0.203 F 
ATOM     72  F   UNL A   1      40.150  35.274  36.944  1.00  0.00    -0.200 F 
ATOM     73  C   UNL A   1      38.689  33.534  37.587  1.00  0.00     0.200 A 
ATOM     74  F   UNL A   1      37.257  31.757  38.198  1.00  0.00    -0.200 F 
ATOM     75  F   UNL A   1      38.245  34.266  38.618  1.00  0.00    -0.200 F 
ENDBRANCH  41  65
BRANCH  53  76
ATOM     76  C   UNL A   1      44.858  27.510  34.500  1.00  0.00     0.064 A 
ATOM     77  C   UNL A   1      44.675  26.366  35.289  1.00  0.00     0.173 A 
ATOM     78  C   UNL A   1      46.096  28.165  34.558  1.00  0.00     0.173 A 
ATOM     79  F   UNL A   1      43.502  25.717  35.277  1.00  0.00    -0.203 F 
ATOM     80  C   UNL A   1      45.693  25.904  36.120  1.00  0.00     0.198 A 
ATOM     81  C   UNL A   1      47.117  27.689  35.375  1.00  0.00     0.198 A 
ATOM     82  F   UNL A   1      46.317  29.262  33.819  1.00  0.00    -0.203 F 
ATOM     83  F   UNL A   1      45.487  24.829  36.894  1.00  0.00    -0.200 F 
ATOM     84  C   UNL A   1      46.913  26.563  36.159  1.00  0.00     0.200 A 
ATOM     85  F   UNL A   1      48.298  28.322  35.407  1.00  0.00    -0.200 F 
ATOM     86  F   UNL A   1      47.891  26.115  36.957  1.00  0.00    -0.200 F 
ENDBRANCH  53  76
ENDBRANCH  27  28
ENDBRANCH  20  22
ENDBRANCH  19  20
ENDBRANCH  18  19
ENDBRANCH   1  18
TORSDOF 13
ENDMDL
MODEL 3
REMARK VINA RESULT:     -11.6      5.201     10.300
REMARK SMILES Cc1noc(C[N@@H+]2CCC[C@H]2C(=O)OCCOC(=O)c2ccc(-c3c4nc(c(-c5c(F)c(F)c(F)c(F)c5F)c5ccc([nH]5)c(-c5c(F)c(F)c(F)c(F)c5F)c5nc(c(-c6c(F)c(F)c(F)c(F)c6F)c6ccc3[nH]6)C=C5)C=C4)cc2)n1
REMARK SMILES IDX 15 1 14 2 12 3 13 4 11 5 7 6 8 7 9 9 10 10 6 11 5 12 1 13
REMARK SMILES IDX 2 14 3 15 83 16 4 17 16 18 17 19 18 20 19 21 20 22 21 23
REMARK SMILES IDX 82 24 22 25 81 26 23 27 24 28 25 29 75 30 26 31 80 32 74 33
REMARK SMILES IDX 76 34 27 35 79 36 73 37 72 38 28 40 60 41 40 42 59 43 41 44
REMARK SMILES IDX 44 45 58 46 77 47 42 48 43 49 57 51 78 52 45 53 29 54 30 55
REMARK SMILES IDX 38 56 31 57 32 58 36 59 39 60 33 61 34 62 37 63 35 64 61 65
REMARK SMILES IDX 62 66 70 67 63 68 64 69 68 70 71 71 65 72 66 73 69 74 67 75
REMARK SMILES IDX 46 76 47 77 55 78 48 79 49 80 53 81 56 82 50 83 51 84 54 85
REMARK SMILES IDX 52 86
REMARK H PARENT 7 8 76 39 44 50
REMARK Flexibility Score: inf
ROOT
ATOM      1  C   UNL A   1      36.694  22.713  23.492  1.00  0.00     0.274 C 
ENDROOT
BRANCH   1   2
ATOM      2  O   UNL A   1      35.587  23.393  24.119  1.00  0.00    -0.458 OA
BRANCH   2   3
ATOM      3  C   UNL A   1      34.367  23.227  23.523  1.00  0.00     0.365 C 
ATOM      4  O   UNL A   1      34.105  23.561  22.374  1.00  0.00    -0.245 OA
BRANCH   3   5
ATOM      5  C   UNL A   1      33.400  22.510  24.492  1.00  0.00     0.295 C 
ATOM      6  N   UNL A   1      34.112  22.144  25.742  1.00  0.00    -0.315 N 
ATOM      7  C   UNL A   1      33.967  23.293  26.644  1.00  0.00     0.263 C 
ATOM      8  H   UNL A   1      35.096  21.960  25.548  1.00  0.00     0.349 HD
ATOM      9  C   UNL A   1      32.634  23.941  26.306  1.00  0.00     0.068 C 
ATOM     10  C   UNL A   1      32.275  23.456  24.907  1.00  0.00     0.083 C 
BRANCH   6  11
ATOM     11  C   UNL A   1      33.667  20.864  26.335  1.00  0.00     0.364 C 
BRANCH  11  12
ATOM     12  C   UNL A   1      33.402  19.744  25.384  1.00  0.00     0.281 A 
ATOM     13  C   UNL A   1      34.048  16.904  23.439  1.00  0.00     0.093 C 
ATOM     14  C   UNL A   1      33.472  18.040  24.182  1.00  0.00     0.169 A 
ATOM     15  N   UNL A   1      32.194  18.078  24.577  1.00  0.00    -0.063 NA
ATOM     16  N   UNL A   1      34.246  19.077  24.628  1.00  0.00    -0.191 NA
ATOM     17  O   UNL A   1      32.141  19.223  25.376  1.00  0.00    -0.333 OA
ENDBRANCH  11  12
ENDBRANCH   6  11
ENDBRANCH   3   5
ENDBRANCH   2   3
ENDBRANCH   1   2
BRANCH   1  18
ATOM     18  C   UNL A   1      37.026  21.427  24.243  1.00  0.00     0.275 C 
BRANCH  18  19
ATOM     19  O   UNL A   1      37.399  21.755  25.592  1.00  0.00    -0.458 OA
BRANCH  19  20
ATOM     20  C   UNL A   1      38.683  21.505  25.929  1.00  0.00     0.338 C 
ATOM     21  O   UNL A   1      39.297  20.461  25.795  1.00  0.00    -0.246 OA
BRANCH  20  22
ATOM     22  C   UNL A   1      39.286  22.721  26.506  1.00  0.00     0.060 A 
ATOM     23  C   UNL A   1      38.829  23.983  26.129  1.00  0.00     0.016 A 
ATOM     24  C   UNL A   1      40.392  22.603  27.347  1.00  0.00     0.016 A 
ATOM     25  C   UNL A   1      39.537  25.123  26.512  1.00  0.00     0.010 A 
ATOM     26  C   UNL A   1      41.039  23.754  27.810  1.00  0.00     0.010 A 
ATOM     27  C   UNL A   1      40.644  25.027  27.365  1.00  0.00    -0.014 A 
BRANCH  27  28
ATOM     28  C   UNL A   1      41.414  26.240  27.760  1.00  0.00     0.031 A 
ATOM     29  C   UNL A   1      40.768  27.296  28.618  1.00  0.00     0.074 A 
ATOM     30  C   UNL A   1      42.691  26.409  27.363  1.00  0.00     0.049 A 
ATOM     31  N   UNL A   1      41.159  28.522  28.863  1.00  0.00    -0.248 NA
ATOM     32  C   UNL A   1      39.506  26.928  29.280  1.00  0.00     0.031 C 
ATOM     33  C   UNL A   1      43.475  25.446  26.589  1.00  0.00     0.029 A 
ATOM     34  N   UNL A   1      43.557  27.457  27.560  1.00  0.00    -0.354 N 
ATOM     35  C   UNL A   1      40.160  29.092  29.642  1.00  0.00     0.074 A 
ATOM     36  C   UNL A   1      39.151  28.074  29.846  1.00  0.00     0.031 C 
ATOM     37  C   UNL A   1      44.714  25.929  26.408  1.00  0.00     0.029 A 
ATOM     38  C   UNL A   1      44.781  27.277  26.962  1.00  0.00     0.049 A 
ATOM     39  H   UNL A   1      43.324  28.260  28.080  1.00  0.00     0.167 HD
ATOM     40  C   UNL A   1      40.088  30.352  30.131  1.00  0.00     0.037 A 
ATOM     41  C   UNL A   1      45.823  28.118  26.821  1.00  0.00     0.037 A 
ATOM     42  C   UNL A   1      41.125  31.340  29.986  1.00  0.00     0.049 A 
ATOM     43  C   UNL A   1      45.713  29.520  27.351  1.00  0.00     0.074 A 
ATOM     44  C   UNL A   1      41.149  32.645  30.449  1.00  0.00     0.029 A 
ATOM     45  N   UNL A   1      42.337  31.121  29.348  1.00  0.00    -0.354 N 
ATOM     46  N   UNL A   1      44.723  30.083  27.999  1.00  0.00    -0.248 NA
ATOM     47  C   UNL A   1      46.854  30.412  27.101  1.00  0.00     0.031 C 
ATOM     48  C   UNL A   1      42.366  33.222  30.070  1.00  0.00     0.029 A 
ATOM     49  C   UNL A   1      43.114  32.267  29.400  1.00  0.00     0.049 A 
ATOM     50  H   UNL A   1      42.606  30.276  28.920  1.00  0.00     0.167 HD
ATOM     51  C   UNL A   1      45.119  31.391  28.235  1.00  0.00     0.074 A 
ATOM     52  C   UNL A   1      46.449  31.533  27.682  1.00  0.00     0.031 C 
ATOM     53  C   UNL A   1      44.436  32.388  28.846  1.00  0.00     0.037 A 
BRANCH  40  54
ATOM     54  C   UNL A   1      38.829  30.756  30.839  1.00  0.00     0.064 A 
ATOM     55  C   UNL A   1      38.694  30.665  32.230  1.00  0.00     0.173 A 
ATOM     56  C   UNL A   1      37.755  31.288  30.106  1.00  0.00     0.173 A 
ATOM     57  F   UNL A   1      39.686  30.151  32.971  1.00  0.00    -0.203 F 
ATOM     58  C   UNL A   1      37.523  31.076  32.863  1.00  0.00     0.198 A 
ATOM     59  C   UNL A   1      36.595  31.719  30.745  1.00  0.00     0.198 A 
ATOM     60  F   UNL A   1      37.836  31.399  28.772  1.00  0.00    -0.203 F 
ATOM     61  F   UNL A   1      37.402  30.949  34.192  1.00  0.00    -0.200 F 
ATOM     62  C   UNL A   1      36.478  31.609  32.121  1.00  0.00     0.200 A 
ATOM     63  F   UNL A   1      35.591  32.243  30.026  1.00  0.00    -0.200 F 
ATOM     64  F   UNL A   1      35.356  32.011  32.734  1.00  0.00    -0.200 F 
ENDBRANCH  40  54
BRANCH  41  65
ATOM     65  C   UNL A   1      47.037  27.670  26.093  1.00  0.00     0.064 A 
ATOM     66  C   UNL A   1      48.145  27.164  26.785  1.00  0.00     0.173 A 
ATOM     67  C   UNL A   1      47.108  27.722  24.693  1.00  0.00     0.173 A 
ATOM     68  F   UNL A   1      48.136  27.122  28.125  1.00  0.00    -0.203 F 
ATOM     69  C   UNL A   1      49.280  26.728  26.102  1.00  0.00     0.198 A 
ATOM     70  C   UNL A   1      48.229  27.259  24.011  1.00  0.00     0.198 A 
ATOM     71  F   UNL A   1      46.074  28.201  23.986  1.00  0.00    -0.203 F 
ATOM     72  F   UNL A   1      50.340  26.280  26.788  1.00  0.00    -0.200 F 
ATOM     73  C   UNL A   1      49.317  26.767  24.716  1.00  0.00     0.200 A 
ATOM     74  F   UNL A   1      48.255  27.286  22.671  1.00  0.00    -0.200 F 
ATOM     75  F   UNL A   1      50.403  26.336  24.060  1.00  0.00    -0.200 F 
ENDBRANCH  41  65
BRANCH  53  76
ATOM     76  C   UNL A   1      45.126  33.712  28.967  1.00  0.00     0.064 A 
ATOM     77  C   UNL A   1      45.970  33.998  30.049  1.00  0.00     0.173 A 
ATOM     78  C   UNL A   1      44.968  34.689  27.973  1.00  0.00     0.173 A 
ATOM     79  F   UNL A   1      46.137  33.100  31.031  1.00  0.00    -0.203 F 
ATOM     80  C   UNL A   1      46.620  35.226  30.141  1.00  0.00     0.198 A 
ATOM     81  C   UNL A   1      45.635  35.908  28.058  1.00  0.00     0.198 A 
ATOM     82  F   UNL A   1      44.173  34.459  26.918  1.00  0.00    -0.203 F 
ATOM     83  F   UNL A   1      47.394  35.494  31.201  1.00  0.00    -0.200 F 
ATOM     84  C   UNL A   1      46.456  36.177  29.144  1.00  0.00     0.200 A 
ATOM     85  F   UNL A   1      45.483  36.823  27.091  1.00  0.00    -0.200 F 
ATOM     86  F   UNL A   1      47.085  37.356  29.233  1.00  0.00    -0.200 F 
ENDBRANCH  53  76
ENDBRANCH  27  28
ENDBRANCH  20  22
ENDBRANCH  19  20
ENDBRANCH  18  19
ENDBRANCH   1  18
TORSDOF 13
ENDMDL
