MODEL 1
REMARK VINA RESULT:     -12.2      0.000      0.000
REMARK SMILES CCSc1ccc(-c2cc(Cl)cc3c2O[C@H](C(F)(F)F)C(C(=O)OCCOC(=O)c2ccc(-c4c5nc(c(-c6c(F)c(F)c(F)c(F)c6F)c6ccc([nH]6)c(-c6c(F)c(F)c(F)c(F)c6F)c6nc(c(-c7c(F)c(F)c(F)c(F)c7F)c7ccc4[nH]7)C=C6)C=C5)cc2)=C3)cc1
REMARK SMILES IDX 25 1 24 2 22 3 23 4 21 5 8 6 9 7 14 8 10 9 13 10 15 11 11 12
REMARK SMILES IDX 12 13 93 14 16 15 7 16 4 17 5 18 95 19 6 20 94 21 3 22 2 23
REMARK SMILES IDX 1 24 17 25 18 26 19 27 20 28 26 29 27 30 28 31 29 32 30 33
REMARK SMILES IDX 31 34 92 35 32 36 91 37 33 38 34 39 35 40 85 41 36 42 90 43
REMARK SMILES IDX 84 44 86 45 37 46 89 47 83 48 82 49 38 51 70 52 50 53 69 54
REMARK SMILES IDX 51 55 54 56 68 57 87 58 52 59 53 60 67 62 88 63 55 64 39 65
REMARK SMILES IDX 40 66 48 67 41 68 42 69 46 70 49 71 43 72 44 73 47 74 45 75
REMARK SMILES IDX 71 76 72 77 80 78 73 79 74 80 78 81 81 82 75 83 76 84 79 85
REMARK SMILES IDX 77 86 56 87 57 88 65 89 58 90 59 91 63 92 66 93 60 94 61 95
REMARK SMILES IDX 64 96 62 97
REMARK H PARENT 86 50 54 61
REMARK Flexibility Score: inf
ROOT
ATOM      1  C   UNL A   1      31.520  32.613  26.497  1.00  0.00     0.275 C 
ENDROOT
BRANCH   1   2
ATOM      2  O   UNL A   1      31.325  31.290  27.062  1.00  0.00    -0.459 OA
BRANCH   2   3
ATOM      3  C   UNL A   1      31.773  30.306  26.239  1.00  0.00     0.338 C 
ATOM      4  O   UNL A   1      31.509  30.238  25.043  1.00  0.00    -0.246 OA
BRANCH   3   5
ATOM      5  C   UNL A   1      32.702  29.341  26.880  1.00  0.00     0.087 C 
ATOM      6  C   UNL A   1      33.174  25.569  25.401  1.00  0.00     0.026 A 
ATOM      7  C   UNL A   1      31.949  25.441  24.704  1.00  0.00     0.033 A 
ATOM      8  C   UNL A   1      33.225  26.701  26.230  1.00  0.00     0.135 A 
ATOM      9  C   UNL A   1      30.822  26.236  24.945  1.00  0.00     0.042 A 
ATOM     10  C   UNL A   1      32.010  27.288  26.673  1.00  0.00     0.019 A 
ATOM     11  O   UNL A   1      34.367  27.468  26.467  1.00  0.00    -0.475 OA
ATOM     12  Cl  UNL A   1      29.432  26.280  23.942  1.00  0.00    -0.084 Cl
ATOM     13  C   UNL A   1      30.810  27.069  26.029  1.00  0.00     0.032 A 
ATOM     14  C   UNL A   1      32.065  28.417  27.617  1.00  0.00     0.027 C 
ATOM     15  C   UNL A   1      34.084  28.964  26.383  1.00  0.00     0.316 C 
BRANCH   6  16
ATOM     16  C   UNL A   1      34.078  24.365  25.286  1.00  0.00    -0.015 A 
ATOM     17  C   UNL A   1      36.416  22.637  25.020  1.00  0.00     0.007 A 
ATOM     18  C   UNL A   1      35.778  22.841  26.250  1.00  0.00     0.015 A 
ATOM     19  C   UNL A   1      35.859  23.279  23.915  1.00  0.00     0.015 A 
ATOM     20  C   UNL A   1      34.612  23.648  26.368  1.00  0.00     0.010 A 
ATOM     21  C   UNL A   1      34.733  24.135  24.053  1.00  0.00     0.010 A 
BRANCH  17  22
ATOM     22  S   UNL A   1      37.608  21.299  24.876  1.00  0.00    -0.126 SA
BRANCH  22  23
ATOM     23  C   UNL A   1      39.051  21.699  25.940  1.00  0.00     0.071 C 
ATOM     24  C   UNL A   1      40.032  20.565  26.129  1.00  0.00     0.016 C 
ENDBRANCH  22  23
ENDBRANCH  17  22
ENDBRANCH   6  16
BRANCH  15  25
ATOM     25  C   UNL A   1      35.050  29.769  27.266  1.00  0.00     0.430 C 
ATOM     26  F   UNL A   1      35.057  29.314  28.543  1.00  0.00    -0.167 F 
ATOM     27  F   UNL A   1      36.318  29.736  26.809  1.00  0.00    -0.167 F 
ATOM     28  F   UNL A   1      34.681  31.076  27.319  1.00  0.00    -0.167 F 
ENDBRANCH  15  25
ENDBRANCH   3   5
ENDBRANCH   2   3
ENDBRANCH   1   2
BRANCH   1  29
ATOM     29  C   UNL A   1      32.616  33.420  27.202  1.00  0.00     0.275 C 
BRANCH  29  30
ATOM     30  O   UNL A   1      32.153  33.945  28.460  1.00  0.00    -0.458 OA
BRANCH  30  31
ATOM     31  C   UNL A   1      32.920  34.951  28.949  1.00  0.00     0.338 C 
ATOM     32  O   UNL A   1      32.567  36.101  29.128  1.00  0.00    -0.246 OA
BRANCH  31  33
ATOM     33  C   UNL A   1      34.244  34.444  29.395  1.00  0.00     0.060 A 
ATOM     34  C   UNL A   1      34.226  33.567  30.472  1.00  0.00     0.016 A 
ATOM     35  C   UNL A   1      35.476  34.790  28.823  1.00  0.00     0.016 A 
ATOM     36  C   UNL A   1      35.421  33.009  30.925  1.00  0.00     0.010 A 
ATOM     37  C   UNL A   1      36.682  34.202  29.288  1.00  0.00     0.010 A 
ATOM     38  C   UNL A   1      36.668  33.266  30.327  1.00  0.00    -0.014 A 
BRANCH  38  39
ATOM     39  C   UNL A   1      37.874  32.563  30.908  1.00  0.00     0.031 A 
ATOM     40  C   UNL A   1      38.243  32.859  32.332  1.00  0.00     0.074 A 
ATOM     41  C   UNL A   1      38.512  31.531  30.306  1.00  0.00     0.049 A 
ATOM     42  N   UNL A   1      39.080  32.234  33.117  1.00  0.00    -0.248 NA
ATOM     43  C   UNL A   1      37.571  34.009  32.952  1.00  0.00     0.031 C 
ATOM     44  C   UNL A   1      38.255  31.085  28.952  1.00  0.00     0.029 A 
ATOM     45  N   UNL A   1      39.429  30.601  30.759  1.00  0.00    -0.354 N 
ATOM     46  C   UNL A   1      39.031  32.908  34.324  1.00  0.00     0.074 A 
ATOM     47  C   UNL A   1      38.061  33.973  34.179  1.00  0.00     0.031 C 
ATOM     48  C   UNL A   1      38.790  29.872  28.749  1.00  0.00     0.029 A 
ATOM     49  C   UNL A   1      39.647  29.550  29.881  1.00  0.00     0.049 A 
ATOM     50  H   UNL A   1      39.886  30.677  31.627  1.00  0.00     0.167 HD
ATOM     51  C   UNL A   1      39.767  32.695  35.438  1.00  0.00     0.037 A 
ATOM     52  C   UNL A   1      40.485  28.487  29.931  1.00  0.00     0.037 A 
ATOM     53  C   UNL A   1      40.815  31.715  35.548  1.00  0.00     0.049 A 
ATOM     54  C   UNL A   1      41.451  28.423  31.084  1.00  0.00     0.074 A 
ATOM     55  C   UNL A   1      41.654  31.476  36.621  1.00  0.00     0.029 A 
ATOM     56  N   UNL A   1      41.202  30.847  34.537  1.00  0.00    -0.354 N 
ATOM     57  N   UNL A   1      41.479  29.147  32.175  1.00  0.00    -0.248 NA
ATOM     58  C   UNL A   1      42.541  27.441  30.992  1.00  0.00     0.031 C 
ATOM     59  C   UNL A   1      42.601  30.524  36.228  1.00  0.00     0.029 A 
ATOM     60  C   UNL A   1      42.292  30.093  34.948  1.00  0.00     0.049 A 
ATOM     61  H   UNL A   1      40.767  30.775  33.656  1.00  0.00     0.167 HD
ATOM     62  C   UNL A   1      42.550  28.680  32.923  1.00  0.00     0.074 A 
ATOM     63  C   UNL A   1      43.173  27.631  32.143  1.00  0.00     0.031 C 
ATOM     64  C   UNL A   1      42.937  29.062  34.166  1.00  0.00     0.037 A 
BRANCH  51  65
ATOM     65  C   UNL A   1      39.536  33.653  36.567  1.00  0.00     0.064 A 
ATOM     66  C   UNL A   1      40.205  34.884  36.647  1.00  0.00     0.173 A 
ATOM     67  C   UNL A   1      38.699  33.285  37.632  1.00  0.00     0.173 A 
ATOM     68  F   UNL A   1      41.047  35.259  35.672  1.00  0.00    -0.203 F 
ATOM     69  C   UNL A   1      40.078  35.691  37.775  1.00  0.00     0.198 A 
ATOM     70  C   UNL A   1      38.551  34.109  38.742  1.00  0.00     0.198 A 
ATOM     71  F   UNL A   1      38.050  32.112  37.608  1.00  0.00    -0.203 F 
ATOM     72  F   UNL A   1      40.791  36.822  37.870  1.00  0.00    -0.200 F 
ATOM     73  C   UNL A   1      39.253  35.303  38.820  1.00  0.00     0.200 A 
ATOM     74  F   UNL A   1      37.756  33.731  39.751  1.00  0.00    -0.200 F 
ATOM     75  F   UNL A   1      39.152  36.068  39.915  1.00  0.00    -0.200 F 
ENDBRANCH  51  65
BRANCH  52  76
ATOM     76  C   UNL A   1      40.539  27.466  28.826  1.00  0.00     0.064 A 
ATOM     77  C   UNL A   1      41.367  27.615  27.698  1.00  0.00     0.173 A 
ATOM     78  C   UNL A   1      39.737  26.315  28.853  1.00  0.00     0.173 A 
ATOM     79  F   UNL A   1      42.096  28.722  27.532  1.00  0.00    -0.203 F 
ATOM     80  C   UNL A   1      41.422  26.656  26.683  1.00  0.00     0.198 A 
ATOM     81  C   UNL A   1      39.810  25.342  27.853  1.00  0.00     0.198 A 
ATOM     82  F   UNL A   1      38.876  26.123  29.863  1.00  0.00    -0.203 F 
ATOM     83  F   UNL A   1      42.210  26.858  25.617  1.00  0.00    -0.200 F 
ATOM     84  C   UNL A   1      40.654  25.512  26.769  1.00  0.00     0.200 A 
ATOM     85  F   UNL A   1      39.055  24.239  27.943  1.00  0.00    -0.200 F 
ATOM     86  F   UNL A   1      40.712  24.586  25.802  1.00  0.00    -0.200 F 
ENDBRANCH  52  76
BRANCH  64  87
ATOM     87  C   UNL A   1      44.045  28.282  34.818  1.00  0.00     0.064 A 
ATOM     88  C   UNL A   1      43.825  27.092  35.525  1.00  0.00     0.173 A 
ATOM     89  C   UNL A   1      45.371  28.731  34.690  1.00  0.00     0.173 A 
ATOM     90  F   UNL A   1      42.579  26.628  35.698  1.00  0.00    -0.203 F 
ATOM     91  C   UNL A   1      44.888  26.392  36.096  1.00  0.00     0.198 A 
ATOM     92  C   UNL A   1      46.433  28.008  35.224  1.00  0.00     0.198 A 
ATOM     93  F   UNL A   1      45.638  29.869  34.030  1.00  0.00    -0.203 F 
ATOM     94  F   UNL A   1      44.651  25.286  36.815  1.00  0.00    -0.200 F 
ATOM     95  C   UNL A   1      46.191  26.843  35.934  1.00  0.00     0.200 A 
ATOM     96  F   UNL A   1      47.689  28.440  35.051  1.00  0.00    -0.200 F 
ATOM     97  F   UNL A   1      47.211  26.162  36.472  1.00  0.00    -0.200 F 
ENDBRANCH  64  87
ENDBRANCH  38  39
ENDBRANCH  31  33
ENDBRANCH  30  31
ENDBRANCH  29  30
ENDBRANCH   1  29
TORSDOF 15
ENDMDL
MODEL 2
REMARK VINA RESULT:     -11.9      2.857      3.950
REMARK SMILES CCSc1ccc(-c2cc(Cl)cc3c2O[C@H](C(F)(F)F)C(C(=O)OCCOC(=O)c2ccc(-c4c5nc(c(-c6c(F)c(F)c(F)c(F)c6F)c6ccc([nH]6)c(-c6c(F)c(F)c(F)c(F)c6F)c6nc(c(-c7c(F)c(F)c(F)c(F)c7F)c7ccc4[nH]7)C=C6)C=C5)cc2)=C3)cc1
REMARK SMILES IDX 25 1 24 2 22 3 23 4 21 5 8 6 9 7 14 8 10 9 13 10 15 11 11 12
REMARK SMILES IDX 12 13 93 14 16 15 7 16 4 17 5 18 95 19 6 20 94 21 3 22 2 23
REMARK SMILES IDX 1 24 17 25 18 26 19 27 20 28 26 29 27 30 28 31 29 32 30 33
REMARK SMILES IDX 31 34 92 35 32 36 91 37 33 38 34 39 35 40 85 41 36 42 90 43
REMARK SMILES IDX 84 44 86 45 37 46 89 47 83 48 82 49 38 51 70 52 50 53 69 54
REMARK SMILES IDX 51 55 54 56 68 57 87 58 52 59 53 60 67 62 88 63 55 64 39 65
REMARK SMILES IDX 40 66 48 67 41 68 42 69 46 70 49 71 43 72 44 73 47 74 45 75
REMARK SMILES IDX 71 76 72 77 80 78 73 79 74 80 78 81 81 82 75 83 76 84 79 85
REMARK SMILES IDX 77 86 56 87 57 88 65 89 58 90 59 91 63 92 66 93 60 94 61 95
REMARK SMILES IDX 64 96 62 97
REMARK H PARENT 86 50 54 61
REMARK Flexibility Score: inf
ROOT
ATOM      1  C   UNL A   1      31.404  28.751  25.871  1.00  0.00     0.275 C 
ENDROOT
BRANCH   1   2
ATOM      2  O   UNL A   1      30.791  28.383  24.608  1.00  0.00    -0.459 OA
BRANCH   2   3
ATOM      3  C   UNL A   1      30.603  27.041  24.495  1.00  0.00     0.338 C 
ATOM      4  O   UNL A   1      29.519  26.485  24.640  1.00  0.00    -0.246 OA
BRANCH   3   5
ATOM      5  C   UNL A   1      31.811  26.282  24.084  1.00  0.00     0.087 C 
ATOM      6  C   UNL A   1      32.047  22.246  24.624  1.00  0.00     0.026 A 
ATOM      7  C   UNL A   1      31.098  22.097  25.662  1.00  0.00     0.033 A 
ATOM      8  C   UNL A   1      32.374  23.585  24.358  1.00  0.00     0.135 A 
ATOM      9  C   UNL A   1      30.662  23.144  26.483  1.00  0.00     0.042 A 
ATOM     10  C   UNL A   1      32.164  24.560  25.368  1.00  0.00     0.019 A 
ATOM     11  O   UNL A   1      32.662  24.103  23.094  1.00  0.00    -0.475 OA
ATOM     12  Cl  UNL A   1      29.329  23.046  27.557  1.00  0.00    -0.084 Cl
ATOM     13  C   UNL A   1      31.301  24.351  26.425  1.00  0.00     0.032 A 
ATOM     14  C   UNL A   1      32.594  25.948  25.122  1.00  0.00     0.027 C 
ATOM     15  C   UNL A   1      31.950  25.428  22.838  1.00  0.00     0.316 C 
BRANCH   6  16
ATOM     16  C   UNL A   1      32.673  20.948  24.169  1.00  0.00    -0.015 A 
ATOM     17  C   UNL A   1      33.441  18.141  23.941  1.00  0.00     0.007 A 
ATOM     18  C   UNL A   1      32.494  18.725  23.090  1.00  0.00     0.015 A 
ATOM     19  C   UNL A   1      34.025  18.978  24.889  1.00  0.00     0.015 A 
ATOM     20  C   UNL A   1      32.155  20.105  23.174  1.00  0.00     0.010 A 
ATOM     21  C   UNL A   1      33.635  20.339  25.010  1.00  0.00     0.010 A 
BRANCH  17  22
ATOM     22  S   UNL A   1      34.111  16.529  23.511  1.00  0.00    -0.126 SA
BRANCH  22  23
ATOM     23  C   UNL A   1      34.023  15.455  24.997  1.00  0.00     0.071 C 
ATOM     24  C   UNL A   1      32.623  15.083  25.427  1.00  0.00     0.016 C 
ENDBRANCH  22  23
ENDBRANCH  17  22
ENDBRANCH   6  16
BRANCH  15  25
ATOM     25  C   UNL A   1      32.733  26.304  21.849  1.00  0.00     0.430 C 
ATOM     26  F   UNL A   1      32.477  25.958  20.563  1.00  0.00    -0.167 F 
ATOM     27  F   UNL A   1      32.454  27.616  21.986  1.00  0.00    -0.167 F 
ATOM     28  F   UNL A   1      34.072  26.162  22.033  1.00  0.00    -0.167 F 
ENDBRANCH  15  25
ENDBRANCH   3   5
ENDBRANCH   2   3
ENDBRANCH   1   2
BRANCH   1  29
ATOM     29  C   UNL A   1      31.748  30.240  25.969  1.00  0.00     0.275 C 
BRANCH  29  30
ATOM     30  O   UNL A   1      33.153  30.437  26.221  1.00  0.00    -0.458 OA
BRANCH  30  31
ATOM     31  C   UNL A   1      33.419  31.474  27.054  1.00  0.00     0.338 C 
ATOM     32  O   UNL A   1      32.664  32.387  27.328  1.00  0.00    -0.246 OA
BRANCH  31  33
ATOM     33  C   UNL A   1      34.726  31.288  27.737  1.00  0.00     0.060 A 
ATOM     34  C   UNL A   1      35.014  29.995  28.154  1.00  0.00     0.016 A 
ATOM     35  C   UNL A   1      35.658  32.305  27.989  1.00  0.00     0.016 A 
ATOM     36  C   UNL A   1      36.239  29.725  28.763  1.00  0.00     0.010 A 
ATOM     37  C   UNL A   1      36.906  32.010  28.596  1.00  0.00     0.010 A 
ATOM     38  C   UNL A   1      37.234  30.700  28.960  1.00  0.00    -0.014 A 
BRANCH  38  39
ATOM     39  C   UNL A   1      38.526  30.252  29.604  1.00  0.00     0.031 A 
ATOM     40  C   UNL A   1      38.764  30.626  31.037  1.00  0.00     0.074 A 
ATOM     41  C   UNL A   1      39.381  29.360  29.047  1.00  0.00     0.049 A 
ATOM     42  N   UNL A   1      39.671  30.184  31.869  1.00  0.00    -0.248 NA
ATOM     43  C   UNL A   1      37.852  31.627  31.608  1.00  0.00     0.031 C 
ATOM     44  C   UNL A   1      39.279  28.862  27.692  1.00  0.00     0.029 A 
ATOM     45  N   UNL A   1      40.440  28.632  29.555  1.00  0.00    -0.354 N 
ATOM     46  C   UNL A   1      39.436  30.845  33.061  1.00  0.00     0.074 A 
ATOM     47  C   UNL A   1      38.283  31.697  32.856  1.00  0.00     0.031 C 
ATOM     48  C   UNL A   1      40.050  27.776  27.533  1.00  0.00     0.029 A 
ATOM     49  C   UNL A   1      40.900  27.638  28.706  1.00  0.00     0.049 A 
ATOM     50  H   UNL A   1      40.833  28.804  30.441  1.00  0.00     0.167 HD
ATOM     51  C   UNL A   1      40.147  30.789  34.209  1.00  0.00     0.037 A 
ATOM     52  C   UNL A   1      41.926  26.760  28.810  1.00  0.00     0.037 A 
ATOM     53  C   UNL A   1      41.361  30.036  34.381  1.00  0.00     0.049 A 
ATOM     54  C   UNL A   1      42.833  26.896  30.005  1.00  0.00     0.074 A 
ATOM     55  C   UNL A   1      42.180  29.974  35.493  1.00  0.00     0.029 A 
ATOM     56  N   UNL A   1      41.956  29.252  33.402  1.00  0.00    -0.354 N 
ATOM     57  N   UNL A   1      42.668  27.621  31.083  1.00  0.00    -0.248 NA
ATOM     58  C   UNL A   1      44.097  26.147  29.977  1.00  0.00     0.031 C 
ATOM     59  C   UNL A   1      43.312  29.224  35.158  1.00  0.00     0.029 A 
ATOM     60  C   UNL A   1      43.153  28.730  33.873  1.00  0.00     0.049 A 
ATOM     61  H   UNL A   1      41.584  29.089  32.505  1.00  0.00     0.167 HD
ATOM     62  C   UNL A   1      43.774  27.379  31.885  1.00  0.00     0.074 A 
ATOM     63  C   UNL A   1      44.626  26.467  31.151  1.00  0.00     0.031 C 
ATOM     64  C   UNL A   1      44.022  27.840  33.137  1.00  0.00     0.037 A 
BRANCH  51  65
ATOM     65  C   UNL A   1      39.681  31.693  35.311  1.00  0.00     0.064 A 
ATOM     66  C   UNL A   1      38.688  31.303  36.222  1.00  0.00     0.173 A 
ATOM     67  C   UNL A   1      40.175  33.004  35.391  1.00  0.00     0.173 A 
ATOM     68  F   UNL A   1      38.157  30.073  36.156  1.00  0.00    -0.203 F 
ATOM     69  C   UNL A   1      38.175  32.211  37.145  1.00  0.00     0.198 A 
ATOM     70  C   UNL A   1      39.681  33.897  36.336  1.00  0.00     0.198 A 
ATOM     71  F   UNL A   1      41.114  33.427  34.532  1.00  0.00    -0.203 F 
ATOM     72  F   UNL A   1      37.167  31.845  37.950  1.00  0.00    -0.200 F 
ATOM     73  C   UNL A   1      38.671  33.505  37.201  1.00  0.00     0.200 A 
ATOM     74  F   UNL A   1      40.160  35.146  36.386  1.00  0.00    -0.200 F 
ATOM     75  F   UNL A   1      38.158  34.384  38.073  1.00  0.00    -0.200 F 
ENDBRANCH  51  65
BRANCH  52  76
ATOM     76  C   UNL A   1      42.231  25.761  27.726  1.00  0.00     0.064 A 
ATOM     77  C   UNL A   1      41.688  24.463  27.718  1.00  0.00     0.173 A 
ATOM     78  C   UNL A   1      43.103  26.070  26.671  1.00  0.00     0.173 A 
ATOM     79  F   UNL A   1      40.923  24.041  28.728  1.00  0.00    -0.203 F 
ATOM     80  C   UNL A   1      41.964  23.547  26.700  1.00  0.00     0.198 A 
ATOM     81  C   UNL A   1      43.360  25.165  25.638  1.00  0.00     0.198 A 
ATOM     82  F   UNL A   1      43.710  27.265  26.633  1.00  0.00    -0.203 F 
ATOM     83  F   UNL A   1      41.440  22.314  26.752  1.00  0.00    -0.200 F 
ATOM     84  C   UNL A   1      42.789  23.905  25.652  1.00  0.00     0.200 A 
ATOM     85  F   UNL A   1      44.168  25.520  24.629  1.00  0.00    -0.200 F 
ATOM     86  F   UNL A   1      43.048  23.031  24.669  1.00  0.00    -0.200 F 
ENDBRANCH  52  76
BRANCH  64  87
ATOM     87  C   UNL A   1      45.231  27.298  33.850  1.00  0.00     0.064 A 
ATOM     88  C   UNL A   1      45.210  26.105  34.586  1.00  0.00     0.173 A 
ATOM     89  C   UNL A   1      46.453  27.984  33.753  1.00  0.00     0.173 A 
ATOM     90  F   UNL A   1      44.066  25.419  34.731  1.00  0.00    -0.203 F 
ATOM     91  C   UNL A   1      46.361  25.631  35.213  1.00  0.00     0.198 A 
ATOM     92  C   UNL A   1      47.610  27.487  34.344  1.00  0.00     0.198 A 
ATOM     93  F   UNL A   1      46.528  29.136  33.067  1.00  0.00    -0.203 F 
ATOM     94  F   UNL A   1      46.307  24.518  35.958  1.00  0.00    -0.200 F 
ATOM     95  C   UNL A   1      47.562  26.315  35.081  1.00  0.00     0.200 A 
ATOM     96  F   UNL A   1      48.769  28.143  34.199  1.00  0.00    -0.200 F 
ATOM     97  F   UNL A   1      48.670  25.850  35.673  1.00  0.00    -0.200 F 
ENDBRANCH  64  87
ENDBRANCH  38  39
ENDBRANCH  31  33
ENDBRANCH  30  31
ENDBRANCH  29  30
ENDBRANCH   1  29
TORSDOF 15
ENDMDL
MODEL 3
REMARK VINA RESULT:     -11.8      2.937      4.210
REMARK SMILES CCSc1ccc(-c2cc(Cl)cc3c2O[C@H](C(F)(F)F)C(C(=O)OCCOC(=O)c2ccc(-c4c5nc(c(-c6c(F)c(F)c(F)c(F)c6F)c6ccc([nH]6)c(-c6c(F)c(F)c(F)c(F)c6F)c6nc(c(-c7c(F)c(F)c(F)c(F)c7F)c7ccc4[nH]7)C=C6)C=C5)cc2)=C3)cc1
REMARK SMILES IDX 25 1 24 2 22 3 23 4 21 5 8 6 9 7 14 8 10 9 13 10 15 11 11 12
REMARK SMILES IDX 12 13 93 14 16 15 7 16 4 17 5 18 95 19 6 20 94 21 3 22 2 23
REMARK SMILES IDX 1 24 17 25 18 26 19 27 20 28 26 29 27 30 28 31 29 32 30 33
REMARK SMILES IDX 31 34 92 35 32 36 91 37 33 38 34 39 35 40 85 41 36 42 90 43
REMARK SMILES IDX 84 44 86 45 37 46 89 47 83 48 82 49 38 51 70 52 50 53 69 54
REMARK SMILES IDX 51 55 54 56 68 57 87 58 52 59 53 60 67 62 88 63 55 64 39 65
REMARK SMILES IDX 40 66 48 67 41 68 42 69 46 70 49 71 43 72 44 73 47 74 45 75
REMARK SMILES IDX 71 76 72 77 80 78 73 79 74 80 78 81 81 82 75 83 76 84 79 85
REMARK SMILES IDX 77 86 56 87 57 88 65 89 58 90 59 91 63 92 66 93 60 94 61 95
REMARK SMILES IDX 64 96 62 97
REMARK H PARENT 86 50 54 61
REMARK Flexibility Score: inf
ROOT
ATOM      1  C   UNL A   1      31.801  28.824  24.758  1.00  0.00     0.275 C 
ENDROOT
BRANCH   1   2
ATOM      2  O   UNL A   1      33.093  28.226  24.471  1.00  0.00    -0.459 OA
BRANCH   2   3
ATOM      3  C   UNL A   1      33.264  27.036  25.104  1.00  0.00     0.338 C 
ATOM      4  O   UNL A   1      33.667  26.923  26.257  1.00  0.00    -0.246 OA
BRANCH   3   5
ATOM      5  C   UNL A   1      32.833  25.852  24.318  1.00  0.00     0.087 C 
ATOM      6  C   UNL A   1      34.346  22.144  25.096  1.00  0.00     0.026 A 
ATOM      7  C   UNL A   1      35.554  22.518  25.730  1.00  0.00     0.033 A 
ATOM      8  C   UNL A   1      33.682  23.222  24.488  1.00  0.00     0.135 A 
ATOM      9  C   UNL A   1      36.144  23.782  25.614  1.00  0.00     0.042 A 
ATOM     10  C   UNL A   1      34.425  24.378  24.133  1.00  0.00     0.019 A 
ATOM     11  O   UNL A   1      32.296  23.371  24.420  1.00  0.00    -0.475 OA
ATOM     12  Cl  UNL A   1      37.449  24.338  26.577  1.00  0.00    -0.084 Cl
ATOM     13  C   UNL A   1      35.649  24.670  24.700  1.00  0.00     0.032 A 
ATOM     14  C   UNL A   1      33.747  25.470  23.411  1.00  0.00     0.027 C 
ATOM     15  C   UNL A   1      31.851  24.788  24.769  1.00  0.00     0.316 C 
BRANCH   6  16
ATOM     16  C   UNL A   1      34.130  20.652  25.009  1.00  0.00    -0.015 A 
ATOM     17  C   UNL A   1      33.686  17.942  24.019  1.00  0.00     0.007 A 
ATOM     18  C   UNL A   1      34.945  18.380  24.446  1.00  0.00     0.015 A 
ATOM     19  C   UNL A   1      32.641  18.859  24.117  1.00  0.00     0.015 A 
ATOM     20  C   UNL A   1      35.150  19.688  24.971  1.00  0.00     0.010 A 
ATOM     21  C   UNL A   1      32.866  20.182  24.581  1.00  0.00     0.010 A 
BRANCH  17  22
ATOM     22  S   UNL A   1      33.424  16.181  23.766  1.00  0.00    -0.126 SA
BRANCH  22  23
ATOM     23  C   UNL A   1      33.405  15.361  25.410  1.00  0.00     0.071 C 
ATOM     24  C   UNL A   1      32.038  14.933  25.888  1.00  0.00     0.016 C 
ENDBRANCH  22  23
ENDBRANCH  17  22
ENDBRANCH   6  16
BRANCH  15  25
ATOM     25  C   UNL A   1      30.533  25.151  24.069  1.00  0.00     0.430 C 
ATOM     26  F   UNL A   1      29.552  25.432  24.963  1.00  0.00    -0.167 F 
ATOM     27  F   UNL A   1      30.659  26.214  23.248  1.00  0.00    -0.167 F 
ATOM     28  F   UNL A   1      30.087  24.115  23.311  1.00  0.00    -0.167 F 
ENDBRANCH  15  25
ENDBRANCH   3   5
ENDBRANCH   2   3
ENDBRANCH   1   2
BRANCH   1  29
ATOM     29  C   UNL A   1      31.862  29.917  25.830  1.00  0.00     0.275 C 
BRANCH  29  30
ATOM     30  O   UNL A   1      33.198  30.436  25.975  1.00  0.00    -0.458 OA
BRANCH  30  31
ATOM     31  C   UNL A   1      33.332  31.323  26.992  1.00  0.00     0.338 C 
ATOM     32  O   UNL A   1      32.472  32.075  27.408  1.00  0.00    -0.246 OA
BRANCH  31  33
ATOM     33  C   UNL A   1      34.648  31.166  27.666  1.00  0.00     0.060 A 
ATOM     34  C   UNL A   1      34.991  29.871  28.034  1.00  0.00     0.016 A 
ATOM     35  C   UNL A   1      35.538  32.211  27.954  1.00  0.00     0.016 A 
ATOM     36  C   UNL A   1      36.228  29.630  28.631  1.00  0.00     0.010 A 
ATOM     37  C   UNL A   1      36.799  31.946  28.549  1.00  0.00     0.010 A 
ATOM     38  C   UNL A   1      37.182  30.638  28.863  1.00  0.00    -0.014 A 
BRANCH  38  39
ATOM     39  C   UNL A   1      38.493  30.220  29.488  1.00  0.00     0.031 A 
ATOM     40  C   UNL A   1      38.756  30.626  30.908  1.00  0.00     0.074 A 
ATOM     41  C   UNL A   1      39.349  29.329  28.932  1.00  0.00     0.049 A 
ATOM     42  N   UNL A   1      39.686  30.213  31.729  1.00  0.00    -0.248 NA
ATOM     43  C   UNL A   1      37.843  31.626  31.478  1.00  0.00     0.031 C 
ATOM     44  C   UNL A   1      39.225  28.801  27.589  1.00  0.00     0.029 A 
ATOM     45  N   UNL A   1      40.428  28.625  29.432  1.00  0.00    -0.354 N 
ATOM     46  C   UNL A   1      39.467  30.896  32.913  1.00  0.00     0.074 A 
ATOM     47  C   UNL A   1      38.299  31.728  32.715  1.00  0.00     0.031 C 
ATOM     48  C   UNL A   1      40.007  27.723  27.436  1.00  0.00     0.029 A 
ATOM     49  C   UNL A   1      40.884  27.620  28.593  1.00  0.00     0.049 A 
ATOM     50  H   UNL A   1      40.837  28.820  30.306  1.00  0.00     0.167 HD
ATOM     51  C   UNL A   1      40.203  30.873  34.046  1.00  0.00     0.037 A 
ATOM     52  C   UNL A   1      41.924  26.758  28.693  1.00  0.00     0.037 A 
ATOM     53  C   UNL A   1      41.430  30.139  34.208  1.00  0.00     0.049 A 
ATOM     54  C   UNL A   1      42.853  26.931  29.865  1.00  0.00     0.074 A 
ATOM     55  C   UNL A   1      42.273  30.111  35.303  1.00  0.00     0.029 A 
ATOM     56  N   UNL A   1      42.015  29.343  33.232  1.00  0.00    -0.354 N 
ATOM     57  N   UNL A   1      42.701  27.675  30.932  1.00  0.00    -0.248 NA
ATOM     58  C   UNL A   1      44.126  26.198  29.825  1.00  0.00     0.031 C 
ATOM     59  C   UNL A   1      43.408  29.370  34.959  1.00  0.00     0.029 A 
ATOM     60  C   UNL A   1      43.229  28.847  33.688  1.00  0.00     0.049 A 
ATOM     61  H   UNL A   1      41.627  29.158  32.347  1.00  0.00     0.167 HD
ATOM     62  C   UNL A   1      43.827  27.465  31.715  1.00  0.00     0.074 A 
ATOM     63  C   UNL A   1      44.676  26.549  30.981  1.00  0.00     0.031 C 
ATOM     64  C   UNL A   1      44.095  27.954  32.952  1.00  0.00     0.037 A 
BRANCH  51  65
ATOM     65  C   UNL A   1      39.748  31.792  35.139  1.00  0.00     0.064 A 
ATOM     66  C   UNL A   1      38.812  31.393  36.105  1.00  0.00     0.173 A 
ATOM     67  C   UNL A   1      40.191  33.123  35.158  1.00  0.00     0.173 A 
ATOM     68  F   UNL A   1      38.329  30.142  36.100  1.00  0.00    -0.203 F 
ATOM     69  C   UNL A   1      38.301  32.309  37.022  1.00  0.00     0.198 A 
ATOM     70  C   UNL A   1      39.701  34.026  36.096  1.00  0.00     0.198 A 
ATOM     71  F   UNL A   1      41.074  33.555  34.246  1.00  0.00    -0.203 F 
ATOM     72  F   UNL A   1      37.344  31.930  37.881  1.00  0.00    -0.200 F 
ATOM     73  C   UNL A   1      38.746  33.623  37.016  1.00  0.00     0.200 A 
ATOM     74  F   UNL A   1      40.131  35.295  36.086  1.00  0.00    -0.200 F 
ATOM     75  F   UNL A   1      38.235  34.508  37.882  1.00  0.00    -0.200 F 
ENDBRANCH  51  65
BRANCH  52  76
ATOM     76  C   UNL A   1      42.219  25.742  27.623  1.00  0.00     0.064 A 
ATOM     77  C   UNL A   1      43.169  25.964  26.609  1.00  0.00     0.173 A 
ATOM     78  C   UNL A   1      41.533  24.519  27.566  1.00  0.00     0.173 A 
ATOM     79  F   UNL A   1      43.805  27.134  26.519  1.00  0.00    -0.203 F 
ATOM     80  C   UNL A   1      43.447  25.009  25.627  1.00  0.00     0.198 A 
ATOM     81  C   UNL A   1      41.827  23.552  26.602  1.00  0.00     0.198 A 
ATOM     82  F   UNL A   1      40.569  24.251  28.459  1.00  0.00    -0.203 F 
ATOM     83  F   UNL A   1      44.345  25.280  24.669  1.00  0.00    -0.200 F 
ATOM     84  C   UNL A   1      42.785  23.796  25.634  1.00  0.00     0.200 A 
ATOM     85  F   UNL A   1      41.175  22.382  26.614  1.00  0.00    -0.200 F 
ATOM     86  F   UNL A   1      43.057  22.875  24.699  1.00  0.00    -0.200 F 
ENDBRANCH  52  76
BRANCH  64  87
ATOM     87  C   UNL A   1      45.325  27.443  33.650  1.00  0.00     0.064 A 
ATOM     88  C   UNL A   1      46.561  28.102  33.597  1.00  0.00     0.173 A 
ATOM     89  C   UNL A   1      45.241  26.274  34.425  1.00  0.00     0.173 A 
ATOM     90  F   UNL A   1      46.705  29.211  32.855  1.00  0.00    -0.203 F 
ATOM     91  C   UNL A   1      47.669  27.601  34.278  1.00  0.00     0.198 A 
ATOM     92  C   UNL A   1      46.338  25.799  35.137  1.00  0.00     0.198 A 
ATOM     93  F   UNL A   1      44.085  25.597  34.503  1.00  0.00    -0.203 F 
ATOM     94  F   UNL A   1      48.855  28.216  34.169  1.00  0.00    -0.200 F 
ATOM     95  C   UNL A   1      47.554  26.458  35.057  1.00  0.00     0.200 A 
ATOM     96  F   UNL A   1      46.216  24.705  35.900  1.00  0.00    -0.200 F 
ATOM     97  F   UNL A   1      48.617  25.986  35.721  1.00  0.00    -0.200 F 
ENDBRANCH  64  87
ENDBRANCH  38  39
ENDBRANCH  31  33
ENDBRANCH  30  31
ENDBRANCH  29  30
ENDBRANCH   1  29
TORSDOF 15
ENDMDL
