MODEL 1
REMARK VINA RESULT:     -10.8      0.000      0.000
REMARK SMILES CCCCCCNC(=O)Oc1cccc(-c2ccc([C@@H](C)C(=O)OCCOC(=O)c3ccc(-c4c5nc(c(-c6c(F)c(F)c(F)c(F)c6F)c6ccc([nH]6)c(-c6c(F)c(F)c(F)c(F)c6F)c6nc(c(-c7c(F)c(F)c(F)c(F)c7F)c7ccc4[nH]7)C=C6)C=C5)cc3)cc2C)c1
REMARK SMILES IDX 20 1 21 2 19 3 16 4 17 5 94 6 18 7 93 8 95 9 15 10 11 11
REMARK SMILES IDX 12 12 96 13 13 14 14 15 10 16 8 17 7 18 9 20 6 21 5 22 4 23
REMARK SMILES IDX 3 24 2 25 1 26 22 27 23 28 24 29 25 30 26 31 27 32 28 33
REMARK SMILES IDX 29 34 30 35 31 36 92 37 32 38 91 39 33 40 34 41 35 42 85 43
REMARK SMILES IDX 36 44 90 45 84 46 86 47 37 48 89 49 83 50 82 51 38 53 70 54
REMARK SMILES IDX 50 55 69 56 51 57 54 58 68 59 87 60 52 61 53 62 67 64 88 65
REMARK SMILES IDX 55 66 39 67 40 68 48 69 41 70 42 71 46 72 49 73 43 74 44 75
REMARK SMILES IDX 47 76 45 77 71 78 72 79 80 80 73 81 74 82 78 83 81 84 75 85
REMARK SMILES IDX 76 86 79 87 77 88 56 89 57 90 65 91 58 92 59 93 63 94 66 95
REMARK SMILES IDX 60 96 61 97 64 98 62 99
REMARK H PARENT 7 19 86 52 54 63
REMARK Flexibility Score: inf
ROOT
ATOM      1  C   UNL A   1      41.198  21.793  26.926  1.00  0.00     0.126 C 
ATOM      2  C   UNL A   1      41.779  22.556  28.114  1.00  0.00     0.025 C 
ENDROOT
BRANCH   1   3
ATOM      3  C   UNL A   1      39.792  22.252  26.569  1.00  0.00    -0.034 A 
ATOM      4  C   UNL A   1      37.163  23.063  25.823  1.00  0.00    -0.015 A 
ATOM      5  C   UNL A   1      38.059  23.946  26.454  1.00  0.00     0.009 A 
ATOM      6  C   UNL A   1      37.602  21.746  25.565  1.00  0.00    -0.043 A 
ATOM      7  C   UNL A   1      39.352  23.554  26.811  1.00  0.00     0.005 A 
ATOM      8  C   UNL A   1      38.900  21.359  25.954  1.00  0.00     0.008 A 
ATOM      9  C   UNL A   1      36.733  20.699  24.916  1.00  0.00     0.045 C 
BRANCH   4  10
ATOM     10  C   UNL A   1      35.837  23.570  25.419  1.00  0.00    -0.014 A 
ATOM     11  C   UNL A   1      34.313  24.502  23.781  1.00  0.00     0.133 A 
ATOM     12  C   UNL A   1      33.301  24.603  24.734  1.00  0.00     0.047 A 
ATOM     13  C   UNL A   1      35.570  23.987  24.107  1.00  0.00     0.056 A 
ATOM     14  C   UNL A   1      33.543  24.167  26.032  1.00  0.00     0.004 A 
ATOM     15  C   UNL A   1      34.801  23.661  26.370  1.00  0.00     0.009 A 
BRANCH  11  16
ATOM     16  O   UNL A   1      34.052  25.083  22.528  1.00  0.00    -0.410 OA
BRANCH  16  17
ATOM     17  C   UNL A   1      33.158  24.457  21.673  1.00  0.00     0.412 C 
ATOM     18  N   UNL A   1      32.120  25.270  21.300  1.00  0.00    -0.321 N 
ATOM     19  H   UNL A   1      31.453  24.879  20.692  1.00  0.00     0.167 HD
ATOM     20  O   UNL A   1      33.228  23.304  21.271  1.00  0.00    -0.224 OA
BRANCH  18  21
ATOM     21  C   UNL A   1      31.899  26.644  21.707  1.00  0.00     0.119 C 
BRANCH  21  22
ATOM     22  C   UNL A   1      30.997  26.742  22.937  1.00  0.00     0.021 C 
BRANCH  22  23
ATOM     23  C   UNL A   1      30.575  28.166  23.318  1.00  0.00     0.002 C 
BRANCH  23  24
ATOM     24  C   UNL A   1      30.854  28.575  24.770  1.00  0.00    -0.000 C 
BRANCH  24  25
ATOM     25  C   UNL A   1      31.349  27.453  25.686  1.00  0.00    -0.003 C 
ATOM     26  C   UNL A   1      32.573  27.838  26.502  1.00  0.00     0.004 C 
ENDBRANCH  24  25
ENDBRANCH  23  24
ENDBRANCH  22  23
ENDBRANCH  21  22
ENDBRANCH  18  21
ENDBRANCH  16  17
ENDBRANCH  11  16
ENDBRANCH   4  10
ENDBRANCH   1   3
BRANCH   1  27
ATOM     27  C   UNL A   1      41.379  20.293  27.130  1.00  0.00     0.313 C 
ATOM     28  O   UNL A   1      40.924  19.712  28.111  1.00  0.00    -0.252 OA
BRANCH  27  29
ATOM     29  O   UNL A   1      42.038  19.679  26.115  1.00  0.00    -0.462 OA
BRANCH  29  30
ATOM     30  C   UNL A   1      42.950  18.623  26.473  1.00  0.00     0.274 C 
BRANCH  30  31
ATOM     31  C   UNL A   1      43.740  18.132  25.258  1.00  0.00     0.275 C 
BRANCH  31  32
ATOM     32  O   UNL A   1      44.949  18.895  25.083  1.00  0.00    -0.458 OA
BRANCH  32  33
ATOM     33  C   UNL A   1      44.905  19.816  24.094  1.00  0.00     0.338 C 
ATOM     34  O   UNL A   1      44.805  19.624  22.898  1.00  0.00    -0.246 OA
BRANCH  33  35
ATOM     35  C   UNL A   1      44.885  21.162  24.682  1.00  0.00     0.060 A 
ATOM     36  C   UNL A   1      44.578  22.238  23.847  1.00  0.00     0.016 A 
ATOM     37  C   UNL A   1      45.261  21.374  26.009  1.00  0.00     0.016 A 
ATOM     38  C   UNL A   1      44.660  23.541  24.327  1.00  0.00     0.010 A 
ATOM     39  C   UNL A   1      45.335  22.684  26.494  1.00  0.00     0.010 A 
ATOM     40  C   UNL A   1      45.051  23.773  25.652  1.00  0.00    -0.014 A 
BRANCH  40  41
ATOM     41  C   UNL A   1      45.217  25.166  26.130  1.00  0.00     0.031 A 
ATOM     42  C   UNL A   1      46.561  25.829  26.041  1.00  0.00     0.074 A 
ATOM     43  C   UNL A   1      44.158  25.841  26.609  1.00  0.00     0.049 A 
ATOM     44  N   UNL A   1      46.929  27.015  26.456  1.00  0.00    -0.248 NA
ATOM     45  C   UNL A   1      47.634  25.056  25.397  1.00  0.00     0.031 C 
ATOM     46  C   UNL A   1      42.795  25.317  26.700  1.00  0.00     0.029 A 
ATOM     47  N   UNL A   1      44.062  27.115  27.110  1.00  0.00    -0.354 N 
ATOM     48  C   UNL A   1      48.277  27.123  26.142  1.00  0.00     0.074 A 
ATOM     49  C   UNL A   1      48.667  25.878  25.514  1.00  0.00     0.031 C 
ATOM     50  C   UNL A   1      41.999  26.262  27.222  1.00  0.00     0.029 A 
ATOM     51  C   UNL A   1      42.801  27.440  27.540  1.00  0.00     0.049 A 
ATOM     52  H   UNL A   1      44.826  27.735  27.157  1.00  0.00     0.167 HD
ATOM     53  C   UNL A   1      49.109  28.169  26.356  1.00  0.00     0.037 A 
ATOM     54  C   UNL A   1      42.351  28.557  28.143  1.00  0.00     0.037 A 
ATOM     55  C   UNL A   1      48.714  29.411  26.968  1.00  0.00     0.049 A 
ATOM     56  C   UNL A   1      43.309  29.684  28.415  1.00  0.00     0.074 A 
ATOM     57  C   UNL A   1      49.484  30.532  27.225  1.00  0.00     0.029 A 
ATOM     58  N   UNL A   1      47.434  29.695  27.418  1.00  0.00    -0.354 N 
ATOM     59  N   UNL A   1      44.584  29.774  28.125  1.00  0.00    -0.248 NA
ATOM     60  C   UNL A   1      42.766  30.862  29.105  1.00  0.00     0.031 C 
ATOM     61  C   UNL A   1      48.677  31.482  27.862  1.00  0.00     0.029 A 
ATOM     62  C   UNL A   1      47.395  30.967  27.967  1.00  0.00     0.049 A 
ATOM     63  H   UNL A   1      46.665  29.081  27.359  1.00  0.00     0.167 HD
ATOM     64  C   UNL A   1      44.991  31.022  28.577  1.00  0.00     0.074 A 
ATOM     65  C   UNL A   1      43.823  31.660  29.148  1.00  0.00     0.031 C 
ATOM     66  C   UNL A   1      46.222  31.587  28.525  1.00  0.00     0.037 A 
BRANCH  53  67
ATOM     67  C   UNL A   1      50.543  28.005  25.948  1.00  0.00     0.064 A 
ATOM     68  C   UNL A   1      50.951  28.152  24.615  1.00  0.00     0.173 A 
ATOM     69  C   UNL A   1      51.526  27.727  26.911  1.00  0.00     0.173 A 
ATOM     70  F   UNL A   1      50.048  28.402  23.656  1.00  0.00    -0.203 F 
ATOM     71  C   UNL A   1      52.289  28.006  24.256  1.00  0.00     0.198 A 
ATOM     72  C   UNL A   1      52.865  27.606  26.553  1.00  0.00     0.198 A 
ATOM     73  F   UNL A   1      51.187  27.579  28.201  1.00  0.00    -0.203 F 
ATOM     74  F   UNL A   1      52.652  28.111  22.971  1.00  0.00    -0.200 F 
ATOM     75  C   UNL A   1      53.245  27.739  25.226  1.00  0.00     0.200 A 
ATOM     76  F   UNL A   1      53.789  27.356  27.491  1.00  0.00    -0.200 F 
ATOM     77  F   UNL A   1      54.532  27.604  24.879  1.00  0.00    -0.200 F 
ENDBRANCH  53  67
BRANCH  54  78
ATOM     78  C   UNL A   1      40.924  28.656  28.544  1.00  0.00     0.064 A 
ATOM     79  C   UNL A   1      39.951  29.105  27.642  1.00  0.00     0.173 A 
ATOM     80  C   UNL A   1      40.507  28.306  29.837  1.00  0.00     0.173 A 
ATOM     81  F   UNL A   1      40.307  29.475  26.403  1.00  0.00    -0.203 F 
ATOM     82  C   UNL A   1      38.615  29.212  28.021  1.00  0.00     0.198 A 
ATOM     83  C   UNL A   1      39.167  28.390  30.207  1.00  0.00     0.198 A 
ATOM     84  F   UNL A   1      41.402  27.875  30.738  1.00  0.00    -0.203 F 
ATOM     85  F   UNL A   1      37.710  29.683  27.152  1.00  0.00    -0.200 F 
ATOM     86  C   UNL A   1      38.223  28.848  29.301  1.00  0.00     0.200 A 
ATOM     87  F   UNL A   1      38.792  28.029  31.442  1.00  0.00    -0.200 F 
ATOM     88  F   UNL A   1      36.937  28.949  29.664  1.00  0.00    -0.200 F 
ENDBRANCH  54  78
BRANCH  66  89
ATOM     89  C   UNL A   1      46.360  32.975  29.077  1.00  0.00     0.064 A 
ATOM     90  C   UNL A   1      46.717  33.201  30.413  1.00  0.00     0.173 A 
ATOM     91  C   UNL A   1      46.165  34.090  28.248  1.00  0.00     0.173 A 
ATOM     92  F   UNL A   1      46.898  32.166  31.247  1.00  0.00    -0.203 F 
ATOM     93  C   UNL A   1      46.851  34.495  30.908  1.00  0.00     0.198 A 
ATOM     94  C   UNL A   1      46.323  35.382  28.740  1.00  0.00     0.198 A 
ATOM     95  F   UNL A   1      45.827  33.925  26.960  1.00  0.00    -0.203 F 
ATOM     96  F   UNL A   1      47.150  34.689  32.200  1.00  0.00    -0.200 F 
ATOM     97  C   UNL A   1      46.660  35.584  30.070  1.00  0.00     0.200 A 
ATOM     98  F   UNL A   1      46.148  36.434  27.927  1.00  0.00    -0.200 F 
ATOM     99  F   UNL A   1      46.792  36.829  30.547  1.00  0.00    -0.200 F 
ENDBRANCH  66  89
ENDBRANCH  40  41
ENDBRANCH  33  35
ENDBRANCH  32  33
ENDBRANCH  31  32
ENDBRANCH  30  31
ENDBRANCH  29  30
ENDBRANCH  27  29
ENDBRANCH   1  27
TORSDOF 20
ENDMDL
MODEL 2
REMARK VINA RESULT:     -10.7      0.705      7.248
REMARK SMILES CCCCCCNC(=O)Oc1cccc(-c2ccc([C@@H](C)C(=O)OCCOC(=O)c3ccc(-c4c5nc(c(-c6c(F)c(F)c(F)c(F)c6F)c6ccc([nH]6)c(-c6c(F)c(F)c(F)c(F)c6F)c6nc(c(-c7c(F)c(F)c(F)c(F)c7F)c7ccc4[nH]7)C=C6)C=C5)cc3)cc2C)c1
REMARK SMILES IDX 20 1 21 2 19 3 16 4 17 5 94 6 18 7 93 8 95 9 15 10 11 11
REMARK SMILES IDX 12 12 96 13 13 14 14 15 10 16 8 17 7 18 9 20 6 21 5 22 4 23
REMARK SMILES IDX 3 24 2 25 1 26 22 27 23 28 24 29 25 30 26 31 27 32 28 33
REMARK SMILES IDX 29 34 30 35 31 36 92 37 32 38 91 39 33 40 34 41 35 42 85 43
REMARK SMILES IDX 36 44 90 45 84 46 86 47 37 48 89 49 83 50 82 51 38 53 70 54
REMARK SMILES IDX 50 55 69 56 51 57 54 58 68 59 87 60 52 61 53 62 67 64 88 65
REMARK SMILES IDX 55 66 39 67 40 68 48 69 41 70 42 71 46 72 49 73 43 74 44 75
REMARK SMILES IDX 47 76 45 77 71 78 72 79 80 80 73 81 74 82 78 83 81 84 75 85
REMARK SMILES IDX 76 86 79 87 77 88 56 89 57 90 65 91 58 92 59 93 63 94 66 95
REMARK SMILES IDX 60 96 61 97 64 98 62 99
REMARK H PARENT 7 19 86 52 54 63
REMARK Flexibility Score: inf
ROOT
ATOM      1  C   UNL A   1      40.980  21.526  26.193  1.00  0.00     0.126 C 
ATOM      2  C   UNL A   1      41.949  22.487  26.877  1.00  0.00     0.025 C 
ENDROOT
BRANCH   1   3
ATOM      3  C   UNL A   1      39.567  22.085  26.104  1.00  0.00    -0.034 A 
ATOM      4  C   UNL A   1      36.912  23.093  25.856  1.00  0.00    -0.015 A 
ATOM      5  C   UNL A   1      37.944  23.857  26.433  1.00  0.00     0.009 A 
ATOM      6  C   UNL A   1      37.227  21.795  25.396  1.00  0.00    -0.043 A 
ATOM      7  C   UNL A   1      39.248  23.369  26.546  1.00  0.00     0.005 A 
ATOM      8  C   UNL A   1      38.542  21.308  25.540  1.00  0.00     0.008 A 
ATOM      9  C   UNL A   1      36.210  20.869  24.780  1.00  0.00     0.045 C 
BRANCH   4  10
ATOM     10  C   UNL A   1      35.575  23.701  25.713  1.00  0.00    -0.014 A 
ATOM     11  C   UNL A   1      34.047  25.294  24.712  1.00  0.00     0.133 A 
ATOM     12  C   UNL A   1      33.014  24.875  25.549  1.00  0.00     0.047 A 
ATOM     13  C   UNL A   1      35.316  24.716  24.780  1.00  0.00     0.056 A 
ATOM     14  C   UNL A   1      33.249  23.851  26.460  1.00  0.00     0.004 A 
ATOM     15  C   UNL A   1      34.519  23.275  26.543  1.00  0.00     0.009 A 
BRANCH  11  16
ATOM     16  O   UNL A   1      33.787  26.420  23.912  1.00  0.00    -0.410 OA
BRANCH  16  17
ATOM     17  C   UNL A   1      33.337  26.231  22.615  1.00  0.00     0.412 C 
ATOM     18  N   UNL A   1      32.671  27.320  22.118  1.00  0.00    -0.321 N 
ATOM     19  H   UNL A   1      32.328  27.243  21.199  1.00  0.00     0.167 HD
ATOM     20  O   UNL A   1      33.477  25.219  21.942  1.00  0.00    -0.224 OA
BRANCH  18  21
ATOM     21  C   UNL A   1      32.416  28.572  22.802  1.00  0.00     0.119 C 
BRANCH  21  22
ATOM     22  C   UNL A   1      31.227  28.475  23.757  1.00  0.00     0.021 C 
BRANCH  22  23
ATOM     23  C   UNL A   1      31.419  29.181  25.104  1.00  0.00     0.002 C 
BRANCH  23  24
ATOM     24  C   UNL A   1      31.719  28.265  26.297  1.00  0.00    -0.000 C 
BRANCH  24  25
ATOM     25  C   UNL A   1      32.874  28.713  27.196  1.00  0.00    -0.003 C 
ATOM     26  C   UNL A   1      34.243  28.506  26.567  1.00  0.00     0.004 C 
ENDBRANCH  24  25
ENDBRANCH  23  24
ENDBRANCH  22  23
ENDBRANCH  21  22
ENDBRANCH  18  21
ENDBRANCH  16  17
ENDBRANCH  11  16
ENDBRANCH   4  10
ENDBRANCH   1   3
BRANCH   1  27
ATOM     27  C   UNL A   1      41.109  20.134  26.801  1.00  0.00     0.313 C 
ATOM     28  O   UNL A   1      40.695  19.877  27.928  1.00  0.00    -0.252 OA
BRANCH  27  29
ATOM     29  O   UNL A   1      41.673  19.223  25.967  1.00  0.00    -0.462 OA
BRANCH  29  30
ATOM     30  C   UNL A   1      42.891  18.597  26.412  1.00  0.00     0.274 C 
BRANCH  30  31
ATOM     31  C   UNL A   1      43.789  18.220  25.232  1.00  0.00     0.275 C 
BRANCH  31  32
ATOM     32  O   UNL A   1      44.915  19.111  25.131  1.00  0.00    -0.458 OA
BRANCH  32  33
ATOM     33  C   UNL A   1      44.810  20.059  24.172  1.00  0.00     0.338 C 
ATOM     34  O   UNL A   1      44.585  19.902  22.987  1.00  0.00    -0.246 OA
BRANCH  33  35
ATOM     35  C   UNL A   1      44.900  21.389  24.788  1.00  0.00     0.060 A 
ATOM     36  C   UNL A   1      44.572  22.498  24.007  1.00  0.00     0.016 A 
ATOM     37  C   UNL A   1      45.394  21.551  26.083  1.00  0.00     0.016 A 
ATOM     38  C   UNL A   1      44.753  23.784  24.506  1.00  0.00     0.010 A 
ATOM     39  C   UNL A   1      45.567  22.844  26.589  1.00  0.00     0.010 A 
ATOM     40  C   UNL A   1      45.263  23.966  25.798  1.00  0.00    -0.014 A 
BRANCH  40  41
ATOM     41  C   UNL A   1      45.531  25.337  26.290  1.00  0.00     0.031 A 
ATOM     42  C   UNL A   1      44.422  26.138  26.908  1.00  0.00     0.074 A 
ATOM     43  C   UNL A   1      46.773  25.846  26.213  1.00  0.00     0.049 A 
ATOM     44  N   UNL A   1      44.434  27.372  27.344  1.00  0.00    -0.248 NA
ATOM     45  C   UNL A   1      43.125  25.459  27.056  1.00  0.00     0.031 C 
ATOM     46  C   UNL A   1      47.939  25.144  25.677  1.00  0.00     0.029 A 
ATOM     47  N   UNL A   1      47.261  27.073  26.587  1.00  0.00    -0.354 N 
ATOM     48  C   UNL A   1      43.147  27.623  27.801  1.00  0.00     0.074 A 
ATOM     49  C   UNL A   1      42.374  26.419  27.575  1.00  0.00     0.031 C 
ATOM     50  C   UNL A   1      49.009  25.951  25.759  1.00  0.00     0.029 A 
ATOM     51  C   UNL A   1      48.595  27.237  26.313  1.00  0.00     0.049 A 
ATOM     52  H   UNL A   1      46.706  27.768  27.010  1.00  0.00     0.167 HD
ATOM     53  C   UNL A   1      42.659  28.756  28.359  1.00  0.00     0.037 A 
ATOM     54  C   UNL A   1      49.388  28.314  26.474  1.00  0.00     0.037 A 
ATOM     55  C   UNL A   1      43.434  29.947  28.594  1.00  0.00     0.049 A 
ATOM     56  C   UNL A   1      48.806  29.576  27.050  1.00  0.00     0.074 A 
ATOM     57  C   UNL A   1      43.030  31.144  29.159  1.00  0.00     0.029 A 
ATOM     58  N   UNL A   1      44.777  30.087  28.278  1.00  0.00    -0.354 N 
ATOM     59  N   UNL A   1      47.586  29.810  27.468  1.00  0.00    -0.248 NA
ATOM     60  C   UNL A   1      49.712  30.727  27.169  1.00  0.00     0.031 C 
ATOM     61  C   UNL A   1      44.120  32.022  29.152  1.00  0.00     0.029 A 
ATOM     62  C   UNL A   1      45.214  31.357  28.619  1.00  0.00     0.049 A 
ATOM     63  H   UNL A   1      45.337  29.388  27.869  1.00  0.00     0.167 HD
ATOM     64  C   UNL A   1      47.581  31.123  27.918  1.00  0.00     0.074 A 
ATOM     65  C   UNL A   1      48.925  31.632  27.735  1.00  0.00     0.031 C 
ATOM     66  C   UNL A   1      46.556  31.843  28.435  1.00  0.00     0.037 A 
BRANCH  53  67
ATOM     67  C   UNL A   1      41.206  28.771  28.732  1.00  0.00     0.064 A 
ATOM     68  C   UNL A   1      40.775  28.454  30.028  1.00  0.00     0.173 A 
ATOM     69  C   UNL A   1      40.237  29.139  27.786  1.00  0.00     0.173 A 
ATOM     70  F   UNL A   1      41.661  28.081  30.962  1.00  0.00    -0.203 F 
ATOM     71  C   UNL A   1      39.422  28.483  30.358  1.00  0.00     0.198 A 
ATOM     72  C   UNL A   1      38.888  29.191  28.126  1.00  0.00     0.198 A 
ATOM     73  F   UNL A   1      40.599  29.454  26.533  1.00  0.00    -0.203 F 
ATOM     74  F   UNL A   1      39.027  28.138  31.591  1.00  0.00    -0.200 F 
ATOM     75  C   UNL A   1      38.481  28.857  29.410  1.00  0.00     0.200 A 
ATOM     76  F   UNL A   1      37.981  29.560  27.212  1.00  0.00    -0.200 F 
ATOM     77  F   UNL A   1      37.181  28.890  29.731  1.00  0.00    -0.200 F 
ENDBRANCH  53  67
BRANCH  54  78
ATOM     78  C   UNL A   1      50.814  28.248  26.067  1.00  0.00     0.064 A 
ATOM     79  C   UNL A   1      51.830  28.108  27.022  1.00  0.00     0.173 A 
ATOM     80  C   UNL A   1      51.190  28.328  24.718  1.00  0.00     0.173 A 
ATOM     81  F   UNL A   1      51.521  28.054  28.326  1.00  0.00    -0.203 F 
ATOM     82  C   UNL A   1      53.170  28.060  26.644  1.00  0.00     0.198 A 
ATOM     83  C   UNL A   1      52.528  28.255  24.339  1.00  0.00     0.198 A 
ATOM     84  F   UNL A   1      50.254  28.467  23.768  1.00  0.00    -0.203 F 
ATOM     85  F   UNL A   1      54.125  27.966  27.579  1.00  0.00    -0.200 F 
ATOM     86  C   UNL A   1      53.517  28.128  25.302  1.00  0.00     0.200 A 
ATOM     87  F   UNL A   1      52.859  28.312  23.041  1.00  0.00    -0.200 F 
ATOM     88  F   UNL A   1      54.806  28.079  24.939  1.00  0.00    -0.200 F 
ENDBRANCH  54  78
BRANCH  66  89
ATOM     89  C   UNL A   1      46.857  33.248  28.863  1.00  0.00     0.064 A 
ATOM     90  C   UNL A   1      46.654  34.337  28.003  1.00  0.00     0.173 A 
ATOM     91  C   UNL A   1      47.321  33.510  30.161  1.00  0.00     0.173 A 
ATOM     92  F   UNL A   1      46.227  34.134  26.748  1.00  0.00    -0.203 F 
ATOM     93  C   UNL A   1      46.928  35.636  28.419  1.00  0.00     0.198 A 
ATOM     94  C   UNL A   1      47.570  34.814  30.581  1.00  0.00     0.198 A 
ATOM     95  F   UNL A   1      47.525  32.503  31.023  1.00  0.00    -0.203 F 
ATOM     96  F   UNL A   1      46.769  36.659  27.567  1.00  0.00    -0.200 F 
ATOM     97  C   UNL A   1      47.380  35.874  29.709  1.00  0.00     0.200 A 
ATOM     98  F   UNL A   1      47.998  35.043  31.831  1.00  0.00    -0.200 F 
ATOM     99  F   UNL A   1      47.640  37.127  30.109  1.00  0.00    -0.200 F 
ENDBRANCH  66  89
ENDBRANCH  40  41
ENDBRANCH  33  35
ENDBRANCH  32  33
ENDBRANCH  31  32
ENDBRANCH  30  31
ENDBRANCH  29  30
ENDBRANCH  27  29
ENDBRANCH   1  27
TORSDOF 20
ENDMDL
MODEL 3
REMARK VINA RESULT:     -10.7      4.141      9.641
REMARK SMILES CCCCCCNC(=O)Oc1cccc(-c2ccc([C@@H](C)C(=O)OCCOC(=O)c3ccc(-c4c5nc(c(-c6c(F)c(F)c(F)c(F)c6F)c6ccc([nH]6)c(-c6c(F)c(F)c(F)c(F)c6F)c6nc(c(-c7c(F)c(F)c(F)c(F)c7F)c7ccc4[nH]7)C=C6)C=C5)cc3)cc2C)c1
REMARK SMILES IDX 20 1 21 2 19 3 16 4 17 5 94 6 18 7 93 8 95 9 15 10 11 11
REMARK SMILES IDX 12 12 96 13 13 14 14 15 10 16 8 17 7 18 9 20 6 21 5 22 4 23
REMARK SMILES IDX 3 24 2 25 1 26 22 27 23 28 24 29 25 30 26 31 27 32 28 33
REMARK SMILES IDX 29 34 30 35 31 36 92 37 32 38 91 39 33 40 34 41 35 42 85 43
REMARK SMILES IDX 36 44 90 45 84 46 86 47 37 48 89 49 83 50 82 51 38 53 70 54
REMARK SMILES IDX 50 55 69 56 51 57 54 58 68 59 87 60 52 61 53 62 67 64 88 65
REMARK SMILES IDX 55 66 39 67 40 68 48 69 41 70 42 71 46 72 49 73 43 74 44 75
REMARK SMILES IDX 47 76 45 77 71 78 72 79 80 80 73 81 74 82 78 83 81 84 75 85
REMARK SMILES IDX 76 86 79 87 77 88 56 89 57 90 65 91 58 92 59 93 63 94 66 95
REMARK SMILES IDX 60 96 61 97 64 98 62 99
REMARK H PARENT 7 19 86 52 54 63
REMARK Flexibility Score: inf
ROOT
ATOM      1  C   UNL A   1      34.499  34.415  28.950  1.00  0.00     0.126 C 
ATOM      2  C   UNL A   1      34.398  35.622  28.020  1.00  0.00     0.025 C 
ENDROOT
BRANCH   1   3
ATOM      3  C   UNL A   1      34.043  33.125  28.284  1.00  0.00    -0.034 A 
ATOM      4  C   UNL A   1      33.273  30.694  27.010  1.00  0.00    -0.015 A 
ATOM      5  C   UNL A   1      32.436  31.826  27.015  1.00  0.00     0.009 A 
ATOM      6  C   UNL A   1      34.522  30.792  27.662  1.00  0.00    -0.043 A 
ATOM      7  C   UNL A   1      32.815  33.022  27.630  1.00  0.00     0.005 A 
ATOM      8  C   UNL A   1      34.880  31.998  28.299  1.00  0.00     0.008 A 
ATOM      9  C   UNL A   1      35.499  29.648  27.748  1.00  0.00     0.045 C 
BRANCH   4  10
ATOM     10  C   UNL A   1      32.830  29.488  26.284  1.00  0.00    -0.014 A 
ATOM     11  C   UNL A   1      31.635  27.382  26.165  1.00  0.00     0.133 A 
ATOM     12  C   UNL A   1      32.086  27.165  24.865  1.00  0.00     0.047 A 
ATOM     13  C   UNL A   1      31.992  28.531  26.875  1.00  0.00     0.056 A 
ATOM     14  C   UNL A   1      32.895  28.118  24.256  1.00  0.00     0.004 A 
ATOM     15  C   UNL A   1      33.267  29.265  24.963  1.00  0.00     0.009 A 
BRANCH  11  16
ATOM     16  O   UNL A   1      30.937  26.323  26.771  1.00  0.00    -0.410 OA
BRANCH  16  17
ATOM     17  C   UNL A   1      30.322  25.378  25.964  1.00  0.00     0.412 C 
ATOM     18  N   UNL A   1      30.810  24.114  26.158  1.00  0.00    -0.321 N 
ATOM     19  H   UNL A   1      30.410  23.400  25.611  1.00  0.00     0.167 HD
ATOM     20  O   UNL A   1      29.443  25.594  25.141  1.00  0.00    -0.224 OA
BRANCH  18  21
ATOM     21  C   UNL A   1      31.855  23.714  27.080  1.00  0.00     0.119 C 
BRANCH  21  22
ATOM     22  C   UNL A   1      33.039  23.067  26.363  1.00  0.00     0.021 C 
BRANCH  22  23
ATOM     23  C   UNL A   1      33.831  24.004  25.444  1.00  0.00     0.002 C 
BRANCH  23  24
ATOM     24  C   UNL A   1      35.288  23.604  25.183  1.00  0.00    -0.000 C 
BRANCH  24  25
ATOM     25  C   UNL A   1      35.501  22.594  24.052  1.00  0.00    -0.003 C 
ATOM     26  C   UNL A   1      36.653  22.959  23.128  1.00  0.00     0.004 C 
ENDBRANCH  24  25
ENDBRANCH  23  24
ENDBRANCH  22  23
ENDBRANCH  21  22
ENDBRANCH  18  21
ENDBRANCH  16  17
ENDBRANCH  11  16
ENDBRANCH   4  10
ENDBRANCH   1   3
BRANCH   1  27
ATOM     27  C   UNL A   1      33.856  34.737  30.294  1.00  0.00     0.313 C 
ATOM     28  O   UNL A   1      32.675  35.060  30.387  1.00  0.00    -0.252 OA
BRANCH  27  29
ATOM     29  O   UNL A   1      34.693  34.586  31.351  1.00  0.00    -0.462 OA
BRANCH  29  30
ATOM     30  C   UNL A   1      34.087  34.480  32.653  1.00  0.00     0.274 C 
BRANCH  30  31
ATOM     31  C   UNL A   1      34.272  33.080  33.243  1.00  0.00     0.275 C 
BRANCH  31  32
ATOM     32  O   UNL A   1      35.302  32.355  32.545  1.00  0.00    -0.458 OA
BRANCH  32  33
ATOM     33  C   UNL A   1      36.439  32.155  33.249  1.00  0.00     0.338 C 
ATOM     34  O   UNL A   1      36.625  32.344  34.436  1.00  0.00    -0.246 OA
BRANCH  33  35
ATOM     35  C   UNL A   1      37.451  31.545  32.378  1.00  0.00     0.060 A 
ATOM     36  C   UNL A   1      38.470  30.801  32.978  1.00  0.00     0.016 A 
ATOM     37  C   UNL A   1      37.457  31.782  31.003  1.00  0.00     0.016 A 
ATOM     38  C   UNL A   1      39.516  30.301  32.209  1.00  0.00     0.010 A 
ATOM     39  C   UNL A   1      38.505  31.272  30.229  1.00  0.00     0.010 A 
ATOM     40  C   UNL A   1      39.547  30.544  30.830  1.00  0.00    -0.014 A 
BRANCH  40  41
ATOM     41  C   UNL A   1      40.707  30.081  30.033  1.00  0.00     0.031 A 
ATOM     42  C   UNL A   1      41.862  31.008  29.790  1.00  0.00     0.074 A 
ATOM     43  C   UNL A   1      40.736  28.822  29.560  1.00  0.00     0.049 A 
ATOM     44  N   UNL A   1      42.940  30.818  29.073  1.00  0.00    -0.248 NA
ATOM     45  C   UNL A   1      41.796  32.325  30.441  1.00  0.00     0.031 C 
ATOM     46  C   UNL A   1      39.694  27.818  29.774  1.00  0.00     0.029 A 
ATOM     47  N   UNL A   1      41.679  28.174  28.804  1.00  0.00    -0.354 N 
ATOM     48  C   UNL A   1      43.671  31.994  29.171  1.00  0.00     0.074 A 
ATOM     49  C   UNL A   1      42.907  32.899  30.005  1.00  0.00     0.031 C 
ATOM     50  C   UNL A   1      40.056  26.679  29.164  1.00  0.00     0.029 A 
ATOM     51  C   UNL A   1      41.332  26.885  28.484  1.00  0.00     0.049 A 
ATOM     52  H   UNL A   1      42.522  28.593  28.516  1.00  0.00     0.167 HD
ATOM     53  C   UNL A   1      44.871  32.288  28.617  1.00  0.00     0.037 A 
ATOM     54  C   UNL A   1      41.965  25.982  27.712  1.00  0.00     0.037 A 
ATOM     55  C   UNL A   1      45.634  31.380  27.800  1.00  0.00     0.049 A 
ATOM     56  C   UNL A   1      43.273  26.353  27.067  1.00  0.00     0.074 A 
ATOM     57  C   UNL A   1      46.864  31.584  27.197  1.00  0.00     0.029 A 
ATOM     58  N   UNL A   1      45.238  30.092  27.474  1.00  0.00    -0.354 N 
ATOM     59  N   UNL A   1      43.951  27.471  27.156  1.00  0.00    -0.248 NA
ATOM     60  C   UNL A   1      43.898  25.338  26.209  1.00  0.00     0.031 C 
ATOM     61  C   UNL A   1      47.195  30.431  26.477  1.00  0.00     0.029 A 
ATOM     62  C   UNL A   1      46.190  29.494  26.664  1.00  0.00     0.049 A 
ATOM     63  H   UNL A   1      44.402  29.665  27.772  1.00  0.00     0.167 HD
ATOM     64  C   UNL A   1      45.091  27.288  26.385  1.00  0.00     0.074 A 
ATOM     65  C   UNL A   1      45.019  25.945  25.846  1.00  0.00     0.031 C 
ATOM     66  C   UNL A   1      46.104  28.155  26.143  1.00  0.00     0.037 A 
BRANCH  53  67
ATOM     67  C   UNL A   1      45.424  33.661  28.856  1.00  0.00     0.064 A 
ATOM     68  C   UNL A   1      45.138  34.730  27.994  1.00  0.00     0.173 A 
ATOM     69  C   UNL A   1      46.225  33.917  29.979  1.00  0.00     0.173 A 
ATOM     70  F   UNL A   1      44.390  34.533  26.899  1.00  0.00    -0.203 F 
ATOM     71  C   UNL A   1      45.653  36.002  28.238  1.00  0.00     0.198 A 
ATOM     72  C   UNL A   1      46.718  35.193  30.233  1.00  0.00     0.198 A 
ATOM     73  F   UNL A   1      46.525  32.928  30.835  1.00  0.00    -0.203 F 
ATOM     74  F   UNL A   1      45.400  37.000  27.381  1.00  0.00    -0.200 F 
ATOM     75  C   UNL A   1      46.436  36.233  29.359  1.00  0.00     0.200 A 
ATOM     76  F   UNL A   1      47.467  35.419  31.320  1.00  0.00    -0.200 F 
ATOM     77  F   UNL A   1      46.926  37.458  29.593  1.00  0.00    -0.200 F 
ENDBRANCH  53  67
BRANCH  54  78
ATOM     78  C   UNL A   1      41.360  24.644  27.494  1.00  0.00     0.064 A 
ATOM     79  C   UNL A   1      41.921  23.496  28.070  1.00  0.00     0.173 A 
ATOM     80  C   UNL A   1      40.212  24.485  26.703  1.00  0.00     0.173 A 
ATOM     81  F   UNL A   1      43.034  23.596  28.811  1.00  0.00    -0.203 F 
ATOM     82  C   UNL A   1      41.364  22.238  27.854  1.00  0.00     0.198 A 
ATOM     83  C   UNL A   1      39.641  23.230  26.509  1.00  0.00     0.198 A 
ATOM     84  F   UNL A   1      39.641  25.553  26.127  1.00  0.00    -0.203 F 
ATOM     85  F   UNL A   1      41.943  21.151  28.383  1.00  0.00    -0.200 F 
ATOM     86  C   UNL A   1      40.221  22.107  27.079  1.00  0.00     0.200 A 
ATOM     87  F   UNL A   1      38.531  23.109  25.767  1.00  0.00    -0.200 F 
ATOM     88  F   UNL A   1      39.683  20.897  26.875  1.00  0.00    -0.200 F 
ENDBRANCH  54  78
BRANCH  66  89
ATOM     89  C   UNL A   1      47.229  27.666  25.280  1.00  0.00     0.064 A 
ATOM     90  C   UNL A   1      47.243  27.891  23.896  1.00  0.00     0.173 A 
ATOM     91  C   UNL A   1      48.321  26.995  25.851  1.00  0.00     0.173 A 
ATOM     92  F   UNL A   1      46.214  28.514  23.303  1.00  0.00    -0.203 F 
ATOM     93  C   UNL A   1      48.300  27.440  23.110  1.00  0.00     0.198 A 
ATOM     94  C   UNL A   1      49.387  26.567  25.064  1.00  0.00     0.198 A 
ATOM     95  F   UNL A   1      48.356  26.760  27.171  1.00  0.00    -0.203 F 
ATOM     96  F   UNL A   1      48.273  27.627  21.783  1.00  0.00    -0.200 F 
ATOM     97  C   UNL A   1      49.373  26.784  23.696  1.00  0.00     0.200 A 
ATOM     98  F   UNL A   1      50.428  25.942  25.633  1.00  0.00    -0.200 F 
ATOM     99  F   UNL A   1      50.391  26.353  22.937  1.00  0.00    -0.200 F 
ENDBRANCH  66  89
ENDBRANCH  40  41
ENDBRANCH  33  35
ENDBRANCH  32  33
ENDBRANCH  31  32
ENDBRANCH  30  31
ENDBRANCH  29  30
ENDBRANCH  27  29
ENDBRANCH   1  27
TORSDOF 20
ENDMDL
