MODEL 1
REMARK VINA RESULT:     -12.7      0.000      0.000
REMARK SMILES Cc1ccc(F)c(O[C@H]2CC[C@]([NH2+]C(C)C)(C(=O)OCCOC(=O)c3ccc(-c4c5nc(c(-c6c(F)c(F)c(F)c(F)c6F)c6ccc([nH]6)c(-c6c(F)c(F)c(F)c(F)c6F)c6nc(c(-c7c(F)c(F)c(F)c(F)c7F)c7ccc4[nH]7)C=C6)C=C5)cc3)C2)c1
REMARK SMILES IDX 20 1 19 2 17 3 18 4 12 5 9 6 10 7 88 8 11 9 8 10 7 11 1 12
REMARK SMILES IDX 2 13 3 14 89 15 4 16 5 17 6 18 13 19 14 22 15 23 16 24 21 25
REMARK SMILES IDX 22 26 23 27 24 28 25 29 26 30 87 31 27 32 86 33 28 34 29 35
REMARK SMILES IDX 30 36 80 37 31 38 85 39 79 40 81 41 32 42 84 43 78 44 77 45
REMARK SMILES IDX 33 47 65 48 45 49 64 50 46 51 49 52 63 53 82 54 47 55 48 56
REMARK SMILES IDX 62 58 83 59 50 60 34 61 35 62 43 63 36 64 37 65 41 66 44 67
REMARK SMILES IDX 38 68 39 69 42 70 40 71 66 72 67 73 75 74 68 75 69 76 73 77
REMARK SMILES IDX 76 78 70 79 71 80 74 81 72 82 51 83 52 84 60 85 53 86 54 87
REMARK SMILES IDX 58 88 61 89 55 90 56 91 59 92 57 93
REMARK H PARENT 13 20 13 21 81 46 49 57
REMARK Flexibility Score: inf
ROOT
ATOM      1  C   UNL A   1      33.663  31.342  27.877  1.00  0.00     0.274 C 
ENDROOT
BRANCH   1   2
ATOM      2  O   UNL A   1      33.543  30.803  26.542  1.00  0.00    -0.457 OA
BRANCH   2   3
ATOM      3  C   UNL A   1      32.289  30.457  26.117  1.00  0.00     0.368 C 
ATOM      4  O   UNL A   1      31.319  31.199  26.252  1.00  0.00    -0.245 OA
BRANCH   3   5
ATOM      5  C   UNL A   1      32.234  29.010  25.531  1.00  0.00     0.198 C 
ATOM      6  C   UNL A   1      33.202  26.778  25.788  1.00  0.00     0.180 C 
ATOM      7  C   UNL A   1      34.028  27.470  24.715  1.00  0.00     0.052 C 
ATOM      8  C   UNL A   1      32.669  27.973  26.588  1.00  0.00     0.126 C 
ATOM      9  C   UNL A   1      33.295  28.778  24.414  1.00  0.00     0.085 C 
BRANCH   6  10
ATOM     10  O   UNL A   1      32.089  26.072  25.229  1.00  0.00    -0.487 OA
BRANCH  10  11
ATOM     11  C   UNL A   1      32.030  24.710  25.352  1.00  0.00     0.155 A 
ATOM     12  C   UNL A   1      33.910  22.249  27.595  1.00  0.00     0.044 C 
ATOM     13  C   UNL A   1      32.965  22.807  26.572  1.00  0.00    -0.047 A 
ATOM     14  C   UNL A   1      32.136  21.944  25.849  1.00  0.00     0.007 A 
ATOM     15  C   UNL A   1      32.902  24.186  26.319  1.00  0.00     0.053 A 
ATOM     16  C   UNL A   1      31.262  22.454  24.889  1.00  0.00     0.043 A 
ATOM     17  C   UNL A   1      31.215  23.825  24.645  1.00  0.00     0.165 A 
ATOM     18  F   UNL A   1      30.353  24.253  23.711  1.00  0.00    -0.203 F 
ENDBRANCH  10  11
ENDBRANCH   6  10
BRANCH   5  19
ATOM     19  N   UNL A   1      30.937  28.671  24.868  1.00  0.00    -0.330 N 
ATOM     20  H   UNL A   1      30.206  29.105  25.431  1.00  0.00     0.347 HD
ATOM     21  H   UNL A   1      30.985  27.654  24.815  1.00  0.00     0.347 HD
BRANCH  19  22
ATOM     22  C   UNL A   1      30.655  29.036  23.480  1.00  0.00     0.176 C 
ATOM     23  C   UNL A   1      30.241  27.743  22.757  1.00  0.00     0.075 C 
ATOM     24  C   UNL A   1      29.550  30.072  23.300  1.00  0.00     0.075 C 
ENDBRANCH  19  22
ENDBRANCH   5  19
ENDBRANCH   3   5
ENDBRANCH   2   3
ENDBRANCH   1   2
BRANCH   1  25
ATOM     25  C   UNL A   1      34.753  32.412  27.984  1.00  0.00     0.275 C 
BRANCH  25  26
ATOM     26  O   UNL A   1      36.062  31.832  28.058  1.00  0.00    -0.458 OA
BRANCH  26  27
ATOM     27  C   UNL A   1      36.246  31.132  29.198  1.00  0.00     0.338 C 
ATOM     28  O   UNL A   1      36.050  31.513  30.339  1.00  0.00    -0.246 OA
BRANCH  27  29
ATOM     29  C   UNL A   1      36.889  29.847  28.957  1.00  0.00     0.060 A 
ATOM     30  C   UNL A   1      37.091  29.025  30.074  1.00  0.00     0.016 A 
ATOM     31  C   UNL A   1      37.669  29.743  27.808  1.00  0.00     0.016 A 
ATOM     32  C   UNL A   1      38.203  28.205  30.121  1.00  0.00     0.010 A 
ATOM     33  C   UNL A   1      38.787  28.940  27.864  1.00  0.00     0.010 A 
ATOM     34  C   UNL A   1      39.087  28.247  29.048  1.00  0.00    -0.014 A 
BRANCH  34  35
ATOM     35  C   UNL A   1      40.417  27.675  29.126  1.00  0.00     0.031 A 
ATOM     36  C   UNL A   1      40.649  26.286  28.700  1.00  0.00     0.074 A 
ATOM     37  C   UNL A   1      41.435  28.456  29.542  1.00  0.00     0.049 A 
ATOM     38  N   UNL A   1      41.683  25.592  29.025  1.00  0.00    -0.248 NA
ATOM     39  C   UNL A   1      39.678  25.547  27.899  1.00  0.00     0.031 C 
ATOM     40  C   UNL A   1      42.860  28.208  29.372  1.00  0.00     0.029 A 
ATOM     41  N   UNL A   1      41.368  29.577  30.388  1.00  0.00    -0.354 N 
ATOM     42  C   UNL A   1      41.654  24.436  28.287  1.00  0.00     0.074 A 
ATOM     43  C   UNL A   1      40.355  24.420  27.653  1.00  0.00     0.031 C 
ATOM     44  C   UNL A   1      43.539  28.950  30.259  1.00  0.00     0.029 A 
ATOM     45  C   UNL A   1      42.564  29.565  31.143  1.00  0.00     0.049 A 
ATOM     46  H   UNL A   1      40.638  30.236  30.443  1.00  0.00     0.167 HD
ATOM     47  C   UNL A   1      42.784  23.680  28.189  1.00  0.00     0.037 A 
ATOM     48  C   UNL A   1      42.533  29.389  32.498  1.00  0.00     0.037 A 
ATOM     49  C   UNL A   1      43.865  24.212  29.008  1.00  0.00     0.049 A 
ATOM     50  C   UNL A   1      43.212  28.139  33.001  1.00  0.00     0.074 A 
ATOM     51  C   UNL A   1      44.908  25.091  28.761  1.00  0.00     0.029 A 
ATOM     52  N   UNL A   1      43.768  24.106  30.382  1.00  0.00    -0.354 N 
ATOM     53  N   UNL A   1      43.673  27.199  32.226  1.00  0.00    -0.248 NA
ATOM     54  C   UNL A   1      43.346  27.808  34.422  1.00  0.00     0.031 C 
ATOM     55  C   UNL A   1      45.411  25.543  30.013  1.00  0.00     0.029 A 
ATOM     56  C   UNL A   1      44.680  24.929  31.012  1.00  0.00     0.049 A 
ATOM     57  H   UNL A   1      43.130  23.521  30.850  1.00  0.00     0.167 HD
ATOM     58  C   UNL A   1      44.136  26.172  32.994  1.00  0.00     0.074 A 
ATOM     59  C   UNL A   1      43.913  26.591  34.363  1.00  0.00     0.031 C 
ATOM     60  C   UNL A   1      44.652  25.034  32.457  1.00  0.00     0.037 A 
BRANCH  47  61
ATOM     61  C   UNL A   1      42.967  22.624  27.136  1.00  0.00     0.064 A 
ATOM     62  C   UNL A   1      42.278  21.398  27.225  1.00  0.00     0.173 A 
ATOM     63  C   UNL A   1      43.853  22.741  26.051  1.00  0.00     0.173 A 
ATOM     64  F   UNL A   1      41.345  21.186  28.163  1.00  0.00    -0.203 F 
ATOM     65  C   UNL A   1      42.538  20.334  26.361  1.00  0.00     0.198 A 
ATOM     66  C   UNL A   1      44.156  21.659  25.220  1.00  0.00     0.198 A 
ATOM     67  F   UNL A   1      44.425  23.916  25.750  1.00  0.00    -0.203 F 
ATOM     68  F   UNL A   1      41.858  19.186  26.497  1.00  0.00    -0.200 F 
ATOM     69  C   UNL A   1      43.505  20.451  25.384  1.00  0.00     0.200 A 
ATOM     70  F   UNL A   1      45.088  21.790  24.267  1.00  0.00    -0.200 F 
ATOM     71  F   UNL A   1      43.796  19.410  24.591  1.00  0.00    -0.200 F 
ENDBRANCH  47  61
BRANCH  48  72
ATOM     72  C   UNL A   1      41.357  30.022  33.133  1.00  0.00     0.064 A 
ATOM     73  C   UNL A   1      41.381  31.412  33.330  1.00  0.00     0.173 A 
ATOM     74  C   UNL A   1      40.118  29.370  33.174  1.00  0.00     0.173 A 
ATOM     75  F   UNL A   1      42.549  32.073  33.305  1.00  0.00    -0.203 F 
ATOM     76  C   UNL A   1      40.204  32.138  33.455  1.00  0.00     0.198 A 
ATOM     77  C   UNL A   1      38.940  30.101  33.302  1.00  0.00     0.198 A 
ATOM     78  F   UNL A   1      40.045  28.043  32.995  1.00  0.00    -0.203 F 
ATOM     79  F   UNL A   1      40.248  33.475  33.551  1.00  0.00    -0.200 F 
ATOM     80  C   UNL A   1      38.984  31.485  33.417  1.00  0.00     0.200 A 
ATOM     81  F   UNL A   1      37.761  29.464  33.260  1.00  0.00    -0.200 F 
ATOM     82  F   UNL A   1      37.857  32.202  33.488  1.00  0.00    -0.200 F 
ENDBRANCH  48  72
BRANCH  60  83
ATOM     83  C   UNL A   1      45.212  23.934  33.287  1.00  0.00     0.064 A 
ATOM     84  C   UNL A   1      44.431  22.834  33.667  1.00  0.00     0.173 A 
ATOM     85  C   UNL A   1      46.501  24.028  33.842  1.00  0.00     0.173 A 
ATOM     86  F   UNL A   1      43.180  22.690  33.199  1.00  0.00    -0.203 F 
ATOM     87  C   UNL A   1      44.919  21.873  34.552  1.00  0.00     0.198 A 
ATOM     88  C   UNL A   1      46.969  23.090  34.756  1.00  0.00     0.198 A 
ATOM     89  F   UNL A   1      47.329  25.026  33.497  1.00  0.00    -0.203 F 
ATOM     90  F   UNL A   1      44.157  20.817  34.873  1.00  0.00    -0.200 F 
ATOM     91  C   UNL A   1      46.180  22.010  35.107  1.00  0.00     0.200 A 
ATOM     92  F   UNL A   1      48.187  23.239  35.297  1.00  0.00    -0.200 F 
ATOM     93  F   UNL A   1      46.636  21.100  35.978  1.00  0.00    -0.200 F 
ENDBRANCH  60  83
ENDBRANCH  34  35
ENDBRANCH  27  29
ENDBRANCH  26  27
ENDBRANCH  25  26
ENDBRANCH   1  25
TORSDOF 15
ENDMDL
MODEL 2
REMARK VINA RESULT:     -12.6      1.089      1.971
REMARK SMILES Cc1ccc(F)c(O[C@H]2CC[C@]([NH2+]C(C)C)(C(=O)OCCOC(=O)c3ccc(-c4c5nc(c(-c6c(F)c(F)c(F)c(F)c6F)c6ccc([nH]6)c(-c6c(F)c(F)c(F)c(F)c6F)c6nc(c(-c7c(F)c(F)c(F)c(F)c7F)c7ccc4[nH]7)C=C6)C=C5)cc3)C2)c1
REMARK SMILES IDX 20 1 19 2 17 3 18 4 12 5 9 6 10 7 88 8 11 9 8 10 7 11 1 12
REMARK SMILES IDX 2 13 3 14 89 15 4 16 5 17 6 18 13 19 14 22 15 23 16 24 21 25
REMARK SMILES IDX 22 26 23 27 24 28 25 29 26 30 87 31 27 32 86 33 28 34 29 35
REMARK SMILES IDX 30 36 80 37 31 38 85 39 79 40 81 41 32 42 84 43 78 44 77 45
REMARK SMILES IDX 33 47 65 48 45 49 64 50 46 51 49 52 63 53 82 54 47 55 48 56
REMARK SMILES IDX 62 58 83 59 50 60 34 61 35 62 43 63 36 64 37 65 41 66 44 67
REMARK SMILES IDX 38 68 39 69 42 70 40 71 66 72 67 73 75 74 68 75 69 76 73 77
REMARK SMILES IDX 76 78 70 79 71 80 74 81 72 82 51 83 52 84 60 85 53 86 54 87
REMARK SMILES IDX 58 88 61 89 55 90 56 91 59 92 57 93
REMARK H PARENT 13 20 13 21 81 46 49 57
REMARK Flexibility Score: inf
ROOT
ATOM      1  C   UNL A   1      33.498  30.948  27.651  1.00  0.00     0.274 C 
ENDROOT
BRANCH   1   2
ATOM      2  O   UNL A   1      33.548  30.316  26.353  1.00  0.00    -0.457 OA
BRANCH   2   3
ATOM      3  C   UNL A   1      32.358  30.113  25.709  1.00  0.00     0.368 C 
ATOM      4  O   UNL A   1      31.407  30.883  25.822  1.00  0.00    -0.245 OA
BRANCH   3   5
ATOM      5  C   UNL A   1      32.334  28.774  24.905  1.00  0.00     0.198 C 
ATOM      6  C   UNL A   1      33.730  26.865  24.278  1.00  0.00     0.180 C 
ATOM      7  C   UNL A   1      33.849  27.861  23.136  1.00  0.00     0.052 C 
ATOM      8  C   UNL A   1      33.380  27.784  25.456  1.00  0.00     0.126 C 
ATOM      9  C   UNL A   1      32.819  28.952  23.435  1.00  0.00     0.085 C 
BRANCH   6  10
ATOM     10  O   UNL A   1      32.645  25.952  24.076  1.00  0.00    -0.487 OA
BRANCH  10  11
ATOM     11  C   UNL A   1      32.915  24.621  23.906  1.00  0.00     0.155 A 
ATOM     12  C   UNL A   1      36.191  22.691  23.507  1.00  0.00     0.044 C 
ATOM     13  C   UNL A   1      34.729  23.004  23.630  1.00  0.00    -0.047 A 
ATOM     14  C   UNL A   1      33.790  21.970  23.563  1.00  0.00     0.007 A 
ATOM     15  C   UNL A   1      34.281  24.323  23.805  1.00  0.00     0.053 A 
ATOM     16  C   UNL A   1      32.428  22.254  23.667  1.00  0.00     0.043 A 
ATOM     17  C   UNL A   1      31.999  23.570  23.834  1.00  0.00     0.165 A 
ATOM     18  F   UNL A   1      30.678  23.777  23.929  1.00  0.00    -0.203 F 
ENDBRANCH  10  11
ENDBRANCH   6  10
BRANCH   5  19
ATOM     19  N   UNL A   1      30.971  28.175  24.760  1.00  0.00    -0.330 N 
ATOM     20  H   UNL A   1      30.393  28.604  25.483  1.00  0.00     0.347 HD
ATOM     21  H   UNL A   1      31.171  27.176  24.812  1.00  0.00     0.347 HD
BRANCH  19  22
ATOM     22  C   UNL A   1      30.208  28.270  23.517  1.00  0.00     0.176 C 
ATOM     23  C   UNL A   1      29.236  27.078  23.501  1.00  0.00     0.075 C 
ATOM     24  C   UNL A   1      29.406  29.557  23.351  1.00  0.00     0.075 C 
ENDBRANCH  19  22
ENDBRANCH   5  19
ENDBRANCH   3   5
ENDBRANCH   2   3
ENDBRANCH   1   2
BRANCH   1  25
ATOM     25  C   UNL A   1      34.514  32.086  27.791  1.00  0.00     0.275 C 
BRANCH  25  26
ATOM     26  O   UNL A   1      35.862  31.607  27.717  1.00  0.00    -0.458 OA
BRANCH  26  27
ATOM     27  C   UNL A   1      36.266  31.041  28.874  1.00  0.00     0.338 C 
ATOM     28  O   UNL A   1      36.153  31.495  29.999  1.00  0.00    -0.246 OA
BRANCH  27  29
ATOM     29  C   UNL A   1      37.043  29.827  28.652  1.00  0.00     0.060 A 
ATOM     30  C   UNL A   1      37.171  28.953  29.739  1.00  0.00     0.016 A 
ATOM     31  C   UNL A   1      37.969  29.860  27.612  1.00  0.00     0.016 A 
ATOM     32  C   UNL A   1      38.334  28.222  29.889  1.00  0.00     0.010 A 
ATOM     33  C   UNL A   1      39.136  29.145  27.771  1.00  0.00     0.010 A 
ATOM     34  C   UNL A   1      39.342  28.402  28.946  1.00  0.00    -0.014 A 
BRANCH  34  35
ATOM     35  C   UNL A   1      40.695  27.933  29.167  1.00  0.00     0.031 A 
ATOM     36  C   UNL A   1      41.114  26.620  28.652  1.00  0.00     0.074 A 
ATOM     37  C   UNL A   1      41.566  28.743  29.804  1.00  0.00     0.049 A 
ATOM     38  N   UNL A   1      42.153  25.979  29.062  1.00  0.00    -0.248 NA
ATOM     39  C   UNL A   1      40.339  25.897  27.649  1.00  0.00     0.031 C 
ATOM     40  C   UNL A   1      43.017  28.628  29.826  1.00  0.00     0.029 A 
ATOM     41  N   UNL A   1      41.275  29.758  30.732  1.00  0.00    -0.354 N 
ATOM     42  C   UNL A   1      42.337  24.910  28.222  1.00  0.00     0.074 A 
ATOM     43  C   UNL A   1      41.147  24.860  27.402  1.00  0.00     0.031 C 
ATOM     44  C   UNL A   1      43.491  29.322  30.871  1.00  0.00     0.029 A 
ATOM     45  C   UNL A   1      42.348  29.760  31.653  1.00  0.00     0.049 A 
ATOM     46  H   UNL A   1      40.486  30.347  30.739  1.00  0.00     0.167 HD
ATOM     47  C   UNL A   1      43.535  24.261  28.223  1.00  0.00     0.037 A 
ATOM     48  C   UNL A   1      42.143  29.438  32.965  1.00  0.00     0.037 A 
ATOM     49  C   UNL A   1      44.435  24.786  29.242  1.00  0.00     0.049 A 
ATOM     50  C   UNL A   1      42.859  28.199  33.445  1.00  0.00     0.074 A 
ATOM     51  C   UNL A   1      45.415  25.766  29.238  1.00  0.00     0.029 A 
ATOM     52  N   UNL A   1      44.155  24.526  30.569  1.00  0.00    -0.354 N 
ATOM     53  N   UNL A   1      43.511  27.387  32.662  1.00  0.00    -0.248 NA
ATOM     54  C   UNL A   1      42.822  27.729  34.832  1.00  0.00     0.031 C 
ATOM     55  C   UNL A   1      45.692  26.120  30.588  1.00  0.00     0.029 A 
ATOM     56  C   UNL A   1      44.888  25.347  31.404  1.00  0.00     0.049 A 
ATOM     57  H   UNL A   1      43.515  23.846  30.880  1.00  0.00     0.167 HD
ATOM     58  C   UNL A   1      43.956  26.323  33.390  1.00  0.00     0.074 A 
ATOM     59  C   UNL A   1      43.503  26.574  34.744  1.00  0.00     0.031 C 
ATOM     60  C   UNL A   1      44.647  25.294  32.832  1.00  0.00     0.037 A 
BRANCH  47  61
ATOM     61  C   UNL A   1      43.964  23.342  27.115  1.00  0.00     0.064 A 
ATOM     62  C   UNL A   1      44.916  23.761  26.165  1.00  0.00     0.173 A 
ATOM     63  C   UNL A   1      43.429  22.059  26.907  1.00  0.00     0.173 A 
ATOM     64  F   UNL A   1      45.563  24.927  26.291  1.00  0.00    -0.203 F 
ATOM     65  C   UNL A   1      45.223  23.004  25.035  1.00  0.00     0.198 A 
ATOM     66  C   UNL A   1      43.692  21.324  25.748  1.00  0.00     0.198 A 
ATOM     67  F   UNL A   1      42.659  21.472  27.835  1.00  0.00    -0.203 F 
ATOM     68  F   UNL A   1      46.132  23.456  24.158  1.00  0.00    -0.200 F 
ATOM     69  C   UNL A   1      44.582  21.803  24.806  1.00  0.00     0.200 A 
ATOM     70  F   UNL A   1      43.073  20.154  25.544  1.00  0.00    -0.200 F 
ATOM     71  F   UNL A   1      44.835  21.103  23.692  1.00  0.00    -0.200 F 
ENDBRANCH  47  61
BRANCH  48  72
ATOM     72  C   UNL A   1      40.835  29.904  33.474  1.00  0.00     0.064 A 
ATOM     73  C   UNL A   1      40.707  31.258  33.824  1.00  0.00     0.173 A 
ATOM     74  C   UNL A   1      39.667  29.166  33.249  1.00  0.00     0.173 A 
ATOM     75  F   UNL A   1      41.803  31.998  34.054  1.00  0.00    -0.203 F 
ATOM     76  C   UNL A   1      39.465  31.878  33.841  1.00  0.00     0.198 A 
ATOM     77  C   UNL A   1      38.422  29.791  33.270  1.00  0.00     0.198 A 
ATOM     78  F   UNL A   1      39.739  27.869  32.917  1.00  0.00    -0.203 F 
ATOM     79  F   UNL A   1      39.376  33.193  34.088  1.00  0.00    -0.200 F 
ATOM     80  C   UNL A   1      38.326  31.150  33.541  1.00  0.00     0.200 A 
ATOM     81  F   UNL A   1      37.323  29.081  32.975  1.00  0.00    -0.200 F 
ATOM     82  F   UNL A   1      37.142  31.772  33.513  1.00  0.00    -0.200 F 
ENDBRANCH  48  72
BRANCH  60  83
ATOM     83  C   UNL A   1      45.185  24.159  33.629  1.00  0.00     0.064 A 
ATOM     84  C   UNL A   1      46.534  24.103  34.005  1.00  0.00     0.173 A 
ATOM     85  C   UNL A   1      44.394  23.029  33.908  1.00  0.00     0.173 A 
ATOM     86  F   UNL A   1      47.357  25.133  33.747  1.00  0.00    -0.203 F 
ATOM     87  C   UNL A   1      47.062  22.979  34.637  1.00  0.00     0.198 A 
ATOM     88  C   UNL A   1      44.933  21.893  34.501  1.00  0.00     0.198 A 
ATOM     89  F   UNL A   1      43.083  23.017  33.620  1.00  0.00    -0.203 F 
ATOM     90  F   UNL A   1      48.349  22.969  35.011  1.00  0.00    -0.200 F 
ATOM     91  C   UNL A   1      46.266  21.869  34.870  1.00  0.00     0.200 A 
ATOM     92  F   UNL A   1      44.157  20.820  34.710  1.00  0.00    -0.200 F 
ATOM     93  F   UNL A   1      46.783  20.779  35.451  1.00  0.00    -0.200 F 
ENDBRANCH  60  83
ENDBRANCH  34  35
ENDBRANCH  27  29
ENDBRANCH  26  27
ENDBRANCH  25  26
ENDBRANCH   1  25
TORSDOF 15
ENDMDL
MODEL 3
REMARK VINA RESULT:     -12.6      4.416     10.539
REMARK SMILES Cc1ccc(F)c(O[C@H]2CC[C@]([NH2+]C(C)C)(C(=O)OCCOC(=O)c3ccc(-c4c5nc(c(-c6c(F)c(F)c(F)c(F)c6F)c6ccc([nH]6)c(-c6c(F)c(F)c(F)c(F)c6F)c6nc(c(-c7c(F)c(F)c(F)c(F)c7F)c7ccc4[nH]7)C=C6)C=C5)cc3)C2)c1
REMARK SMILES IDX 20 1 19 2 17 3 18 4 12 5 9 6 10 7 88 8 11 9 8 10 7 11 1 12
REMARK SMILES IDX 2 13 3 14 89 15 4 16 5 17 6 18 13 19 14 22 15 23 16 24 21 25
REMARK SMILES IDX 22 26 23 27 24 28 25 29 26 30 87 31 27 32 86 33 28 34 29 35
REMARK SMILES IDX 30 36 80 37 31 38 85 39 79 40 81 41 32 42 84 43 78 44 77 45
REMARK SMILES IDX 33 47 65 48 45 49 64 50 46 51 49 52 63 53 82 54 47 55 48 56
REMARK SMILES IDX 62 58 83 59 50 60 34 61 35 62 43 63 36 64 37 65 41 66 44 67
REMARK SMILES IDX 38 68 39 69 42 70 40 71 66 72 67 73 75 74 68 75 69 76 73 77
REMARK SMILES IDX 76 78 70 79 71 80 74 81 72 82 51 83 52 84 60 85 53 86 54 87
REMARK SMILES IDX 58 88 61 89 55 90 56 91 59 92 57 93
REMARK H PARENT 13 20 13 21 81 46 49 57
REMARK Flexibility Score: inf
ROOT
ATOM      1  C   UNL A   1      39.446  20.883  26.007  1.00  0.00     0.274 C 
ENDROOT
BRANCH   1   2
ATOM      2  O   UNL A   1      38.241  21.614  25.691  1.00  0.00    -0.457 OA
BRANCH   2   3
ATOM      3  C   UNL A   1      37.202  20.907  25.150  1.00  0.00     0.368 C 
ATOM      4  O   UNL A   1      37.343  19.775  24.693  1.00  0.00    -0.245 OA
BRANCH   3   5
ATOM      5  C   UNL A   1      35.874  21.728  25.112  1.00  0.00     0.198 C 
ATOM      6  C   UNL A   1      34.985  23.988  25.405  1.00  0.00     0.180 C 
ATOM      7  C   UNL A   1      34.838  23.304  26.755  1.00  0.00     0.052 C 
ATOM      8  C   UNL A   1      36.154  23.210  24.789  1.00  0.00     0.126 C 
ATOM      9  C   UNL A   1      35.201  21.838  26.512  1.00  0.00     0.085 C 
BRANCH   6  10
ATOM     10  O   UNL A   1      33.828  23.796  24.584  1.00  0.00    -0.487 OA
BRANCH  10  11
ATOM     11  C   UNL A   1      33.055  24.877  24.254  1.00  0.00     0.155 A 
ATOM     12  C   UNL A   1      33.936  28.479  23.322  1.00  0.00     0.044 C 
ATOM     13  C   UNL A   1      33.149  27.235  23.611  1.00  0.00    -0.047 A 
ATOM     14  C   UNL A   1      31.753  27.264  23.533  1.00  0.00     0.007 A 
ATOM     15  C   UNL A   1      33.789  26.038  23.969  1.00  0.00     0.053 A 
ATOM     16  C   UNL A   1      31.014  26.115  23.811  1.00  0.00     0.043 A 
ATOM     17  C   UNL A   1      31.663  24.935  24.170  1.00  0.00     0.165 A 
ATOM     18  F   UNL A   1      30.896  23.864  24.422  1.00  0.00    -0.203 F 
ENDBRANCH  10  11
ENDBRANCH   6  10
BRANCH   5  19
ATOM     19  N   UNL A   1      34.810  21.125  24.251  1.00  0.00    -0.330 N 
ATOM     20  H   UNL A   1      35.293  20.553  23.559  1.00  0.00     0.347 HD
ATOM     21  H   UNL A   1      34.295  21.949  23.941  1.00  0.00     0.347 HD
BRANCH  19  22
ATOM     22  C   UNL A   1      33.746  20.288  24.802  1.00  0.00     0.176 C 
ATOM     23  C   UNL A   1      32.440  20.722  24.114  1.00  0.00     0.075 C 
ATOM     24  C   UNL A   1      33.934  18.789  24.594  1.00  0.00     0.075 C 
ENDBRANCH  19  22
ENDBRANCH   5  19
ENDBRANCH   3   5
ENDBRANCH   2   3
ENDBRANCH   1   2
BRANCH   1  25
ATOM     25  C   UNL A   1      40.535  21.775  26.610  1.00  0.00     0.275 C 
BRANCH  25  26
ATOM     26  O   UNL A   1      39.992  22.988  27.147  1.00  0.00    -0.458 OA
BRANCH  26  27
ATOM     27  C   UNL A   1      40.751  24.063  26.848  1.00  0.00     0.338 C 
ATOM     28  O   UNL A   1      41.932  24.073  26.548  1.00  0.00    -0.246 OA
BRANCH  27  29
ATOM     29  C   UNL A   1      40.045  25.317  27.077  1.00  0.00     0.060 A 
ATOM     30  C   UNL A   1      40.487  26.431  26.349  1.00  0.00     0.016 A 
ATOM     31  C   UNL A   1      39.368  25.442  28.287  1.00  0.00     0.016 A 
ATOM     32  C   UNL A   1      40.414  27.687  26.921  1.00  0.00     0.010 A 
ATOM     33  C   UNL A   1      39.313  26.692  28.864  1.00  0.00     0.010 A 
ATOM     34  C   UNL A   1      39.912  27.785  28.215  1.00  0.00    -0.014 A 
BRANCH  34  35
ATOM     35  C   UNL A   1      40.073  28.983  29.014  1.00  0.00     0.031 A 
ATOM     36  C   UNL A   1      39.011  30.001  29.040  1.00  0.00     0.074 A 
ATOM     37  C   UNL A   1      41.185  29.115  29.766  1.00  0.00     0.049 A 
ATOM     38  N   UNL A   1      39.181  31.215  29.435  1.00  0.00    -0.248 NA
ATOM     39  C   UNL A   1      37.661  29.726  28.560  1.00  0.00     0.031 C 
ATOM     40  C   UNL A   1      41.391  30.036  30.875  1.00  0.00     0.029 A 
ATOM     41  N   UNL A   1      42.448  28.540  29.542  1.00  0.00    -0.354 N 
ATOM     42  C   UNL A   1      37.943  31.801  29.513  1.00  0.00     0.074 A 
ATOM     43  C   UNL A   1      37.036  30.861  28.894  1.00  0.00     0.031 C 
ATOM     44  C   UNL A   1      42.709  30.176  31.084  1.00  0.00     0.029 A 
ATOM     45  C   UNL A   1      43.392  29.486  30.004  1.00  0.00     0.049 A 
ATOM     46  H   UNL A   1      42.636  27.659  29.145  1.00  0.00     0.167 HD
ATOM     47  C   UNL A   1      37.800  32.963  30.210  1.00  0.00     0.037 A 
ATOM     48  C   UNL A   1      44.264  30.083  29.137  1.00  0.00     0.037 A 
ATOM     49  C   UNL A   1      39.077  33.461  30.703  1.00  0.00     0.049 A 
ATOM     50  C   UNL A   1      44.112  31.578  28.998  1.00  0.00     0.074 A 
ATOM     51  C   UNL A   1      39.773  33.297  31.891  1.00  0.00     0.029 A 
ATOM     52  N   UNL A   1      39.982  33.975  29.795  1.00  0.00    -0.354 N 
ATOM     53  N   UNL A   1      43.141  32.264  29.532  1.00  0.00    -0.248 NA
ATOM     54  C   UNL A   1      44.993  32.408  28.174  1.00  0.00     0.031 C 
ATOM     55  C   UNL A   1      41.123  33.686  31.670  1.00  0.00     0.029 A 
ATOM     56  C   UNL A   1      41.239  34.094  30.354  1.00  0.00     0.049 A 
ATOM     57  H   UNL A   1      39.759  34.224  28.869  1.00  0.00     0.167 HD
ATOM     58  C   UNL A   1      43.242  33.566  29.139  1.00  0.00     0.074 A 
ATOM     59  C   UNL A   1      44.414  33.616  28.289  1.00  0.00     0.031 C 
ATOM     60  C   UNL A   1      42.344  34.514  29.518  1.00  0.00     0.037 A 
BRANCH  47  61
ATOM     61  C   UNL A   1      36.464  33.481  30.662  1.00  0.00     0.064 A 
ATOM     62  C   UNL A   1      35.566  34.050  29.737  1.00  0.00     0.173 A 
ATOM     63  C   UNL A   1      36.040  33.497  32.002  1.00  0.00     0.173 A 
ATOM     64  F   UNL A   1      35.811  34.025  28.420  1.00  0.00    -0.203 F 
ATOM     65  C   UNL A   1      34.390  34.684  30.134  1.00  0.00     0.198 A 
ATOM     66  C   UNL A   1      34.890  34.181  32.408  1.00  0.00     0.198 A 
ATOM     67  F   UNL A   1      36.712  32.826  32.948  1.00  0.00    -0.203 F 
ATOM     68  F   UNL A   1      33.575  35.215  29.210  1.00  0.00    -0.200 F 
ATOM     69  C   UNL A   1      34.071  34.784  31.473  1.00  0.00     0.200 A 
ATOM     70  F   UNL A   1      34.586  34.260  33.710  1.00  0.00    -0.200 F 
ATOM     71  F   UNL A   1      32.970  35.443  31.859  1.00  0.00    -0.200 F 
ENDBRANCH  47  61
BRANCH  48  72
ATOM     72  C   UNL A   1      44.709  29.179  28.055  1.00  0.00     0.064 A 
ATOM     73  C   UNL A   1      45.683  28.214  28.359  1.00  0.00     0.173 A 
ATOM     74  C   UNL A   1      43.939  28.999  26.899  1.00  0.00     0.173 A 
ATOM     75  F   UNL A   1      46.447  28.355  29.455  1.00  0.00    -0.203 F 
ATOM     76  C   UNL A   1      45.808  27.059  27.600  1.00  0.00     0.198 A 
ATOM     77  C   UNL A   1      44.069  27.840  26.138  1.00  0.00     0.198 A 
ATOM     78  F   UNL A   1      42.999  29.895  26.565  1.00  0.00    -0.203 F 
ATOM     79  F   UNL A   1      46.683  26.110  27.963  1.00  0.00    -0.200 F 
ATOM     80  C   UNL A   1      44.986  26.862  26.504  1.00  0.00     0.200 A 
ATOM     81  F   UNL A   1      43.267  27.652  25.080  1.00  0.00    -0.200 F 
ATOM     82  F   UNL A   1      45.083  25.722  25.812  1.00  0.00    -0.200 F 
ENDBRANCH  48  72
BRANCH  60  83
ATOM     83  C   UNL A   1      42.480  35.947  29.141  1.00  0.00     0.064 A 
ATOM     84  C   UNL A   1      41.890  36.456  27.975  1.00  0.00     0.173 A 
ATOM     85  C   UNL A   1      43.325  36.810  29.862  1.00  0.00     0.173 A 
ATOM     86  F   UNL A   1      41.093  35.683  27.221  1.00  0.00    -0.203 F 
ATOM     87  C   UNL A   1      42.128  37.765  27.558  1.00  0.00     0.198 A 
ATOM     88  C   UNL A   1      43.593  38.101  29.420  1.00  0.00     0.198 A 
ATOM     89  F   UNL A   1      43.895  36.416  31.011  1.00  0.00    -0.203 F 
ATOM     90  F   UNL A   1      41.526  38.230  26.454  1.00  0.00    -0.200 F 
ATOM     91  C   UNL A   1      42.991  38.580  28.271  1.00  0.00     0.200 A 
ATOM     92  F   UNL A   1      44.440  38.878  30.112  1.00  0.00    -0.200 F 
ATOM     93  F   UNL A   1      43.240  39.828  27.853  1.00  0.00    -0.200 F 
ENDBRANCH  60  83
ENDBRANCH  34  35
ENDBRANCH  27  29
ENDBRANCH  26  27
ENDBRANCH  25  26
ENDBRANCH   1  25
TORSDOF 15
ENDMDL
