MODEL 1
REMARK VINA RESULT:     -11.8      0.000      0.000
REMARK SMILES CCSc1nc(CC(=O)N[C@@H](C(=O)OCCOC(=O)c2ccc(-c3c4nc(c(-c5c(F)c(F)c(F)c(F)c5F)c5ccc([nH]5)c(-c5c(F)c(F)c(F)c(F)c5F)c5nc(c(-c6c(F)c(F)c(F)c(F)c6F)c6ccc3[nH]6)C=C5)C=C4)cc2)C2=C(C)N=N[C@@H]2C)cs1
REMARK SMILES IDX 14 1 12 2 13 3 11 4 10 5 8 6 9 7 7 9 6 10 4 11 5 12 91 13
REMARK SMILES IDX 90 14 3 15 2 16 1 17 83 18 84 19 88 20 85 21 86 22 87 23
REMARK SMILES IDX 89 24 15 25 16 26 17 27 18 28 19 29 20 30 21 31 82 32 22 33
REMARK SMILES IDX 81 34 23 35 24 36 25 37 75 38 26 39 80 40 74 41 76 42 27 43
REMARK SMILES IDX 79 44 73 45 72 46 28 48 60 49 40 50 59 51 41 52 44 53 58 54
REMARK SMILES IDX 77 55 42 56 43 57 57 59 78 60 45 61 29 62 30 63 38 64 31 65
REMARK SMILES IDX 32 66 36 67 39 68 33 69 34 70 37 71 35 72 61 73 62 74 70 75
REMARK SMILES IDX 63 76 64 77 68 78 71 79 65 80 66 81 69 82 67 83 46 84 47 85
REMARK SMILES IDX 55 86 48 87 49 88 53 89 56 90 50 91 51 92 54 93 52 94
REMARK H PARENT 10 8 76 47 44 58
REMARK Flexibility Score: inf
ROOT
ATOM      1  O   UNL A   1      30.931  27.820  25.183  1.00  0.00    -0.460 OA
ENDROOT
BRANCH   1   2
ATOM      2  C   UNL A   1      30.267  26.863  24.470  1.00  0.00     0.333 C 
ATOM      3  O   UNL A   1      29.184  27.034  23.922  1.00  0.00    -0.249 OA
BRANCH   2   4
ATOM      4  C   UNL A   1      31.015  25.498  24.491  1.00  0.00     0.223 C 
BRANCH   4   5
ATOM      5  N   UNL A   1      31.273  24.960  25.824  1.00  0.00    -0.339 N 
ATOM      6  C   UNL A   1      31.175  23.666  26.241  1.00  0.00     0.226 C 
ATOM      7  O   UNL A   1      31.286  23.426  27.446  1.00  0.00    -0.275 OA
ATOM      8  H   UNL A   1      31.553  25.614  26.505  1.00  0.00     0.164 HD
BRANCH   6   9
ATOM      9  C   UNL A   1      30.946  22.555  25.238  1.00  0.00     0.157 C 
BRANCH   9  10
ATOM     10  C   UNL A   1      32.159  21.698  25.107  1.00  0.00     0.062 A 
ATOM     11  C   UNL A   1      34.360  21.407  24.962  1.00  0.00     0.150 A 
ATOM     12  N   UNL A   1      33.405  22.307  25.073  1.00  0.00    -0.234 NA
ATOM     13  S   UNL A   1      33.810  19.785  24.870  1.00  0.00    -0.116 S 
ATOM     14  C   UNL A   1      32.192  20.322  24.996  1.00  0.00     0.092 A 
BRANCH  11  15
ATOM     15  S   UNL A   1      36.022  21.956  24.913  1.00  0.00    -0.096 SA
BRANCH  15  16
ATOM     16  C   UNL A   1      36.118  23.301  26.122  1.00  0.00     0.074 C 
ATOM     17  C   UNL A   1      37.475  23.987  26.103  1.00  0.00     0.016 C 
ENDBRANCH  15  16
ENDBRANCH  11  15
ENDBRANCH   9  10
ENDBRANCH   6   9
ENDBRANCH   4   5
BRANCH   4  18
ATOM     18  C   UNL A   1      32.309  25.513  23.751  1.00  0.00     0.012 C 
ATOM     19  C   UNL A   1      33.547  25.772  24.193  1.00  0.00     0.064 C 
ATOM     20  C   UNL A   1      32.495  25.093  22.337  1.00  0.00     0.156 C 
ATOM     21  C   UNL A   1      33.991  26.187  25.551  1.00  0.00     0.069 C 
ATOM     22  N   UNL A   1      34.498  25.608  23.217  1.00  0.00    -0.160 NA
ATOM     23  N   UNL A   1      33.961  25.231  22.141  1.00  0.00    -0.181 NA
ATOM     24  C   UNL A   1      31.779  25.922  21.284  1.00  0.00     0.040 C 
ENDBRANCH   4  18
ENDBRANCH   2   4
ENDBRANCH   1   2
BRANCH   1  25
ATOM     25  C   UNL A   1      31.189  29.073  24.515  1.00  0.00     0.274 C 
BRANCH  25  26
ATOM     26  C   UNL A   1      32.491  29.699  25.002  1.00  0.00     0.275 C 
BRANCH  26  27
ATOM     27  O   UNL A   1      32.414  29.866  26.425  1.00  0.00    -0.458 OA
BRANCH  27  28
ATOM     28  C   UNL A   1      32.904  31.022  26.922  1.00  0.00     0.338 C 
ATOM     29  O   UNL A   1      32.326  32.092  27.000  1.00  0.00    -0.246 OA
BRANCH  28  30
ATOM     30  C   UNL A   1      34.274  30.801  27.440  1.00  0.00     0.060 A 
ATOM     31  C   UNL A   1      34.743  29.514  27.712  1.00  0.00     0.016 A 
ATOM     32  C   UNL A   1      35.058  31.903  27.782  1.00  0.00     0.016 A 
ATOM     33  C   UNL A   1      35.922  29.335  28.437  1.00  0.00     0.010 A 
ATOM     34  C   UNL A   1      36.295  31.714  28.406  1.00  0.00     0.010 A 
ATOM     35  C   UNL A   1      36.726  30.428  28.781  1.00  0.00    -0.014 A 
BRANCH  35  36
ATOM     36  C   UNL A   1      37.988  30.263  29.561  1.00  0.00     0.031 A 
ATOM     37  C   UNL A   1      39.122  29.458  28.984  1.00  0.00     0.074 A 
ATOM     38  C   UNL A   1      38.138  30.802  30.786  1.00  0.00     0.049 A 
ATOM     39  N   UNL A   1      40.114  28.863  29.597  1.00  0.00    -0.248 NA
ATOM     40  C   UNL A   1      39.127  29.281  27.523  1.00  0.00     0.031 C 
ATOM     41  C   UNL A   1      37.187  31.685  31.459  1.00  0.00     0.029 A 
ATOM     42  N   UNL A   1      39.163  30.670  31.695  1.00  0.00    -0.354 N 
ATOM     43  C   UNL A   1      40.803  28.167  28.612  1.00  0.00     0.074 A 
ATOM     44  C   UNL A   1      40.139  28.440  27.355  1.00  0.00     0.031 C 
ATOM     45  C   UNL A   1      37.684  32.046  32.650  1.00  0.00     0.029 A 
ATOM     46  C   UNL A   1      38.927  31.320  32.882  1.00  0.00     0.049 A 
ATOM     47  H   UNL A   1      39.986  30.161  31.512  1.00  0.00     0.167 HD
ATOM     48  C   UNL A   1      41.879  27.358  28.758  1.00  0.00     0.037 A 
ATOM     49  C   UNL A   1      39.585  31.277  34.056  1.00  0.00     0.037 A 
ATOM     50  C   UNL A   1      42.588  27.167  29.997  1.00  0.00     0.049 A 
ATOM     51  C   UNL A   1      40.765  30.365  34.208  1.00  0.00     0.074 A 
ATOM     52  C   UNL A   1      43.682  26.359  30.255  1.00  0.00     0.029 A 
ATOM     53  N   UNL A   1      42.293  27.830  31.178  1.00  0.00    -0.354 N 
ATOM     54  N   UNL A   1      41.312  29.569  33.323  1.00  0.00    -0.248 NA
ATOM     55  C   UNL A   1      41.393  30.309  35.536  1.00  0.00     0.031 C 
ATOM     56  C   UNL A   1      44.043  26.526  31.597  1.00  0.00     0.029 A 
ATOM     57  C   UNL A   1      43.189  27.456  32.166  1.00  0.00     0.049 A 
ATOM     58  H   UNL A   1      41.556  28.472  31.297  1.00  0.00     0.167 HD
ATOM     59  C   UNL A   1      42.340  28.914  33.983  1.00  0.00     0.074 A 
ATOM     60  C   UNL A   1      42.356  29.419  35.341  1.00  0.00     0.031 C 
ATOM     61  C   UNL A   1      43.188  27.970  33.509  1.00  0.00     0.037 A 
BRANCH  48  62
ATOM     62  C   UNL A   1      42.335  26.575  27.564  1.00  0.00     0.064 A 
ATOM     63  C   UNL A   1      43.365  27.024  26.728  1.00  0.00     0.173 A 
ATOM     64  C   UNL A   1      41.769  25.319  27.297  1.00  0.00     0.173 A 
ATOM     65  F   UNL A   1      43.929  28.223  26.934  1.00  0.00    -0.203 F 
ATOM     66  C   UNL A   1      43.807  26.246  25.660  1.00  0.00     0.198 A 
ATOM     67  C   UNL A   1      42.227  24.535  26.242  1.00  0.00     0.198 A 
ATOM     68  F   UNL A   1      40.783  24.844  28.072  1.00  0.00    -0.203 F 
ATOM     69  F   UNL A   1      44.777  26.702  24.855  1.00  0.00    -0.200 F 
ATOM     70  C   UNL A   1      43.244  24.999  25.423  1.00  0.00     0.200 A 
ATOM     71  F   UNL A   1      41.688  23.327  26.023  1.00  0.00    -0.200 F 
ATOM     72  F   UNL A   1      43.680  24.246  24.403  1.00  0.00    -0.200 F 
ENDBRANCH  48  62
BRANCH  49  73
ATOM     73  C   UNL A   1      39.073  32.070  35.202  1.00  0.00     0.064 A 
ATOM     74  C   UNL A   1      38.348  31.459  36.232  1.00  0.00     0.173 A 
ATOM     75  C   UNL A   1      39.343  33.442  35.314  1.00  0.00     0.173 A 
ATOM     76  F   UNL A   1      38.041  30.155  36.153  1.00  0.00    -0.203 F 
ATOM     77  C   UNL A   1      37.922  32.189  37.339  1.00  0.00     0.198 A 
ATOM     78  C   UNL A   1      38.941  34.164  36.434  1.00  0.00     0.198 A 
ATOM     79  F   UNL A   1      40.032  34.071  34.351  1.00  0.00    -0.203 F 
ATOM     80  F   UNL A   1      37.214  31.588  38.305  1.00  0.00    -0.200 F 
ATOM     81  C   UNL A   1      38.230  33.538  37.445  1.00  0.00     0.200 A 
ATOM     82  F   UNL A   1      39.256  35.463  36.539  1.00  0.00    -0.200 F 
ATOM     83  F   UNL A   1      37.841  34.234  38.523  1.00  0.00    -0.200 F 
ENDBRANCH  49  73
BRANCH  61  84
ATOM     84  C   UNL A   1      44.212  27.435  34.459  1.00  0.00     0.064 A 
ATOM     85  C   UNL A   1      45.441  28.082  34.641  1.00  0.00     0.173 A 
ATOM     86  C   UNL A   1      43.946  26.288  35.220  1.00  0.00     0.173 A 
ATOM     87  F   UNL A   1      45.743  29.174  33.922  1.00  0.00    -0.203 F 
ATOM     88  C   UNL A   1      46.377  27.591  35.548  1.00  0.00     0.198 A 
ATOM     89  C   UNL A   1      44.877  25.809  36.136  1.00  0.00     0.198 A 
ATOM     90  F   UNL A   1      42.781  25.638  35.077  1.00  0.00    -0.203 F 
ATOM     91  F   UNL A   1      47.558  28.208  35.689  1.00  0.00    -0.200 F 
ATOM     92  C   UNL A   1      46.091  26.459  36.297  1.00  0.00     0.200 A 
ATOM     93  F   UNL A   1      44.601  24.717  36.862  1.00  0.00    -0.200 F 
ATOM     94  F   UNL A   1      46.993  25.989  37.171  1.00  0.00    -0.200 F 
ENDBRANCH  61  84
ENDBRANCH  35  36
ENDBRANCH  28  30
ENDBRANCH  27  28
ENDBRANCH  26  27
ENDBRANCH  25  26
ENDBRANCH   1  25
TORSDOF 17
ENDMDL
MODEL 2
REMARK VINA RESULT:     -11.8      0.914      2.405
REMARK SMILES CCSc1nc(CC(=O)N[C@@H](C(=O)OCCOC(=O)c2ccc(-c3c4nc(c(-c5c(F)c(F)c(F)c(F)c5F)c5ccc([nH]5)c(-c5c(F)c(F)c(F)c(F)c5F)c5nc(c(-c6c(F)c(F)c(F)c(F)c6F)c6ccc3[nH]6)C=C5)C=C4)cc2)C2=C(C)N=N[C@@H]2C)cs1
REMARK SMILES IDX 14 1 12 2 13 3 11 4 10 5 8 6 9 7 7 9 6 10 4 11 5 12 91 13
REMARK SMILES IDX 90 14 3 15 2 16 1 17 83 18 84 19 88 20 85 21 86 22 87 23
REMARK SMILES IDX 89 24 15 25 16 26 17 27 18 28 19 29 20 30 21 31 82 32 22 33
REMARK SMILES IDX 81 34 23 35 24 36 25 37 75 38 26 39 80 40 74 41 76 42 27 43
REMARK SMILES IDX 79 44 73 45 72 46 28 48 60 49 40 50 59 51 41 52 44 53 58 54
REMARK SMILES IDX 77 55 42 56 43 57 57 59 78 60 45 61 29 62 30 63 38 64 31 65
REMARK SMILES IDX 32 66 36 67 39 68 33 69 34 70 37 71 35 72 61 73 62 74 70 75
REMARK SMILES IDX 63 76 64 77 68 78 71 79 65 80 66 81 69 82 67 83 46 84 47 85
REMARK SMILES IDX 55 86 48 87 49 88 53 89 56 90 50 91 51 92 54 93 52 94
REMARK H PARENT 10 8 76 47 44 58
REMARK Flexibility Score: inf
ROOT
ATOM      1  O   UNL A   1      30.975  28.095  25.193  1.00  0.00    -0.460 OA
ENDROOT
BRANCH   1   2
ATOM      2  C   UNL A   1      30.407  27.305  24.235  1.00  0.00     0.333 C 
ATOM      3  O   UNL A   1      29.573  27.691  23.423  1.00  0.00    -0.249 OA
BRANCH   2   4
ATOM      4  C   UNL A   1      30.890  25.829  24.337  1.00  0.00     0.223 C 
BRANCH   4   5
ATOM      5  N   UNL A   1      30.882  25.272  25.687  1.00  0.00    -0.339 N 
ATOM      6  C   UNL A   1      30.762  23.965  26.056  1.00  0.00     0.226 C 
ATOM      7  O   UNL A   1      30.622  23.702  27.253  1.00  0.00    -0.275 OA
ATOM      8  H   UNL A   1      30.974  25.922  26.421  1.00  0.00     0.164 HD
BRANCH   6   9
ATOM      9  C   UNL A   1      30.813  22.869  25.012  1.00  0.00     0.157 C 
BRANCH   9  10
ATOM     10  C   UNL A   1      31.987  21.978  25.233  1.00  0.00     0.062 A 
ATOM     11  C   UNL A   1      32.939  19.974  25.388  1.00  0.00     0.150 A 
ATOM     12  N   UNL A   1      31.803  20.605  25.179  1.00  0.00    -0.234 NA
ATOM     13  S   UNL A   1      34.284  20.996  25.682  1.00  0.00    -0.116 S 
ATOM     14  C   UNL A   1      33.283  22.371  25.510  1.00  0.00     0.092 A 
BRANCH  11  15
ATOM     15  S   UNL A   1      32.940  18.223  25.352  1.00  0.00    -0.096 SA
BRANCH  15  16
ATOM     16  C   UNL A   1      32.779  17.780  23.603  1.00  0.00     0.074 C 
ATOM     17  C   UNL A   1      34.002  17.036  23.090  1.00  0.00     0.016 C 
ENDBRANCH  15  16
ENDBRANCH  11  15
ENDBRANCH   9  10
ENDBRANCH   6   9
ENDBRANCH   4   5
BRANCH   4  18
ATOM     18  C   UNL A   1      32.247  25.602  23.763  1.00  0.00     0.012 C 
ATOM     19  C   UNL A   1      33.453  25.767  24.322  1.00  0.00     0.064 C 
ATOM     20  C   UNL A   1      32.527  24.994  22.436  1.00  0.00     0.156 C 
ATOM     21  C   UNL A   1      33.799  26.289  25.672  1.00  0.00     0.069 C 
ATOM     22  N   UNL A   1      34.474  25.374  23.492  1.00  0.00    -0.160 NA
ATOM     23  N   UNL A   1      34.011  24.935  22.406  1.00  0.00    -0.181 NA
ATOM     24  C   UNL A   1      32.043  25.766  21.221  1.00  0.00     0.040 C 
ENDBRANCH   4  18
ENDBRANCH   2   4
ENDBRANCH   1   2
BRANCH   1  25
ATOM     25  C   UNL A   1      31.620  29.305  24.744  1.00  0.00     0.274 C 
BRANCH  25  26
ATOM     26  C   UNL A   1      31.806  30.290  25.894  1.00  0.00     0.275 C 
BRANCH  26  27
ATOM     27  O   UNL A   1      33.194  30.315  26.255  1.00  0.00    -0.458 OA
BRANCH  27  28
ATOM     28  C   UNL A   1      33.570  31.270  27.132  1.00  0.00     0.338 C 
ATOM     29  O   UNL A   1      32.911  32.225  27.505  1.00  0.00    -0.246 OA
BRANCH  28  30
ATOM     30  C   UNL A   1      34.923  30.966  27.653  1.00  0.00     0.060 A 
ATOM     31  C   UNL A   1      35.288  29.661  27.991  1.00  0.00     0.016 A 
ATOM     32  C   UNL A   1      35.797  32.017  27.932  1.00  0.00     0.016 A 
ATOM     33  C   UNL A   1      36.456  29.425  28.717  1.00  0.00     0.010 A 
ATOM     34  C   UNL A   1      37.021  31.760  28.558  1.00  0.00     0.010 A 
ATOM     35  C   UNL A   1      37.350  30.466  28.998  1.00  0.00    -0.014 A 
BRANCH  35  36
ATOM     36  C   UNL A   1      38.601  30.239  29.778  1.00  0.00     0.031 A 
ATOM     37  C   UNL A   1      39.692  29.372  29.206  1.00  0.00     0.074 A 
ATOM     38  C   UNL A   1      38.781  30.777  31.001  1.00  0.00     0.049 A 
ATOM     39  N   UNL A   1      40.651  28.730  29.823  1.00  0.00    -0.248 NA
ATOM     40  C   UNL A   1      39.686  29.185  27.747  1.00  0.00     0.031 C 
ATOM     41  C   UNL A   1      37.878  31.714  31.668  1.00  0.00     0.029 A 
ATOM     42  N   UNL A   1      39.798  30.598  31.910  1.00  0.00    -0.354 N 
ATOM     43  C   UNL A   1      41.302  27.992  28.842  1.00  0.00     0.074 A 
ATOM     44  C   UNL A   1      40.653  28.292  27.584  1.00  0.00     0.031 C 
ATOM     45  C   UNL A   1      38.394  32.055  32.856  1.00  0.00     0.029 A 
ATOM     46  C   UNL A   1      39.597  31.266  33.092  1.00  0.00     0.049 A 
ATOM     47  H   UNL A   1      40.593  30.045  31.730  1.00  0.00     0.167 HD
ATOM     48  C   UNL A   1      42.334  27.128  28.993  1.00  0.00     0.037 A 
ATOM     49  C   UNL A   1      40.253  31.197  34.267  1.00  0.00     0.037 A 
ATOM     50  C   UNL A   1      43.033  26.908  30.234  1.00  0.00     0.049 A 
ATOM     51  C   UNL A   1      41.384  30.225  34.424  1.00  0.00     0.074 A 
ATOM     52  C   UNL A   1      44.083  26.045  30.496  1.00  0.00     0.029 A 
ATOM     53  N   UNL A   1      42.774  27.594  31.410  1.00  0.00    -0.354 N 
ATOM     54  N   UNL A   1      41.888  29.396  33.544  1.00  0.00    -0.248 NA
ATOM     55  C   UNL A   1      42.008  30.145  35.752  1.00  0.00     0.031 C 
ATOM     56  C   UNL A   1      44.453  26.201  31.837  1.00  0.00     0.029 A 
ATOM     57  C   UNL A   1      43.650  27.179  32.400  1.00  0.00     0.049 A 
ATOM     58  H   UNL A   1      42.072  28.274  31.525  1.00  0.00     0.167 HD
ATOM     59  C   UNL A   1      42.880  28.692  34.208  1.00  0.00     0.074 A 
ATOM     60  C   UNL A   1      42.923  29.204  35.562  1.00  0.00     0.031 C 
ATOM     61  C   UNL A   1      43.676  27.701  33.740  1.00  0.00     0.037 A 
BRANCH  48  62
ATOM     62  C   UNL A   1      42.747  26.315  27.805  1.00  0.00     0.064 A 
ATOM     63  C   UNL A   1      42.145  25.089  27.494  1.00  0.00     0.173 A 
ATOM     64  C   UNL A   1      43.722  26.812  26.926  1.00  0.00     0.173 A 
ATOM     65  F   UNL A   1      41.218  24.565  28.310  1.00  0.00    -0.203 F 
ATOM     66  C   UNL A   1      42.511  24.384  26.348  1.00  0.00     0.198 A 
ATOM     67  C   UNL A   1      44.070  26.116  25.771  1.00  0.00     0.198 A 
ATOM     68  F   UNL A   1      44.325  27.983  27.178  1.00  0.00    -0.203 F 
ATOM     69  F   UNL A   1      41.941  23.201  26.080  1.00  0.00    -0.200 F 
ATOM     70  C   UNL A   1      43.466  24.903  25.484  1.00  0.00     0.200 A 
ATOM     71  F   UNL A   1      44.985  26.624  24.933  1.00  0.00    -0.200 F 
ATOM     72  F   UNL A   1      43.806  24.230  24.376  1.00  0.00    -0.200 F 
ENDBRANCH  48  62
BRANCH  49  73
ATOM     73  C   UNL A   1      39.784  32.023  35.407  1.00  0.00     0.064 A 
ATOM     74  C   UNL A   1      40.296  33.308  35.623  1.00  0.00     0.173 A 
ATOM     75  C   UNL A   1      38.779  31.563  36.271  1.00  0.00     0.173 A 
ATOM     76  F   UNL A   1      41.279  33.778  34.840  1.00  0.00    -0.203 F 
ATOM     77  C   UNL A   1      39.811  34.109  36.655  1.00  0.00     0.198 A 
ATOM     78  C   UNL A   1      38.275  32.375  37.284  1.00  0.00     0.198 A 
ATOM     79  F   UNL A   1      38.260  30.338  36.105  1.00  0.00    -0.203 F 
ATOM     80  F   UNL A   1      40.328  35.329  36.854  1.00  0.00    -0.200 F 
ATOM     81  C   UNL A   1      38.792  33.647  37.476  1.00  0.00     0.200 A 
ATOM     82  F   UNL A   1      37.280  31.929  38.063  1.00  0.00    -0.200 F 
ATOM     83  F   UNL A   1      38.309  34.427  38.452  1.00  0.00    -0.200 F 
ENDBRANCH  49  73
BRANCH  61  84
ATOM     84  C   UNL A   1      44.672  27.119  34.693  1.00  0.00     0.064 A 
ATOM     85  C   UNL A   1      44.377  25.972  35.441  1.00  0.00     0.173 A 
ATOM     86  C   UNL A   1      45.944  27.693  34.827  1.00  0.00     0.173 A 
ATOM     87  F   UNL A   1      43.166  25.402  35.354  1.00  0.00    -0.203 F 
ATOM     88  C   UNL A   1      45.321  25.424  36.305  1.00  0.00     0.198 A 
ATOM     89  C   UNL A   1      46.891  27.132  35.680  1.00  0.00     0.198 A 
ATOM     90  F   UNL A   1      46.269  28.790  34.129  1.00  0.00    -0.203 F 
ATOM     91  F   UNL A   1      45.013  24.342  37.033  1.00  0.00    -0.200 F 
ATOM     92  C   UNL A   1      46.578  26.001  36.419  1.00  0.00     0.200 A 
ATOM     93  F   UNL A   1      48.106  27.688  35.788  1.00  0.00    -0.200 F 
ATOM     94  F   UNL A   1      47.487  25.470  37.249  1.00  0.00    -0.200 F 
ENDBRANCH  61  84
ENDBRANCH  35  36
ENDBRANCH  28  30
ENDBRANCH  27  28
ENDBRANCH  26  27
ENDBRANCH  25  26
ENDBRANCH   1  25
TORSDOF 17
ENDMDL
MODEL 3
REMARK VINA RESULT:     -11.5      1.260      2.466
REMARK SMILES CCSc1nc(CC(=O)N[C@@H](C(=O)OCCOC(=O)c2ccc(-c3c4nc(c(-c5c(F)c(F)c(F)c(F)c5F)c5ccc([nH]5)c(-c5c(F)c(F)c(F)c(F)c5F)c5nc(c(-c6c(F)c(F)c(F)c(F)c6F)c6ccc3[nH]6)C=C5)C=C4)cc2)C2=C(C)N=N[C@@H]2C)cs1
REMARK SMILES IDX 14 1 12 2 13 3 11 4 10 5 8 6 9 7 7 9 6 10 4 11 5 12 91 13
REMARK SMILES IDX 90 14 3 15 2 16 1 17 83 18 84 19 88 20 85 21 86 22 87 23
REMARK SMILES IDX 89 24 15 25 16 26 17 27 18 28 19 29 20 30 21 31 82 32 22 33
REMARK SMILES IDX 81 34 23 35 24 36 25 37 75 38 26 39 80 40 74 41 76 42 27 43
REMARK SMILES IDX 79 44 73 45 72 46 28 48 60 49 40 50 59 51 41 52 44 53 58 54
REMARK SMILES IDX 77 55 42 56 43 57 57 59 78 60 45 61 29 62 30 63 38 64 31 65
REMARK SMILES IDX 32 66 36 67 39 68 33 69 34 70 37 71 35 72 61 73 62 74 70 75
REMARK SMILES IDX 63 76 64 77 68 78 71 79 65 80 66 81 69 82 67 83 46 84 47 85
REMARK SMILES IDX 55 86 48 87 49 88 53 89 56 90 50 91 51 92 54 93 52 94
REMARK H PARENT 10 8 76 47 44 58
REMARK Flexibility Score: inf
ROOT
ATOM      1  O   UNL A   1      30.708  29.353  23.958  1.00  0.00    -0.460 OA
ENDROOT
BRANCH   1   2
ATOM      2  C   UNL A   1      30.798  28.433  22.953  1.00  0.00     0.333 C 
ATOM      3  O   UNL A   1      30.297  28.569  21.842  1.00  0.00    -0.249 OA
BRANCH   2   4
ATOM      4  C   UNL A   1      31.557  27.151  23.404  1.00  0.00     0.223 C 
BRANCH   4   5
ATOM      5  N   UNL A   1      31.765  26.159  22.353  1.00  0.00    -0.339 N 
ATOM      6  C   UNL A   1      32.879  25.410  22.113  1.00  0.00     0.226 C 
ATOM      7  O   UNL A   1      32.922  24.734  21.083  1.00  0.00    -0.275 OA
ATOM      8  H   UNL A   1      31.007  26.013  21.743  1.00  0.00     0.164 HD
BRANCH   6   9
ATOM      9  C   UNL A   1      34.027  25.410  23.101  1.00  0.00     0.157 C 
BRANCH   9  10
ATOM     10  C   UNL A   1      34.277  24.037  23.624  1.00  0.00     0.062 A 
ATOM     11  C   UNL A   1      33.593  22.085  24.442  1.00  0.00     0.150 A 
ATOM     12  N   UNL A   1      33.194  23.265  24.015  1.00  0.00    -0.234 NA
ATOM     13  S   UNL A   1      35.292  21.850  24.418  1.00  0.00    -0.116 S 
ATOM     14  C   UNL A   1      35.505  23.424  23.787  1.00  0.00     0.092 A 
BRANCH  11  15
ATOM     15  S   UNL A   1      32.383  20.937  24.976  1.00  0.00    -0.096 SA
BRANCH  15  16
ATOM     16  C   UNL A   1      32.528  19.528  23.849  1.00  0.00     0.074 C 
ATOM     17  C   UNL A   1      33.546  18.510  24.338  1.00  0.00     0.016 C 
ENDBRANCH  15  16
ENDBRANCH  11  15
ENDBRANCH   9  10
ENDBRANCH   6   9
ENDBRANCH   4   5
BRANCH   4  18
ATOM     18  C   UNL A   1      30.925  26.457  24.562  1.00  0.00     0.012 C 
ATOM     19  C   UNL A   1      29.644  26.119  24.765  1.00  0.00     0.064 C 
ATOM     20  C   UNL A   1      31.658  25.863  25.711  1.00  0.00     0.156 C 
ATOM     21  C   UNL A   1      28.455  26.395  23.914  1.00  0.00     0.069 C 
ATOM     22  N   UNL A   1      29.466  25.414  25.929  1.00  0.00    -0.160 NA
ATOM     23  N   UNL A   1      30.570  25.245  26.512  1.00  0.00    -0.181 NA
ATOM     24  C   UNL A   1      32.430  26.827  26.594  1.00  0.00     0.040 C 
ENDBRANCH   4  18
ENDBRANCH   2   4
ENDBRANCH   1   2
BRANCH   1  25
ATOM     25  C   UNL A   1      31.934  29.716  24.626  1.00  0.00     0.274 C 
BRANCH  25  26
ATOM     26  C   UNL A   1      31.654  30.480  25.915  1.00  0.00     0.275 C 
BRANCH  26  27
ATOM     27  O   UNL A   1      32.767  30.302  26.803  1.00  0.00    -0.458 OA
BRANCH  27  28
ATOM     28  C   UNL A   1      33.372  31.427  27.241  1.00  0.00     0.338 C 
ATOM     29  O   UNL A   1      32.897  32.549  27.280  1.00  0.00    -0.246 OA
BRANCH  28  30
ATOM     30  C   UNL A   1      34.726  31.102  27.747  1.00  0.00     0.060 A 
ATOM     31  C   UNL A   1      35.075  29.791  28.078  1.00  0.00     0.016 A 
ATOM     32  C   UNL A   1      35.618  32.140  28.019  1.00  0.00     0.016 A 
ATOM     33  C   UNL A   1      36.247  29.537  28.791  1.00  0.00     0.010 A 
ATOM     34  C   UNL A   1      36.844  31.864  28.631  1.00  0.00     0.010 A 
ATOM     35  C   UNL A   1      37.160  30.563  29.064  1.00  0.00    -0.014 A 
BRANCH  35  36
ATOM     36  C   UNL A   1      38.416  30.317  29.831  1.00  0.00     0.031 A 
ATOM     37  C   UNL A   1      39.500  29.459  29.233  1.00  0.00     0.074 A 
ATOM     38  C   UNL A   1      38.606  30.828  31.063  1.00  0.00     0.049 A 
ATOM     39  N   UNL A   1      40.462  28.801  29.828  1.00  0.00    -0.248 NA
ATOM     40  C   UNL A   1      39.483  29.304  27.770  1.00  0.00     0.031 C 
ATOM     41  C   UNL A   1      37.710  31.752  31.757  1.00  0.00     0.029 A 
ATOM     42  N   UNL A   1      39.629  30.626  31.961  1.00  0.00    -0.354 N 
ATOM     43  C   UNL A   1      41.104  28.083  28.827  1.00  0.00     0.074 A 
ATOM     44  C   UNL A   1      40.446  28.412  27.580  1.00  0.00     0.031 C 
ATOM     45  C   UNL A   1      38.236  32.067  32.949  1.00  0.00     0.029 A 
ATOM     46  C   UNL A   1      39.438  31.270  33.159  1.00  0.00     0.049 A 
ATOM     47  H   UNL A   1      40.420  30.075  31.763  1.00  0.00     0.167 HD
ATOM     48  C   UNL A   1      42.134  27.213  28.952  1.00  0.00     0.037 A 
ATOM     49  C   UNL A   1      40.103  31.173  34.327  1.00  0.00     0.037 A 
ATOM     50  C   UNL A   1      42.841  26.966  30.182  1.00  0.00     0.049 A 
ATOM     51  C   UNL A   1      41.231  30.195  34.455  1.00  0.00     0.074 A 
ATOM     52  C   UNL A   1      43.890  26.094  30.418  1.00  0.00     0.029 A 
ATOM     53  N   UNL A   1      42.592  27.626  31.375  1.00  0.00    -0.354 N 
ATOM     54  N   UNL A   1      41.727  29.384  33.554  1.00  0.00    -0.248 NA
ATOM     55  C   UNL A   1      41.865  30.085  35.777  1.00  0.00     0.031 C 
ATOM     56  C   UNL A   1      44.271  26.220  31.760  1.00  0.00     0.029 A 
ATOM     57  C   UNL A   1      43.474  27.188  32.350  1.00  0.00     0.049 A 
ATOM     58  H   UNL A   1      41.893  28.306  31.510  1.00  0.00     0.167 HD
ATOM     59  C   UNL A   1      42.722  28.663  34.195  1.00  0.00     0.074 A 
ATOM     60  C   UNL A   1      42.776  29.145  35.560  1.00  0.00     0.031 C 
ATOM     61  C   UNL A   1      43.512  27.680  33.700  1.00  0.00     0.037 A 
BRANCH  48  62
ATOM     62  C   UNL A   1      42.537  26.425  27.743  1.00  0.00     0.064 A 
ATOM     63  C   UNL A   1      43.573  26.838  26.895  1.00  0.00     0.173 A 
ATOM     64  C   UNL A   1      41.912  25.198  27.472  1.00  0.00     0.173 A 
ATOM     65  F   UNL A   1      44.191  28.009  27.104  1.00  0.00    -0.203 F 
ATOM     66  C   UNL A   1      43.963  26.053  25.812  1.00  0.00     0.198 A 
ATOM     67  C   UNL A   1      42.319  24.406  26.402  1.00  0.00     0.198 A 
ATOM     68  F   UNL A   1      40.918  24.758  28.258  1.00  0.00    -0.203 F 
ATOM     69  F   UNL A   1      44.939  26.476  24.997  1.00  0.00    -0.200 F 
ATOM     70  C   UNL A   1      43.342  24.835  25.571  1.00  0.00     0.200 A 
ATOM     71  F   UNL A   1      41.724  23.225  26.178  1.00  0.00    -0.200 F 
ATOM     72  F   UNL A   1      43.729  24.075  24.537  1.00  0.00    -0.200 F 
ENDBRANCH  48  62
BRANCH  49  73
ATOM     73  C   UNL A   1      39.644  31.975  35.488  1.00  0.00     0.064 A 
ATOM     74  C   UNL A   1      40.142  33.265  35.714  1.00  0.00     0.173 A 
ATOM     75  C   UNL A   1      38.661  31.489  36.363  1.00  0.00     0.173 A 
ATOM     76  F   UNL A   1      41.104  33.759  34.920  1.00  0.00    -0.203 F 
ATOM     77  C   UNL A   1      39.666  34.042  36.767  1.00  0.00     0.198 A 
ATOM     78  C   UNL A   1      38.166  32.278  37.398  1.00  0.00     0.198 A 
ATOM     79  F   UNL A   1      38.156  30.259  36.189  1.00  0.00    -0.203 F 
ATOM     80  F   UNL A   1      40.170  35.266  36.975  1.00  0.00    -0.200 F 
ATOM     81  C   UNL A   1      38.668  33.554  37.599  1.00  0.00     0.200 A 
ATOM     82  F   UNL A   1      37.192  31.807  38.189  1.00  0.00    -0.200 F 
ATOM     83  F   UNL A   1      38.193  34.313  38.597  1.00  0.00    -0.200 F 
ENDBRANCH  49  73
BRANCH  61  84
ATOM     84  C   UNL A   1      44.513  27.076  34.633  1.00  0.00     0.064 A 
ATOM     85  C   UNL A   1      45.773  27.658  34.823  1.00  0.00     0.173 A 
ATOM     86  C   UNL A   1      44.193  25.927  35.370  1.00  0.00     0.173 A 
ATOM     87  F   UNL A   1      46.124  28.749  34.126  1.00  0.00    -0.203 F 
ATOM     88  C   UNL A   1      46.687  27.102  35.714  1.00  0.00     0.198 A 
ATOM     89  C   UNL A   1      45.104  25.383  36.271  1.00  0.00     0.198 A 
ATOM     90  F   UNL A   1      42.998  25.338  35.219  1.00  0.00    -0.203 F 
ATOM     91  F   UNL A   1      47.897  27.658  35.863  1.00  0.00    -0.200 F 
ATOM     92  C   UNL A   1      46.349  25.969  36.440  1.00  0.00     0.200 A 
ATOM     93  F   UNL A   1      44.777  24.290  36.974  1.00  0.00    -0.200 F 
ATOM     94  F   UNL A   1      47.230  25.437  37.299  1.00  0.00    -0.200 F 
ENDBRANCH  61  84
ENDBRANCH  35  36
ENDBRANCH  28  30
ENDBRANCH  27  28
ENDBRANCH  26  27
ENDBRANCH  25  26
ENDBRANCH   1  25
TORSDOF 17
ENDMDL
