MODEL 1
REMARK VINA RESULT:      -9.2      0.000      0.000
REMARK SMILES COC(=O)[C@H]1CC[C@]2(C)[C@H]3CC=C4[C@@H]5CC(C)(C)CC[C@@]5(C(=O)OCCOC(=O)c5ccc(-c6c7nc(c(-c8c(F)c(F)c(F)c(F)c8F)c8ccc([nH]8)c(-c8c(F)c(F)c(F)c(F)c8F)c8nc(c(-c9c(F)c(F)c(F)c(F)c9F)c9ccc6[nH]9)C=C8)C=C7)cc5)CC[C@@]4(C)[C@@]3(C)CC[C@H]2C1(C)C
REMARK SMILES IDX 25 1 24 2 22 3 23 4 21 5 5 6 6 7 102 8 7 9 101 10 103 11
REMARK SMILES IDX 104 12 8 13 100 14 9 15 10 16 99 17 11 18 97 19 12 20 95 21
REMARK SMILES IDX 98 22 13 23 94 24 96 25 14 26 93 27 15 28 16 29 20 30 17 31
REMARK SMILES IDX 18 32 19 33 3 34 4 35 2 36 1 37 26 38 27 39 28 40 29 41
REMARK SMILES IDX 30 42 31 43 92 44 32 45 91 46 33 47 34 48 35 49 85 50 36 51
REMARK SMILES IDX 90 52 84 53 86 54 37 55 89 56 83 57 82 58 38 60 70 61 50 62
REMARK SMILES IDX 69 63 51 64 54 65 68 66 87 67 52 68 53 69 67 71 88 72 55 73
REMARK SMILES IDX 39 74 40 75 48 76 41 77 42 78 46 79 49 80 43 81 44 82 47 83
REMARK SMILES IDX 45 84 71 85 72 86 80 87 73 88 74 89 78 90 81 91 75 92 76 93
REMARK SMILES IDX 79 94 77 95 56 96 57 97 65 98 58 99 59 100 63 101 66 102
REMARK SMILES IDX 60 103 61 104 64 105 62 106
REMARK H PARENT 86 59 54 70
REMARK Flexibility Score: inf
ROOT
ATOM      1  C   UNL A   1      40.890  35.794  39.154  1.00  0.00     0.274 C 
ENDROOT
BRANCH   1   2
ATOM      2  O   UNL A   1      42.249  35.338  39.349  1.00  0.00    -0.462 OA
BRANCH   2   3
ATOM      3  C   UNL A   1      42.628  34.346  38.507  1.00  0.00     0.312 C 
ATOM      4  O   UNL A   1      41.966  33.330  38.353  1.00  0.00    -0.252 OA
BRANCH   3   5
ATOM      5  C   UNL A   1      44.053  34.445  37.966  1.00  0.00     0.075 C 
ATOM      6  C   UNL A   1      44.080  32.730  29.975  1.00  0.00     0.105 C 
ATOM      7  C   UNL A   1      43.097  33.891  29.512  1.00  0.00     0.016 C 
ATOM      8  C   UNL A   1      44.497  32.673  31.503  1.00  0.00    -0.019 C 
ATOM      9  C   UNL A   1      42.705  35.042  30.506  1.00  0.00     0.008 C 
ATOM     10  C   UNL A   1      44.231  34.093  32.069  1.00  0.00     0.002 C 
ATOM     11  C   UNL A   1      43.816  31.558  32.350  1.00  0.00     0.012 C 
ATOM     12  C   UNL A   1      46.019  32.349  31.592  1.00  0.00     0.012 C 
ATOM     13  C   UNL A   1      42.728  34.547  31.981  1.00  0.00    -0.026 C 
ATOM     14  C   UNL A   1      44.944  34.443  33.351  1.00  0.00     0.005 C 
ATOM     15  C   UNL A   1      41.628  33.430  31.937  1.00  0.00     0.012 C 
ATOM     16  C   UNL A   1      42.271  35.675  33.082  1.00  0.00     0.006 C 
ATOM     17  C   UNL A   1      44.836  35.930  33.615  1.00  0.00     0.008 C 
ATOM     18  C   UNL A   1      41.183  35.082  34.061  1.00  0.00     0.032 C 
ATOM     19  C   UNL A   1      43.424  36.442  33.988  1.00  0.00    -0.020 C 
ATOM     20  C   UNL A   1      41.881  34.232  35.083  1.00  0.00    -0.027 C 
ATOM     21  C   UNL A   1      43.144  36.273  35.604  1.00  0.00    -0.006 C 
ATOM     22  C   UNL A   1      43.429  37.954  33.628  1.00  0.00     0.012 C 
ATOM     23  C   UNL A   1      42.922  34.762  35.750  1.00  0.00    -0.063 C 
ATOM     24  C   UNL A   1      44.270  36.750  36.602  1.00  0.00     0.013 C 
ATOM     25  C   UNL A   1      41.883  37.122  36.029  1.00  0.00     0.017 C 
ATOM     26  C   UNL A   1      43.986  33.969  36.518  1.00  0.00     0.033 C 
ATOM     27  C   UNL A   1      44.492  35.952  37.929  1.00  0.00     0.020 C 
ATOM     28  C   UNL A   1      43.946  32.435  36.380  1.00  0.00     0.015 C 
ATOM     29  C   UNL A   1      45.124  31.737  37.087  1.00  0.00    -0.035 C 
ATOM     30  C   UNL A   1      45.071  33.647  38.819  1.00  0.00     0.020 C 
ATOM     31  C   UNL A   1      44.942  30.212  36.957  1.00  0.00     0.011 C 
ATOM     32  C   UNL A   1      46.470  32.097  36.421  1.00  0.00     0.011 C 
ATOM     33  C   UNL A   1      45.115  32.132  38.574  1.00  0.00     0.007 C 
BRANCH   6  34
ATOM     34  C   UNL A   1      43.600  31.354  29.499  1.00  0.00     0.309 C 
ATOM     35  O   UNL A   1      42.447  30.948  29.536  1.00  0.00    -0.252 OA
BRANCH  34  36
ATOM     36  O   UNL A   1      44.670  30.596  29.121  1.00  0.00    -0.469 OA
ATOM     37  C   UNL A   1      45.501  31.197  28.126  1.00  0.00     0.282 C 
ENDBRANCH  34  36
ENDBRANCH   6  34
ENDBRANCH   3   5
ENDBRANCH   2   3
ENDBRANCH   1   2
BRANCH   1  38
ATOM     38  C   UNL A   1      39.808  35.211  40.070  1.00  0.00     0.275 C 
BRANCH  38  39
ATOM     39  O   UNL A   1      38.564  35.031  39.376  1.00  0.00    -0.458 OA
BRANCH  39  40
ATOM     40  C   UNL A   1      38.097  33.759  39.388  1.00  0.00     0.338 C 
ATOM     41  O   UNL A   1      37.441  33.233  40.272  1.00  0.00    -0.246 OA
BRANCH  40  42
ATOM     42  C   UNL A   1      38.279  33.140  38.056  1.00  0.00     0.060 A 
ATOM     43  C   UNL A   1      37.914  31.790  37.956  1.00  0.00     0.016 A 
ATOM     44  C   UNL A   1      38.690  33.848  36.922  1.00  0.00     0.016 A 
ATOM     45  C   UNL A   1      37.973  31.140  36.732  1.00  0.00     0.010 A 
ATOM     46  C   UNL A   1      38.830  33.171  35.703  1.00  0.00     0.010 A 
ATOM     47  C   UNL A   1      38.510  31.805  35.621  1.00  0.00    -0.014 A 
BRANCH  47  48
ATOM     48  C   UNL A   1      39.051  30.946  34.542  1.00  0.00     0.031 A 
ATOM     49  C   UNL A   1      38.325  31.008  33.224  1.00  0.00     0.074 A 
ATOM     50  C   UNL A   1      40.172  30.218  34.667  1.00  0.00     0.049 A 
ATOM     51  N   UNL A   1      38.694  30.581  32.046  1.00  0.00    -0.248 NA
ATOM     52  C   UNL A   1      37.019  31.696  33.233  1.00  0.00     0.031 C 
ATOM     53  C   UNL A   1      40.975  30.091  35.876  1.00  0.00     0.029 A 
ATOM     54  N   UNL A   1      40.837  29.454  33.741  1.00  0.00    -0.354 N 
ATOM     55  C   UNL A   1      37.715  31.028  31.171  1.00  0.00     0.074 A 
ATOM     56  C   UNL A   1      36.718  31.726  31.948  1.00  0.00     0.031 C 
ATOM     57  C   UNL A   1      42.029  29.295  35.623  1.00  0.00     0.029 A 
ATOM     58  C   UNL A   1      41.965  28.848  34.233  1.00  0.00     0.049 A 
ATOM     59  H   UNL A   1      40.533  29.350  32.810  1.00  0.00     0.167 HD
ATOM     60  C   UNL A   1      37.646  30.867  29.832  1.00  0.00     0.037 A 
ATOM     61  C   UNL A   1      42.834  28.021  33.623  1.00  0.00     0.037 A 
ATOM     62  C   UNL A   1      38.544  30.036  29.085  1.00  0.00     0.049 A 
ATOM     63  C   UNL A   1      42.630  27.699  32.163  1.00  0.00     0.074 A 
ATOM     64  C   UNL A   1      38.503  29.703  27.745  1.00  0.00     0.029 A 
ATOM     65  N   UNL A   1      39.619  29.359  29.641  1.00  0.00    -0.354 N 
ATOM     66  N   UNL A   1      41.742  28.175  31.324  1.00  0.00    -0.248 NA
ATOM     67  C   UNL A   1      43.552  26.721  31.567  1.00  0.00     0.031 C 
ATOM     68  C   UNL A   1      39.523  28.775  27.503  1.00  0.00     0.029 A 
ATOM     69  C   UNL A   1      40.228  28.573  28.680  1.00  0.00     0.049 A 
ATOM     70  H   UNL A   1      39.906  29.427  30.580  1.00  0.00     0.167 HD
ATOM     71  C   UNL A   1      42.009  27.577  30.101  1.00  0.00     0.074 A 
ATOM     72  C   UNL A   1      43.154  26.713  30.302  1.00  0.00     0.031 C 
ATOM     73  C   UNL A   1      41.367  27.723  28.914  1.00  0.00     0.037 A 
BRANCH  60  74
ATOM     74  C   UNL A   1      36.514  31.553  29.138  1.00  0.00     0.064 A 
ATOM     75  C   UNL A   1      36.497  32.949  28.991  1.00  0.00     0.173 A 
ATOM     76  C   UNL A   1      35.410  30.824  28.678  1.00  0.00     0.173 A 
ATOM     77  F   UNL A   1      37.517  33.689  29.450  1.00  0.00    -0.203 F 
ATOM     78  C   UNL A   1      35.403  33.591  28.421  1.00  0.00     0.198 A 
ATOM     79  C   UNL A   1      34.325  31.469  28.094  1.00  0.00     0.198 A 
ATOM     80  F   UNL A   1      35.374  29.491  28.820  1.00  0.00    -0.203 F 
ATOM     81  F   UNL A   1      35.384  34.929  28.330  1.00  0.00    -0.200 F 
ATOM     82  C   UNL A   1      34.319  32.851  27.972  1.00  0.00     0.200 A 
ATOM     83  F   UNL A   1      33.273  30.755  27.670  1.00  0.00    -0.200 F 
ATOM     84  F   UNL A   1      33.258  33.473  27.436  1.00  0.00    -0.200 F 
ENDBRANCH  60  74
BRANCH  61  85
ATOM     85  C   UNL A   1      43.961  27.417  34.382  1.00  0.00     0.064 A 
ATOM     86  C   UNL A   1      45.247  27.976  34.348  1.00  0.00     0.173 A 
ATOM     87  C   UNL A   1      43.785  26.237  35.121  1.00  0.00     0.173 A 
ATOM     88  F   UNL A   1      45.474  29.087  33.632  1.00  0.00    -0.203 F 
ATOM     89  C   UNL A   1      46.314  27.369  35.007  1.00  0.00     0.198 A 
ATOM     90  C   UNL A   1      44.848  25.644  35.800  1.00  0.00     0.198 A 
ATOM     91  F   UNL A   1      42.579  25.654  35.179  1.00  0.00    -0.203 F 
ATOM     92  F   UNL A   1      47.542  27.897  34.916  1.00  0.00    -0.200 F 
ATOM     93  C   UNL A   1      46.114  26.205  35.735  1.00  0.00     0.200 A 
ATOM     94  F   UNL A   1      44.648  24.523  36.506  1.00  0.00    -0.200 F 
ATOM     95  F   UNL A   1      47.143  25.619  36.362  1.00  0.00    -0.200 F 
ENDBRANCH  61  85
BRANCH  73  96
ATOM     96  C   UNL A   1      41.899  26.949  27.747  1.00  0.00     0.064 A 
ATOM     97  C   UNL A   1      41.478  25.637  27.485  1.00  0.00     0.173 A 
ATOM     98  C   UNL A   1      42.803  27.544  26.856  1.00  0.00     0.173 A 
ATOM     99  F   UNL A   1      40.623  25.022  28.316  1.00  0.00    -0.203 F 
ATOM    100  C   UNL A   1      41.964  24.941  26.382  1.00  0.00     0.198 A 
ATOM    101  C   UNL A   1      43.265  26.855  25.740  1.00  0.00     0.198 A 
ATOM    102  F   UNL A   1      43.228  28.800  27.062  1.00  0.00    -0.203 F 
ATOM    103  F   UNL A   1      41.583  23.673  26.173  1.00  0.00    -0.200 F 
ATOM    104  C   UNL A   1      42.850  25.551  25.508  1.00  0.00     0.200 A 
ATOM    105  F   UNL A   1      44.111  27.450  24.890  1.00  0.00    -0.200 F 
ATOM    106  F   UNL A   1      43.311  24.881  24.444  1.00  0.00    -0.200 F 
ENDBRANCH  73  96
ENDBRANCH  47  48
ENDBRANCH  40  42
ENDBRANCH  39  40
ENDBRANCH  38  39
ENDBRANCH   1  38
TORSDOF 13
ENDMDL
MODEL 2
REMARK VINA RESULT:      -9.0      8.543     11.840
REMARK SMILES COC(=O)[C@H]1CC[C@]2(C)[C@H]3CC=C4[C@@H]5CC(C)(C)CC[C@@]5(C(=O)OCCOC(=O)c5ccc(-c6c7nc(c(-c8c(F)c(F)c(F)c(F)c8F)c8ccc([nH]8)c(-c8c(F)c(F)c(F)c(F)c8F)c8nc(c(-c9c(F)c(F)c(F)c(F)c9F)c9ccc6[nH]9)C=C8)C=C7)cc5)CC[C@@]4(C)[C@@]3(C)CC[C@H]2C1(C)C
REMARK SMILES IDX 25 1 24 2 22 3 23 4 21 5 5 6 6 7 102 8 7 9 101 10 103 11
REMARK SMILES IDX 104 12 8 13 100 14 9 15 10 16 99 17 11 18 97 19 12 20 95 21
REMARK SMILES IDX 98 22 13 23 94 24 96 25 14 26 93 27 15 28 16 29 20 30 17 31
REMARK SMILES IDX 18 32 19 33 3 34 4 35 2 36 1 37 26 38 27 39 28 40 29 41
REMARK SMILES IDX 30 42 31 43 92 44 32 45 91 46 33 47 34 48 35 49 85 50 36 51
REMARK SMILES IDX 90 52 84 53 86 54 37 55 89 56 83 57 82 58 38 60 70 61 50 62
REMARK SMILES IDX 69 63 51 64 54 65 68 66 87 67 52 68 53 69 67 71 88 72 55 73
REMARK SMILES IDX 39 74 40 75 48 76 41 77 42 78 46 79 49 80 43 81 44 82 47 83
REMARK SMILES IDX 45 84 71 85 72 86 80 87 73 88 74 89 78 90 81 91 75 92 76 93
REMARK SMILES IDX 79 94 77 95 56 96 57 97 65 98 58 99 59 100 63 101 66 102
REMARK SMILES IDX 60 103 61 104 64 105 62 106
REMARK H PARENT 86 59 54 70
REMARK Flexibility Score: inf
ROOT
ATOM      1  C   UNL A   1      45.716  40.234  26.621  1.00  0.00     0.274 C 
ENDROOT
BRANCH   1   2
ATOM      2  O   UNL A   1      45.904  41.102  25.479  1.00  0.00    -0.462 OA
BRANCH   2   3
ATOM      3  C   UNL A   1      44.809  41.830  25.149  1.00  0.00     0.312 C 
ATOM      4  O   UNL A   1      43.823  41.329  24.627  1.00  0.00    -0.252 OA
BRANCH   3   5
ATOM      5  C   UNL A   1      44.976  43.346  25.217  1.00  0.00     0.075 C 
ATOM      6  C   UNL A   1      50.876  45.689  20.069  1.00  0.00     0.105 C 
ATOM      7  C   UNL A   1      50.213  45.139  18.733  1.00  0.00     0.016 C 
ATOM      8  C   UNL A   1      50.050  45.563  21.416  1.00  0.00    -0.019 C 
ATOM      9  C   UNL A   1      48.719  44.657  18.729  1.00  0.00     0.008 C 
ATOM     10  C   UNL A   1      48.568  45.386  20.991  1.00  0.00     0.002 C 
ATOM     11  C   UNL A   1      50.523  44.451  22.399  1.00  0.00     0.012 C 
ATOM     12  C   UNL A   1      50.211  46.886  22.224  1.00  0.00     0.012 C 
ATOM     13  C   UNL A   1      48.299  44.104  20.122  1.00  0.00    -0.026 C 
ATOM     14  C   UNL A   1      47.533  45.689  22.045  1.00  0.00     0.005 C 
ATOM     15  C   UNL A   1      49.290  42.897  20.272  1.00  0.00     0.012 C 
ATOM     16  C   UNL A   1      46.766  43.522  20.187  1.00  0.00     0.006 C 
ATOM     17  C   UNL A   1      46.159  45.770  21.412  1.00  0.00     0.008 C 
ATOM     18  C   UNL A   1      46.749  42.085  20.840  1.00  0.00     0.032 C 
ATOM     19  C   UNL A   1      45.580  44.431  20.897  1.00  0.00    -0.020 C 
ATOM     20  C   UNL A   1      46.852  42.242  22.330  1.00  0.00    -0.027 C 
ATOM     21  C   UNL A   1      44.824  43.610  22.110  1.00  0.00    -0.006 C 
ATOM     22  C   UNL A   1      44.531  44.827  19.819  1.00  0.00     0.012 C 
ATOM     23  C   UNL A   1      46.001  43.083  22.943  1.00  0.00    -0.063 C 
ATOM     24  C   UNL A   1      43.827  44.411  23.034  1.00  0.00     0.013 C 
ATOM     25  C   UNL A   1      43.931  42.454  21.511  1.00  0.00     0.017 C 
ATOM     26  C   UNL A   1      46.185  43.673  24.346  1.00  0.00     0.033 C 
ATOM     27  C   UNL A   1      43.734  44.037  24.550  1.00  0.00     0.020 C 
ATOM     28  C   UNL A   1      47.533  43.405  25.043  1.00  0.00     0.015 C 
ATOM     29  C   UNL A   1      47.668  44.139  26.391  1.00  0.00    -0.035 C 
ATOM     30  C   UNL A   1      45.119  43.866  26.670  1.00  0.00     0.020 C 
ATOM     31  C   UNL A   1      49.009  43.738  27.037  1.00  0.00     0.011 C 
ATOM     32  C   UNL A   1      47.693  45.671  26.195  1.00  0.00     0.011 C 
ATOM     33  C   UNL A   1      46.508  43.713  27.307  1.00  0.00     0.007 C 
BRANCH   6  34
ATOM     34  C   UNL A   1      52.300  45.152  20.261  1.00  0.00     0.309 C 
ATOM     35  O   UNL A   1      53.181  45.688  20.917  1.00  0.00    -0.252 OA
BRANCH  34  36
ATOM     36  O   UNL A   1      52.478  44.033  19.501  1.00  0.00    -0.469 OA
ATOM     37  C   UNL A   1      53.095  42.942  20.185  1.00  0.00     0.282 C 
ENDBRANCH  34  36
ENDBRANCH   6  34
ENDBRANCH   3   5
ENDBRANCH   2   3
ENDBRANCH   1   2
BRANCH   1  38
ATOM     38  C   UNL A   1      46.149  38.770  26.478  1.00  0.00     0.275 C 
BRANCH  38  39
ATOM     39  O   UNL A   1      45.592  37.947  27.514  1.00  0.00    -0.458 OA
BRANCH  39  40
ATOM     40  C   UNL A   1      46.435  36.998  27.987  1.00  0.00     0.338 C 
ATOM     41  O   UNL A   1      47.548  37.181  28.454  1.00  0.00    -0.246 OA
BRANCH  40  42
ATOM     42  C   UNL A   1      45.729  35.702  28.095  1.00  0.00     0.060 A 
ATOM     43  C   UNL A   1      46.330  34.749  28.930  1.00  0.00     0.016 A 
ATOM     44  C   UNL A   1      44.492  35.441  27.498  1.00  0.00     0.016 A 
ATOM     45  C   UNL A   1      45.707  33.531  29.160  1.00  0.00     0.010 A 
ATOM     46  C   UNL A   1      43.903  34.180  27.661  1.00  0.00     0.010 A 
ATOM     47  C   UNL A   1      44.534  33.211  28.459  1.00  0.00    -0.014 A 
BRANCH  47  48
ATOM     48  C   UNL A   1      44.233  31.768  28.311  1.00  0.00     0.031 A 
ATOM     49  C   UNL A   1      42.967  31.288  28.968  1.00  0.00     0.074 A 
ATOM     50  C   UNL A   1      44.971  30.932  27.563  1.00  0.00     0.049 A 
ATOM     51  N   UNL A   1      42.316  30.167  28.809  1.00  0.00    -0.248 NA
ATOM     52  C   UNL A   1      42.320  32.233  29.900  1.00  0.00     0.031 C 
ATOM     53  C   UNL A   1      46.201  31.275  26.861  1.00  0.00     0.029 A 
ATOM     54  N   UNL A   1      44.771  29.608  27.261  1.00  0.00    -0.354 N 
ATOM     55  C   UNL A   1      41.149  30.313  29.544  1.00  0.00     0.074 A 
ATOM     56  C   UNL A   1      41.190  31.609  30.180  1.00  0.00     0.031 C 
ATOM     57  C   UNL A   1      46.652  30.191  26.206  1.00  0.00     0.029 A 
ATOM     58  C   UNL A   1      45.744  29.073  26.456  1.00  0.00     0.049 A 
ATOM     59  H   UNL A   1      44.001  29.090  27.591  1.00  0.00     0.167 HD
ATOM     60  C   UNL A   1      40.129  29.439  29.685  1.00  0.00     0.037 A 
ATOM     61  C   UNL A   1      45.880  27.818  25.987  1.00  0.00     0.037 A 
ATOM     62  C   UNL A   1      40.161  28.094  29.193  1.00  0.00     0.049 A 
ATOM     63  C   UNL A   1      44.818  26.799  26.317  1.00  0.00     0.074 A 
ATOM     64  C   UNL A   1      39.238  27.083  29.376  1.00  0.00     0.029 A 
ATOM     65  N   UNL A   1      41.213  27.560  28.464  1.00  0.00    -0.354 N 
ATOM     66  N   UNL A   1      43.684  26.958  26.956  1.00  0.00    -0.248 NA
ATOM     67  C   UNL A   1      45.057  25.423  25.859  1.00  0.00     0.031 C 
ATOM     68  C   UNL A   1      39.762  25.917  28.804  1.00  0.00     0.029 A 
ATOM     69  C   UNL A   1      40.984  26.218  28.222  1.00  0.00     0.049 A 
ATOM     70  H   UNL A   1      42.005  28.061  28.163  1.00  0.00     0.167 HD
ATOM     71  C   UNL A   1      43.066  25.716  26.959  1.00  0.00     0.074 A 
ATOM     72  C   UNL A   1      43.944  24.813  26.241  1.00  0.00     0.031 C 
ATOM     73  C   UNL A   1      41.879  25.347  27.505  1.00  0.00     0.037 A 
BRANCH  60  74
ATOM     74  C   UNL A   1      38.948  29.920  30.465  1.00  0.00     0.064 A 
ATOM     75  C   UNL A   1      37.899  30.610  29.837  1.00  0.00     0.173 A 
ATOM     76  C   UNL A   1      38.891  29.751  31.854  1.00  0.00     0.173 A 
ATOM     77  F   UNL A   1      37.930  30.826  28.513  1.00  0.00    -0.203 F 
ATOM     78  C   UNL A   1      36.843  31.128  30.579  1.00  0.00     0.198 A 
ATOM     79  C   UNL A   1      37.825  30.258  32.591  1.00  0.00     0.198 A 
ATOM     80  F   UNL A   1      39.884  29.119  32.499  1.00  0.00    -0.203 F 
ATOM     81  F   UNL A   1      35.873  31.825  29.968  1.00  0.00    -0.200 F 
ATOM     82  C   UNL A   1      36.806  30.951  31.954  1.00  0.00     0.200 A 
ATOM     83  F   UNL A   1      37.796  30.095  33.921  1.00  0.00    -0.200 F 
ATOM     84  F   UNL A   1      35.795  31.465  32.670  1.00  0.00    -0.200 F 
ENDBRANCH  60  74
BRANCH  61  85
ATOM     85  C   UNL A   1      47.069  27.439  25.178  1.00  0.00     0.064 A 
ATOM     86  C   UNL A   1      48.165  26.782  25.755  1.00  0.00     0.173 A 
ATOM     87  C   UNL A   1      47.153  27.770  23.818  1.00  0.00     0.173 A 
ATOM     88  F   UNL A   1      48.147  26.470  27.060  1.00  0.00    -0.203 F 
ATOM     89  C   UNL A   1      49.305  26.490  25.008  1.00  0.00     0.198 A 
ATOM     90  C   UNL A   1      48.283  27.455  23.065  1.00  0.00     0.198 A 
ATOM     91  F   UNL A   1      46.137  28.408  23.217  1.00  0.00    -0.203 F 
ATOM     92  F   UNL A   1      50.358  25.907  25.597  1.00  0.00    -0.200 F 
ATOM     93  C   UNL A   1      49.362  26.823  23.663  1.00  0.00     0.200 A 
ATOM     94  F   UNL A   1      48.331  27.776  21.764  1.00  0.00    -0.200 F 
ATOM     95  F   UNL A   1      50.461  26.548  22.947  1.00  0.00    -0.200 F 
ENDBRANCH  61  85
BRANCH  73  96
ATOM     96  C   UNL A   1      41.460  23.919  27.332  1.00  0.00     0.064 A 
ATOM     97  C   UNL A   1      40.387  23.566  26.501  1.00  0.00     0.173 A 
ATOM     98  C   UNL A   1      42.170  22.891  27.968  1.00  0.00     0.173 A 
ATOM     99  F   UNL A   1      39.671  24.517  25.882  1.00  0.00    -0.203 F 
ATOM    100  C   UNL A   1      40.026  22.233  26.332  1.00  0.00     0.198 A 
ATOM    101  C   UNL A   1      41.824  21.558  27.775  1.00  0.00     0.198 A 
ATOM    102  F   UNL A   1      43.209  23.180  28.767  1.00  0.00    -0.203 F 
ATOM    103  F   UNL A   1      38.970  21.920  25.568  1.00  0.00    -0.200 F 
ATOM    104  C   UNL A   1      40.747  21.231  26.963  1.00  0.00     0.200 A 
ATOM    105  F   UNL A   1      42.530  20.590  28.375  1.00  0.00    -0.200 F 
ATOM    106  F   UNL A   1      40.402  19.948  26.793  1.00  0.00    -0.200 F 
ENDBRANCH  73  96
ENDBRANCH  47  48
ENDBRANCH  40  42
ENDBRANCH  39  40
ENDBRANCH  38  39
ENDBRANCH   1  38
TORSDOF 13
ENDMDL
MODEL 3
REMARK VINA RESULT:      -8.6      3.585      5.861
REMARK SMILES COC(=O)[C@H]1CC[C@]2(C)[C@H]3CC=C4[C@@H]5CC(C)(C)CC[C@@]5(C(=O)OCCOC(=O)c5ccc(-c6c7nc(c(-c8c(F)c(F)c(F)c(F)c8F)c8ccc([nH]8)c(-c8c(F)c(F)c(F)c(F)c8F)c8nc(c(-c9c(F)c(F)c(F)c(F)c9F)c9ccc6[nH]9)C=C8)C=C7)cc5)CC[C@@]4(C)[C@@]3(C)CC[C@H]2C1(C)C
REMARK SMILES IDX 25 1 24 2 22 3 23 4 21 5 5 6 6 7 102 8 7 9 101 10 103 11
REMARK SMILES IDX 104 12 8 13 100 14 9 15 10 16 99 17 11 18 97 19 12 20 95 21
REMARK SMILES IDX 98 22 13 23 94 24 96 25 14 26 93 27 15 28 16 29 20 30 17 31
REMARK SMILES IDX 18 32 19 33 3 34 4 35 2 36 1 37 26 38 27 39 28 40 29 41
REMARK SMILES IDX 30 42 31 43 92 44 32 45 91 46 33 47 34 48 35 49 85 50 36 51
REMARK SMILES IDX 90 52 84 53 86 54 37 55 89 56 83 57 82 58 38 60 70 61 50 62
REMARK SMILES IDX 69 63 51 64 54 65 68 66 87 67 52 68 53 69 67 71 88 72 55 73
REMARK SMILES IDX 39 74 40 75 48 76 41 77 42 78 46 79 49 80 43 81 44 82 47 83
REMARK SMILES IDX 45 84 71 85 72 86 80 87 73 88 74 89 78 90 81 91 75 92 76 93
REMARK SMILES IDX 79 94 77 95 56 96 57 97 65 98 58 99 59 100 63 101 66 102
REMARK SMILES IDX 60 103 61 104 64 105 62 106
REMARK H PARENT 86 59 54 70
REMARK Flexibility Score: inf
ROOT
ATOM      1  C   UNL A   1      46.672  40.548  34.127  1.00  0.00     0.274 C 
ENDROOT
BRANCH   1   2
ATOM      2  O   UNL A   1      46.212  40.069  32.842  1.00  0.00    -0.462 OA
BRANCH   2   3
ATOM      3  C   UNL A   1      46.764  38.892  32.459  1.00  0.00     0.312 C 
ATOM      4  O   UNL A   1      46.750  37.899  33.173  1.00  0.00    -0.252 OA
BRANCH   3   5
ATOM      5  C   UNL A   1      47.634  38.945  31.205  1.00  0.00     0.075 C 
ATOM      6  C   UNL A   1      44.893  33.533  25.728  1.00  0.00     0.105 C 
ATOM      7  C   UNL A   1      43.430  34.131  25.562  1.00  0.00     0.016 C 
ATOM      8  C   UNL A   1      45.913  34.310  26.659  1.00  0.00    -0.019 C 
ATOM      9  C   UNL A   1      43.076  35.540  26.160  1.00  0.00     0.008 C 
ATOM     10  C   UNL A   1      45.366  35.757  26.776  1.00  0.00     0.002 C 
ATOM     11  C   UNL A   1      46.188  33.665  28.050  1.00  0.00     0.012 C 
ATOM     12  C   UNL A   1      47.308  34.330  25.963  1.00  0.00     0.012 C 
ATOM     13  C   UNL A   1      43.935  35.851  27.420  1.00  0.00    -0.026 C 
ATOM     14  C   UNL A   1      46.352  36.808  27.220  1.00  0.00     0.005 C 
ATOM     15  C   UNL A   1      43.487  34.694  28.378  1.00  0.00     0.012 C 
ATOM     16  C   UNL A   1      43.585  37.282  28.143  1.00  0.00     0.006 C 
ATOM     17  C   UNL A   1      45.772  38.190  26.996  1.00  0.00     0.008 C 
ATOM     18  C   UNL A   1      43.376  37.080  29.695  1.00  0.00     0.032 C 
ATOM     19  C   UNL A   1      44.591  38.576  27.917  1.00  0.00    -0.020 C 
ATOM     20  C   UNL A   1      44.726  36.976  30.344  1.00  0.00    -0.027 C 
ATOM     21  C   UNL A   1      45.135  39.185  29.349  1.00  0.00    -0.006 C 
ATOM     22  C   UNL A   1      43.822  39.689  27.150  1.00  0.00     0.012 C 
ATOM     23  C   UNL A   1      45.636  37.931  30.078  1.00  0.00    -0.063 C 
ATOM     24  C   UNL A   1      46.277  40.272  29.303  1.00  0.00     0.013 C 
ATOM     25  C   UNL A   1      43.959  39.910  30.114  1.00  0.00     0.017 C 
ATOM     26  C   UNL A   1      47.147  37.812  30.308  1.00  0.00     0.033 C 
ATOM     27  C   UNL A   1      47.356  40.286  30.435  1.00  0.00     0.020 C 
ATOM     28  C   UNL A   1      47.681  36.428  30.726  1.00  0.00     0.015 C 
ATOM     29  C   UNL A   1      49.219  36.378  30.812  1.00  0.00    -0.035 C 
ATOM     30  C   UNL A   1      49.148  38.856  31.526  1.00  0.00     0.020 C 
ATOM     31  C   UNL A   1      49.638  34.983  31.315  1.00  0.00     0.011 C 
ATOM     32  C   UNL A   1      49.865  36.579  29.425  1.00  0.00     0.011 C 
ATOM     33  C   UNL A   1      49.694  37.449  31.809  1.00  0.00     0.007 C 
BRANCH   6  34
ATOM     34  C   UNL A   1      44.863  32.044  26.092  1.00  0.00     0.309 C 
ATOM     35  O   UNL A   1      44.054  31.508  26.836  1.00  0.00    -0.252 OA
BRANCH  34  36
ATOM     36  O   UNL A   1      45.941  31.412  25.544  1.00  0.00    -0.469 OA
ATOM     37  C   UNL A   1      46.341  30.222  26.225  1.00  0.00     0.282 C 
ENDBRANCH  34  36
ENDBRANCH   6  34
ENDBRANCH   3   5
ENDBRANCH   2   3
ENDBRANCH   1   2
BRANCH   1  38
ATOM     38  C   UNL A   1      45.621  41.099  35.097  1.00  0.00     0.275 C 
BRANCH  38  39
ATOM     39  O   UNL A   1      44.388  40.368  35.016  1.00  0.00    -0.458 OA
BRANCH  39  40
ATOM     40  C   UNL A   1      44.329  39.281  35.823  1.00  0.00     0.338 C 
ATOM     41  O   UNL A   1      44.406  39.275  37.041  1.00  0.00    -0.246 OA
BRANCH  40  42
ATOM     42  C   UNL A   1      43.907  38.095  35.046  1.00  0.00     0.060 A 
ATOM     43  C   UNL A   1      43.931  36.874  35.736  1.00  0.00     0.016 A 
ATOM     44  C   UNL A   1      43.416  38.159  33.738  1.00  0.00     0.016 A 
ATOM     45  C   UNL A   1      43.480  35.716  35.121  1.00  0.00     0.010 A 
ATOM     46  C   UNL A   1      43.040  36.977  33.087  1.00  0.00     0.010 A 
ATOM     47  C   UNL A   1      43.113  35.750  33.768  1.00  0.00    -0.014 A 
BRANCH  47  48
ATOM     48  C   UNL A   1      43.179  34.461  33.039  1.00  0.00     0.031 A 
ATOM     49  C   UNL A   1      41.868  33.922  32.535  1.00  0.00     0.074 A 
ATOM     50  C   UNL A   1      44.330  33.836  32.745  1.00  0.00     0.049 A 
ATOM     51  N   UNL A   1      41.632  32.974  31.667  1.00  0.00    -0.248 NA
ATOM     52  C   UNL A   1      40.652  34.583  33.048  1.00  0.00     0.031 C 
ATOM     53  C   UNL A   1      45.661  34.264  33.154  1.00  0.00     0.029 A 
ATOM     54  N   UNL A   1      44.555  32.699  32.009  1.00  0.00    -0.354 N 
ATOM     55  C   UNL A   1      40.260  32.992  31.468  1.00  0.00     0.074 A 
ATOM     56  C   UNL A   1      39.705  34.013  32.325  1.00  0.00     0.031 C 
ATOM     57  C   UNL A   1      46.571  33.403  32.665  1.00  0.00     0.029 A 
ATOM     58  C   UNL A   1      45.879  32.355  31.918  1.00  0.00     0.049 A 
ATOM     59  H   UNL A   1      43.833  32.180  31.587  1.00  0.00     0.167 HD
ATOM     60  C   UNL A   1      39.519  32.219  30.644  1.00  0.00     0.037 A 
ATOM     61  C   UNL A   1      46.455  31.303  31.304  1.00  0.00     0.037 A 
ATOM     62  C   UNL A   1      40.043  31.099  29.920  1.00  0.00     0.049 A 
ATOM     63  C   UNL A   1      45.581  30.337  30.543  1.00  0.00     0.074 A 
ATOM     64  C   UNL A   1      39.368  30.174  29.148  1.00  0.00     0.029 A 
ATOM     65  N   UNL A   1      41.379  30.724  29.933  1.00  0.00    -0.354 N 
ATOM     66  N   UNL A   1      44.293  30.395  30.302  1.00  0.00    -0.248 NA
ATOM     67  C   UNL A   1      46.245  29.158  29.968  1.00  0.00     0.031 C 
ATOM     68  C   UNL A   1      40.290  29.202  28.740  1.00  0.00     0.029 A 
ATOM     69  C   UNL A   1      41.545  29.554  29.215  1.00  0.00     0.049 A 
ATOM     70  H   UNL A   1      42.101  31.217  30.385  1.00  0.00     0.167 HD
ATOM     71  C   UNL A   1      43.996  29.278  29.533  1.00  0.00     0.074 A 
ATOM     72  C   UNL A   1      45.242  28.568  29.331  1.00  0.00     0.031 C 
ATOM     73  C   UNL A   1      42.800  28.871  29.036  1.00  0.00     0.037 A 
BRANCH  60  74
ATOM     74  C   UNL A   1      38.061  32.540  30.567  1.00  0.00     0.064 A 
ATOM     75  C   UNL A   1      37.560  33.384  29.564  1.00  0.00     0.173 A 
ATOM     76  C   UNL A   1      37.170  32.058  31.535  1.00  0.00     0.173 A 
ATOM     77  F   UNL A   1      38.383  33.897  28.638  1.00  0.00    -0.203 F 
ATOM     78  C   UNL A   1      36.217  33.748  29.545  1.00  0.00     0.198 A 
ATOM     79  C   UNL A   1      35.825  32.412  31.503  1.00  0.00     0.198 A 
ATOM     80  F   UNL A   1      37.611  31.268  32.525  1.00  0.00    -0.203 F 
ATOM     81  F   UNL A   1      35.764  34.592  28.606  1.00  0.00    -0.200 F 
ATOM     82  C   UNL A   1      35.351  33.261  30.513  1.00  0.00     0.200 A 
ATOM     83  F   UNL A   1      34.991  31.949  32.445  1.00  0.00    -0.200 F 
ATOM     84  F   UNL A   1      34.060  33.624  30.503  1.00  0.00    -0.200 F 
ENDBRANCH  60  74
BRANCH  61  85
ATOM     85  C   UNL A   1      47.923  31.086  31.397  1.00  0.00     0.064 A 
ATOM     86  C   UNL A   1      48.793  31.543  30.397  1.00  0.00     0.173 A 
ATOM     87  C   UNL A   1      48.482  30.374  32.469  1.00  0.00     0.173 A 
ATOM     88  F   UNL A   1      48.305  32.204  29.337  1.00  0.00    -0.203 F 
ATOM     89  C   UNL A   1      50.160  31.278  30.455  1.00  0.00     0.198 A 
ATOM     90  C   UNL A   1      49.853  30.132  32.539  1.00  0.00     0.198 A 
ATOM     91  F   UNL A   1      47.695  29.904  33.448  1.00  0.00    -0.203 F 
ATOM     92  F   UNL A   1      50.961  31.683  29.461  1.00  0.00    -0.200 F 
ATOM     93  C   UNL A   1      50.690  30.576  31.527  1.00  0.00     0.200 A 
ATOM     94  F   UNL A   1      50.360  29.456  33.580  1.00  0.00    -0.200 F 
ATOM     95  F   UNL A   1      52.004  30.317  31.579  1.00  0.00    -0.200 F 
ENDBRANCH  61  85
BRANCH  73  96
ATOM     96  C   UNL A   1      42.791  27.616  28.217  1.00  0.00     0.064 A 
ATOM     97  C   UNL A   1      42.719  26.351  28.816  1.00  0.00     0.173 A 
ATOM     98  C   UNL A   1      42.804  27.686  26.816  1.00  0.00     0.173 A 
ATOM     99  F   UNL A   1      42.716  26.235  30.153  1.00  0.00    -0.203 F 
ATOM    100  C   UNL A   1      42.686  25.196  28.040  1.00  0.00     0.198 A 
ATOM    101  C   UNL A   1      42.743  26.531  26.044  1.00  0.00     0.198 A 
ATOM    102  F   UNL A   1      42.865  28.875  26.198  1.00  0.00    -0.203 F 
ATOM    103  F   UNL A   1      42.662  23.995  28.632  1.00  0.00    -0.200 F 
ATOM    104  C   UNL A   1      42.691  25.287  26.656  1.00  0.00     0.200 A 
ATOM    105  F   UNL A   1      42.735  26.621  24.707  1.00  0.00    -0.200 F 
ATOM    106  F   UNL A   1      42.652  24.175  25.911  1.00  0.00    -0.200 F 
ENDBRANCH  73  96
ENDBRANCH  47  48
ENDBRANCH  40  42
ENDBRANCH  39  40
ENDBRANCH  38  39
ENDBRANCH   1  38
TORSDOF 13
ENDMDL
