MODEL 1
REMARK VINA RESULT:     -10.9      0.000      0.000
REMARK SMILES O=C(CCCOc1ccc([N+](=O)[O-])cc1F)OCCOC(=O)c1ccc(-c2c3nc(c(-c4c(F)c(F)c(F)c(F)c4F)c4ccc([nH]4)c(-c4c(F)c(F)c(F)c(F)c4F)c4nc(c(-c5c(F)c(F)c(F)c(F)c5F)c5ccc2[nH]5)C=C4)C=C3)cc1
REMARK SMILES IDX 17 1 2 2 1 3 3 4 4 5 5 6 6 7 7 8 8 9 15 10 9 11 14 12 16 13
REMARK SMILES IDX 10 14 11 15 12 16 13 17 18 18 19 19 20 20 21 21 22 22 23 23
REMARK SMILES IDX 24 24 85 25 25 26 84 27 26 28 27 29 28 30 78 31 29 32 83 33
REMARK SMILES IDX 77 34 79 35 30 36 82 37 76 38 75 39 31 41 63 42 43 43 62 44
REMARK SMILES IDX 44 45 47 46 61 47 80 48 45 49 46 50 60 52 81 53 48 54 32 55
REMARK SMILES IDX 33 56 41 57 34 58 35 59 39 60 42 61 36 62 37 63 40 64 38 65
REMARK SMILES IDX 64 66 65 67 73 68 66 69 67 70 71 71 74 72 68 73 69 74 72 75
REMARK SMILES IDX 70 76 49 77 50 78 58 79 51 80 52 81 56 82 59 83 53 84 54 85
REMARK SMILES IDX 57 86 55 87
REMARK H PARENT 79 40 47 51
REMARK Flexibility Score: inf
ROOT
ATOM      1  O   UNL A   1      41.922  20.563  27.139  1.00  0.00    -0.462 OA
ENDROOT
BRANCH   1   2
ATOM      2  C   UNL A   1      40.775  21.281  27.209  1.00  0.00     0.306 C 
ATOM      3  O   UNL A   1      40.423  21.926  28.189  1.00  0.00    -0.252 OA
BRANCH   2   4
ATOM      4  C   UNL A   1      39.867  20.983  26.032  1.00  0.00     0.126 C 
BRANCH   4   5
ATOM      5  C   UNL A   1      38.703  21.941  25.750  1.00  0.00     0.053 C 
BRANCH   5   6
ATOM      6  C   UNL A   1      37.315  21.352  25.426  1.00  0.00     0.230 C 
BRANCH   6   7
ATOM      7  O   UNL A   1      36.647  22.102  24.405  1.00  0.00    -0.490 OA
BRANCH   7   8
ATOM      8  C   UNL A   1      35.374  22.512  24.699  1.00  0.00     0.155 A 
ATOM      9  C   UNL A   1      34.204  21.852  24.310  1.00  0.00     0.056 A 
ATOM     10  C   UNL A   1      35.268  23.685  25.445  1.00  0.00     0.171 A 
ATOM     11  C   UNL A   1      32.964  22.263  24.825  1.00  0.00     0.089 A 
ATOM     12  C   UNL A   1      34.049  24.108  25.964  1.00  0.00     0.128 A 
ATOM     13  F   UNL A   1      36.372  24.381  25.751  1.00  0.00    -0.203 F 
ATOM     14  C   UNL A   1      32.910  23.345  25.715  1.00  0.00     0.272 A 
BRANCH  14  15
ATOM     15  N   UNL A   1      31.688  23.617  26.479  1.00  0.00     0.062 N 
ATOM     16  O   UNL A   1      31.613  23.158  27.626  1.00  0.00    -0.258 OA
ATOM     17  O   UNL A   1      30.826  24.327  25.942  1.00  0.00    -0.258 OA
ENDBRANCH  14  15
ENDBRANCH   7   8
ENDBRANCH   6   7
ENDBRANCH   5   6
ENDBRANCH   4   5
ENDBRANCH   2   4
ENDBRANCH   1   2
BRANCH   1  18
ATOM     18  C   UNL A   1      42.524  20.509  25.843  1.00  0.00     0.274 C 
BRANCH  18  19
ATOM     19  C   UNL A   1      43.521  21.661  25.603  1.00  0.00     0.275 C 
BRANCH  19  20
ATOM     20  O   UNL A   1      42.923  22.816  24.975  1.00  0.00    -0.458 OA
BRANCH  20  21
ATOM     21  C   UNL A   1      43.648  23.955  24.943  1.00  0.00     0.338 C 
ATOM     22  O   UNL A   1      44.640  24.174  24.252  1.00  0.00    -0.246 OA
BRANCH  21  23
ATOM     23  C   UNL A   1      43.073  24.949  25.875  1.00  0.00     0.060 A 
ATOM     24  C   UNL A   1      43.644  26.216  26.006  1.00  0.00     0.016 A 
ATOM     25  C   UNL A   1      41.991  24.605  26.681  1.00  0.00     0.016 A 
ATOM     26  C   UNL A   1      43.144  27.118  26.964  1.00  0.00     0.010 A 
ATOM     27  C   UNL A   1      41.444  25.524  27.580  1.00  0.00     0.010 A 
ATOM     28  C   UNL A   1      42.048  26.774  27.774  1.00  0.00    -0.014 A 
BRANCH  28  29
ATOM     29  C   UNL A   1      41.581  27.633  28.902  1.00  0.00     0.031 A 
ATOM     30  C   UNL A   1      42.281  27.554  30.238  1.00  0.00     0.074 A 
ATOM     31  C   UNL A   1      40.492  28.416  28.783  1.00  0.00     0.049 A 
ATOM     32  N   UNL A   1      41.996  28.158  31.367  1.00  0.00    -0.248 NA
ATOM     33  C   UNL A   1      43.437  26.648  30.323  1.00  0.00     0.031 C 
ATOM     34  C   UNL A   1      39.679  28.550  27.579  1.00  0.00     0.029 A 
ATOM     35  N   UNL A   1      39.867  29.229  29.702  1.00  0.00    -0.354 N 
ATOM     36  C   UNL A   1      42.922  27.689  32.293  1.00  0.00     0.074 A 
ATOM     37  C   UNL A   1      43.739  26.709  31.610  1.00  0.00     0.031 C 
ATOM     38  C   UNL A   1      38.662  29.393  27.829  1.00  0.00     0.029 A 
ATOM     39  C   UNL A   1      38.737  29.843  29.220  1.00  0.00     0.049 A 
ATOM     40  H   UNL A   1      40.199  29.358  30.620  1.00  0.00     0.167 HD
ATOM     41  C   UNL A   1      43.096  28.056  33.585  1.00  0.00     0.037 A 
ATOM     42  C   UNL A   1      37.857  30.668  29.825  1.00  0.00     0.037 A 
ATOM     43  C   UNL A   1      42.307  29.052  34.259  1.00  0.00     0.049 A 
ATOM     44  C   UNL A   1      38.062  31.071  31.261  1.00  0.00     0.074 A 
ATOM     45  C   UNL A   1      42.480  29.569  35.532  1.00  0.00     0.029 A 
ATOM     46  N   UNL A   1      41.187  29.670  33.725  1.00  0.00    -0.354 N 
ATOM     47  N   UNL A   1      39.006  30.705  32.093  1.00  0.00    -0.248 NA
ATOM     48  C   UNL A   1      37.088  32.009  31.843  1.00  0.00     0.031 C 
ATOM     49  C   UNL A   1      41.426  30.447  35.792  1.00  0.00     0.029 A 
ATOM     50  C   UNL A   1      40.634  30.531  34.659  1.00  0.00     0.049 A 
ATOM     51  H   UNL A   1      40.836  29.519  32.816  1.00  0.00     0.167 HD
ATOM     52  C   UNL A   1      38.755  31.377  33.283  1.00  0.00     0.074 A 
ATOM     53  C   UNL A   1      37.571  32.181  33.067  1.00  0.00     0.031 C 
ATOM     54  C   UNL A   1      39.453  31.331  34.444  1.00  0.00     0.037 A 
BRANCH  41  55
ATOM     55  C   UNL A   1      44.190  27.380  34.366  1.00  0.00     0.064 A 
ATOM     56  C   UNL A   1      43.923  26.217  35.104  1.00  0.00     0.173 A 
ATOM     57  C   UNL A   1      45.488  27.911  34.429  1.00  0.00     0.173 A 
ATOM     58  F   UNL A   1      42.697  25.674  35.092  1.00  0.00    -0.203 F 
ATOM     59  C   UNL A   1      44.913  25.612  35.874  1.00  0.00     0.198 A 
ATOM     60  C   UNL A   1      46.485  27.283  35.171  1.00  0.00     0.198 A 
ATOM     61  F   UNL A   1      45.798  29.021  33.743  1.00  0.00    -0.203 F 
ATOM     62  F   UNL A   1      44.625  24.519  36.595  1.00  0.00    -0.200 F 
ATOM     63  C   UNL A   1      46.195  26.139  35.900  1.00  0.00     0.200 A 
ATOM     64  F   UNL A   1      47.729  27.780  35.174  1.00  0.00    -0.200 F 
ATOM     65  F   UNL A   1      47.152  25.543  36.623  1.00  0.00    -0.200 F 
ENDBRANCH  41  55
BRANCH  42  66
ATOM     66  C   UNL A   1      36.715  31.198  29.034  1.00  0.00     0.064 A 
ATOM     67  C   UNL A   1      36.662  32.545  28.642  1.00  0.00     0.173 A 
ATOM     68  C   UNL A   1      35.617  30.384  28.724  1.00  0.00     0.173 A 
ATOM     69  F   UNL A   1      37.689  33.364  28.915  1.00  0.00    -0.203 F 
ATOM     70  C   UNL A   1      35.537  33.064  28.006  1.00  0.00     0.198 A 
ATOM     71  C   UNL A   1      34.502  30.900  28.067  1.00  0.00     0.198 A 
ATOM     72  F   UNL A   1      35.634  29.085  29.056  1.00  0.00    -0.203 F 
ATOM     73  F   UNL A   1      35.490  34.365  27.687  1.00  0.00    -0.200 F 
ATOM     74  C   UNL A   1      34.456  32.242  27.722  1.00  0.00     0.200 A 
ATOM     75  F   UNL A   1      33.468  30.099  27.778  1.00  0.00    -0.200 F 
ATOM     76  F   UNL A   1      33.370  32.744  27.120  1.00  0.00    -0.200 F 
ENDBRANCH  42  66
BRANCH  54  77
ATOM     77  C   UNL A   1      38.985  32.175  35.596  1.00  0.00     0.064 A 
ATOM     78  C   UNL A   1      39.417  33.504  35.722  1.00  0.00     0.173 A 
ATOM     79  C   UNL A   1      38.229  31.630  36.643  1.00  0.00     0.173 A 
ATOM     80  F   UNL A   1      40.153  34.071  34.752  1.00  0.00    -0.203 F 
ATOM     81  C   UNL A   1      39.137  34.245  36.867  1.00  0.00     0.198 A 
ATOM     82  C   UNL A   1      37.927  32.383  37.776  1.00  0.00     0.198 A 
ATOM     83  F   UNL A   1      37.783  30.367  36.568  1.00  0.00    -0.203 F 
ATOM     84  F   UNL A   1      39.608  35.495  36.988  1.00  0.00    -0.200 F 
ATOM     85  C   UNL A   1      38.395  33.684  37.894  1.00  0.00     0.200 A 
ATOM     86  F   UNL A   1      37.194  31.845  38.761  1.00  0.00    -0.200 F 
ATOM     87  F   UNL A   1      38.134  34.394  39.000  1.00  0.00    -0.200 F 
ENDBRANCH  54  77
ENDBRANCH  28  29
ENDBRANCH  21  23
ENDBRANCH  20  21
ENDBRANCH  19  20
ENDBRANCH  18  19
ENDBRANCH   1  18
TORSDOF 16
ENDMDL
MODEL 2
REMARK VINA RESULT:     -10.8      5.611     11.277
REMARK SMILES O=C(CCCOc1ccc([N+](=O)[O-])cc1F)OCCOC(=O)c1ccc(-c2c3nc(c(-c4c(F)c(F)c(F)c(F)c4F)c4ccc([nH]4)c(-c4c(F)c(F)c(F)c(F)c4F)c4nc(c(-c5c(F)c(F)c(F)c(F)c5F)c5ccc2[nH]5)C=C4)C=C3)cc1
REMARK SMILES IDX 17 1 2 2 1 3 3 4 4 5 5 6 6 7 7 8 8 9 15 10 9 11 14 12 16 13
REMARK SMILES IDX 10 14 11 15 12 16 13 17 18 18 19 19 20 20 21 21 22 22 23 23
REMARK SMILES IDX 24 24 85 25 25 26 84 27 26 28 27 29 28 30 78 31 29 32 83 33
REMARK SMILES IDX 77 34 79 35 30 36 82 37 76 38 75 39 31 41 63 42 43 43 62 44
REMARK SMILES IDX 44 45 47 46 61 47 80 48 45 49 46 50 60 52 81 53 48 54 32 55
REMARK SMILES IDX 33 56 41 57 34 58 35 59 39 60 42 61 36 62 37 63 40 64 38 65
REMARK SMILES IDX 64 66 65 67 73 68 66 69 67 70 71 71 74 72 68 73 69 74 72 75
REMARK SMILES IDX 70 76 49 77 50 78 58 79 51 80 52 81 56 82 59 83 53 84 54 85
REMARK SMILES IDX 57 86 55 87
REMARK H PARENT 79 40 47 51
REMARK Flexibility Score: inf
ROOT
ATOM      1  O   UNL A   1      32.864  34.906  30.525  1.00  0.00    -0.462 OA
ENDROOT
BRANCH   1   2
ATOM      2  C   UNL A   1      32.956  35.403  29.267  1.00  0.00     0.306 C 
ATOM      3  O   UNL A   1      32.538  36.503  28.928  1.00  0.00    -0.252 OA
BRANCH   2   4
ATOM      4  C   UNL A   1      33.403  34.338  28.286  1.00  0.00     0.126 C 
BRANCH   4   5
ATOM      5  C   UNL A   1      34.657  33.520  28.621  1.00  0.00     0.053 C 
BRANCH   5   6
ATOM      6  C   UNL A   1      34.539  31.986  28.729  1.00  0.00     0.230 C 
BRANCH   6   7
ATOM      7  O   UNL A   1      34.617  31.357  27.445  1.00  0.00    -0.490 OA
BRANCH   7   8
ATOM      8  C   UNL A   1      33.769  30.300  27.243  1.00  0.00     0.155 A 
ATOM      9  C   UNL A   1      32.389  30.401  27.039  1.00  0.00     0.056 A 
ATOM     10  C   UNL A   1      34.359  29.037  27.247  1.00  0.00     0.171 A 
ATOM     11  C   UNL A   1      31.654  29.267  26.658  1.00  0.00     0.089 A 
ATOM     12  C   UNL A   1      33.646  27.902  26.872  1.00  0.00     0.128 A 
ATOM     13  F   UNL A   1      35.663  28.912  27.530  1.00  0.00    -0.203 F 
ATOM     14  C   UNL A   1      32.311  28.038  26.502  1.00  0.00     0.272 A 
BRANCH  14  15
ATOM     15  N   UNL A   1      31.636  26.915  25.842  1.00  0.00     0.062 N 
ATOM     16  O   UNL A   1      31.267  25.969  26.550  1.00  0.00    -0.258 OA
ATOM     17  O   UNL A   1      31.439  27.007  24.621  1.00  0.00    -0.258 OA
ENDBRANCH  14  15
ENDBRANCH   7   8
ENDBRANCH   6   7
ENDBRANCH   5   6
ENDBRANCH   4   5
ENDBRANCH   2   4
ENDBRANCH   1   2
BRANCH   1  18
ATOM     18  C   UNL A   1      34.001  35.151  31.357  1.00  0.00     0.274 C 
BRANCH  18  19
ATOM     19  C   UNL A   1      34.458  33.892  32.121  1.00  0.00     0.275 C 
BRANCH  19  20
ATOM     20  O   UNL A   1      35.893  33.722  32.143  1.00  0.00    -0.458 OA
BRANCH  20  21
ATOM     21  C   UNL A   1      36.395  32.745  32.928  1.00  0.00     0.338 C 
ATOM     22  O   UNL A   1      36.063  32.489  34.083  1.00  0.00    -0.246 OA
BRANCH  21  23
ATOM     23  C   UNL A   1      37.429  31.985  32.193  1.00  0.00     0.060 A 
ATOM     24  C   UNL A   1      38.343  31.182  32.877  1.00  0.00     0.016 A 
ATOM     25  C   UNL A   1      37.541  32.116  30.811  1.00  0.00     0.016 A 
ATOM     26  C   UNL A   1      39.379  30.539  32.174  1.00  0.00     0.010 A 
ATOM     27  C   UNL A   1      38.523  31.420  30.101  1.00  0.00     0.010 A 
ATOM     28  C   UNL A   1      39.490  30.665  30.779  1.00  0.00    -0.014 A 
BRANCH  28  29
ATOM     29  C   UNL A   1      40.654  30.130  30.013  1.00  0.00     0.031 A 
ATOM     30  C   UNL A   1      41.799  31.049  29.658  1.00  0.00     0.074 A 
ATOM     31  C   UNL A   1      40.670  28.865  29.554  1.00  0.00     0.049 A 
ATOM     32  N   UNL A   1      42.871  30.810  28.942  1.00  0.00    -0.248 NA
ATOM     33  C   UNL A   1      41.708  32.434  30.148  1.00  0.00     0.031 C 
ATOM     34  C   UNL A   1      39.613  27.881  29.763  1.00  0.00     0.029 A 
ATOM     35  N   UNL A   1      41.603  28.199  28.790  1.00  0.00    -0.354 N 
ATOM     36  C   UNL A   1      43.565  32.014  28.882  1.00  0.00     0.074 A 
ATOM     37  C   UNL A   1      42.765  32.995  29.583  1.00  0.00     0.031 C 
ATOM     38  C   UNL A   1      39.952  26.736  29.144  1.00  0.00     0.029 A 
ATOM     39  C   UNL A   1      41.242  26.912  28.473  1.00  0.00     0.049 A 
ATOM     40  H   UNL A   1      42.449  28.607  28.498  1.00  0.00     0.167 HD
ATOM     41  C   UNL A   1      44.768  32.278  28.318  1.00  0.00     0.037 A 
ATOM     42  C   UNL A   1      41.869  25.980  27.727  1.00  0.00     0.037 A 
ATOM     43  C   UNL A   1      45.581  31.299  27.647  1.00  0.00     0.049 A 
ATOM     44  C   UNL A   1      43.208  26.283  27.107  1.00  0.00     0.074 A 
ATOM     45  C   UNL A   1      46.862  31.446  27.142  1.00  0.00     0.029 A 
ATOM     46  N   UNL A   1      45.189  29.999  27.372  1.00  0.00    -0.354 N 
ATOM     47  N   UNL A   1      43.904  27.392  27.150  1.00  0.00    -0.248 NA
ATOM     48  C   UNL A   1      43.855  25.205  26.342  1.00  0.00     0.031 C 
ATOM     49  C   UNL A   1      47.217  30.257  26.501  1.00  0.00     0.029 A 
ATOM     50  C   UNL A   1      46.187  29.346  26.665  1.00  0.00     0.049 A 
ATOM     51  H   UNL A   1      44.330  29.597  27.638  1.00  0.00     0.167 HD
ATOM     52  C   UNL A   1      45.073  27.144  26.441  1.00  0.00     0.074 A 
ATOM     53  C   UNL A   1      44.999  25.774  25.981  1.00  0.00     0.031 C 
ATOM     54  C   UNL A   1      46.113  27.981  26.205  1.00  0.00     0.037 A 
BRANCH  41  55
ATOM     55  C   UNL A   1      45.290  33.686  28.403  1.00  0.00     0.064 A 
ATOM     56  C   UNL A   1      44.850  34.664  27.499  1.00  0.00     0.173 A 
ATOM     57  C   UNL A   1      46.266  34.056  29.342  1.00  0.00     0.173 A 
ATOM     58  F   UNL A   1      43.929  34.363  26.571  1.00  0.00    -0.203 F 
ATOM     59  C   UNL A   1      45.365  35.957  27.532  1.00  0.00     0.198 A 
ATOM     60  C   UNL A   1      46.752  35.359  29.395  1.00  0.00     0.198 A 
ATOM     61  F   UNL A   1      46.723  33.160  30.230  1.00  0.00    -0.203 F 
ATOM     62  F   UNL A   1      44.950  36.866  26.638  1.00  0.00    -0.200 F 
ATOM     63  C   UNL A   1      46.308  36.307  28.486  1.00  0.00     0.200 A 
ATOM     64  F   UNL A   1      47.645  35.701  30.335  1.00  0.00    -0.200 F 
ATOM     65  F   UNL A   1      46.786  37.557  28.532  1.00  0.00    -0.200 F 
ENDBRANCH  41  55
BRANCH  42  66
ATOM     66  C   UNL A   1      41.234  24.645  27.568  1.00  0.00     0.064 A 
ATOM     67  C   UNL A   1      41.765  23.505  28.191  1.00  0.00     0.173 A 
ATOM     68  C   UNL A   1      40.129  24.472  26.724  1.00  0.00     0.173 A 
ATOM     69  F   UNL A   1      42.822  23.619  29.009  1.00  0.00    -0.203 F 
ATOM     70  C   UNL A   1      41.239  22.240  27.945  1.00  0.00     0.198 A 
ATOM     71  C   UNL A   1      39.589  23.209  26.495  1.00  0.00     0.198 A 
ATOM     72  F   UNL A   1      39.571  25.536  26.126  1.00  0.00    -0.203 F 
ATOM     73  F   UNL A   1      41.795  21.162  28.512  1.00  0.00    -0.200 F 
ATOM     74  C   UNL A   1      40.153  22.092  27.094  1.00  0.00     0.200 A 
ATOM     75  F   UNL A   1      38.529  23.071  25.688  1.00  0.00    -0.200 F 
ATOM     76  F   UNL A   1      39.653  20.873  26.848  1.00  0.00    -0.200 F 
ENDBRANCH  42  66
BRANCH  54  77
ATOM     77  C   UNL A   1      47.284  27.464  25.418  1.00  0.00     0.064 A 
ATOM     78  C   UNL A   1      48.373  26.872  26.076  1.00  0.00     0.173 A 
ATOM     79  C   UNL A   1      47.392  27.680  24.038  1.00  0.00     0.173 A 
ATOM     80  F   UNL A   1      48.326  26.652  27.400  1.00  0.00    -0.203 F 
ATOM     81  C   UNL A   1      49.539  26.546  25.387  1.00  0.00     0.198 A 
ATOM     82  C   UNL A   1      48.550  27.328  23.346  1.00  0.00     0.198 A 
ATOM     83  F   UNL A   1      46.376  28.234  23.359  1.00  0.00    -0.203 F 
ATOM     84  F   UNL A   1      50.587  26.033  26.048  1.00  0.00    -0.200 F 
ATOM     85  C   UNL A   1      49.627  26.777  24.024  1.00  0.00     0.200 A 
ATOM     86  F   UNL A   1      48.627  27.535  22.023  1.00  0.00    -0.200 F 
ATOM     87  F   UNL A   1      50.752  26.472  23.362  1.00  0.00    -0.200 F 
ENDBRANCH  54  77
ENDBRANCH  28  29
ENDBRANCH  21  23
ENDBRANCH  20  21
ENDBRANCH  19  20
ENDBRANCH  18  19
ENDBRANCH   1  18
TORSDOF 16
ENDMDL
MODEL 3
REMARK VINA RESULT:     -10.7      4.868      7.269
REMARK SMILES O=C(CCCOc1ccc([N+](=O)[O-])cc1F)OCCOC(=O)c1ccc(-c2c3nc(c(-c4c(F)c(F)c(F)c(F)c4F)c4ccc([nH]4)c(-c4c(F)c(F)c(F)c(F)c4F)c4nc(c(-c5c(F)c(F)c(F)c(F)c5F)c5ccc2[nH]5)C=C4)C=C3)cc1
REMARK SMILES IDX 17 1 2 2 1 3 3 4 4 5 5 6 6 7 7 8 8 9 15 10 9 11 14 12 16 13
REMARK SMILES IDX 10 14 11 15 12 16 13 17 18 18 19 19 20 20 21 21 22 22 23 23
REMARK SMILES IDX 24 24 85 25 25 26 84 27 26 28 27 29 28 30 78 31 29 32 83 33
REMARK SMILES IDX 77 34 79 35 30 36 82 37 76 38 75 39 31 41 63 42 43 43 62 44
REMARK SMILES IDX 44 45 47 46 61 47 80 48 45 49 46 50 60 52 81 53 48 54 32 55
REMARK SMILES IDX 33 56 41 57 34 58 35 59 39 60 42 61 36 62 37 63 40 64 38 65
REMARK SMILES IDX 64 66 65 67 73 68 66 69 67 70 71 71 74 72 68 73 69 74 72 75
REMARK SMILES IDX 70 76 49 77 50 78 58 79 51 80 52 81 56 82 59 83 53 84 54 85
REMARK SMILES IDX 57 86 55 87
REMARK H PARENT 79 40 47 51
REMARK Flexibility Score: inf
ROOT
ATOM      1  O   UNL A   1      37.264  21.634  25.717  1.00  0.00    -0.462 OA
ENDROOT
BRANCH   1   2
ATOM      2  C   UNL A   1      36.933  22.806  25.124  1.00  0.00     0.306 C 
ATOM      3  O   UNL A   1      36.943  23.893  25.689  1.00  0.00    -0.252 OA
BRANCH   2   4
ATOM      4  C   UNL A   1      36.309  22.576  23.762  1.00  0.00     0.126 C 
BRANCH   4   5
ATOM      5  C   UNL A   1      34.782  22.467  23.670  1.00  0.00     0.053 C 
BRANCH   5   6
ATOM      6  C   UNL A   1      33.956  22.457  24.972  1.00  0.00     0.230 C 
BRANCH   6   7
ATOM      7  O   UNL A   1      32.665  21.869  24.774  1.00  0.00    -0.490 OA
BRANCH   7   8
ATOM      8  C   UNL A   1      32.654  20.530  24.485  1.00  0.00     0.155 A 
ATOM      9  C   UNL A   1      32.293  19.974  23.254  1.00  0.00     0.056 A 
ATOM     10  C   UNL A   1      33.039  19.680  25.521  1.00  0.00     0.171 A 
ATOM     11  C   UNL A   1      32.499  18.605  23.018  1.00  0.00     0.089 A 
ATOM     12  C   UNL A   1      33.247  18.322  25.306  1.00  0.00     0.128 A 
ATOM     13  F   UNL A   1      33.302  20.185  26.735  1.00  0.00    -0.203 F 
ATOM     14  C   UNL A   1      33.051  17.805  24.028  1.00  0.00     0.272 A 
BRANCH  14  15
ATOM     15  N   UNL A   1      33.533  16.454  23.723  1.00  0.00     0.062 N 
ATOM     16  O   UNL A   1      34.107  16.279  22.640  1.00  0.00    -0.258 OA
ATOM     17  O   UNL A   1      33.374  15.583  24.590  1.00  0.00    -0.258 OA
ENDBRANCH  14  15
ENDBRANCH   7   8
ENDBRANCH   6   7
ENDBRANCH   5   6
ENDBRANCH   4   5
ENDBRANCH   2   4
ENDBRANCH   1   2
BRANCH   1  18
ATOM     18  C   UNL A   1      37.749  20.622  24.831  1.00  0.00     0.274 C 
BRANCH  18  19
ATOM     19  C   UNL A   1      38.996  19.900  25.380  1.00  0.00     0.275 C 
BRANCH  19  20
ATOM     20  O   UNL A   1      39.338  20.290  26.729  1.00  0.00    -0.458 OA
BRANCH  20  21
ATOM     21  C   UNL A   1      40.642  20.512  27.003  1.00  0.00     0.338 C 
ATOM     22  O   UNL A   1      41.540  19.674  27.024  1.00  0.00    -0.246 OA
BRANCH  21  23
ATOM     23  C   UNL A   1      40.865  21.947  27.279  1.00  0.00     0.060 A 
ATOM     24  C   UNL A   1      40.232  22.927  26.512  1.00  0.00     0.016 A 
ATOM     25  C   UNL A   1      41.763  22.336  28.271  1.00  0.00     0.016 A 
ATOM     26  C   UNL A   1      40.526  24.287  26.725  1.00  0.00     0.010 A 
ATOM     27  C   UNL A   1      42.000  23.687  28.535  1.00  0.00     0.010 A 
ATOM     28  C   UNL A   1      41.427  24.681  27.729  1.00  0.00    -0.014 A 
BRANCH  28  29
ATOM     29  C   UNL A   1      41.884  26.093  27.891  1.00  0.00     0.031 A 
ATOM     30  C   UNL A   1      43.231  26.507  27.348  1.00  0.00     0.074 A 
ATOM     31  C   UNL A   1      41.160  26.989  28.588  1.00  0.00     0.049 A 
ATOM     32  N   UNL A   1      43.850  27.660  27.439  1.00  0.00    -0.248 NA
ATOM     33  C   UNL A   1      43.999  25.475  26.634  1.00  0.00     0.031 C 
ATOM     34  C   UNL A   1      39.873  26.720  29.222  1.00  0.00     0.029 A 
ATOM     35  N   UNL A   1      41.421  28.304  28.901  1.00  0.00    -0.354 N 
ATOM     36  C   UNL A   1      45.080  27.481  26.815  1.00  0.00     0.074 A 
ATOM     37  C   UNL A   1      45.144  26.097  26.401  1.00  0.00     0.031 C 
ATOM     38  C   UNL A   1      39.454  27.833  29.849  1.00  0.00     0.029 A 
ATOM     39  C   UNL A   1      40.455  28.889  29.682  1.00  0.00     0.049 A 
ATOM     40  H   UNL A   1      42.226  28.780  28.596  1.00  0.00     0.167 HD
ATOM     41  C   UNL A   1      46.057  28.389  26.584  1.00  0.00     0.037 A 
ATOM     42  C   UNL A   1      40.380  30.128  30.210  1.00  0.00     0.037 A 
ATOM     43  C   UNL A   1      45.985  29.774  26.965  1.00  0.00     0.049 A 
ATOM     44  C   UNL A   1      41.472  31.131  29.943  1.00  0.00     0.074 A 
ATOM     45  C   UNL A   1      46.877  30.793  26.676  1.00  0.00     0.029 A 
ATOM     46  N   UNL A   1      44.975  30.333  27.732  1.00  0.00    -0.354 N 
ATOM     47  N   UNL A   1      42.578  30.981  29.259  1.00  0.00    -0.248 NA
ATOM     48  C   UNL A   1      41.303  32.478  30.513  1.00  0.00     0.031 C 
ATOM     49  C   UNL A   1      46.442  31.951  27.325  1.00  0.00     0.029 A 
ATOM     50  C   UNL A   1      45.244  31.673  27.962  1.00  0.00     0.049 A 
ATOM     51  H   UNL A   1      44.183  29.850  28.064  1.00  0.00     0.167 HD
ATOM     52  C   UNL A   1      43.227  32.210  29.296  1.00  0.00     0.074 A 
ATOM     53  C   UNL A   1      42.386  33.101  30.068  1.00  0.00     0.031 C 
ATOM     54  C   UNL A   1      44.408  32.561  28.732  1.00  0.00     0.037 A 
BRANCH  41  55
ATOM     55  C   UNL A   1      47.300  27.920  25.876  1.00  0.00     0.064 A 
ATOM     56  C   UNL A   1      48.468  27.641  26.601  1.00  0.00     0.173 A 
ATOM     57  C   UNL A   1      47.352  27.798  24.479  1.00  0.00     0.173 A 
ATOM     58  F   UNL A   1      48.481  27.754  27.937  1.00  0.00    -0.203 F 
ATOM     59  C   UNL A   1      49.640  27.257  25.954  1.00  0.00     0.198 A 
ATOM     60  C   UNL A   1      48.515  27.379  23.838  1.00  0.00     0.198 A 
ATOM     61  F   UNL A   1      46.263  28.052  23.738  1.00  0.00    -0.203 F 
ATOM     62  F   UNL A   1      50.752  27.025  26.665  1.00  0.00    -0.200 F 
ATOM     63  C   UNL A   1      49.660  27.117  24.574  1.00  0.00     0.200 A 
ATOM     64  F   UNL A   1      48.524  27.219  22.507  1.00  0.00    -0.200 F 
ATOM     65  F   UNL A   1      50.781  26.725  23.955  1.00  0.00    -0.200 F 
ENDBRANCH  41  55
BRANCH  42  66
ATOM     66  C   UNL A   1      39.185  30.491  31.016  1.00  0.00     0.064 A 
ATOM     67  C   UNL A   1      38.063  31.096  30.428  1.00  0.00     0.173 A 
ATOM     68  C   UNL A   1      39.176  30.312  32.406  1.00  0.00     0.173 A 
ATOM     69  F   UNL A   1      38.024  31.288  29.101  1.00  0.00    -0.203 F 
ATOM     70  C   UNL A   1      36.996  31.541  31.205  1.00  0.00     0.198 A 
ATOM     71  C   UNL A   1      38.098  30.738  33.179  1.00  0.00     0.198 A 
ATOM     72  F   UNL A   1      40.215  29.716  33.010  1.00  0.00    -0.203 F 
ATOM     73  F   UNL A   1      35.959  32.160  30.625  1.00  0.00    -0.200 F 
ATOM     74  C   UNL A   1      37.016  31.365  32.581  1.00  0.00     0.200 A 
ATOM     75  F   UNL A   1      38.112  30.550  34.506  1.00  0.00    -0.200 F 
ATOM     76  F   UNL A   1      35.995  31.804  33.329  1.00  0.00    -0.200 F 
ENDBRANCH  42  66
BRANCH  54  77
ATOM     77  C   UNL A   1      44.893  33.973  28.902  1.00  0.00     0.064 A 
ATOM     78  C   UNL A   1      44.553  34.956  27.960  1.00  0.00     0.173 A 
ATOM     79  C   UNL A   1      45.800  34.319  29.913  1.00  0.00     0.173 A 
ATOM     80  F   UNL A   1      43.696  34.673  26.966  1.00  0.00    -0.203 F 
ATOM     81  C   UNL A   1      45.131  36.223  28.003  1.00  0.00     0.198 A 
ATOM     82  C   UNL A   1      46.356  35.597  29.969  1.00  0.00     0.198 A 
ATOM     83  F   UNL A   1      46.150  33.420  30.844  1.00  0.00    -0.203 F 
ATOM     84  F   UNL A   1      44.833  37.127  27.058  1.00  0.00    -0.200 F 
ATOM     85  C   UNL A   1      46.033  36.541  29.005  1.00  0.00     0.200 A 
ATOM     86  F   UNL A   1      47.214  35.909  30.950  1.00  0.00    -0.200 F 
ATOM     87  F   UNL A   1      46.596  37.757  29.041  1.00  0.00    -0.200 F 
ENDBRANCH  54  77
ENDBRANCH  28  29
ENDBRANCH  21  23
ENDBRANCH  20  21
ENDBRANCH  19  20
ENDBRANCH  18  19
ENDBRANCH   1  18
TORSDOF 16
ENDMDL
