MODEL 1
REMARK VINA RESULT:     -11.3      0.000      0.000
REMARK SMILES CC1(C)[C@H](C#N)C(SCC(=O)OCCOC(=O)c2ccc(-c3c4nc(c(-c5c(F)c(F)c(F)c(F)c5F)c5ccc([nH]5)c(-c5c(F)c(F)c(F)c(F)c5F)c5nc(c(-c6c(F)c(F)c(F)c(F)c6F)c6ccc3[nH]6)C=C5)C=C4)cc2)=NC(=O)[C@@H]1C#N
REMARK SMILES IDX 13 1 12 2 10 3 11 4 9 5 8 6 7 7 1 8 2 9 3 10 4 11 84 12
REMARK SMILES IDX 82 13 81 14 83 15 5 16 6 17 85 18 86 19 14 20 15 21 16 22
REMARK SMILES IDX 17 23 18 24 19 25 80 26 20 27 79 28 21 29 22 30 23 31 73 32
REMARK SMILES IDX 24 33 78 34 72 35 74 36 25 37 77 38 71 39 70 40 26 42 58 43
REMARK SMILES IDX 38 44 57 45 39 46 42 47 56 48 75 49 40 50 41 51 55 53 76 54
REMARK SMILES IDX 43 55 27 56 28 57 36 58 29 59 30 60 34 61 37 62 31 63 32 64
REMARK SMILES IDX 35 65 33 66 59 67 60 68 68 69 61 70 62 71 66 72 69 73 63 74
REMARK SMILES IDX 64 75 67 76 65 77 44 78 45 79 53 80 46 81 47 82 51 83 54 84
REMARK SMILES IDX 48 85 49 86 52 87 50 88
REMARK H PARENT 74 41 42 52
REMARK Flexibility Score: inf
ROOT
ATOM      1  C   UNL A   1      31.977  28.666  25.290  1.00  0.00     0.274 C 
ENDROOT
BRANCH   1   2
ATOM      2  O   UNL A   1      30.944  28.324  24.345  1.00  0.00    -0.461 OA
BRANCH   2   3
ATOM      3  C   UNL A   1      31.248  27.343  23.452  1.00  0.00     0.316 C 
ATOM      4  O   UNL A   1      30.957  27.383  22.260  1.00  0.00    -0.251 OA
BRANCH   3   5
ATOM      5  C   UNL A   1      31.945  26.146  24.055  1.00  0.00     0.198 C 
BRANCH   5   6
ATOM      6  S   UNL A   1      32.082  24.720  22.990  1.00  0.00    -0.097 SA
BRANCH   6   7
ATOM      7  C   UNL A   1      33.557  23.854  23.404  1.00  0.00     0.095 C 
ATOM      8  C   UNL A   1      34.166  22.261  26.776  1.00  0.00     0.015 C 
ATOM      9  C   UNL A   1      34.482  22.164  25.254  1.00  0.00     0.012 C 
ATOM     10  C   UNL A   1      34.638  20.605  25.001  1.00  0.00     0.015 C 
ATOM     11  C   UNL A   1      33.303  22.835  24.443  1.00  0.00     0.156 C 
ATOM     12  C   UNL A   1      35.779  22.911  24.892  1.00  0.00     0.191 C 
ATOM     13  C   UNL A   1      35.781  23.298  23.412  1.00  0.00     0.264 C 
ATOM     14  N   UNL A   1      34.706  23.992  22.862  1.00  0.00    -0.209 NA
ATOM     15  O   UNL A   1      36.779  23.090  22.741  1.00  0.00    -0.271 OA
BRANCH  11  16
ATOM     16  C   UNL A   1      32.675  21.667  23.700  1.00  0.00     0.073 C 
ATOM     17  N   UNL A   1      32.154  20.697  23.084  1.00  0.00    -0.198 NA
ENDBRANCH  11  16
BRANCH  12  18
ATOM     18  C   UNL A   1      36.982  22.111  25.202  1.00  0.00     0.076 C 
ATOM     19  N   UNL A   1      37.923  21.443  25.376  1.00  0.00    -0.197 NA
ENDBRANCH  12  18
ENDBRANCH   6   7
ENDBRANCH   5   6
ENDBRANCH   3   5
ENDBRANCH   2   3
ENDBRANCH   1   2
BRANCH   1  20
ATOM     20  C   UNL A   1      31.859  30.127  25.711  1.00  0.00     0.275 C 
BRANCH  20  21
ATOM     21  O   UNL A   1      32.304  30.285  27.078  1.00  0.00    -0.458 OA
BRANCH  21  22
ATOM     22  C   UNL A   1      33.105  31.356  27.271  1.00  0.00     0.338 C 
ATOM     23  O   UNL A   1      32.734  32.524  27.261  1.00  0.00    -0.246 OA
BRANCH  22  24
ATOM     24  C   UNL A   1      34.525  30.987  27.506  1.00  0.00     0.060 A 
ATOM     25  C   UNL A   1      34.889  29.660  27.754  1.00  0.00     0.016 A 
ATOM     26  C   UNL A   1      35.411  32.007  27.847  1.00  0.00     0.016 A 
ATOM     27  C   UNL A   1      36.047  29.364  28.483  1.00  0.00     0.010 A 
ATOM     28  C   UNL A   1      36.620  31.702  28.493  1.00  0.00     0.010 A 
ATOM     29  C   UNL A   1      36.925  30.385  28.875  1.00  0.00    -0.014 A 
BRANCH  29  30
ATOM     30  C   UNL A   1      38.174  30.067  29.627  1.00  0.00     0.031 A 
ATOM     31  C   UNL A   1      39.211  29.094  29.121  1.00  0.00     0.074 A 
ATOM     32  C   UNL A   1      38.359  30.648  30.826  1.00  0.00     0.049 A 
ATOM     33  N   UNL A   1      40.316  28.666  29.688  1.00  0.00    -0.248 NA
ATOM     34  C   UNL A   1      38.984  28.520  27.796  1.00  0.00     0.031 C 
ATOM     35  C   UNL A   1      37.450  31.616  31.438  1.00  0.00     0.029 A 
ATOM     36  N   UNL A   1      39.355  30.487  31.753  1.00  0.00    -0.354 N 
ATOM     37  C   UNL A   1      40.897  27.778  28.784  1.00  0.00     0.074 A 
ATOM     38  C   UNL A   1      40.025  27.723  27.635  1.00  0.00     0.031 C 
ATOM     39  C   UNL A   1      37.920  31.951  32.646  1.00  0.00     0.029 A 
ATOM     40  C   UNL A   1      39.124  31.174  32.915  1.00  0.00     0.049 A 
ATOM     41  H   UNL A   1      40.155  29.933  31.599  1.00  0.00     0.167 HD
ATOM     42  C   UNL A   1      42.039  27.054  28.904  1.00  0.00     0.037 A 
ATOM     43  C   UNL A   1      39.777  31.148  34.091  1.00  0.00     0.037 A 
ATOM     44  C   UNL A   1      42.880  27.068  30.074  1.00  0.00     0.049 A 
ATOM     45  C   UNL A   1      41.003  30.298  34.237  1.00  0.00     0.074 A 
ATOM     46  C   UNL A   1      44.069  26.395  30.294  1.00  0.00     0.029 A 
ATOM     47  N   UNL A   1      42.598  27.771  31.237  1.00  0.00    -0.354 N 
ATOM     48  N   UNL A   1      41.562  29.492  33.368  1.00  0.00    -0.248 NA
ATOM     49  C   UNL A   1      41.696  30.366  35.528  1.00  0.00     0.031 C 
ATOM     50  C   UNL A   1      44.463  26.625  31.617  1.00  0.00     0.029 A 
ATOM     51  C   UNL A   1      43.571  27.516  32.193  1.00  0.00     0.049 A 
ATOM     52  H   UNL A   1      41.823  28.363  31.366  1.00  0.00     0.167 HD
ATOM     53  C   UNL A   1      42.691  28.979  33.993  1.00  0.00     0.074 A 
ATOM     54  C   UNL A   1      42.739  29.577  35.312  1.00  0.00     0.031 C 
ATOM     55  C   UNL A   1      43.607  28.102  33.512  1.00  0.00     0.037 A 
BRANCH  42  56
ATOM     56  C   UNL A   1      42.401  26.128  27.769  1.00  0.00     0.064 A 
ATOM     57  C   UNL A   1      41.873  24.830  27.660  1.00  0.00     0.173 A 
ATOM     58  C   UNL A   1      43.292  26.548  26.767  1.00  0.00     0.173 A 
ATOM     59  F   UNL A   1      41.015  24.371  28.584  1.00  0.00    -0.203 F 
ATOM     60  C   UNL A   1      42.258  23.979  26.626  1.00  0.00     0.198 A 
ATOM     61  C   UNL A   1      43.644  25.708  25.713  1.00  0.00     0.198 A 
ATOM     62  F   UNL A   1      43.820  27.781  26.803  1.00  0.00    -0.203 F 
ATOM     63  F   UNL A   1      41.786  22.725  26.580  1.00  0.00    -0.200 F 
ATOM     64  C   UNL A   1      43.138  24.419  25.651  1.00  0.00     0.200 A 
ATOM     65  F   UNL A   1      44.475  26.147  24.756  1.00  0.00    -0.200 F 
ATOM     66  F   UNL A   1      43.504  23.601  24.653  1.00  0.00    -0.200 F 
ENDBRANCH  42  56
BRANCH  43  67
ATOM     67  C   UNL A   1      39.249  31.960  35.215  1.00  0.00     0.064 A 
ATOM     68  C   UNL A   1      38.484  31.376  36.231  1.00  0.00     0.173 A 
ATOM     69  C   UNL A   1      39.555  33.326  35.326  1.00  0.00     0.173 A 
ATOM     70  F   UNL A   1      38.156  30.078  36.160  1.00  0.00    -0.203 F 
ATOM     71  C   UNL A   1      38.041  32.129  37.316  1.00  0.00     0.198 A 
ATOM     72  C   UNL A   1      39.141  34.068  36.428  1.00  0.00     0.198 A 
ATOM     73  F   UNL A   1      40.297  33.928  34.383  1.00  0.00    -0.203 F 
ATOM     74  F   UNL A   1      37.286  31.553  38.262  1.00  0.00    -0.200 F 
ATOM     75  C   UNL A   1      38.380  33.471  37.418  1.00  0.00     0.200 A 
ATOM     76  F   UNL A   1      39.493  35.357  36.536  1.00  0.00    -0.200 F 
ATOM     77  F   UNL A   1      37.973  34.186  38.475  1.00  0.00    -0.200 F 
ENDBRANCH  43  67
BRANCH  55  78
ATOM     78  C   UNL A   1      44.774  27.771  34.402  1.00  0.00     0.064 A 
ATOM     79  C   UNL A   1      44.761  26.671  35.274  1.00  0.00     0.173 A 
ATOM     80  C   UNL A   1      45.929  28.570  34.377  1.00  0.00     0.173 A 
ATOM     81  F   UNL A   1      43.680  25.880  35.350  1.00  0.00    -0.203 F 
ATOM     82  C   UNL A   1      45.837  26.414  36.121  1.00  0.00     0.198 A 
ATOM     83  C   UNL A   1      47.019  28.284  35.193  1.00  0.00     0.198 A 
ATOM     84  F   UNL A   1      46.002  29.629  33.557  1.00  0.00    -0.203 F 
ATOM     85  F   UNL A   1      45.770  25.405  36.999  1.00  0.00    -0.200 F 
ATOM     86  C   UNL A   1      46.967  27.217  36.075  1.00  0.00     0.200 A 
ATOM     87  F   UNL A   1      48.118  29.050  35.132  1.00  0.00    -0.200 F 
ATOM     88  F   UNL A   1      48.002  26.968  36.891  1.00  0.00    -0.200 F 
ENDBRANCH  55  78
ENDBRANCH  29  30
ENDBRANCH  22  24
ENDBRANCH  21  22
ENDBRANCH  20  21
ENDBRANCH   1  20
TORSDOF 15
ENDMDL
MODEL 2
REMARK VINA RESULT:     -11.1      3.251      8.056
REMARK SMILES CC1(C)[C@H](C#N)C(SCC(=O)OCCOC(=O)c2ccc(-c3c4nc(c(-c5c(F)c(F)c(F)c(F)c5F)c5ccc([nH]5)c(-c5c(F)c(F)c(F)c(F)c5F)c5nc(c(-c6c(F)c(F)c(F)c(F)c6F)c6ccc3[nH]6)C=C5)C=C4)cc2)=NC(=O)[C@@H]1C#N
REMARK SMILES IDX 13 1 12 2 10 3 11 4 9 5 8 6 7 7 1 8 2 9 3 10 4 11 84 12
REMARK SMILES IDX 82 13 81 14 83 15 5 16 6 17 85 18 86 19 14 20 15 21 16 22
REMARK SMILES IDX 17 23 18 24 19 25 80 26 20 27 79 28 21 29 22 30 23 31 73 32
REMARK SMILES IDX 24 33 78 34 72 35 74 36 25 37 77 38 71 39 70 40 26 42 58 43
REMARK SMILES IDX 38 44 57 45 39 46 42 47 56 48 75 49 40 50 41 51 55 53 76 54
REMARK SMILES IDX 43 55 27 56 28 57 36 58 29 59 30 60 34 61 37 62 31 63 32 64
REMARK SMILES IDX 35 65 33 66 59 67 60 68 68 69 61 70 62 71 66 72 69 73 63 74
REMARK SMILES IDX 64 75 67 76 65 77 44 78 45 79 53 80 46 81 47 82 51 83 54 84
REMARK SMILES IDX 48 85 49 86 52 87 50 88
REMARK H PARENT 74 41 42 52
REMARK Flexibility Score: inf
ROOT
ATOM      1  C   UNL A   1      40.507  20.634  26.776  1.00  0.00     0.274 C 
ENDROOT
BRANCH   1   2
ATOM      2  O   UNL A   1      39.502  20.421  25.766  1.00  0.00    -0.461 OA
BRANCH   2   3
ATOM      3  C   UNL A   1      38.590  21.419  25.608  1.00  0.00     0.316 C 
ATOM      4  O   UNL A   1      38.605  22.472  26.240  1.00  0.00    -0.251 OA
BRANCH   3   5
ATOM      5  C   UNL A   1      37.498  21.112  24.610  1.00  0.00     0.198 C 
BRANCH   5   6
ATOM      6  S   UNL A   1      36.673  22.534  23.913  1.00  0.00    -0.097 SA
BRANCH   6   7
ATOM      7  C   UNL A   1      35.050  22.625  24.590  1.00  0.00     0.095 C 
ATOM      8  C   UNL A   1      33.509  25.819  25.895  1.00  0.00     0.015 C 
ATOM      9  C   UNL A   1      33.203  24.446  25.227  1.00  0.00     0.012 C 
ATOM     10  C   UNL A   1      31.934  24.743  24.322  1.00  0.00     0.015 C 
ATOM     11  C   UNL A   1      34.476  23.975  24.417  1.00  0.00     0.156 C 
ATOM     12  C   UNL A   1      32.890  23.360  26.273  1.00  0.00     0.191 C 
ATOM     13  C   UNL A   1      33.154  21.967  25.697  1.00  0.00     0.264 C 
ATOM     14  N   UNL A   1      34.380  21.668  25.106  1.00  0.00    -0.209 NA
ATOM     15  O   UNL A   1      32.324  21.087  25.856  1.00  0.00    -0.271 OA
BRANCH  11  16
ATOM     16  C   UNL A   1      34.013  24.021  22.970  1.00  0.00     0.073 C 
ATOM     17  N   UNL A   1      33.629  24.059  21.769  1.00  0.00    -0.198 NA
ENDBRANCH  11  16
BRANCH  12  18
ATOM     18  C   UNL A   1      31.496  23.445  26.757  1.00  0.00     0.076 C 
ATOM     19  N   UNL A   1      30.423  23.555  27.202  1.00  0.00    -0.197 NA
ENDBRANCH  12  18
ENDBRANCH   6   7
ENDBRANCH   5   6
ENDBRANCH   3   5
ENDBRANCH   2   3
ENDBRANCH   1   2
BRANCH   1  20
ATOM     20  C   UNL A   1      41.891  20.747  26.144  1.00  0.00     0.275 C 
BRANCH  20  21
ATOM     21  O   UNL A   1      42.562  21.932  26.632  1.00  0.00    -0.458 OA
BRANCH  21  22
ATOM     22  C   UNL A   1      42.556  22.962  25.758  1.00  0.00     0.338 C 
ATOM     23  O   UNL A   1      42.923  22.897  24.590  1.00  0.00    -0.246 OA
BRANCH  22  24
ATOM     24  C   UNL A   1      42.048  24.227  26.348  1.00  0.00     0.060 A 
ATOM     25  C   UNL A   1      42.717  25.436  26.135  1.00  0.00     0.016 A 
ATOM     26  C   UNL A   1      41.141  24.132  27.402  1.00  0.00     0.016 A 
ATOM     27  C   UNL A   1      42.609  26.483  27.060  1.00  0.00     0.010 A 
ATOM     28  C   UNL A   1      40.959  25.217  28.274  1.00  0.00     0.010 A 
ATOM     29  C   UNL A   1      41.735  26.382  28.152  1.00  0.00    -0.014 A 
BRANCH  29  30
ATOM     30  C   UNL A   1      41.597  27.508  29.122  1.00  0.00     0.031 A 
ATOM     31  C   UNL A   1      42.500  27.674  30.320  1.00  0.00     0.074 A 
ATOM     32  C   UNL A   1      40.597  28.388  28.936  1.00  0.00     0.049 A 
ATOM     33  N   UNL A   1      42.466  28.562  31.287  1.00  0.00    -0.248 NA
ATOM     34  C   UNL A   1      43.594  26.715  30.457  1.00  0.00     0.031 C 
ATOM     35  C   UNL A   1      39.654  28.362  27.819  1.00  0.00     0.029 A 
ATOM     36  N   UNL A   1      40.193  29.455  29.695  1.00  0.00    -0.354 N 
ATOM     37  C   UNL A   1      43.531  28.255  32.134  1.00  0.00     0.074 A 
ATOM     38  C   UNL A   1      44.189  27.099  31.572  1.00  0.00     0.031 C 
ATOM     39  C   UNL A   1      38.769  29.355  27.972  1.00  0.00     0.029 A 
ATOM     40  C   UNL A   1      39.046  30.042  29.229  1.00  0.00     0.049 A 
ATOM     41  H   UNL A   1      40.677  29.767  30.494  1.00  0.00     0.167 HD
ATOM     42  C   UNL A   1      43.916  28.861  33.285  1.00  0.00     0.037 A 
ATOM     43  C   UNL A   1      38.269  30.996  29.772  1.00  0.00     0.037 A 
ATOM     44  C   UNL A   1      43.225  29.980  33.873  1.00  0.00     0.049 A 
ATOM     45  C   UNL A   1      38.666  31.619  31.077  1.00  0.00     0.074 A 
ATOM     46  C   UNL A   1      43.540  30.686  35.021  1.00  0.00     0.029 A 
ATOM     47  N   UNL A   1      42.056  30.535  33.372  1.00  0.00    -0.354 N 
ATOM     48  N   UNL A   1      39.690  31.347  31.848  1.00  0.00    -0.248 NA
ATOM     49  C   UNL A   1      37.802  32.692  31.579  1.00  0.00     0.031 C 
ATOM     50  C   UNL A   1      42.518  31.613  35.259  1.00  0.00     0.029 A 
ATOM     51  C   UNL A   1      41.615  31.550  34.209  1.00  0.00     0.049 A 
ATOM     52  H   UNL A   1      41.605  30.252  32.544  1.00  0.00     0.167 HD
ATOM     53  C   UNL A   1      39.614  32.236  32.912  1.00  0.00     0.074 A 
ATOM     54  C   UNL A   1      38.447  33.061  32.676  1.00  0.00     0.031 C 
ATOM     55  C   UNL A   1      40.443  32.361  33.979  1.00  0.00     0.037 A 
BRANCH  42  56
ATOM     56  C   UNL A   1      45.094  28.275  34.024  1.00  0.00     0.064 A 
ATOM     57  C   UNL A   1      44.955  27.220  34.942  1.00  0.00     0.173 A 
ATOM     58  C   UNL A   1      46.389  28.774  33.805  1.00  0.00     0.173 A 
ATOM     59  F   UNL A   1      43.745  26.699  35.193  1.00  0.00    -0.203 F 
ATOM     60  C   UNL A   1      46.053  26.726  35.644  1.00  0.00     0.198 A 
ATOM     61  C   UNL A   1      47.490  28.250  34.478  1.00  0.00     0.198 A 
ATOM     62  F   UNL A   1      46.592  29.770  32.928  1.00  0.00    -0.203 F 
ATOM     63  F   UNL A   1      45.884  25.762  36.560  1.00  0.00    -0.200 F 
ATOM     64  C   UNL A   1      47.320  27.237  35.408  1.00  0.00     0.200 A 
ATOM     65  F   UNL A   1      48.717  28.729  34.228  1.00  0.00    -0.200 F 
ATOM     66  F   UNL A   1      48.377  26.757  36.080  1.00  0.00    -0.200 F 
ENDBRANCH  42  56
BRANCH  43  67
ATOM     67  C   UNL A   1      37.029  31.393  29.061  1.00  0.00     0.064 A 
ATOM     68  C   UNL A   1      35.940  30.518  28.964  1.00  0.00     0.173 A 
ATOM     69  C   UNL A   1      36.887  32.680  28.519  1.00  0.00     0.173 A 
ATOM     70  F   UNL A   1      36.035  29.274  29.455  1.00  0.00    -0.203 F 
ATOM     71  C   UNL A   1      34.755  30.915  28.349  1.00  0.00     0.198 A 
ATOM     72  C   UNL A   1      35.691  33.086  27.936  1.00  0.00     0.198 A 
ATOM     73  F   UNL A   1      37.898  33.559  28.599  1.00  0.00    -0.203 F 
ATOM     74  F   UNL A   1      33.737  30.050  28.243  1.00  0.00    -0.200 F 
ATOM     75  C   UNL A   1      34.629  32.202  27.846  1.00  0.00     0.200 A 
ATOM     76  F   UNL A   1      35.563  34.339  27.475  1.00  0.00    -0.200 F 
ATOM     77  F   UNL A   1      33.480  32.589  27.276  1.00  0.00    -0.200 F 
ENDBRANCH  43  67
BRANCH  55  78
ATOM     78  C   UNL A   1      40.145  33.467  34.953  1.00  0.00     0.064 A 
ATOM     79  C   UNL A   1      40.588  34.784  34.748  1.00  0.00     0.173 A 
ATOM     80  C   UNL A   1      39.398  33.204  36.113  1.00  0.00     0.173 A 
ATOM     81  F   UNL A   1      41.317  35.091  33.665  1.00  0.00    -0.203 F 
ATOM     82  C   UNL A   1      40.337  35.780  35.690  1.00  0.00     0.198 A 
ATOM     83  C   UNL A   1      39.112  34.212  37.029  1.00  0.00     0.198 A 
ATOM     84  F   UNL A   1      38.940  31.967  36.357  1.00  0.00    -0.203 F 
ATOM     85  F   UNL A   1      40.837  37.010  35.510  1.00  0.00    -0.200 F 
ATOM     86  C   UNL A   1      39.595  35.495  36.826  1.00  0.00     0.200 A 
ATOM     87  F   UNL A   1      38.378  33.937  38.117  1.00  0.00    -0.200 F 
ATOM     88  F   UNL A   1      39.356  36.454  37.731  1.00  0.00    -0.200 F 
ENDBRANCH  55  78
ENDBRANCH  29  30
ENDBRANCH  22  24
ENDBRANCH  21  22
ENDBRANCH  20  21
ENDBRANCH   1  20
TORSDOF 15
ENDMDL
MODEL 3
REMARK VINA RESULT:     -11.1      1.415      2.353
REMARK SMILES CC1(C)[C@H](C#N)C(SCC(=O)OCCOC(=O)c2ccc(-c3c4nc(c(-c5c(F)c(F)c(F)c(F)c5F)c5ccc([nH]5)c(-c5c(F)c(F)c(F)c(F)c5F)c5nc(c(-c6c(F)c(F)c(F)c(F)c6F)c6ccc3[nH]6)C=C5)C=C4)cc2)=NC(=O)[C@@H]1C#N
REMARK SMILES IDX 13 1 12 2 10 3 11 4 9 5 8 6 7 7 1 8 2 9 3 10 4 11 84 12
REMARK SMILES IDX 82 13 81 14 83 15 5 16 6 17 85 18 86 19 14 20 15 21 16 22
REMARK SMILES IDX 17 23 18 24 19 25 80 26 20 27 79 28 21 29 22 30 23 31 73 32
REMARK SMILES IDX 24 33 78 34 72 35 74 36 25 37 77 38 71 39 70 40 26 42 58 43
REMARK SMILES IDX 38 44 57 45 39 46 42 47 56 48 75 49 40 50 41 51 55 53 76 54
REMARK SMILES IDX 43 55 27 56 28 57 36 58 29 59 30 60 34 61 37 62 31 63 32 64
REMARK SMILES IDX 35 65 33 66 59 67 60 68 68 69 61 70 62 71 66 72 69 73 63 74
REMARK SMILES IDX 64 75 67 76 65 77 44 78 45 79 53 80 46 81 47 82 51 83 54 84
REMARK SMILES IDX 48 85 49 86 52 87 50 88
REMARK H PARENT 74 41 42 52
REMARK Flexibility Score: inf
ROOT
ATOM      1  C   UNL A   1      31.764  30.862  26.252  1.00  0.00     0.274 C 
ENDROOT
BRANCH   1   2
ATOM      2  O   UNL A   1      31.773  29.828  27.256  1.00  0.00    -0.461 OA
BRANCH   2   3
ATOM      3  C   UNL A   1      32.314  28.636  26.884  1.00  0.00     0.316 C 
ATOM      4  O   UNL A   1      33.432  28.253  27.219  1.00  0.00    -0.251 OA
BRANCH   3   5
ATOM      5  C   UNL A   1      31.441  27.817  25.963  1.00  0.00     0.198 C 
BRANCH   5   6
ATOM      6  S   UNL A   1      31.369  26.070  26.325  1.00  0.00    -0.097 SA
BRANCH   6   7
ATOM      7  C   UNL A   1      32.524  25.237  25.291  1.00  0.00     0.095 C 
ATOM      8  C   UNL A   1      35.310  23.052  26.610  1.00  0.00     0.015 C 
ATOM      9  C   UNL A   1      34.336  23.278  25.416  1.00  0.00     0.012 C 
ATOM     10  C   UNL A   1      34.066  21.814  24.868  1.00  0.00     0.015 C 
ATOM     11  C   UNL A   1      33.043  24.018  25.945  1.00  0.00     0.156 C 
ATOM     12  C   UNL A   1      34.966  24.166  24.327  1.00  0.00     0.191 C 
ATOM     13  C   UNL A   1      33.879  24.837  23.485  1.00  0.00     0.264 C 
ATOM     14  N   UNL A   1      32.854  25.555  24.098  1.00  0.00    -0.209 NA
ATOM     15  O   UNL A   1      33.976  24.832  22.269  1.00  0.00    -0.271 OA
BRANCH  11  16
ATOM     16  C   UNL A   1      31.945  22.982  25.769  1.00  0.00     0.073 C 
ATOM     17  N   UNL A   1      31.033  22.123  25.623  1.00  0.00    -0.198 NA
ENDBRANCH  11  16
BRANCH  12  18
ATOM     18  C   UNL A   1      35.877  23.400  23.450  1.00  0.00     0.076 C 
ATOM     19  N   UNL A   1      36.649  22.854  22.766  1.00  0.00    -0.197 NA
ENDBRANCH  12  18
ENDBRANCH   6   7
ENDBRANCH   5   6
ENDBRANCH   3   5
ENDBRANCH   2   3
ENDBRANCH   1   2
BRANCH   1  20
ATOM     20  C   UNL A   1      31.536  32.230  26.889  1.00  0.00     0.275 C 
BRANCH  20  21
ATOM     21  O   UNL A   1      32.693  33.071  26.680  1.00  0.00    -0.458 OA
BRANCH  21  22
ATOM     22  C   UNL A   1      33.312  33.443  27.822  1.00  0.00     0.338 C 
ATOM     23  O   UNL A   1      32.892  34.284  28.609  1.00  0.00    -0.246 OA
BRANCH  22  24
ATOM     24  C   UNL A   1      34.590  32.723  28.055  1.00  0.00     0.060 A 
ATOM     25  C   UNL A   1      34.595  31.417  28.557  1.00  0.00     0.016 A 
ATOM     26  C   UNL A   1      35.757  33.480  28.129  1.00  0.00     0.016 A 
ATOM     27  C   UNL A   1      35.697  30.933  29.272  1.00  0.00     0.010 A 
ATOM     28  C   UNL A   1      36.896  32.957  28.762  1.00  0.00     0.010 A 
ATOM     29  C   UNL A   1      36.862  31.704  29.395  1.00  0.00    -0.014 A 
BRANCH  29  30
ATOM     30  C   UNL A   1      38.049  31.177  30.132  1.00  0.00     0.031 A 
ATOM     31  C   UNL A   1      39.000  30.167  29.539  1.00  0.00     0.074 A 
ATOM     32  C   UNL A   1      38.250  31.596  31.394  1.00  0.00     0.049 A 
ATOM     33  N   UNL A   1      40.038  29.567  30.076  1.00  0.00    -0.248 NA
ATOM     34  C   UNL A   1      38.761  29.773  28.152  1.00  0.00     0.031 C 
ATOM     35  C   UNL A   1      37.421  32.576  32.095  1.00  0.00     0.029 A 
ATOM     36  N   UNL A   1      39.194  31.230  32.317  1.00  0.00    -0.354 N 
ATOM     37  C   UNL A   1      40.558  28.732  29.087  1.00  0.00     0.074 A 
ATOM     38  C   UNL A   1      39.723  28.897  27.922  1.00  0.00     0.031 C 
ATOM     39  C   UNL A   1      37.882  32.723  33.343  1.00  0.00     0.029 A 
ATOM     40  C   UNL A   1      38.994  31.801  33.546  1.00  0.00     0.049 A 
ATOM     41  H   UNL A   1      39.940  30.619  32.117  1.00  0.00     0.167 HD
ATOM     42  C   UNL A   1      41.618  27.887  29.147  1.00  0.00     0.037 A 
ATOM     43  C   UNL A   1      39.602  31.576  34.725  1.00  0.00     0.037 A 
ATOM     44  C   UNL A   1      42.416  27.681  30.329  1.00  0.00     0.049 A 
ATOM     45  C   UNL A   1      40.732  30.593  34.797  1.00  0.00     0.074 A 
ATOM     46  C   UNL A   1      43.525  26.870  30.495  1.00  0.00     0.029 A 
ATOM     47  N   UNL A   1      42.167  28.273  31.559  1.00  0.00    -0.354 N 
ATOM     48  N   UNL A   1      41.237  29.838  33.853  1.00  0.00    -0.248 NA
ATOM     49  C   UNL A   1      41.385  30.443  36.102  1.00  0.00     0.031 C 
ATOM     50  C   UNL A   1      43.896  26.907  31.844  1.00  0.00     0.029 A 
ATOM     51  C   UNL A   1      43.078  27.814  32.500  1.00  0.00     0.049 A 
ATOM     52  H   UNL A   1      41.451  28.923  31.740  1.00  0.00     0.167 HD
ATOM     53  C   UNL A   1      42.288  29.145  34.438  1.00  0.00     0.074 A 
ATOM     54  C   UNL A   1      42.351  29.582  35.819  1.00  0.00     0.031 C 
ATOM     55  C   UNL A   1      43.128  28.239  33.879  1.00  0.00     0.037 A 
BRANCH  42  56
ATOM     56  C   UNL A   1      41.924  27.063  27.920  1.00  0.00     0.064 A 
ATOM     57  C   UNL A   1      42.828  27.492  26.934  1.00  0.00     0.173 A 
ATOM     58  C   UNL A   1      41.305  25.816  27.730  1.00  0.00     0.173 A 
ATOM     59  F   UNL A   1      43.452  28.673  27.058  1.00  0.00    -0.203 F 
ATOM     60  C   UNL A   1      43.060  26.732  25.788  1.00  0.00     0.198 A 
ATOM     61  C   UNL A   1      41.571  25.040  26.604  1.00  0.00     0.198 A 
ATOM     62  F   UNL A   1      40.444  25.340  28.643  1.00  0.00    -0.203 F 
ATOM     63  F   UNL A   1      43.880  27.193  24.833  1.00  0.00    -0.200 F 
ATOM     64  C   UNL A   1      42.436  25.505  25.627  1.00  0.00     0.200 A 
ATOM     65  F   UNL A   1      40.986  23.842  26.464  1.00  0.00    -0.200 F 
ATOM     66  F   UNL A   1      42.665  24.772  24.527  1.00  0.00    -0.200 F 
ENDBRANCH  42  56
BRANCH  43  67
ATOM     67  C   UNL A   1      39.119  32.305  35.924  1.00  0.00     0.064 A 
ATOM     68  C   UNL A   1      38.249  31.697  36.837  1.00  0.00     0.173 A 
ATOM     69  C   UNL A   1      39.573  33.602  36.212  1.00  0.00     0.173 A 
ATOM     70  F   UNL A   1      37.780  30.465  36.597  1.00  0.00    -0.203 F 
ATOM     71  C   UNL A   1      37.846  32.363  37.993  1.00  0.00     0.198 A 
ATOM     72  C   UNL A   1      39.197  34.251  37.383  1.00  0.00     0.198 A 
ATOM     73  F   UNL A   1      40.418  34.220  35.373  1.00  0.00    -0.203 F 
ATOM     74  F   UNL A   1      36.990  31.772  38.837  1.00  0.00    -0.200 F 
ATOM     75  C   UNL A   1      38.330  33.634  38.269  1.00  0.00     0.200 A 
ATOM     76  F   UNL A   1      39.687  35.468  37.660  1.00  0.00    -0.200 F 
ATOM     77  F   UNL A   1      37.960  34.261  39.394  1.00  0.00    -0.200 F 
ENDBRANCH  43  67
BRANCH  55  78
ATOM     78  C   UNL A   1      44.226  27.692  34.749  1.00  0.00     0.064 A 
ATOM     79  C   UNL A   1      45.457  28.351  34.903  1.00  0.00     0.173 A 
ATOM     80  C   UNL A   1      44.041  26.487  35.444  1.00  0.00     0.173 A 
ATOM     81  F   UNL A   1      45.696  29.500  34.253  1.00  0.00    -0.203 F 
ATOM     82  C   UNL A   1      46.474  27.798  35.679  1.00  0.00     0.198 A 
ATOM     83  C   UNL A   1      45.044  25.960  36.253  1.00  0.00     0.198 A 
ATOM     84  F   UNL A   1      42.882  25.817  35.343  1.00  0.00    -0.203 F 
ATOM     85  F   UNL A   1      47.666  28.406  35.748  1.00  0.00    -0.200 F 
ATOM     86  C   UNL A   1      46.264  26.607  36.358  1.00  0.00     0.200 A 
ATOM     87  F   UNL A   1      44.831  24.819  36.923  1.00  0.00    -0.200 F 
ATOM     88  F   UNL A   1      47.244  26.077  37.103  1.00  0.00    -0.200 F 
ENDBRANCH  55  78
ENDBRANCH  29  30
ENDBRANCH  22  24
ENDBRANCH  21  22
ENDBRANCH  20  21
ENDBRANCH   1  20
TORSDOF 15
ENDMDL
