MODEL 1
REMARK VINA RESULT:     -11.1      0.000      0.000
REMARK SMILES CCCc1cc(-n2ccc(C(=O)OCCOC(=O)c3ccc(-c4c5nc(c(-c6c(F)c(F)c(F)c(F)c6F)c6ccc([nH]6)c(-c6c(F)c(F)c(F)c(F)c6F)c6nc(c(-c7c(F)c(F)c(F)c(F)c7F)c7ccc4[nH]7)C=C6)C=C5)cc3)n2)nc(-c2ccc(C(F)(F)F)cc2)n1
REMARK SMILES IDX 14 1 13 2 11 3 12 4 10 5 7 6 8 7 82 8 9 9 6 10 4 11 5 12
REMARK SMILES IDX 95 13 84 14 83 15 3 16 2 17 1 18 85 19 86 20 94 21 87 22
REMARK SMILES IDX 93 23 88 24 89 25 90 26 91 27 92 28 15 29 16 30 17 31 18 32
REMARK SMILES IDX 19 33 20 34 81 35 21 36 80 37 22 38 23 39 24 40 74 41 25 42
REMARK SMILES IDX 79 43 73 44 75 45 26 46 78 47 72 48 71 49 27 51 59 52 39 53
REMARK SMILES IDX 58 54 40 55 43 56 57 57 76 58 41 59 42 60 56 62 77 63 44 64
REMARK SMILES IDX 28 65 29 66 37 67 30 68 31 69 35 70 38 71 32 72 33 73 36 74
REMARK SMILES IDX 34 75 60 76 61 77 69 78 62 79 63 80 67 81 70 82 64 83 65 84
REMARK SMILES IDX 68 85 66 86 45 87 46 88 54 89 47 90 48 91 52 92 55 93 49 94
REMARK SMILES IDX 50 95 53 96 51 97
REMARK H PARENT 75 50 43 61
REMARK Flexibility Score: inf
ROOT
ATOM      1  C   UNL A   1      42.151  19.316  25.736  1.00  0.00     0.275 C 
ENDROOT
BRANCH   1   2
ATOM      2  O   UNL A   1      43.507  18.919  25.996  1.00  0.00    -0.457 OA
BRANCH   2   3
ATOM      3  C   UNL A   1      44.416  19.212  25.017  1.00  0.00     0.358 C 
ATOM      4  O   UNL A   1      44.738  18.434  24.120  1.00  0.00    -0.244 OA
BRANCH   3   5
ATOM      5  C   UNL A   1      44.851  20.612  25.040  1.00  0.00     0.170 A 
ATOM      6  N   UNL A   1      45.374  22.555  25.778  1.00  0.00    -0.222 N 
ATOM      7  C   UNL A   1      45.154  22.723  24.429  1.00  0.00     0.118 A 
ATOM      8  N   UNL A   1      45.266  21.252  26.148  1.00  0.00    -0.159 NA
ATOM      9  C   UNL A   1      44.860  21.484  23.920  1.00  0.00     0.058 A 
BRANCH   6  10
ATOM     10  C   UNL A   1      45.628  23.576  26.739  1.00  0.00     0.157 A 
ATOM     11  C   UNL A   1      46.521  25.684  27.277  1.00  0.00     0.047 A 
ATOM     12  C   UNL A   1      46.445  24.634  26.382  1.00  0.00     0.073 A 
ATOM     13  N   UNL A   1      45.957  25.606  28.503  1.00  0.00    -0.233 NA
ATOM     14  C   UNL A   1      45.266  24.488  28.798  1.00  0.00     0.161 A 
ATOM     15  N   UNL A   1      45.030  23.486  27.943  1.00  0.00    -0.209 NA
BRANCH  11  16
ATOM     16  C   UNL A   1      47.230  26.984  26.968  1.00  0.00     0.056 C 
BRANCH  16  17
ATOM     17  C   UNL A   1      47.677  27.248  25.524  1.00  0.00     0.003 C 
ATOM     18  C   UNL A   1      46.695  28.083  24.712  1.00  0.00     0.004 C 
ENDBRANCH  16  17
ENDBRANCH  11  16
BRANCH  14  19
ATOM     19  C   UNL A   1      44.882  24.269  30.195  1.00  0.00     0.019 A 
ATOM     20  C   UNL A   1      44.130  23.155  30.593  1.00  0.00     0.012 A 
ATOM     21  C   UNL A   1      45.256  25.200  31.182  1.00  0.00     0.012 A 
ATOM     22  C   UNL A   1      43.777  22.970  31.936  1.00  0.00     0.014 A 
ATOM     23  C   UNL A   1      44.891  25.031  32.519  1.00  0.00     0.014 A 
ATOM     24  C   UNL A   1      44.152  23.908  32.912  1.00  0.00     0.056 A 
BRANCH  24  25
ATOM     25  C   UNL A   1      43.766  23.700  34.355  1.00  0.00     0.416 C 
ATOM     26  F   UNL A   1      44.024  24.792  35.127  1.00  0.00    -0.166 F 
ATOM     27  F   UNL A   1      42.438  23.441  34.507  1.00  0.00    -0.166 F 
ATOM     28  F   UNL A   1      44.419  22.663  34.952  1.00  0.00    -0.166 F 
ENDBRANCH  24  25
ENDBRANCH  14  19
ENDBRANCH   6  10
ENDBRANCH   3   5
ENDBRANCH   2   3
ENDBRANCH   1   2
BRANCH   1  29
ATOM     29  C   UNL A   1      41.650  20.318  26.769  1.00  0.00     0.275 C 
BRANCH  29  30
ATOM     30  O   UNL A   1      41.444  21.619  26.213  1.00  0.00    -0.458 OA
BRANCH  30  31
ATOM     31  C   UNL A   1      40.210  22.138  26.394  1.00  0.00     0.338 C 
ATOM     32  O   UNL A   1      39.180  21.805  25.834  1.00  0.00    -0.246 OA
BRANCH  31  33
ATOM     33  C   UNL A   1      40.313  23.349  27.224  1.00  0.00     0.060 A 
ATOM     34  C   UNL A   1      39.434  24.400  26.947  1.00  0.00     0.016 A 
ATOM     35  C   UNL A   1      41.394  23.517  28.101  1.00  0.00     0.016 A 
ATOM     36  C   UNL A   1      39.712  25.654  27.460  1.00  0.00     0.010 A 
ATOM     37  C   UNL A   1      41.672  24.770  28.610  1.00  0.00     0.010 A 
ATOM     38  C   UNL A   1      40.862  25.839  28.242  1.00  0.00    -0.014 A 
BRANCH  38  39
ATOM     39  C   UNL A   1      41.114  27.168  28.772  1.00  0.00     0.031 A 
ATOM     40  C   UNL A   1      42.306  27.829  28.182  1.00  0.00     0.074 A 
ATOM     41  C   UNL A   1      40.290  27.801  29.628  1.00  0.00     0.049 A 
ATOM     42  N   UNL A   1      43.369  28.233  28.795  1.00  0.00    -0.248 NA
ATOM     43  C   UNL A   1      42.372  27.945  26.717  1.00  0.00     0.031 C 
ATOM     44  C   UNL A   1      38.956  27.397  30.076  1.00  0.00     0.029 A 
ATOM     45  N   UNL A   1      40.453  29.021  30.210  1.00  0.00    -0.354 N 
ATOM     46  C   UNL A   1      44.176  28.805  27.818  1.00  0.00     0.074 A 
ATOM     47  C   UNL A   1      43.580  28.482  26.548  1.00  0.00     0.031 C 
ATOM     48  C   UNL A   1      38.350  28.449  30.672  1.00  0.00     0.029 A 
ATOM     49  C   UNL A   1      39.294  29.552  30.759  1.00  0.00     0.049 A 
ATOM     50  H   UNL A   1      41.319  29.487  30.239  1.00  0.00     0.167 HD
ATOM     51  C   UNL A   1      45.155  29.690  28.145  1.00  0.00     0.037 A 
ATOM     52  C   UNL A   1      39.116  30.828  31.187  1.00  0.00     0.037 A 
ATOM     53  C   UNL A   1      45.550  29.554  29.523  1.00  0.00     0.049 A 
ATOM     54  C   UNL A   1      40.461  31.412  31.429  1.00  0.00     0.074 A 
ATOM     55  C   UNL A   1      46.062  28.515  30.278  1.00  0.00     0.029 A 
ATOM     56  N   UNL A   1      45.099  30.478  30.432  1.00  0.00    -0.354 N 
ATOM     57  N   UNL A   1      41.249  31.044  32.400  1.00  0.00    -0.248 NA
ATOM     58  C   UNL A   1      41.112  32.092  30.318  1.00  0.00     0.031 C 
ATOM     59  C   UNL A   1      45.431  28.638  31.551  1.00  0.00     0.029 A 
ATOM     60  C   UNL A   1      44.626  29.776  31.512  1.00  0.00     0.049 A 
ATOM     61  H   UNL A   1      45.114  31.457  30.331  1.00  0.00     0.167 HD
ATOM     62  C   UNL A   1      42.515  31.035  31.836  1.00  0.00     0.074 A 
ATOM     63  C   UNL A   1      42.382  31.775  30.583  1.00  0.00     0.031 C 
ATOM     64  C   UNL A   1      43.484  30.189  32.291  1.00  0.00     0.037 A 
BRANCH  51  65
ATOM     65  C   UNL A   1      45.479  30.908  27.320  1.00  0.00     0.064 A 
ATOM     66  C   UNL A   1      46.822  31.187  27.000  1.00  0.00     0.173 A 
ATOM     67  C   UNL A   1      44.568  31.965  27.100  1.00  0.00     0.173 A 
ATOM     68  F   UNL A   1      47.775  30.263  27.192  1.00  0.00    -0.203 F 
ATOM     69  C   UNL A   1      47.229  32.453  26.573  1.00  0.00     0.198 A 
ATOM     70  C   UNL A   1      44.970  33.210  26.622  1.00  0.00     0.198 A 
ATOM     71  F   UNL A   1      43.278  31.879  27.447  1.00  0.00    -0.203 F 
ATOM     72  F   UNL A   1      48.534  32.710  26.407  1.00  0.00    -0.200 F 
ATOM     73  C   UNL A   1      46.305  33.464  26.391  1.00  0.00     0.200 A 
ATOM     74  F   UNL A   1      44.060  34.182  26.472  1.00  0.00    -0.200 F 
ATOM     75  F   UNL A   1      46.700  34.696  26.046  1.00  0.00    -0.200 F 
ENDBRANCH  51  65
BRANCH  52  76
ATOM     76  C   UNL A   1      37.895  31.665  31.108  1.00  0.00     0.064 A 
ATOM     77  C   UNL A   1      37.389  32.099  29.871  1.00  0.00     0.173 A 
ATOM     78  C   UNL A   1      37.043  31.820  32.219  1.00  0.00     0.173 A 
ATOM     79  F   UNL A   1      38.114  31.945  28.754  1.00  0.00    -0.203 F 
ATOM     80  C   UNL A   1      36.100  32.630  29.750  1.00  0.00     0.198 A 
ATOM     81  C   UNL A   1      35.761  32.358  32.099  1.00  0.00     0.198 A 
ATOM     82  F   UNL A   1      37.397  31.362  33.429  1.00  0.00    -0.203 F 
ATOM     83  F   UNL A   1      35.628  32.972  28.543  1.00  0.00    -0.200 F 
ATOM     84  C   UNL A   1      35.284  32.750  30.862  1.00  0.00     0.200 A 
ATOM     85  F   UNL A   1      34.969  32.434  33.178  1.00  0.00    -0.200 F 
ATOM     86  F   UNL A   1      34.028  33.200  30.739  1.00  0.00    -0.200 F 
ENDBRANCH  52  76
BRANCH  64  87
ATOM     87  C   UNL A   1      43.229  29.453  33.577  1.00  0.00     0.064 A 
ATOM     88  C   UNL A   1      43.463  29.993  34.855  1.00  0.00     0.173 A 
ATOM     89  C   UNL A   1      42.601  28.202  33.515  1.00  0.00     0.173 A 
ATOM     90  F   UNL A   1      43.957  31.229  35.003  1.00  0.00    -0.203 F 
ATOM     91  C   UNL A   1      43.135  29.288  36.010  1.00  0.00     0.198 A 
ATOM     92  C   UNL A   1      42.237  27.517  34.670  1.00  0.00     0.198 A 
ATOM     93  F   UNL A   1      42.297  27.660  32.325  1.00  0.00    -0.203 F 
ATOM     94  F   UNL A   1      43.385  29.818  37.217  1.00  0.00    -0.200 F 
ATOM     95  C   UNL A   1      42.515  28.053  35.917  1.00  0.00     0.200 A 
ATOM     96  F   UNL A   1      41.591  26.347  34.574  1.00  0.00    -0.200 F 
ATOM     97  F   UNL A   1      42.161  27.391  37.028  1.00  0.00    -0.200 F 
ENDBRANCH  64  87
ENDBRANCH  38  39
ENDBRANCH  31  33
ENDBRANCH  30  31
ENDBRANCH  29  30
ENDBRANCH   1  29
TORSDOF 16
ENDMDL
MODEL 2
REMARK VINA RESULT:     -11.0      3.677      7.132
REMARK SMILES CCCc1cc(-n2ccc(C(=O)OCCOC(=O)c3ccc(-c4c5nc(c(-c6c(F)c(F)c(F)c(F)c6F)c6ccc([nH]6)c(-c6c(F)c(F)c(F)c(F)c6F)c6nc(c(-c7c(F)c(F)c(F)c(F)c7F)c7ccc4[nH]7)C=C6)C=C5)cc3)n2)nc(-c2ccc(C(F)(F)F)cc2)n1
REMARK SMILES IDX 14 1 13 2 11 3 12 4 10 5 7 6 8 7 82 8 9 9 6 10 4 11 5 12
REMARK SMILES IDX 95 13 84 14 83 15 3 16 2 17 1 18 85 19 86 20 94 21 87 22
REMARK SMILES IDX 93 23 88 24 89 25 90 26 91 27 92 28 15 29 16 30 17 31 18 32
REMARK SMILES IDX 19 33 20 34 81 35 21 36 80 37 22 38 23 39 24 40 74 41 25 42
REMARK SMILES IDX 79 43 73 44 75 45 26 46 78 47 72 48 71 49 27 51 59 52 39 53
REMARK SMILES IDX 58 54 40 55 43 56 57 57 76 58 41 59 42 60 56 62 77 63 44 64
REMARK SMILES IDX 28 65 29 66 37 67 30 68 31 69 35 70 38 71 32 72 33 73 36 74
REMARK SMILES IDX 34 75 60 76 61 77 69 78 62 79 63 80 67 81 70 82 64 83 65 84
REMARK SMILES IDX 68 85 66 86 45 87 46 88 54 89 47 90 48 91 52 92 55 93 49 94
REMARK SMILES IDX 50 95 53 96 51 97
REMARK H PARENT 75 50 43 61
REMARK Flexibility Score: inf
ROOT
ATOM      1  C   UNL A   1      42.428  20.023  26.694  1.00  0.00     0.275 C 
ENDROOT
BRANCH   1   2
ATOM      2  O   UNL A   1      41.501  20.877  26.006  1.00  0.00    -0.457 OA
BRANCH   2   3
ATOM      3  C   UNL A   1      40.236  20.382  25.846  1.00  0.00     0.358 C 
ATOM      4  O   UNL A   1      39.974  19.187  25.716  1.00  0.00    -0.244 OA
BRANCH   3   5
ATOM      5  C   UNL A   1      39.197  21.403  26.010  1.00  0.00     0.170 A 
ATOM      6  N   UNL A   1      37.312  22.413  25.861  1.00  0.00    -0.222 N 
ATOM      7  C   UNL A   1      38.219  23.383  26.227  1.00  0.00     0.118 A 
ATOM      8  N   UNL A   1      37.886  21.184  25.802  1.00  0.00    -0.159 NA
ATOM      9  C   UNL A   1      39.430  22.755  26.374  1.00  0.00     0.058 A 
BRANCH   6  10
ATOM     10  C   UNL A   1      35.944  22.606  25.515  1.00  0.00     0.157 A 
ATOM     11  C   UNL A   1      33.902  21.738  24.734  1.00  0.00     0.047 A 
ATOM     12  C   UNL A   1      35.265  21.575  24.890  1.00  0.00     0.073 A 
ATOM     13  N   UNL A   1      33.295  22.910  25.028  1.00  0.00    -0.233 NA
ATOM     14  C   UNL A   1      34.061  23.894  25.537  1.00  0.00     0.161 A 
ATOM     15  N   UNL A   1      35.358  23.774  25.846  1.00  0.00    -0.209 NA
BRANCH  11  16
ATOM     16  C   UNL A   1      32.991  20.643  24.228  1.00  0.00     0.056 C 
BRANCH  16  17
ATOM     17  C   UNL A   1      33.042  19.272  24.916  1.00  0.00     0.003 C 
ATOM     18  C   UNL A   1      33.877  18.235  24.175  1.00  0.00     0.004 C 
ENDBRANCH  16  17
ENDBRANCH  11  16
BRANCH  14  19
ATOM     19  C   UNL A   1      33.487  25.241  25.608  1.00  0.00     0.019 A 
ATOM     20  C   UNL A   1      32.270  25.497  26.254  1.00  0.00     0.012 A 
ATOM     21  C   UNL A   1      34.153  26.322  25.002  1.00  0.00     0.012 A 
ATOM     22  C   UNL A   1      31.744  26.794  26.307  1.00  0.00     0.014 A 
ATOM     23  C   UNL A   1      33.625  27.614  25.036  1.00  0.00     0.014 A 
ATOM     24  C   UNL A   1      32.416  27.865  25.695  1.00  0.00     0.056 A 
BRANCH  24  25
ATOM     25  C   UNL A   1      31.841  29.258  25.756  1.00  0.00     0.416 C 
ATOM     26  F   UNL A   1      30.727  29.398  24.986  1.00  0.00    -0.166 F 
ATOM     27  F   UNL A   1      31.469  29.613  27.017  1.00  0.00    -0.166 F 
ATOM     28  F   UNL A   1      32.704  30.226  25.337  1.00  0.00    -0.166 F 
ENDBRANCH  24  25
ENDBRANCH  14  19
ENDBRANCH   6  10
ENDBRANCH   3   5
ENDBRANCH   2   3
ENDBRANCH   1   2
BRANCH   1  29
ATOM     29  C   UNL A   1      43.428  19.387  25.735  1.00  0.00     0.275 C 
BRANCH  29  30
ATOM     30  O   UNL A   1      43.711  20.222  24.609  1.00  0.00    -0.458 OA
BRANCH  30  31
ATOM     31  C   UNL A   1      44.931  20.803  24.611  1.00  0.00     0.338 C 
ATOM     32  O   UNL A   1      46.009  20.256  24.452  1.00  0.00    -0.246 OA
BRANCH  31  33
ATOM     33  C   UNL A   1      44.800  22.197  25.062  1.00  0.00     0.060 A 
ATOM     34  C   UNL A   1      45.630  22.621  26.104  1.00  0.00     0.016 A 
ATOM     35  C   UNL A   1      43.734  22.991  24.614  1.00  0.00     0.016 A 
ATOM     36  C   UNL A   1      45.316  23.788  26.774  1.00  0.00     0.010 A 
ATOM     37  C   UNL A   1      43.419  24.154  25.286  1.00  0.00     0.010 A 
ATOM     38  C   UNL A   1      44.178  24.516  26.394  1.00  0.00    -0.014 A 
BRANCH  38  39
ATOM     39  C   UNL A   1      43.887  25.743  27.115  1.00  0.00     0.031 A 
ATOM     40  C   UNL A   1      44.834  26.848  26.819  1.00  0.00     0.074 A 
ATOM     41  C   UNL A   1      42.799  25.916  27.889  1.00  0.00     0.049 A 
ATOM     42  N   UNL A   1      45.609  27.468  27.646  1.00  0.00    -0.248 NA
ATOM     43  C   UNL A   1      45.027  27.228  25.410  1.00  0.00     0.031 C 
ATOM     44  C   UNL A   1      41.647  25.027  28.054  1.00  0.00     0.029 A 
ATOM     45  N   UNL A   1      42.456  27.004  28.633  1.00  0.00    -0.354 N 
ATOM     46  C   UNL A   1      46.274  28.430  26.895  1.00  0.00     0.074 A 
ATOM     47  C   UNL A   1      45.982  28.151  25.513  1.00  0.00     0.031 C 
ATOM     48  C   UNL A   1      40.646  25.705  28.661  1.00  0.00     0.029 A 
ATOM     49  C   UNL A   1      41.129  27.024  29.038  1.00  0.00     0.049 A 
ATOM     50  H   UNL A   1      43.095  27.715  28.863  1.00  0.00     0.167 HD
ATOM     51  C   UNL A   1      46.837  29.518  27.486  1.00  0.00     0.037 A 
ATOM     52  C   UNL A   1      40.468  28.079  29.579  1.00  0.00     0.037 A 
ATOM     53  C   UNL A   1      47.090  29.285  28.885  1.00  0.00     0.049 A 
ATOM     54  C   UNL A   1      41.485  29.021  30.112  1.00  0.00     0.074 A 
ATOM     55  C   UNL A   1      47.840  28.359  29.585  1.00  0.00     0.029 A 
ATOM     56  N   UNL A   1      46.241  29.841  29.809  1.00  0.00    -0.354 N 
ATOM     57  N   UNL A   1      42.232  28.772  31.152  1.00  0.00    -0.248 NA
ATOM     58  C   UNL A   1      41.984  30.055  29.217  1.00  0.00     0.031 C 
ATOM     59  C   UNL A   1      47.060  28.050  30.739  1.00  0.00     0.029 A 
ATOM     60  C   UNL A   1      45.919  28.850  30.701  1.00  0.00     0.049 A 
ATOM     61  H   UNL A   1      45.924  30.774  29.829  1.00  0.00     0.167 HD
ATOM     62  C   UNL A   1      43.479  29.274  30.812  1.00  0.00     0.074 A 
ATOM     63  C   UNL A   1      43.244  30.132  29.653  1.00  0.00     0.031 C 
ATOM     64  C   UNL A   1      44.621  28.727  31.320  1.00  0.00     0.037 A 
BRANCH  51  65
ATOM     65  C   UNL A   1      46.810  30.896  26.879  1.00  0.00     0.064 A 
ATOM     66  C   UNL A   1      47.987  31.670  26.873  1.00  0.00     0.173 A 
ATOM     67  C   UNL A   1      45.618  31.597  26.591  1.00  0.00     0.173 A 
ATOM     68  F   UNL A   1      49.173  31.110  27.157  1.00  0.00    -0.203 F 
ATOM     69  C   UNL A   1      47.958  33.052  26.676  1.00  0.00     0.198 A 
ATOM     70  C   UNL A   1      45.600  32.967  26.341  1.00  0.00     0.198 A 
ATOM     71  F   UNL A   1      44.415  31.015  26.655  1.00  0.00    -0.203 F 
ATOM     72  F   UNL A   1      49.084  33.766  26.810  1.00  0.00    -0.200 F 
ATOM     73  C   UNL A   1      46.764  33.700  26.418  1.00  0.00     0.200 A 
ATOM     74  F   UNL A   1      44.429  33.579  26.113  1.00  0.00    -0.200 F 
ATOM     75  F   UNL A   1      46.724  35.033  26.294  1.00  0.00    -0.200 F 
ENDBRANCH  51  65
BRANCH  52  76
ATOM     76  C   UNL A   1      39.050  28.470  29.396  1.00  0.00     0.064 A 
ATOM     77  C   UNL A   1      38.196  28.648  30.498  1.00  0.00     0.173 A 
ATOM     78  C   UNL A   1      38.577  28.951  28.159  1.00  0.00     0.173 A 
ATOM     79  F   UNL A   1      38.586  28.264  31.722  1.00  0.00    -0.203 F 
ATOM     80  C   UNL A   1      36.959  29.291  30.374  1.00  0.00     0.198 A 
ATOM     81  C   UNL A   1      37.340  29.583  28.034  1.00  0.00     0.198 A 
ATOM     82  F   UNL A   1      39.348  28.905  27.062  1.00  0.00    -0.203 F 
ATOM     83  F   UNL A   1      36.202  29.502  31.460  1.00  0.00    -0.200 F 
ATOM     84  C   UNL A   1      36.537  29.766  29.144  1.00  0.00     0.200 A 
ATOM     85  F   UNL A   1      36.961  30.071  26.844  1.00  0.00    -0.200 F 
ATOM     86  F   UNL A   1      35.382  30.437  29.034  1.00  0.00    -0.200 F 
ENDBRANCH  52  76
BRANCH  64  87
ATOM     87  C   UNL A   1      44.490  27.741  32.447  1.00  0.00     0.064 A 
ATOM     88  C   UNL A   1      44.358  28.102  33.800  1.00  0.00     0.173 A 
ATOM     89  C   UNL A   1      44.362  26.382  32.130  1.00  0.00     0.173 A 
ATOM     90  F   UNL A   1      44.359  29.387  34.176  1.00  0.00    -0.203 F 
ATOM     91  C   UNL A   1      44.164  27.142  34.790  1.00  0.00     0.198 A 
ATOM     92  C   UNL A   1      44.127  25.429  33.117  1.00  0.00     0.198 A 
ATOM     93  F   UNL A   1      44.418  25.981  30.850  1.00  0.00    -0.203 F 
ATOM     94  F   UNL A   1      44.060  27.512  36.075  1.00  0.00    -0.200 F 
ATOM     95  C   UNL A   1      44.041  25.806  34.447  1.00  0.00     0.200 A 
ATOM     96  F   UNL A   1      43.956  24.145  32.773  1.00  0.00    -0.200 F 
ATOM     97  F   UNL A   1      43.813  24.885  35.394  1.00  0.00    -0.200 F 
ENDBRANCH  64  87
ENDBRANCH  38  39
ENDBRANCH  31  33
ENDBRANCH  30  31
ENDBRANCH  29  30
ENDBRANCH   1  29
TORSDOF 16
ENDMDL
MODEL 3
REMARK VINA RESULT:     -10.9      4.051     11.265
REMARK SMILES CCCc1cc(-n2ccc(C(=O)OCCOC(=O)c3ccc(-c4c5nc(c(-c6c(F)c(F)c(F)c(F)c6F)c6ccc([nH]6)c(-c6c(F)c(F)c(F)c(F)c6F)c6nc(c(-c7c(F)c(F)c(F)c(F)c7F)c7ccc4[nH]7)C=C6)C=C5)cc3)n2)nc(-c2ccc(C(F)(F)F)cc2)n1
REMARK SMILES IDX 14 1 13 2 11 3 12 4 10 5 7 6 8 7 82 8 9 9 6 10 4 11 5 12
REMARK SMILES IDX 95 13 84 14 83 15 3 16 2 17 1 18 85 19 86 20 94 21 87 22
REMARK SMILES IDX 93 23 88 24 89 25 90 26 91 27 92 28 15 29 16 30 17 31 18 32
REMARK SMILES IDX 19 33 20 34 81 35 21 36 80 37 22 38 23 39 24 40 74 41 25 42
REMARK SMILES IDX 79 43 73 44 75 45 26 46 78 47 72 48 71 49 27 51 59 52 39 53
REMARK SMILES IDX 58 54 40 55 43 56 57 57 76 58 41 59 42 60 56 62 77 63 44 64
REMARK SMILES IDX 28 65 29 66 37 67 30 68 31 69 35 70 38 71 32 72 33 73 36 74
REMARK SMILES IDX 34 75 60 76 61 77 69 78 62 79 63 80 67 81 70 82 64 83 65 84
REMARK SMILES IDX 68 85 66 86 45 87 46 88 54 89 47 90 48 91 52 92 55 93 49 94
REMARK SMILES IDX 50 95 53 96 51 97
REMARK H PARENT 75 50 43 61
REMARK Flexibility Score: inf
ROOT
ATOM      1  C   UNL A   1      33.723  35.147  28.829  1.00  0.00     0.275 C 
ENDROOT
BRANCH   1   2
ATOM      2  O   UNL A   1      32.707  35.032  29.837  1.00  0.00    -0.457 OA
BRANCH   2   3
ATOM      3  C   UNL A   1      32.955  35.681  31.015  1.00  0.00     0.358 C 
ATOM      4  O   UNL A   1      32.383  36.710  31.369  1.00  0.00    -0.244 OA
BRANCH   3   5
ATOM      5  C   UNL A   1      33.856  34.936  31.900  1.00  0.00     0.170 A 
ATOM      6  N   UNL A   1      35.626  33.987  32.650  1.00  0.00    -0.222 N 
ATOM      7  C   UNL A   1      34.587  33.460  33.387  1.00  0.00     0.118 A 
ATOM      8  N   UNL A   1      35.197  34.948  31.791  1.00  0.00    -0.159 NA
ATOM      9  C   UNL A   1      33.444  34.085  32.957  1.00  0.00     0.058 A 
BRANCH   6  10
ATOM     10  C   UNL A   1      36.992  33.585  32.686  1.00  0.00     0.157 A 
ATOM     11  C   UNL A   1      38.717  32.336  33.683  1.00  0.00     0.047 A 
ATOM     12  C   UNL A   1      37.440  32.854  33.773  1.00  0.00     0.073 A 
ATOM     13  N   UNL A   1      39.540  32.664  32.662  1.00  0.00    -0.233 NA
ATOM     14  C   UNL A   1      39.046  33.469  31.701  1.00  0.00     0.161 A 
ATOM     15  N   UNL A   1      37.781  33.902  31.641  1.00  0.00    -0.209 NA
BRANCH  11  16
ATOM     16  C   UNL A   1      39.295  31.379  34.701  1.00  0.00     0.056 C 
BRANCH  16  17
ATOM     17  C   UNL A   1      39.927  31.959  35.974  1.00  0.00     0.003 C 
ATOM     18  C   UNL A   1      41.398  32.328  35.825  1.00  0.00     0.004 C 
ENDBRANCH  16  17
ENDBRANCH  11  16
BRANCH  14  19
ATOM     19  C   UNL A   1      39.989  34.049  30.741  1.00  0.00     0.019 A 
ATOM     20  C   UNL A   1      39.559  34.799  29.637  1.00  0.00     0.012 A 
ATOM     21  C   UNL A   1      41.372  33.846  30.903  1.00  0.00     0.012 A 
ATOM     22  C   UNL A   1      40.483  35.342  28.735  1.00  0.00     0.014 A 
ATOM     23  C   UNL A   1      42.296  34.369  29.997  1.00  0.00     0.014 A 
ATOM     24  C   UNL A   1      41.860  35.130  28.905  1.00  0.00     0.056 A 
BRANCH  24  25
ATOM     25  C   UNL A   1      42.847  35.718  27.927  1.00  0.00     0.416 C 
ATOM     26  F   UNL A   1      42.541  35.420  26.634  1.00  0.00    -0.166 F 
ATOM     27  F   UNL A   1      42.900  37.077  27.994  1.00  0.00    -0.166 F 
ATOM     28  F   UNL A   1      44.126  35.286  28.113  1.00  0.00    -0.166 F 
ENDBRANCH  24  25
ENDBRANCH  14  19
ENDBRANCH   6  10
ENDBRANCH   3   5
ENDBRANCH   2   3
ENDBRANCH   1   2
BRANCH   1  29
ATOM     29  C   UNL A   1      33.877  33.856  28.033  1.00  0.00     0.275 C 
BRANCH  29  30
ATOM     30  O   UNL A   1      34.834  32.967  28.615  1.00  0.00    -0.458 OA
BRANCH  30  31
ATOM     31  C   UNL A   1      34.975  31.778  27.990  1.00  0.00     0.338 C 
ATOM     32  O   UNL A   1      34.183  31.244  27.232  1.00  0.00    -0.246 OA
BRANCH  31  33
ATOM     33  C   UNL A   1      36.156  31.086  28.530  1.00  0.00     0.060 A 
ATOM     34  C   UNL A   1      37.262  31.867  28.877  1.00  0.00     0.016 A 
ATOM     35  C   UNL A   1      36.240  29.687  28.483  1.00  0.00     0.016 A 
ATOM     36  C   UNL A   1      38.484  31.248  29.061  1.00  0.00     0.010 A 
ATOM     37  C   UNL A   1      37.462  29.070  28.664  1.00  0.00     0.010 A 
ATOM     38  C   UNL A   1      38.584  29.858  28.897  1.00  0.00    -0.014 A 
BRANCH  38  39
ATOM     39  C   UNL A   1      39.882  29.242  29.110  1.00  0.00     0.031 A 
ATOM     40  C   UNL A   1      40.209  29.018  30.541  1.00  0.00     0.074 A 
ATOM     41  C   UNL A   1      40.675  28.803  28.114  1.00  0.00     0.049 A 
ATOM     42  N   UNL A   1      41.201  29.505  31.211  1.00  0.00    -0.248 NA
ATOM     43  C   UNL A   1      39.248  28.256  31.353  1.00  0.00     0.031 C 
ATOM     44  C   UNL A   1      40.371  28.702  26.685  1.00  0.00     0.029 A 
ATOM     45  N   UNL A   1      41.916  28.252  28.203  1.00  0.00    -0.354 N 
ATOM     46  C   UNL A   1      41.085  28.981  32.494  1.00  0.00     0.074 A 
ATOM     47  C   UNL A   1      39.802  28.334  32.563  1.00  0.00     0.031 C 
ATOM     48  C   UNL A   1      41.304  27.927  26.086  1.00  0.00     0.029 A 
ATOM     49  C   UNL A   1      42.330  27.586  27.059  1.00  0.00     0.049 A 
ATOM     50  H   UNL A   1      42.473  28.320  29.011  1.00  0.00     0.167 HD
ATOM     51  C   UNL A   1      42.155  28.934  33.332  1.00  0.00     0.037 A 
ATOM     52  C   UNL A   1      43.402  26.760  26.950  1.00  0.00     0.037 A 
ATOM     53  C   UNL A   1      43.168  29.883  32.948  1.00  0.00     0.049 A 
ATOM     54  C   UNL A   1      44.319  27.065  28.078  1.00  0.00     0.074 A 
ATOM     55  C   UNL A   1      43.189  31.257  32.794  1.00  0.00     0.029 A 
ATOM     56  N   UNL A   1      44.286  29.425  32.298  1.00  0.00    -0.354 N 
ATOM     57  N   UNL A   1      45.001  28.171  28.183  1.00  0.00    -0.248 NA
ATOM     58  C   UNL A   1      44.134  26.324  29.318  1.00  0.00     0.031 C 
ATOM     59  C   UNL A   1      44.009  31.487  31.650  1.00  0.00     0.029 A 
ATOM     60  C   UNL A   1      44.484  30.249  31.219  1.00  0.00     0.049 A 
ATOM     61  H   UNL A   1      44.842  28.654  32.557  1.00  0.00     0.167 HD
ATOM     62  C   UNL A   1      44.939  28.492  29.530  1.00  0.00     0.074 A 
ATOM     63  C   UNL A   1      44.474  27.276  30.193  1.00  0.00     0.031 C 
ATOM     64  C   UNL A   1      44.993  29.789  29.950  1.00  0.00     0.037 A 
BRANCH  51  65
ATOM     65  C   UNL A   1      42.428  27.780  34.261  1.00  0.00     0.064 A 
ATOM     66  C   UNL A   1      43.000  26.601  33.748  1.00  0.00     0.173 A 
ATOM     67  C   UNL A   1      41.869  27.673  35.554  1.00  0.00     0.173 A 
ATOM     68  F   UNL A   1      43.539  26.583  32.519  1.00  0.00    -0.203 F 
ATOM     69  C   UNL A   1      42.941  25.390  34.443  1.00  0.00     0.198 A 
ATOM     70  C   UNL A   1      41.860  26.477  36.267  1.00  0.00     0.198 A 
ATOM     71  F   UNL A   1      41.206  28.683  36.131  1.00  0.00    -0.203 F 
ATOM     72  F   UNL A   1      43.382  24.268  33.859  1.00  0.00    -0.200 F 
ATOM     73  C   UNL A   1      42.366  25.328  35.698  1.00  0.00     0.200 A 
ATOM     74  F   UNL A   1      41.278  26.434  37.474  1.00  0.00    -0.200 F 
ATOM     75  F   UNL A   1      42.249  24.157  36.337  1.00  0.00    -0.200 F 
ENDBRANCH  51  65
BRANCH  52  76
ATOM     76  C   UNL A   1      43.543  25.535  26.127  1.00  0.00     0.064 A 
ATOM     77  C   UNL A   1      44.712  25.284  25.389  1.00  0.00     0.173 A 
ATOM     78  C   UNL A   1      42.652  24.452  26.270  1.00  0.00     0.173 A 
ATOM     79  F   UNL A   1      45.637  26.243  25.244  1.00  0.00    -0.203 F 
ATOM     80  C   UNL A   1      44.985  24.021  24.851  1.00  0.00     0.198 A 
ATOM     81  C   UNL A   1      42.920  23.196  25.726  1.00  0.00     0.198 A 
ATOM     82  F   UNL A   1      41.549  24.563  27.025  1.00  0.00    -0.203 F 
ATOM     83  F   UNL A   1      46.141  23.803  24.210  1.00  0.00    -0.200 F 
ATOM     84  C   UNL A   1      44.093  22.977  25.028  1.00  0.00     0.200 A 
ATOM     85  F   UNL A   1      42.066  22.185  25.936  1.00  0.00    -0.200 F 
ATOM     86  F   UNL A   1      44.381  21.751  24.568  1.00  0.00    -0.200 F 
ENDBRANCH  52  76
BRANCH  64  87
ATOM     87  C   UNL A   1      45.378  30.839  28.945  1.00  0.00     0.064 A 
ATOM     88  C   UNL A   1      46.706  31.203  28.654  1.00  0.00     0.173 A 
ATOM     89  C   UNL A   1      44.370  31.404  28.152  1.00  0.00     0.173 A 
ATOM     90  F   UNL A   1      47.736  30.628  29.288  1.00  0.00    -0.203 F 
ATOM     91  C   UNL A   1      47.001  32.130  27.656  1.00  0.00     0.198 A 
ATOM     92  C   UNL A   1      44.670  32.298  27.129  1.00  0.00     0.198 A 
ATOM     93  F   UNL A   1      43.089  31.050  28.342  1.00  0.00    -0.203 F 
ATOM     94  F   UNL A   1      48.274  32.473  27.411  1.00  0.00    -0.200 F 
ATOM     95  C   UNL A   1      45.983  32.672  26.890  1.00  0.00     0.200 A 
ATOM     96  F   UNL A   1      43.686  32.779  26.357  1.00  0.00    -0.200 F 
ATOM     97  F   UNL A   1      46.267  33.532  25.903  1.00  0.00    -0.200 F 
ENDBRANCH  64  87
ENDBRANCH  38  39
ENDBRANCH  31  33
ENDBRANCH  30  31
ENDBRANCH  29  30
ENDBRANCH   1  29
TORSDOF 16
ENDMDL
