MODEL 1
REMARK VINA RESULT:     -11.7      0.000      0.000
REMARK SMILES CC1(C)CC[N@H+](CCOc2ccc(C(=O)OCCOC(=O)c3ccc(-c4c5nc(c(-c6c(F)c(F)c(F)c(F)c6F)c6ccc([nH]6)c(-c6c(F)c(F)c(F)c(F)c6F)c6nc(c(-c7c(F)c(F)c(F)c(F)c7F)c7ccc4[nH]7)C=C6)C=C5)cc3)cc2)C1
REMARK SMILES IDX 17 1 16 2 14 3 15 4 13 5 10 6 11 7 86 8 12 9 85 10 9 11 8 12
REMARK SMILES IDX 7 13 6 14 1 15 2 16 3 17 4 18 87 19 5 20 18 22 19 23 20 24
REMARK SMILES IDX 21 25 22 26 23 27 84 28 24 29 83 30 25 31 26 32 27 33 77 34
REMARK SMILES IDX 28 35 82 36 76 37 78 38 29 39 81 40 75 41 74 42 30 44 62 45
REMARK SMILES IDX 42 46 61 47 43 48 46 49 60 50 79 51 44 52 45 53 59 55 80 56
REMARK SMILES IDX 47 57 31 58 32 59 40 60 33 61 34 62 38 63 41 64 35 65 36 66
REMARK SMILES IDX 39 67 37 68 63 69 64 70 72 71 65 72 66 73 70 74 73 75 67 76
REMARK SMILES IDX 68 77 71 78 69 79 48 80 49 81 57 82 50 83 51 84 55 85 58 86
REMARK SMILES IDX 52 87 53 88 56 89 54 90
REMARK H PARENT 6 21 78 43 46 54
REMARK Flexibility Score: inf
ROOT
ATOM      1  C   UNL A   1      31.840  29.249  24.610  1.00  0.00     0.275 C 
ENDROOT
BRANCH   1   2
ATOM      2  O   UNL A   1      31.003  28.110  24.889  1.00  0.00    -0.458 OA
BRANCH   2   3
ATOM      3  C   UNL A   1      30.933  27.199  23.890  1.00  0.00     0.338 C 
ATOM      4  O   UNL A   1      31.075  27.433  22.697  1.00  0.00    -0.246 OA
BRANCH   3   5
ATOM      5  C   UNL A   1      30.573  25.840  24.382  1.00  0.00     0.060 A 
ATOM      6  C   UNL A   1      31.092  23.429  25.593  1.00  0.00     0.119 A 
ATOM      7  C   UNL A   1      30.616  24.476  26.379  1.00  0.00     0.047 A 
ATOM      8  C   UNL A   1      30.991  23.479  24.203  1.00  0.00     0.047 A 
ATOM      9  C   UNL A   1      30.369  25.701  25.767  1.00  0.00     0.019 A 
ATOM     10  C   UNL A   1      30.745  24.705  23.583  1.00  0.00     0.019 A 
BRANCH   6  11
ATOM     11  O   UNL A   1      31.822  22.403  26.131  1.00  0.00    -0.488 OA
BRANCH  11  12
ATOM     12  C   UNL A   1      32.554  22.812  27.318  1.00  0.00     0.290 C 
BRANCH  12  13
ATOM     13  C   UNL A   1      33.843  21.979  27.562  1.00  0.00     0.304 C 
BRANCH  13  14
ATOM     14  N   UNL A   1      35.010  22.069  26.655  1.00  0.00    -0.332 N 
ATOM     15  C   UNL A   1      36.717  23.179  23.951  1.00  0.00     0.017 C 
ATOM     16  C   UNL A   1      35.305  23.267  24.548  1.00  0.00     0.019 C 
ATOM     17  C   UNL A   1      34.540  24.407  23.863  1.00  0.00     0.017 C 
ATOM     18  C   UNL A   1      34.607  21.934  24.345  1.00  0.00     0.073 C 
ATOM     19  C   UNL A   1      35.288  23.404  26.089  1.00  0.00     0.268 C 
ATOM     20  C   UNL A   1      34.997  21.113  25.555  1.00  0.00     0.263 C 
ATOM     21  H   UNL A   1      35.761  21.837  27.305  1.00  0.00     0.348 HD
ENDBRANCH  13  14
ENDBRANCH  12  13
ENDBRANCH  11  12
ENDBRANCH   6  11
ENDBRANCH   3   5
ENDBRANCH   2   3
ENDBRANCH   1   2
BRANCH   1  22
ATOM     22  C   UNL A   1      31.663  30.310  25.694  1.00  0.00     0.275 C 
BRANCH  22  23
ATOM     23  O   UNL A   1      32.667  30.135  26.710  1.00  0.00    -0.458 OA
BRANCH  23  24
ATOM     24  C   UNL A   1      33.254  31.275  27.145  1.00  0.00     0.338 C 
ATOM     25  O   UNL A   1      32.761  32.389  27.201  1.00  0.00    -0.246 OA
BRANCH  24  26
ATOM     26  C   UNL A   1      34.617  30.993  27.633  1.00  0.00     0.060 A 
ATOM     27  C   UNL A   1      34.982  29.692  27.968  1.00  0.00     0.016 A 
ATOM     28  C   UNL A   1      35.481  32.046  27.921  1.00  0.00     0.016 A 
ATOM     29  C   UNL A   1      36.129  29.446  28.709  1.00  0.00     0.010 A 
ATOM     30  C   UNL A   1      36.706  31.780  28.540  1.00  0.00     0.010 A 
ATOM     31  C   UNL A   1      37.025  30.483  28.983  1.00  0.00    -0.014 A 
BRANCH  31  32
ATOM     32  C   UNL A   1      38.261  30.221  29.769  1.00  0.00     0.031 A 
ATOM     33  C   UNL A   1      39.347  29.364  29.181  1.00  0.00     0.074 A 
ATOM     34  C   UNL A   1      38.424  30.753  30.998  1.00  0.00     0.049 A 
ATOM     35  N   UNL A   1      40.365  28.792  29.771  1.00  0.00    -0.248 NA
ATOM     36  C   UNL A   1      39.264  29.095  27.736  1.00  0.00     0.031 C 
ATOM     37  C   UNL A   1      37.492  31.664  31.666  1.00  0.00     0.029 A 
ATOM     38  N   UNL A   1      39.444  30.606  31.907  1.00  0.00    -0.354 N 
ATOM     39  C   UNL A   1      40.992  28.034  28.791  1.00  0.00     0.074 A 
ATOM     40  C   UNL A   1      40.247  28.223  27.565  1.00  0.00     0.031 C 
ATOM     41  C   UNL A   1      38.000  32.026  32.853  1.00  0.00     0.029 A 
ATOM     42  C   UNL A   1      39.234  31.285  33.082  1.00  0.00     0.049 A 
ATOM     43  H   UNL A   1      40.248  30.064  31.733  1.00  0.00     0.167 HD
ATOM     44  C   UNL A   1      42.086  27.244  28.913  1.00  0.00     0.037 A 
ATOM     45  C   UNL A   1      39.920  31.268  34.240  1.00  0.00     0.037 A 
ATOM     46  C   UNL A   1      42.860  27.124  30.121  1.00  0.00     0.049 A 
ATOM     47  C   UNL A   1      41.116  30.367  34.360  1.00  0.00     0.074 A 
ATOM     48  C   UNL A   1      43.987  26.356  30.355  1.00  0.00     0.029 A 
ATOM     49  N   UNL A   1      42.597  27.816  31.296  1.00  0.00    -0.354 N 
ATOM     50  N   UNL A   1      41.647  29.575  33.462  1.00  0.00    -0.248 NA
ATOM     51  C   UNL A   1      41.791  30.338  35.664  1.00  0.00     0.031 C 
ATOM     52  C   UNL A   1      44.389  26.561  31.679  1.00  0.00     0.029 A 
ATOM     53  C   UNL A   1      43.540  27.491  32.258  1.00  0.00     0.049 A 
ATOM     54  H   UNL A   1      41.852  28.446  31.426  1.00  0.00     0.167 HD
ATOM     55  C   UNL A   1      42.725  28.963  34.084  1.00  0.00     0.074 A 
ATOM     56  C   UNL A   1      42.785  29.493  35.431  1.00  0.00     0.031 C 
ATOM     57  C   UNL A   1      43.585  28.041  33.588  1.00  0.00     0.037 A 
BRANCH  44  58
ATOM     58  C   UNL A   1      42.486  26.415  27.727  1.00  0.00     0.064 A 
ATOM     59  C   UNL A   1      41.893  25.176  27.447  1.00  0.00     0.173 A 
ATOM     60  C   UNL A   1      43.464  26.890  26.838  1.00  0.00     0.173 A 
ATOM     61  F   UNL A   1      40.965  24.668  28.272  1.00  0.00    -0.203 F 
ATOM     62  C   UNL A   1      42.283  24.431  26.335  1.00  0.00     0.198 A 
ATOM     63  C   UNL A   1      43.829  26.157  25.712  1.00  0.00     0.198 A 
ATOM     64  F   UNL A   1      44.061  28.071  27.057  1.00  0.00    -0.203 F 
ATOM     65  F   UNL A   1      41.738  23.227  26.113  1.00  0.00    -0.200 F 
ATOM     66  C   UNL A   1      43.244  24.925  25.465  1.00  0.00     0.200 A 
ATOM     67  F   UNL A   1      44.749  26.643  24.867  1.00  0.00    -0.200 F 
ATOM     68  F   UNL A   1      43.612  24.210  24.393  1.00  0.00    -0.200 F 
ENDBRANCH  44  58
BRANCH  45  69
ATOM     69  C   UNL A   1      39.456  32.088  35.390  1.00  0.00     0.064 A 
ATOM     70  C   UNL A   1      38.577  31.559  36.345  1.00  0.00     0.173 A 
ATOM     71  C   UNL A   1      39.890  33.411  35.568  1.00  0.00     0.173 A 
ATOM     72  F   UNL A   1      38.113  30.308  36.206  1.00  0.00    -0.203 F 
ATOM     73  C   UNL A   1      38.143  32.324  37.427  1.00  0.00     0.198 A 
ATOM     74  C   UNL A   1      39.483  34.163  36.667  1.00  0.00     0.198 A 
ATOM     75  F   UNL A   1      40.731  33.967  34.683  1.00  0.00    -0.203 F 
ATOM     76  F   UNL A   1      37.270  31.806  38.302  1.00  0.00    -0.200 F 
ATOM     77  C   UNL A   1      38.604  33.621  37.592  1.00  0.00     0.200 A 
ATOM     78  F   UNL A   1      39.946  35.409  36.832  1.00  0.00    -0.200 F 
ATOM     79  F   UNL A   1      38.197  34.351  38.640  1.00  0.00    -0.200 F 
ENDBRANCH  45  69
BRANCH  57  80
ATOM     80  C   UNL A   1      44.689  27.583  34.494  1.00  0.00     0.064 A 
ATOM     81  C   UNL A   1      45.912  28.263  34.566  1.00  0.00     0.173 A 
ATOM     82  C   UNL A   1      44.505  26.463  35.319  1.00  0.00     0.173 A 
ATOM     83  F   UNL A   1      46.140  29.329  33.783  1.00  0.00    -0.203 F 
ATOM     84  C   UNL A   1      46.924  27.823  35.414  1.00  0.00     0.198 A 
ATOM     85  C   UNL A   1      45.509  26.042  36.186  1.00  0.00     0.198 A 
ATOM     86  F   UNL A   1      43.350  25.782  35.288  1.00  0.00    -0.203 F 
ATOM     87  F   UNL A   1      48.103  28.458  35.433  1.00  0.00    -0.200 F 
ATOM     88  C   UNL A   1      46.719  26.717  36.227  1.00  0.00     0.200 A 
ATOM     89  F   UNL A   1      45.306  24.980  36.978  1.00  0.00    -0.200 F 
ATOM     90  F   UNL A   1      47.694  26.296  37.046  1.00  0.00    -0.200 F 
ENDBRANCH  57  80
ENDBRANCH  31  32
ENDBRANCH  24  26
ENDBRANCH  23  24
ENDBRANCH  22  23
ENDBRANCH   1  22
TORSDOF 15
ENDMDL
MODEL 2
REMARK VINA RESULT:     -11.7      1.389      2.607
REMARK SMILES CC1(C)CC[N@H+](CCOc2ccc(C(=O)OCCOC(=O)c3ccc(-c4c5nc(c(-c6c(F)c(F)c(F)c(F)c6F)c6ccc([nH]6)c(-c6c(F)c(F)c(F)c(F)c6F)c6nc(c(-c7c(F)c(F)c(F)c(F)c7F)c7ccc4[nH]7)C=C6)C=C5)cc3)cc2)C1
REMARK SMILES IDX 17 1 16 2 14 3 15 4 13 5 10 6 11 7 86 8 12 9 85 10 9 11 8 12
REMARK SMILES IDX 7 13 6 14 1 15 2 16 3 17 4 18 87 19 5 20 18 22 19 23 20 24
REMARK SMILES IDX 21 25 22 26 23 27 84 28 24 29 83 30 25 31 26 32 27 33 77 34
REMARK SMILES IDX 28 35 82 36 76 37 78 38 29 39 81 40 75 41 74 42 30 44 62 45
REMARK SMILES IDX 42 46 61 47 43 48 46 49 60 50 79 51 44 52 45 53 59 55 80 56
REMARK SMILES IDX 47 57 31 58 32 59 40 60 33 61 34 62 38 63 41 64 35 65 36 66
REMARK SMILES IDX 39 67 37 68 63 69 64 70 72 71 65 72 66 73 70 74 73 75 67 76
REMARK SMILES IDX 68 77 71 78 69 79 48 80 49 81 57 82 50 83 51 84 55 85 58 86
REMARK SMILES IDX 52 87 53 88 56 89 54 90
REMARK H PARENT 6 21 78 43 46 54
REMARK Flexibility Score: inf
ROOT
ATOM      1  C   UNL A   1      32.980  29.295  24.506  1.00  0.00     0.275 C 
ENDROOT
BRANCH   1   2
ATOM      2  O   UNL A   1      32.267  28.267  23.792  1.00  0.00    -0.458 OA
BRANCH   2   3
ATOM      3  C   UNL A   1      32.116  27.104  24.470  1.00  0.00     0.338 C 
ATOM      4  O   UNL A   1      31.170  26.814  25.191  1.00  0.00    -0.246 OA
BRANCH   3   5
ATOM      5  C   UNL A   1      33.290  26.200  24.320  1.00  0.00     0.060 A 
ATOM      6  C   UNL A   1      34.549  23.758  24.320  1.00  0.00     0.119 A 
ATOM      7  C   UNL A   1      34.025  24.233  23.121  1.00  0.00     0.047 A 
ATOM      8  C   UNL A   1      34.738  24.615  25.404  1.00  0.00     0.047 A 
ATOM      9  C   UNL A   1      33.374  25.462  23.126  1.00  0.00     0.019 A 
ATOM     10  C   UNL A   1      34.086  25.849  25.416  1.00  0.00     0.019 A 
BRANCH   6  11
ATOM     11  O   UNL A   1      34.736  22.419  24.542  1.00  0.00    -0.488 OA
BRANCH  11  12
ATOM     12  C   UNL A   1      33.745  21.869  25.451  1.00  0.00     0.290 C 
BRANCH  12  13
ATOM     13  C   UNL A   1      33.175  20.501  24.981  1.00  0.00     0.304 C 
BRANCH  13  14
ATOM     14  N   UNL A   1      33.733  19.218  25.467  1.00  0.00    -0.332 N 
ATOM     15  C   UNL A   1      34.797  16.021  25.156  1.00  0.00     0.017 C 
ATOM     16  C   UNL A   1      34.104  17.100  24.312  1.00  0.00     0.019 C 
ATOM     17  C   UNL A   1      34.167  16.698  22.833  1.00  0.00     0.017 C 
ATOM     18  C   UNL A   1      32.667  17.239  24.785  1.00  0.00     0.073 C 
ATOM     19  C   UNL A   1      34.656  18.525  24.548  1.00  0.00     0.268 C 
ATOM     20  C   UNL A   1      32.735  18.252  25.907  1.00  0.00     0.263 C 
ATOM     21  H   UNL A   1      34.271  19.549  26.268  1.00  0.00     0.348 HD
ENDBRANCH  13  14
ENDBRANCH  12  13
ENDBRANCH  11  12
ENDBRANCH   6  11
ENDBRANCH   3   5
ENDBRANCH   2   3
ENDBRANCH   1   2
BRANCH   1  22
ATOM     22  C   UNL A   1      32.029  30.051  25.430  1.00  0.00     0.275 C 
BRANCH  22  23
ATOM     23  O   UNL A   1      32.559  30.060  26.768  1.00  0.00    -0.458 OA
BRANCH  23  24
ATOM     24  C   UNL A   1      33.148  31.217  27.149  1.00  0.00     0.338 C 
ATOM     25  O   UNL A   1      32.652  32.332  27.170  1.00  0.00    -0.246 OA
BRANCH  24  26
ATOM     26  C   UNL A   1      34.519  30.959  27.626  1.00  0.00     0.060 A 
ATOM     27  C   UNL A   1      34.926  29.657  27.905  1.00  0.00     0.016 A 
ATOM     28  C   UNL A   1      35.349  32.026  27.960  1.00  0.00     0.016 A 
ATOM     29  C   UNL A   1      36.081  29.417  28.636  1.00  0.00     0.010 A 
ATOM     30  C   UNL A   1      36.582  31.773  28.568  1.00  0.00     0.010 A 
ATOM     31  C   UNL A   1      36.943  30.469  28.955  1.00  0.00    -0.014 A 
BRANCH  31  32
ATOM     32  C   UNL A   1      38.187  30.214  29.731  1.00  0.00     0.031 A 
ATOM     33  C   UNL A   1      39.271  29.358  29.135  1.00  0.00     0.074 A 
ATOM     34  C   UNL A   1      38.360  30.751  30.956  1.00  0.00     0.049 A 
ATOM     35  N   UNL A   1      40.296  28.792  29.718  1.00  0.00    -0.248 NA
ATOM     36  C   UNL A   1      39.175  29.084  27.692  1.00  0.00     0.031 C 
ATOM     37  C   UNL A   1      37.432  31.660  31.630  1.00  0.00     0.029 A 
ATOM     38  N   UNL A   1      39.389  30.609  31.856  1.00  0.00    -0.354 N 
ATOM     39  C   UNL A   1      40.917  28.032  28.734  1.00  0.00     0.074 A 
ATOM     40  C   UNL A   1      40.159  28.216  27.515  1.00  0.00     0.031 C 
ATOM     41  C   UNL A   1      37.949  32.027  32.811  1.00  0.00     0.029 A 
ATOM     42  C   UNL A   1      39.187  31.291  33.031  1.00  0.00     0.049 A 
ATOM     43  H   UNL A   1      40.193  30.070  31.676  1.00  0.00     0.167 HD
ATOM     44  C   UNL A   1      42.014  27.247  28.848  1.00  0.00     0.037 A 
ATOM     45  C   UNL A   1      39.884  31.280  34.183  1.00  0.00     0.037 A 
ATOM     46  C   UNL A   1      42.800  27.133  30.049  1.00  0.00     0.049 A 
ATOM     47  C   UNL A   1      41.084  30.383  34.294  1.00  0.00     0.074 A 
ATOM     48  C   UNL A   1      43.931  26.369  30.275  1.00  0.00     0.029 A 
ATOM     49  N   UNL A   1      42.545  27.828  31.224  1.00  0.00    -0.354 N 
ATOM     50  N   UNL A   1      41.610  29.590  33.394  1.00  0.00    -0.248 NA
ATOM     51  C   UNL A   1      41.772  30.360  35.592  1.00  0.00     0.031 C 
ATOM     52  C   UNL A   1      44.345  26.580  31.595  1.00  0.00     0.029 A 
ATOM     53  C   UNL A   1      43.498  27.508  32.178  1.00  0.00     0.049 A 
ATOM     54  H   UNL A   1      41.800  28.455  31.359  1.00  0.00     0.167 HD
ATOM     55  C   UNL A   1      42.696  28.984  34.008  1.00  0.00     0.074 A 
ATOM     56  C   UNL A   1      42.766  29.518  35.353  1.00  0.00     0.031 C 
ATOM     57  C   UNL A   1      43.554  28.063  33.506  1.00  0.00     0.037 A 
BRANCH  44  58
ATOM     58  C   UNL A   1      42.405  26.415  27.661  1.00  0.00     0.064 A 
ATOM     59  C   UNL A   1      43.406  26.815  26.764  1.00  0.00     0.173 A 
ATOM     60  C   UNL A   1      41.780  25.178  27.435  1.00  0.00     0.173 A 
ATOM     61  F   UNL A   1      44.024  27.995  26.924  1.00  0.00    -0.203 F 
ATOM     62  C   UNL A   1      43.749  26.020  25.673  1.00  0.00     0.198 A 
ATOM     63  C   UNL A   1      42.147  24.372  26.361  1.00  0.00     0.198 A 
ATOM     64  F   UNL A   1      40.818  24.745  28.264  1.00  0.00    -0.203 F 
ATOM     65  F   UNL A   1      44.676  26.444  24.802  1.00  0.00    -0.200 F 
ATOM     66  C   UNL A   1      43.125  24.796  25.477  1.00  0.00     0.200 A 
ATOM     67  F   UNL A   1      41.550  23.184  26.182  1.00  0.00    -0.200 F 
ATOM     68  F   UNL A   1      43.462  24.030  24.430  1.00  0.00    -0.200 F 
ENDBRANCH  44  58
BRANCH  45  69
ATOM     69  C   UNL A   1      39.428  32.102  35.335  1.00  0.00     0.064 A 
ATOM     70  C   UNL A   1      39.852  33.430  35.485  1.00  0.00     0.173 A 
ATOM     71  C   UNL A   1      38.552  31.585  36.301  1.00  0.00     0.173 A 
ATOM     72  F   UNL A   1      40.709  33.963  34.602  1.00  0.00    -0.203 F 
ATOM     73  C   UNL A   1      39.423  34.205  36.562  1.00  0.00     0.198 A 
ATOM     74  C   UNL A   1      38.097  32.371  37.358  1.00  0.00     0.198 A 
ATOM     75  F   UNL A   1      38.117  30.320  36.206  1.00  0.00    -0.203 F 
ATOM     76  F   UNL A   1      39.875  35.458  36.703  1.00  0.00    -0.200 F 
ATOM     77  C   UNL A   1      38.539  33.678  37.491  1.00  0.00     0.200 A 
ATOM     78  F   UNL A   1      37.230  31.862  38.243  1.00  0.00    -0.200 F 
ATOM     79  F   UNL A   1      38.118  34.428  38.518  1.00  0.00    -0.200 F 
ENDBRANCH  45  69
BRANCH  57  80
ATOM     80  C   UNL A   1      44.667  27.611  34.404  1.00  0.00     0.064 A 
ATOM     81  C   UNL A   1      45.887  28.300  34.468  1.00  0.00     0.173 A 
ATOM     82  C   UNL A   1      44.498  26.488  35.229  1.00  0.00     0.173 A 
ATOM     83  F   UNL A   1      46.101  29.368  33.684  1.00  0.00    -0.203 F 
ATOM     84  C   UNL A   1      46.907  27.865  35.307  1.00  0.00     0.198 A 
ATOM     85  C   UNL A   1      45.510  26.073  36.087  1.00  0.00     0.198 A 
ATOM     86  F   UNL A   1      43.346  25.800  35.205  1.00  0.00    -0.203 F 
ATOM     87  F   UNL A   1      48.083  28.508  35.318  1.00  0.00    -0.200 F 
ATOM     88  C   UNL A   1      46.716  26.757  36.120  1.00  0.00     0.200 A 
ATOM     89  F   UNL A   1      45.321  25.009  36.879  1.00  0.00    -0.200 F 
ATOM     90  F   UNL A   1      47.700  26.342  36.931  1.00  0.00    -0.200 F 
ENDBRANCH  57  80
ENDBRANCH  31  32
ENDBRANCH  24  26
ENDBRANCH  23  24
ENDBRANCH  22  23
ENDBRANCH   1  22
TORSDOF 15
ENDMDL
MODEL 3
REMARK VINA RESULT:     -11.6      0.585      1.737
REMARK SMILES CC1(C)CC[N@H+](CCOc2ccc(C(=O)OCCOC(=O)c3ccc(-c4c5nc(c(-c6c(F)c(F)c(F)c(F)c6F)c6ccc([nH]6)c(-c6c(F)c(F)c(F)c(F)c6F)c6nc(c(-c7c(F)c(F)c(F)c(F)c7F)c7ccc4[nH]7)C=C6)C=C5)cc3)cc2)C1
REMARK SMILES IDX 17 1 16 2 14 3 15 4 13 5 10 6 11 7 86 8 12 9 85 10 9 11 8 12
REMARK SMILES IDX 7 13 6 14 1 15 2 16 3 17 4 18 87 19 5 20 18 22 19 23 20 24
REMARK SMILES IDX 21 25 22 26 23 27 84 28 24 29 83 30 25 31 26 32 27 33 77 34
REMARK SMILES IDX 28 35 82 36 76 37 78 38 29 39 81 40 75 41 74 42 30 44 62 45
REMARK SMILES IDX 42 46 61 47 43 48 46 49 60 50 79 51 44 52 45 53 59 55 80 56
REMARK SMILES IDX 47 57 31 58 32 59 40 60 33 61 34 62 38 63 41 64 35 65 36 66
REMARK SMILES IDX 39 67 37 68 63 69 64 70 72 71 65 72 66 73 70 74 73 75 67 76
REMARK SMILES IDX 68 77 71 78 69 79 48 80 49 81 57 82 50 83 51 84 55 85 58 86
REMARK SMILES IDX 52 87 53 88 56 89 54 90
REMARK H PARENT 6 21 78 43 46 54
REMARK Flexibility Score: inf
ROOT
ATOM      1  C   UNL A   1      32.518  29.228  24.986  1.00  0.00     0.275 C 
ENDROOT
BRANCH   1   2
ATOM      2  O   UNL A   1      31.658  28.073  25.010  1.00  0.00    -0.458 OA
BRANCH   2   3
ATOM      3  C   UNL A   1      32.042  27.061  24.196  1.00  0.00     0.338 C 
ATOM      4  O   UNL A   1      32.877  27.139  23.304  1.00  0.00    -0.246 OA
BRANCH   3   5
ATOM      5  C   UNL A   1      31.271  25.811  24.437  1.00  0.00     0.060 A 
ATOM      6  C   UNL A   1      30.938  23.252  25.382  1.00  0.00     0.119 A 
ATOM      7  C   UNL A   1      30.594  24.316  26.213  1.00  0.00     0.047 A 
ATOM      8  C   UNL A   1      31.120  23.448  24.014  1.00  0.00     0.047 A 
ATOM      9  C   UNL A   1      30.778  25.610  25.739  1.00  0.00     0.019 A 
ATOM     10  C   UNL A   1      31.308  24.744  23.532  1.00  0.00     0.019 A 
BRANCH   6  11
ATOM     11  O   UNL A   1      31.275  22.025  25.889  1.00  0.00    -0.488 OA
BRANCH  11  12
ATOM     12  C   UNL A   1      32.192  21.306  25.022  1.00  0.00     0.290 C 
BRANCH  12  13
ATOM     13  C   UNL A   1      33.313  20.560  25.798  1.00  0.00     0.304 C 
BRANCH  13  14
ATOM     14  N   UNL A   1      34.652  21.161  25.998  1.00  0.00    -0.332 N 
ATOM     15  C   UNL A   1      36.916  23.677  26.018  1.00  0.00     0.017 C 
ATOM     16  C   UNL A   1      35.462  23.427  25.590  1.00  0.00     0.019 C 
ATOM     17  C   UNL A   1      34.765  24.775  25.366  1.00  0.00     0.017 C 
ATOM     18  C   UNL A   1      35.465  22.591  24.321  1.00  0.00     0.073 C 
ATOM     19  C   UNL A   1      34.672  22.523  26.565  1.00  0.00     0.268 C 
ATOM     20  C   UNL A   1      35.499  21.160  24.812  1.00  0.00     0.263 C 
ATOM     21  H   UNL A   1      35.033  20.521  26.695  1.00  0.00     0.348 HD
ENDBRANCH  13  14
ENDBRANCH  12  13
ENDBRANCH  11  12
ENDBRANCH   6  11
ENDBRANCH   3   5
ENDBRANCH   2   3
ENDBRANCH   1   2
BRANCH   1  22
ATOM     22  C   UNL A   1      31.870  30.382  25.748  1.00  0.00     0.275 C 
BRANCH  22  23
ATOM     23  O   UNL A   1      32.459  30.489  27.057  1.00  0.00    -0.458 OA
BRANCH  23  24
ATOM     24  C   UNL A   1      33.174  31.616  27.279  1.00  0.00     0.338 C 
ATOM     25  O   UNL A   1      32.792  32.770  27.175  1.00  0.00    -0.246 OA
BRANCH  24  26
ATOM     26  C   UNL A   1      34.529  31.276  27.752  1.00  0.00     0.060 A 
ATOM     27  C   UNL A   1      34.833  29.967  28.114  1.00  0.00     0.016 A 
ATOM     28  C   UNL A   1      35.451  32.290  27.999  1.00  0.00     0.016 A 
ATOM     29  C   UNL A   1      35.979  29.680  28.842  1.00  0.00     0.010 A 
ATOM     30  C   UNL A   1      36.672  31.977  28.605  1.00  0.00     0.010 A 
ATOM     31  C   UNL A   1      36.931  30.676  29.075  1.00  0.00    -0.014 A 
BRANCH  31  32
ATOM     32  C   UNL A   1      38.166  30.370  29.848  1.00  0.00     0.031 A 
ATOM     33  C   UNL A   1      39.225  29.493  29.238  1.00  0.00     0.074 A 
ATOM     34  C   UNL A   1      38.352  30.879  31.083  1.00  0.00     0.049 A 
ATOM     35  N   UNL A   1      40.232  28.887  29.812  1.00  0.00    -0.248 NA
ATOM     36  C   UNL A   1      39.124  29.249  27.790  1.00  0.00     0.031 C 
ATOM     37  C   UNL A   1      37.450  31.803  31.772  1.00  0.00     0.029 A 
ATOM     38  N   UNL A   1      39.375  30.691  31.982  1.00  0.00    -0.354 N 
ATOM     39  C   UNL A   1      40.832  28.127  28.816  1.00  0.00     0.074 A 
ATOM     40  C   UNL A   1      40.082  28.354  27.599  1.00  0.00     0.031 C 
ATOM     41  C   UNL A   1      37.975  32.134  32.960  1.00  0.00     0.029 A 
ATOM     42  C   UNL A   1      39.191  31.358  33.168  1.00  0.00     0.049 A 
ATOM     43  H   UNL A   1      40.163  30.132  31.793  1.00  0.00     0.167 HD
ATOM     44  C   UNL A   1      41.905  27.307  28.917  1.00  0.00     0.037 A 
ATOM     45  C   UNL A   1      39.885  31.306  34.320  1.00  0.00     0.037 A 
ATOM     46  C   UNL A   1      42.685  27.149  30.117  1.00  0.00     0.049 A 
ATOM     47  C   UNL A   1      41.058  30.372  34.418  1.00  0.00     0.074 A 
ATOM     48  C   UNL A   1      43.793  26.349  30.330  1.00  0.00     0.029 A 
ATOM     49  N   UNL A   1      42.449  27.830  31.304  1.00  0.00    -0.354 N 
ATOM     50  N   UNL A   1      41.561  29.580  33.504  1.00  0.00    -0.248 NA
ATOM     51  C   UNL A   1      41.742  30.305  35.715  1.00  0.00     0.031 C 
ATOM     52  C   UNL A   1      44.210  26.523  31.654  1.00  0.00     0.029 A 
ATOM     53  C   UNL A   1      43.390  27.465  32.253  1.00  0.00     0.049 A 
ATOM     54  H   UNL A   1      41.722  28.477  31.449  1.00  0.00     0.167 HD
ATOM     55  C   UNL A   1      42.628  28.931  34.108  1.00  0.00     0.074 A 
ATOM     56  C   UNL A   1      42.711  29.438  35.463  1.00  0.00     0.031 C 
ATOM     57  C   UNL A   1      43.460  27.994  33.591  1.00  0.00     0.037 A 
BRANCH  44  58
ATOM     58  C   UNL A   1      42.274  26.486  27.715  1.00  0.00     0.064 A 
ATOM     59  C   UNL A   1      43.274  26.883  26.816  1.00  0.00     0.173 A 
ATOM     60  C   UNL A   1      41.628  25.262  27.479  1.00  0.00     0.173 A 
ATOM     61  F   UNL A   1      43.911  28.051  26.987  1.00  0.00    -0.203 F 
ATOM     62  C   UNL A   1      43.595  26.097  25.712  1.00  0.00     0.198 A 
ATOM     63  C   UNL A   1      41.973  24.465  26.391  1.00  0.00     0.198 A 
ATOM     64  F   UNL A   1      40.665  24.833  28.310  1.00  0.00    -0.203 F 
ATOM     65  F   UNL A   1      44.521  26.519  24.838  1.00  0.00    -0.200 F 
ATOM     66  C   UNL A   1      42.951  24.886  25.504  1.00  0.00     0.200 A 
ATOM     67  F   UNL A   1      41.357  23.289  26.200  1.00  0.00    -0.200 F 
ATOM     68  F   UNL A   1      43.268  24.129  24.445  1.00  0.00    -0.200 F 
ENDBRANCH  44  58
BRANCH  45  69
ATOM     69  C   UNL A   1      39.451  32.120  35.486  1.00  0.00     0.064 A 
ATOM     70  C   UNL A   1      39.900  33.437  35.652  1.00  0.00     0.173 A 
ATOM     71  C   UNL A   1      38.572  31.606  36.452  1.00  0.00     0.173 A 
ATOM     72  F   UNL A   1      40.761  33.967  34.771  1.00  0.00    -0.203 F 
ATOM     73  C   UNL A   1      39.492  34.205  36.742  1.00  0.00     0.198 A 
ATOM     74  C   UNL A   1      38.138  32.385  37.522  1.00  0.00     0.198 A 
ATOM     75  F   UNL A   1      38.114  30.350  36.342  1.00  0.00    -0.203 F 
ATOM     76  F   UNL A   1      39.967  35.448  36.897  1.00  0.00    -0.200 F 
ATOM     77  C   UNL A   1      38.605  33.682  37.670  1.00  0.00     0.200 A 
ATOM     78  F   UNL A   1      37.267  31.880  38.405  1.00  0.00    -0.200 F 
ATOM     79  F   UNL A   1      38.203  34.425  38.710  1.00  0.00    -0.200 F 
ENDBRANCH  45  69
BRANCH  57  80
ATOM     80  C   UNL A   1      44.557  27.493  34.482  1.00  0.00     0.064 A 
ATOM     81  C   UNL A   1      45.797  28.144  34.559  1.00  0.00     0.173 A 
ATOM     82  C   UNL A   1      44.353  26.362  35.287  1.00  0.00     0.173 A 
ATOM     83  F   UNL A   1      46.045  29.219  33.794  1.00  0.00    -0.203 F 
ATOM     84  C   UNL A   1      46.803  27.664  35.392  1.00  0.00     0.198 A 
ATOM     85  C   UNL A   1      45.351  25.902  36.139  1.00  0.00     0.198 A 
ATOM     86  F   UNL A   1      43.182  25.709  35.250  1.00  0.00    -0.203 F 
ATOM     87  F   UNL A   1      47.997  28.271  35.416  1.00  0.00    -0.200 F 
ATOM     88  C   UNL A   1      46.577  26.549  36.186  1.00  0.00     0.200 A 
ATOM     89  F   UNL A   1      45.128  24.831  36.913  1.00  0.00    -0.200 F 
ATOM     90  F   UNL A   1      47.547  26.090  36.990  1.00  0.00    -0.200 F 
ENDBRANCH  57  80
ENDBRANCH  31  32
ENDBRANCH  24  26
ENDBRANCH  23  24
ENDBRANCH  22  23
ENDBRANCH   1  22
TORSDOF 15
ENDMDL
