MODEL 1
REMARK VINA RESULT:     -11.0      0.000      0.000
REMARK SMILES C[C@H](Cc1ccco1)[NH2+]Cc1cc(C(=O)OCCOC(=O)c2ccc(-c3c4nc(c(-c5c(F)c(F)c(F)c(F)c5F)c5ccc([nH]5)c(-c5c(F)c(F)c(F)c(F)c5F)c5nc(c(-c6c(F)c(F)c(F)c(F)c6F)c6ccc3[nH]6)C=C5)C=C4)cc2)cs1
REMARK SMILES IDX 16 1 14 2 15 3 13 4 11 5 12 6 86 7 85 8 10 9 9 10 2 13 1 14
REMARK SMILES IDX 3 15 4 16 5 17 8 18 6 19 7 20 17 21 18 22 19 23 20 24 21 25
REMARK SMILES IDX 22 26 23 27 84 28 24 29 83 30 25 31 26 32 27 33 77 34 28 35
REMARK SMILES IDX 82 36 76 37 78 38 29 39 81 40 75 41 74 42 30 44 62 45 42 46
REMARK SMILES IDX 61 47 43 48 46 49 60 50 79 51 44 52 45 53 59 55 80 56 47 57
REMARK SMILES IDX 31 58 32 59 40 60 33 61 34 62 38 63 41 64 35 65 36 66 39 67
REMARK SMILES IDX 37 68 63 69 64 70 72 71 65 72 66 73 70 74 73 75 67 76 68 77
REMARK SMILES IDX 71 78 69 79 48 80 49 81 57 82 50 83 51 84 55 85 58 86 52 87
REMARK SMILES IDX 53 88 56 89 54 90
REMARK H PARENT 9 11 9 12 78 43 46 54
REMARK Flexibility Score: inf
ROOT
ATOM      1  O   UNL A   1      33.886  33.982  28.952  1.00  0.00    -0.458 OA
ENDROOT
BRANCH   1   2
ATOM      2  C   UNL A   1      33.167  33.304  28.010  1.00  0.00     0.339 C 
ATOM      3  O   UNL A   1      32.230  33.776  27.382  1.00  0.00    -0.246 OA
BRANCH   2   4
ATOM      4  C   UNL A   1      33.655  31.944  27.794  1.00  0.00     0.071 A 
ATOM      5  C   UNL A   1      33.750  29.864  26.784  1.00  0.00     0.060 A 
ATOM      6  C   UNL A   1      32.904  30.848  27.262  1.00  0.00     0.037 A 
ATOM      7  S   UNL A   1      35.275  29.947  27.557  1.00  0.00    -0.142 S 
ATOM      8  C   UNL A   1      34.963  31.555  28.036  1.00  0.00     0.081 A 
BRANCH   5   9
ATOM      9  C   UNL A   1      33.517  28.902  25.662  1.00  0.00     0.308 C 
BRANCH   9  10
ATOM     10  N   UNL A   1      32.658  29.489  24.625  1.00  0.00    -0.339 N 
ATOM     11  H   UNL A   1      32.282  30.359  25.000  1.00  0.00     0.346 HD
ATOM     12  H   UNL A   1      33.266  29.585  23.813  1.00  0.00     0.346 HD
BRANCH  10  13
ATOM     13  C   UNL A   1      31.513  28.684  24.142  1.00  0.00     0.187 C 
ATOM     14  C   UNL A   1      31.595  27.152  24.257  1.00  0.00     0.075 C 
BRANCH  13  15
ATOM     15  C   UNL A   1      31.158  29.147  22.696  1.00  0.00     0.140 C 
BRANCH  15  16
ATOM     16  C   UNL A   1      29.865  29.879  22.563  1.00  0.00     0.109 A 
ATOM     17  C   UNL A   1      29.149  30.676  23.433  1.00  0.00     0.046 A 
ATOM     18  O   UNL A   1      29.185  29.741  21.389  1.00  0.00    -0.469 OA
ATOM     19  C   UNL A   1      27.951  31.021  22.767  1.00  0.00     0.042 A 
ATOM     20  C   UNL A   1      28.024  30.437  21.524  1.00  0.00     0.195 A 
ENDBRANCH  15  16
ENDBRANCH  13  15
ENDBRANCH  10  13
ENDBRANCH   9  10
ENDBRANCH   5   9
ENDBRANCH   2   4
ENDBRANCH   1   2
BRANCH   1  21
ATOM     21  C   UNL A   1      33.968  35.405  28.777  1.00  0.00     0.275 C 
BRANCH  21  22
ATOM     22  C   UNL A   1      32.819  36.110  29.499  1.00  0.00     0.275 C 
BRANCH  22  23
ATOM     23  O   UNL A   1      32.321  35.307  30.587  1.00  0.00    -0.458 OA
BRANCH  23  24
ATOM     24  C   UNL A   1      32.535  35.821  31.819  1.00  0.00     0.338 C 
ATOM     25  O   UNL A   1      31.893  36.688  32.387  1.00  0.00    -0.246 OA
BRANCH  24  26
ATOM     26  C   UNL A   1      33.625  35.091  32.478  1.00  0.00     0.060 A 
ATOM     27  C   UNL A   1      34.895  35.660  32.464  1.00  0.00     0.016 A 
ATOM     28  C   UNL A   1      33.444  33.800  32.960  1.00  0.00     0.016 A 
ATOM     29  C   UNL A   1      36.008  34.935  32.858  1.00  0.00     0.010 A 
ATOM     30  C   UNL A   1      34.555  33.089  33.428  1.00  0.00     0.010 A 
ATOM     31  C   UNL A   1      35.850  33.641  33.354  1.00  0.00    -0.014 A 
BRANCH  31  32
ATOM     32  C   UNL A   1      37.048  32.849  33.726  1.00  0.00     0.031 A 
ATOM     33  C   UNL A   1      37.710  33.089  35.053  1.00  0.00     0.074 A 
ATOM     34  C   UNL A   1      37.522  31.901  32.895  1.00  0.00     0.049 A 
ATOM     35  N   UNL A   1      38.860  32.651  35.498  1.00  0.00    -0.248 NA
ATOM     36  C   UNL A   1      36.985  33.950  36.001  1.00  0.00     0.031 C 
ATOM     37  C   UNL A   1      36.921  31.517  31.616  1.00  0.00     0.029 A 
ATOM     38  N   UNL A   1      38.623  31.089  33.000  1.00  0.00    -0.354 N 
ATOM     39  C   UNL A   1      39.020  33.226  36.752  1.00  0.00     0.074 A 
ATOM     40  C   UNL A   1      37.858  34.052  36.993  1.00  0.00     0.031 C 
ATOM     41  C   UNL A   1      37.652  30.538  31.062  1.00  0.00     0.029 A 
ATOM     42  C   UNL A   1      38.818  30.289  31.901  1.00  0.00     0.049 A 
ATOM     43  H   UNL A   1      39.216  31.082  33.787  1.00  0.00     0.167 HD
ATOM     44  C   UNL A   1      40.050  33.073  37.618  1.00  0.00     0.037 A 
ATOM     45  C   UNL A   1      39.849  29.485  31.581  1.00  0.00     0.037 A 
ATOM     46  C   UNL A   1      41.181  32.214  37.379  1.00  0.00     0.049 A 
ATOM     47  C   UNL A   1      41.013  29.385  32.529  1.00  0.00     0.074 A 
ATOM     48  C   UNL A   1      42.273  31.977  38.193  1.00  0.00     0.029 A 
ATOM     49  N   UNL A   1      41.358  31.443  36.237  1.00  0.00    -0.354 N 
ATOM     50  N   UNL A   1      41.183  29.963  33.694  1.00  0.00    -0.248 NA
ATOM     51  C   UNL A   1      42.132  28.530  32.113  1.00  0.00     0.031 C 
ATOM     52  C   UNL A   1      43.137  31.105  37.523  1.00  0.00     0.029 A 
ATOM     53  C   UNL A   1      42.554  30.747  36.318  1.00  0.00     0.049 A 
ATOM     54  H   UNL A   1      40.728  31.398  35.483  1.00  0.00     0.167 HD
ATOM     55  C   UNL A   1      42.414  29.522  34.162  1.00  0.00     0.074 A 
ATOM     56  C   UNL A   1      42.938  28.615  33.161  1.00  0.00     0.031 C 
ATOM     57  C   UNL A   1      43.052  29.839  35.315  1.00  0.00     0.037 A 
BRANCH  44  58
ATOM     58  C   UNL A   1      40.024  33.885  38.883  1.00  0.00     0.064 A 
ATOM     59  C   UNL A   1      39.344  33.456  40.032  1.00  0.00     0.173 A 
ATOM     60  C   UNL A   1      40.717  35.104  38.949  1.00  0.00     0.173 A 
ATOM     61  F   UNL A   1      38.655  32.306  40.020  1.00  0.00    -0.203 F 
ATOM     62  C   UNL A   1      39.333  34.232  41.189  1.00  0.00     0.198 A 
ATOM     63  C   UNL A   1      40.731  35.861  40.117  1.00  0.00     0.198 A 
ATOM     64  F   UNL A   1      41.387  35.560  37.880  1.00  0.00    -0.203 F 
ATOM     65  F   UNL A   1      38.631  33.829  42.258  1.00  0.00    -0.200 F 
ATOM     66  C   UNL A   1      40.031  35.430  41.233  1.00  0.00     0.200 A 
ATOM     67  F   UNL A   1      41.420  37.010  40.161  1.00  0.00    -0.200 F 
ATOM     68  F   UNL A   1      40.026  36.171  42.350  1.00  0.00    -0.200 F 
ENDBRANCH  44  58
BRANCH  45  69
ATOM     69  C   UNL A   1      39.846  28.750  30.288  1.00  0.00     0.064 A 
ATOM     70  C   UNL A   1      40.396  29.318  29.131  1.00  0.00     0.173 A 
ATOM     71  C   UNL A   1      39.288  27.466  30.180  1.00  0.00     0.173 A 
ATOM     72  F   UNL A   1      40.919  30.553  29.176  1.00  0.00    -0.203 F 
ATOM     73  C   UNL A   1      40.371  28.640  27.914  1.00  0.00     0.198 A 
ATOM     74  C   UNL A   1      39.295  26.775  28.971  1.00  0.00     0.198 A 
ATOM     75  F   UNL A   1      38.748  26.875  31.256  1.00  0.00    -0.203 F 
ATOM     76  F   UNL A   1      40.858  29.228  26.813  1.00  0.00    -0.200 F 
ATOM     77  C   UNL A   1      39.829  27.367  27.837  1.00  0.00     0.200 A 
ATOM     78  F   UNL A   1      38.785  25.538  28.905  1.00  0.00    -0.200 F 
ATOM     79  F   UNL A   1      39.811  26.713  26.667  1.00  0.00    -0.200 F 
ENDBRANCH  45  69
BRANCH  57  80
ATOM     80  C   UNL A   1      44.365  29.161  35.579  1.00  0.00     0.064 A 
ATOM     81  C   UNL A   1      44.441  27.927  36.241  1.00  0.00     0.173 A 
ATOM     82  C   UNL A   1      45.562  29.741  35.130  1.00  0.00     0.173 A 
ATOM     83  F   UNL A   1      43.328  27.340  36.706  1.00  0.00    -0.203 F 
ATOM     84  C   UNL A   1      45.670  27.313  36.469  1.00  0.00     0.198 A 
ATOM     85  C   UNL A   1      46.784  29.107  35.329  1.00  0.00     0.198 A 
ATOM     86  F   UNL A   1      45.543  30.917  34.485  1.00  0.00    -0.203 F 
ATOM     87  F   UNL A   1      45.724  26.161  37.152  1.00  0.00    -0.200 F 
ATOM     88  C   UNL A   1      46.838  27.898  36.006  1.00  0.00     0.200 A 
ATOM     89  F   UNL A   1      47.910  29.667  34.865  1.00  0.00    -0.200 F 
ATOM     90  F   UNL A   1      48.019  27.302  36.218  1.00  0.00    -0.200 F 
ENDBRANCH  57  80
ENDBRANCH  31  32
ENDBRANCH  24  26
ENDBRANCH  23  24
ENDBRANCH  22  23
ENDBRANCH  21  22
ENDBRANCH   1  21
TORSDOF 16
ENDMDL
MODEL 2
REMARK VINA RESULT:     -10.8      3.440      9.028
REMARK SMILES C[C@H](Cc1ccco1)[NH2+]Cc1cc(C(=O)OCCOC(=O)c2ccc(-c3c4nc(c(-c5c(F)c(F)c(F)c(F)c5F)c5ccc([nH]5)c(-c5c(F)c(F)c(F)c(F)c5F)c5nc(c(-c6c(F)c(F)c(F)c(F)c6F)c6ccc3[nH]6)C=C5)C=C4)cc2)cs1
REMARK SMILES IDX 16 1 14 2 15 3 13 4 11 5 12 6 86 7 85 8 10 9 9 10 2 13 1 14
REMARK SMILES IDX 3 15 4 16 5 17 8 18 6 19 7 20 17 21 18 22 19 23 20 24 21 25
REMARK SMILES IDX 22 26 23 27 84 28 24 29 83 30 25 31 26 32 27 33 77 34 28 35
REMARK SMILES IDX 82 36 76 37 78 38 29 39 81 40 75 41 74 42 30 44 62 45 42 46
REMARK SMILES IDX 61 47 43 48 46 49 60 50 79 51 44 52 45 53 59 55 80 56 47 57
REMARK SMILES IDX 31 58 32 59 40 60 33 61 34 62 38 63 41 64 35 65 36 66 39 67
REMARK SMILES IDX 37 68 63 69 64 70 72 71 65 72 66 73 70 74 73 75 67 76 68 77
REMARK SMILES IDX 71 78 69 79 48 80 49 81 57 82 50 83 51 84 55 85 58 86 52 87
REMARK SMILES IDX 53 88 56 89 54 90
REMARK H PARENT 9 11 9 12 78 43 46 54
REMARK Flexibility Score: inf
ROOT
ATOM      1  O   UNL A   1      31.001  28.358  25.414  1.00  0.00    -0.458 OA
ENDROOT
BRANCH   1   2
ATOM      2  C   UNL A   1      31.266  27.358  26.305  1.00  0.00     0.339 C 
ATOM      3  O   UNL A   1      31.362  27.514  27.514  1.00  0.00    -0.246 OA
BRANCH   2   4
ATOM      4  C   UNL A   1      31.395  26.050  25.666  1.00  0.00     0.071 A 
ATOM      5  C   UNL A   1      31.571  23.744  25.579  1.00  0.00     0.060 A 
ATOM      6  C   UNL A   1      31.999  24.884  26.236  1.00  0.00     0.037 A 
ATOM      7  S   UNL A   1      31.059  24.115  23.989  1.00  0.00    -0.142 S 
ATOM      8  C   UNL A   1      30.881  25.759  24.413  1.00  0.00     0.081 A 
BRANCH   5   9
ATOM      9  C   UNL A   1      31.409  22.361  26.129  1.00  0.00     0.308 C 
BRANCH   9  10
ATOM     10  N   UNL A   1      32.349  21.424  25.500  1.00  0.00    -0.339 N 
ATOM     11  H   UNL A   1      31.810  20.614  25.193  1.00  0.00     0.346 HD
ATOM     12  H   UNL A   1      32.794  21.964  24.759  1.00  0.00     0.346 HD
BRANCH  10  13
ATOM     13  C   UNL A   1      33.472  20.920  26.322  1.00  0.00     0.187 C 
ATOM     14  C   UNL A   1      34.021  21.821  27.442  1.00  0.00     0.075 C 
BRANCH  13  15
ATOM     15  C   UNL A   1      34.598  20.416  25.367  1.00  0.00     0.140 C 
BRANCH  15  16
ATOM     16  C   UNL A   1      35.273  21.478  24.567  1.00  0.00     0.109 A 
ATOM     17  C   UNL A   1      36.602  21.789  24.360  1.00  0.00     0.046 A 
ATOM     18  O   UNL A   1      34.478  22.379  23.922  1.00  0.00    -0.469 OA
ATOM     19  C   UNL A   1      36.622  22.960  23.569  1.00  0.00     0.042 A 
ATOM     20  C   UNL A   1      35.306  23.274  23.321  1.00  0.00     0.195 A 
ENDBRANCH  15  16
ENDBRANCH  13  15
ENDBRANCH  10  13
ENDBRANCH   9  10
ENDBRANCH   5   9
ENDBRANCH   2   4
ENDBRANCH   1   2
BRANCH   1  21
ATOM     21  C   UNL A   1      32.075  29.279  25.166  1.00  0.00     0.275 C 
BRANCH  21  22
ATOM     22  C   UNL A   1      31.848  30.595  25.911  1.00  0.00     0.275 C 
BRANCH  22  23
ATOM     23  O   UNL A   1      32.579  30.620  27.152  1.00  0.00    -0.458 OA
BRANCH  23  24
ATOM     24  C   UNL A   1      33.292  31.748  27.371  1.00  0.00     0.338 C 
ATOM     25  O   UNL A   1      32.910  32.902  27.277  1.00  0.00    -0.246 OA
BRANCH  24  26
ATOM     26  C   UNL A   1      34.626  31.401  27.876  1.00  0.00     0.060 A 
ATOM     27  C   UNL A   1      34.841  30.096  28.312  1.00  0.00     0.016 A 
ATOM     28  C   UNL A   1      35.602  32.371  28.071  1.00  0.00     0.016 A 
ATOM     29  C   UNL A   1      35.990  29.755  29.007  1.00  0.00     0.010 A 
ATOM     30  C   UNL A   1      36.796  32.014  28.708  1.00  0.00     0.010 A 
ATOM     31  C   UNL A   1      36.987  30.709  29.207  1.00  0.00    -0.014 A 
BRANCH  31  32
ATOM     32  C   UNL A   1      38.191  30.355  29.997  1.00  0.00     0.031 A 
ATOM     33  C   UNL A   1      39.222  29.439  29.401  1.00  0.00     0.074 A 
ATOM     34  C   UNL A   1      38.375  30.873  31.226  1.00  0.00     0.049 A 
ATOM     35  N   UNL A   1      40.243  28.855  29.974  1.00  0.00    -0.248 NA
ATOM     36  C   UNL A   1      39.074  29.127  27.971  1.00  0.00     0.031 C 
ATOM     37  C   UNL A   1      37.489  31.837  31.882  1.00  0.00     0.029 A 
ATOM     38  N   UNL A   1      39.370  30.658  32.147  1.00  0.00    -0.354 N 
ATOM     39  C   UNL A   1      40.826  28.067  28.990  1.00  0.00     0.074 A 
ATOM     40  C   UNL A   1      40.039  28.237  27.788  1.00  0.00     0.031 C 
ATOM     41  C   UNL A   1      37.985  32.138  33.092  1.00  0.00     0.029 A 
ATOM     42  C   UNL A   1      39.170  31.325  33.331  1.00  0.00     0.049 A 
ATOM     43  H   UNL A   1      40.150  30.082  31.975  1.00  0.00     0.167 HD
ATOM     44  C   UNL A   1      41.919  27.274  29.089  1.00  0.00     0.037 A 
ATOM     45  C   UNL A   1      39.838  31.246  34.497  1.00  0.00     0.037 A 
ATOM     46  C   UNL A   1      42.715  27.148  30.282  1.00  0.00     0.049 A 
ATOM     47  C   UNL A   1      41.008  30.307  34.602  1.00  0.00     0.074 A 
ATOM     48  C   UNL A   1      43.848  26.383  30.489  1.00  0.00     0.029 A 
ATOM     49  N   UNL A   1      42.461  27.816  31.473  1.00  0.00    -0.354 N 
ATOM     50  N   UNL A   1      41.530  29.530  33.684  1.00  0.00    -0.248 NA
ATOM     51  C   UNL A   1      41.674  30.226  35.908  1.00  0.00     0.031 C 
ATOM     52  C   UNL A   1      44.249  26.545  31.819  1.00  0.00     0.029 A 
ATOM     53  C   UNL A   1      43.405  27.462  32.424  1.00  0.00     0.049 A 
ATOM     54  H   UNL A   1      41.721  28.447  31.620  1.00  0.00     0.167 HD
ATOM     55  C   UNL A   1      42.601  28.888  34.292  1.00  0.00     0.074 A 
ATOM     56  C   UNL A   1      42.662  29.381  35.653  1.00  0.00     0.031 C 
ATOM     57  C   UNL A   1      43.455  27.973  33.771  1.00  0.00     0.037 A 
BRANCH  44  58
ATOM     58  C   UNL A   1      42.292  26.447  27.891  1.00  0.00     0.064 A 
ATOM     59  C   UNL A   1      43.266  26.861  26.970  1.00  0.00     0.173 A 
ATOM     60  C   UNL A   1      41.677  25.203  27.677  1.00  0.00     0.173 A 
ATOM     61  F   UNL A   1      43.876  28.046  27.119  1.00  0.00    -0.203 F 
ATOM     62  C   UNL A   1      43.588  26.076  25.866  1.00  0.00     0.198 A 
ATOM     63  C   UNL A   1      42.024  24.406  26.590  1.00  0.00     0.198 A 
ATOM     64  F   UNL A   1      40.741  24.756  28.528  1.00  0.00    -0.203 F 
ATOM     65  F   UNL A   1      44.483  26.516  24.970  1.00  0.00    -0.200 F 
ATOM     66  C   UNL A   1      42.972  24.847  25.680  1.00  0.00     0.200 A 
ATOM     67  F   UNL A   1      41.439  23.212  26.423  1.00  0.00    -0.200 F 
ATOM     68  F   UNL A   1      43.289  24.089  24.621  1.00  0.00    -0.200 F 
ENDBRANCH  44  58
BRANCH  45  69
ATOM     69  C   UNL A   1      39.388  32.047  35.667  1.00  0.00     0.064 A 
ATOM     70  C   UNL A   1      39.941  33.305  35.939  1.00  0.00     0.173 A 
ATOM     71  C   UNL A   1      38.400  31.568  36.543  1.00  0.00     0.173 A 
ATOM     72  F   UNL A   1      40.906  33.797  35.146  1.00  0.00    -0.203 F 
ATOM     73  C   UNL A   1      39.538  34.045  37.048  1.00  0.00     0.198 A 
ATOM     74  C   UNL A   1      37.973  32.323  37.633  1.00  0.00     0.198 A 
ATOM     75  F   UNL A   1      37.837  30.369  36.331  1.00  0.00    -0.203 F 
ATOM     76  F   UNL A   1      40.120  35.223  37.312  1.00  0.00    -0.200 F 
ATOM     77  C   UNL A   1      38.550  33.558  37.890  1.00  0.00     0.200 A 
ATOM     78  F   UNL A   1      37.006  31.855  38.432  1.00  0.00    -0.200 F 
ATOM     79  F   UNL A   1      38.158  34.273  38.953  1.00  0.00    -0.200 F 
ENDBRANCH  45  69
BRANCH  57  80
ATOM     80  C   UNL A   1      44.561  27.485  34.661  1.00  0.00     0.064 A 
ATOM     81  C   UNL A   1      44.428  26.327  35.442  1.00  0.00     0.173 A 
ATOM     82  C   UNL A   1      45.787  28.169  34.704  1.00  0.00     0.173 A 
ATOM     83  F   UNL A   1      43.271  25.648  35.449  1.00  0.00    -0.203 F 
ATOM     84  C   UNL A   1      45.470  25.889  36.254  1.00  0.00     0.198 A 
ATOM     85  C   UNL A   1      46.837  27.708  35.491  1.00  0.00     0.198 A 
ATOM     86  F   UNL A   1      45.968  29.277  33.971  1.00  0.00    -0.203 F 
ATOM     87  F   UNL A   1      45.301  24.812  37.033  1.00  0.00    -0.200 F 
ATOM     88  C   UNL A   1      46.675  26.574  36.272  1.00  0.00     0.200 A 
ATOM     89  F   UNL A   1      48.007  28.362  35.494  1.00  0.00    -0.200 F 
ATOM     90  F   UNL A   1      47.680  26.146  37.048  1.00  0.00    -0.200 F 
ENDBRANCH  57  80
ENDBRANCH  31  32
ENDBRANCH  24  26
ENDBRANCH  23  24
ENDBRANCH  22  23
ENDBRANCH  21  22
ENDBRANCH   1  21
TORSDOF 16
ENDMDL
MODEL 3
REMARK VINA RESULT:     -10.8      6.092      9.994
REMARK SMILES C[C@H](Cc1ccco1)[NH2+]Cc1cc(C(=O)OCCOC(=O)c2ccc(-c3c4nc(c(-c5c(F)c(F)c(F)c(F)c5F)c5ccc([nH]5)c(-c5c(F)c(F)c(F)c(F)c5F)c5nc(c(-c6c(F)c(F)c(F)c(F)c6F)c6ccc3[nH]6)C=C5)C=C4)cc2)cs1
REMARK SMILES IDX 16 1 14 2 15 3 13 4 11 5 12 6 86 7 85 8 10 9 9 10 2 13 1 14
REMARK SMILES IDX 3 15 4 16 5 17 8 18 6 19 7 20 17 21 18 22 19 23 20 24 21 25
REMARK SMILES IDX 22 26 23 27 84 28 24 29 83 30 25 31 26 32 27 33 77 34 28 35
REMARK SMILES IDX 82 36 76 37 78 38 29 39 81 40 75 41 74 42 30 44 62 45 42 46
REMARK SMILES IDX 61 47 43 48 46 49 60 50 79 51 44 52 45 53 59 55 80 56 47 57
REMARK SMILES IDX 31 58 32 59 40 60 33 61 34 62 38 63 41 64 35 65 36 66 39 67
REMARK SMILES IDX 37 68 63 69 64 70 72 71 65 72 66 73 70 74 73 75 67 76 68 77
REMARK SMILES IDX 71 78 69 79 48 80 49 81 57 82 50 83 51 84 55 85 58 86 52 87
REMARK SMILES IDX 53 88 56 89 54 90
REMARK H PARENT 9 11 9 12 78 43 46 54
REMARK Flexibility Score: inf
ROOT
ATOM      1  O   UNL A   1      34.456  20.080  24.642  1.00  0.00    -0.458 OA
ENDROOT
BRANCH   1   2
ATOM      2  C   UNL A   1      33.166  19.996  25.082  1.00  0.00     0.339 C 
ATOM      3  O   UNL A   1      32.710  19.058  25.720  1.00  0.00    -0.246 OA
BRANCH   2   4
ATOM      4  C   UNL A   1      32.373  21.175  24.739  1.00  0.00     0.071 A 
ATOM      5  C   UNL A   1      31.222  23.143  25.140  1.00  0.00     0.060 A 
ATOM      6  C   UNL A   1      31.454  21.858  25.597  1.00  0.00     0.037 A 
ATOM      7  S   UNL A   1      31.527  23.253  23.459  1.00  0.00    -0.142 S 
ATOM      8  C   UNL A   1      32.464  21.827  23.519  1.00  0.00     0.081 A 
BRANCH   5   9
ATOM      9  C   UNL A   1      30.884  24.365  25.935  1.00  0.00     0.308 C 
BRANCH   9  10
ATOM     10  N   UNL A   1      31.577  25.550  25.413  1.00  0.00    -0.339 N 
ATOM     11  H   UNL A   1      32.266  25.225  24.736  1.00  0.00     0.346 HD
ATOM     12  H   UNL A   1      30.834  26.137  25.037  1.00  0.00     0.346 HD
BRANCH  10  13
ATOM     13  C   UNL A   1      32.285  26.416  26.383  1.00  0.00     0.187 C 
ATOM     14  C   UNL A   1      31.557  27.663  26.916  1.00  0.00     0.075 C 
BRANCH  13  15
ATOM     15  C   UNL A   1      33.693  26.758  25.806  1.00  0.00     0.140 C 
BRANCH  15  16
ATOM     16  C   UNL A   1      33.706  27.191  24.379  1.00  0.00     0.109 A 
ATOM     17  C   UNL A   1      33.722  28.434  23.779  1.00  0.00     0.046 A 
ATOM     18  O   UNL A   1      33.651  26.214  23.427  1.00  0.00    -0.469 OA
ATOM     19  C   UNL A   1      33.642  28.208  22.386  1.00  0.00     0.042 A 
ATOM     20  C   UNL A   1      33.610  26.843  22.222  1.00  0.00     0.195 A 
ENDBRANCH  15  16
ENDBRANCH  13  15
ENDBRANCH  10  13
ENDBRANCH   9  10
ENDBRANCH   5   9
ENDBRANCH   2   4
ENDBRANCH   1   2
BRANCH   1  21
ATOM     21  C   UNL A   1      35.355  20.830  25.474  1.00  0.00     0.275 C 
BRANCH  21  22
ATOM     22  C   UNL A   1      36.797  20.687  24.986  1.00  0.00     0.275 C 
BRANCH  22  23
ATOM     23  O   UNL A   1      37.603  21.800  25.417  1.00  0.00    -0.458 OA
BRANCH  23  24
ATOM     24  C   UNL A   1      38.784  21.463  25.986  1.00  0.00     0.338 C 
ATOM     25  O   UNL A   1      39.354  20.387  25.936  1.00  0.00    -0.246 OA
BRANCH  24  26
ATOM     26  C   UNL A   1      39.388  22.646  26.610  1.00  0.00     0.060 A 
ATOM     27  C   UNL A   1      38.985  23.900  26.162  1.00  0.00     0.016 A 
ATOM     28  C   UNL A   1      40.447  22.532  27.503  1.00  0.00     0.016 A 
ATOM     29  C   UNL A   1      39.667  25.047  26.534  1.00  0.00     0.010 A 
ATOM     30  C   UNL A   1      41.094  23.694  27.940  1.00  0.00     0.010 A 
ATOM     31  C   UNL A   1      40.727  24.958  27.436  1.00  0.00    -0.014 A 
BRANCH  31  32
ATOM     32  C   UNL A   1      41.489  26.180  27.793  1.00  0.00     0.031 A 
ATOM     33  C   UNL A   1      40.831  27.245  28.623  1.00  0.00     0.074 A 
ATOM     34  C   UNL A   1      42.769  26.322  27.401  1.00  0.00     0.049 A 
ATOM     35  N   UNL A   1      41.239  28.459  28.890  1.00  0.00    -0.248 NA
ATOM     36  C   UNL A   1      39.531  26.901  29.222  1.00  0.00     0.031 C 
ATOM     37  C   UNL A   1      43.546  25.324  26.661  1.00  0.00     0.029 A 
ATOM     38  N   UNL A   1      43.645  27.366  27.567  1.00  0.00    -0.354 N 
ATOM     39  C   UNL A   1      40.224  29.040  29.640  1.00  0.00     0.074 A 
ATOM     40  C   UNL A   1      39.177  28.051  29.776  1.00  0.00     0.031 C 
ATOM     41  C   UNL A   1      44.783  25.798  26.449  1.00  0.00     0.029 A 
ATOM     42  C   UNL A   1      44.858  27.163  26.957  1.00  0.00     0.049 A 
ATOM     43  H   UNL A   1      43.424  28.180  28.075  1.00  0.00     0.167 HD
ATOM     44  C   UNL A   1      40.178  30.288  30.163  1.00  0.00     0.037 A 
ATOM     45  C   UNL A   1      45.895  28.003  26.779  1.00  0.00     0.037 A 
ATOM     46  C   UNL A   1      41.247  31.246  30.052  1.00  0.00     0.049 A 
ATOM     47  C   UNL A   1      45.792  29.406  27.311  1.00  0.00     0.074 A 
ATOM     48  C   UNL A   1      41.310  32.533  30.554  1.00  0.00     0.029 A 
ATOM     49  N   UNL A   1      42.449  31.013  29.397  1.00  0.00    -0.354 N 
ATOM     50  N   UNL A   1      44.814  29.967  27.981  1.00  0.00    -0.248 NA
ATOM     51  C   UNL A   1      46.931  30.295  27.052  1.00  0.00     0.031 C 
ATOM     52  C   UNL A   1      42.526  33.098  30.158  1.00  0.00     0.029 A 
ATOM     53  C   UNL A   1      43.250  32.143  29.464  1.00  0.00     0.049 A 
ATOM     54  H   UNL A   1      42.696  30.172  28.952  1.00  0.00     0.167 HD
ATOM     55  C   UNL A   1      45.229  31.265  28.247  1.00  0.00     0.074 A 
ATOM     56  C   UNL A   1      46.555  31.400  27.679  1.00  0.00     0.031 C 
ATOM     57  C   UNL A   1      44.573  32.254  28.902  1.00  0.00     0.037 A 
BRANCH  44  58
ATOM     58  C   UNL A   1      38.915  30.704  30.863  1.00  0.00     0.064 A 
ATOM     59  C   UNL A   1      37.803  31.200  30.167  1.00  0.00     0.173 A 
ATOM     60  C   UNL A   1      38.810  30.577  32.258  1.00  0.00     0.173 A 
ATOM     61  F   UNL A   1      37.853  31.355  28.836  1.00  0.00    -0.203 F 
ATOM     62  C   UNL A   1      36.647  31.583  30.843  1.00  0.00     0.198 A 
ATOM     63  C   UNL A   1      37.641  30.930  32.927  1.00  0.00     0.198 A 
ATOM     64  F   UNL A   1      39.842  30.104  32.973  1.00  0.00    -0.203 F 
ATOM     65  F   UNL A   1      35.616  32.106  30.163  1.00  0.00    -0.200 F 
ATOM     66  C   UNL A   1      36.564  31.441  32.220  1.00  0.00     0.200 A 
ATOM     67  F   UNL A   1      37.560  30.775  34.256  1.00  0.00    -0.200 F 
ATOM     68  F   UNL A   1      35.447  31.802  32.868  1.00  0.00    -0.200 F 
ENDBRANCH  44  58
BRANCH  45  69
ATOM     69  C   UNL A   1      47.097  27.552  26.028  1.00  0.00     0.064 A 
ATOM     70  C   UNL A   1      47.161  27.659  24.632  1.00  0.00     0.173 A 
ATOM     71  C   UNL A   1      48.206  27.000  26.689  1.00  0.00     0.173 A 
ATOM     72  F   UNL A   1      46.117  28.158  23.951  1.00  0.00    -0.203 F 
ATOM     73  C   UNL A   1      48.276  27.215  23.926  1.00  0.00     0.198 A 
ATOM     74  C   UNL A   1      49.335  26.588  25.985  1.00  0.00     0.198 A 
ATOM     75  F   UNL A   1      48.198  26.873  28.024  1.00  0.00    -0.203 F 
ATOM     76  F   UNL A   1      48.289  27.282  22.588  1.00  0.00    -0.200 F 
ATOM     77  C   UNL A   1      49.365  26.687  24.603  1.00  0.00     0.200 A 
ATOM     78  F   UNL A   1      50.391  26.094  26.646  1.00  0.00    -0.200 F 
ATOM     79  F   UNL A   1      50.441  26.266  23.923  1.00  0.00    -0.200 F 
ENDBRANCH  45  69
BRANCH  57  80
ATOM     80  C   UNL A   1      45.301  33.554  29.083  1.00  0.00     0.064 A 
ATOM     81  C   UNL A   1      46.146  33.784  30.179  1.00  0.00     0.173 A 
ATOM     82  C   UNL A   1      45.177  34.572  28.124  1.00  0.00     0.173 A 
ATOM     83  F   UNL A   1      46.285  32.849  31.132  1.00  0.00    -0.203 F 
ATOM     84  C   UNL A   1      46.816  34.995  30.323  1.00  0.00     0.198 A 
ATOM     85  C   UNL A   1      45.876  35.768  28.254  1.00  0.00     0.198 A 
ATOM     86  F   UNL A   1      44.387  34.400  27.054  1.00  0.00    -0.203 F 
ATOM     87  F   UNL A   1      47.575  35.214  31.405  1.00  0.00    -0.200 F 
ATOM     88  C   UNL A   1      46.688  35.982  29.357  1.00  0.00     0.200 A 
ATOM     89  F   UNL A   1      45.763  36.714  27.311  1.00  0.00    -0.200 F 
ATOM     90  F   UNL A   1      47.341  37.144  29.493  1.00  0.00    -0.200 F 
ENDBRANCH  57  80
ENDBRANCH  31  32
ENDBRANCH  24  26
ENDBRANCH  23  24
ENDBRANCH  22  23
ENDBRANCH  21  22
ENDBRANCH   1  21
TORSDOF 16
ENDMDL
