MODEL 1
REMARK VINA RESULT:     -12.5      0.000      0.000
REMARK SMILES O=C(CC1CC[NH+](C[C@H]2COc3ccccc3O2)CC1)OCCOC(=O)c1ccc(-c2c3nc(c(-c4c(F)c(F)c(F)c(F)c4F)c4ccc([nH]4)c(-c4c(F)c(F)c(F)c(F)c4F)c4nc(c(-c5c(F)c(F)c(F)c(F)c5F)c5ccc2[nH]5)C=C4)C=C3)cc1
REMARK SMILES IDX 22 1 21 2 2 3 1 4 3 5 4 6 5 7 20 8 6 9 19 10 7 11 8 13 9 14
REMARK SMILES IDX 10 15 18 16 11 17 17 18 12 19 16 20 13 21 15 22 14 23 23 24
REMARK SMILES IDX 24 25 25 26 26 27 27 28 28 29 89 30 29 31 88 32 30 33 31 34
REMARK SMILES IDX 32 35 82 36 33 37 87 38 81 39 83 40 34 41 86 42 80 43 79 44
REMARK SMILES IDX 35 46 67 47 47 48 66 49 48 50 51 51 65 52 84 53 49 54 50 55
REMARK SMILES IDX 64 57 85 58 52 59 36 60 37 61 45 62 38 63 39 64 43 65 46 66
REMARK SMILES IDX 40 67 41 68 44 69 42 70 68 71 69 72 77 73 70 74 71 75 75 76
REMARK SMILES IDX 78 77 72 78 73 79 76 80 74 81 53 82 54 83 62 84 55 85 56 86
REMARK SMILES IDX 60 87 63 88 57 89 58 90 61 91 59 92
REMARK H PARENT 7 12 83 45 51 56
REMARK Flexibility Score: inf
ROOT
ATOM      1  C   UNL A   1      45.411  22.201  25.638  1.00  0.00     0.274 C 
ENDROOT
BRANCH   1   2
ATOM      2  O   UNL A   1      44.942  20.865  25.373  1.00  0.00    -0.462 OA
BRANCH   2   3
ATOM      3  C   UNL A   1      43.643  20.497  25.385  1.00  0.00     0.306 C 
ATOM      4  O   UNL A   1      43.283  19.451  24.847  1.00  0.00    -0.252 OA
BRANCH   3   5
ATOM      5  C   UNL A   1      42.627  21.427  26.000  1.00  0.00     0.126 C 
BRANCH   5   6
ATOM      6  C   UNL A   1      41.795  20.876  27.167  1.00  0.00     0.011 C 
ATOM      7  C   UNL A   1      40.647  19.955  26.755  1.00  0.00     0.066 C 
ATOM      8  C   UNL A   1      41.175  22.048  27.947  1.00  0.00     0.066 C 
ATOM      9  C   UNL A   1      39.630  20.699  25.897  1.00  0.00     0.262 C 
ATOM     10  C   UNL A   1      40.127  22.803  27.113  1.00  0.00     0.262 C 
ATOM     11  N   UNL A   1      39.122  21.923  26.514  1.00  0.00    -0.332 N 
ATOM     12  H   UNL A   1      38.605  21.572  27.320  1.00  0.00     0.348 HD
BRANCH  11  13
ATOM     13  C   UNL A   1      38.147  22.646  25.673  1.00  0.00     0.311 C 
BRANCH  13  14
ATOM     14  C   UNL A   1      36.877  21.946  25.106  1.00  0.00     0.265 C 
ATOM     15  C   UNL A   1      35.839  21.526  26.145  1.00  0.00     0.281 C 
ATOM     16  O   UNL A   1      36.274  22.902  24.194  1.00  0.00    -0.477 OA
ATOM     17  O   UNL A   1      34.748  20.838  25.516  1.00  0.00    -0.486 OA
ATOM     18  C   UNL A   1      34.990  22.576  23.844  1.00  0.00     0.162 A 
ATOM     19  C   UNL A   1      34.258  21.565  24.469  1.00  0.00     0.161 A 
ATOM     20  C   UNL A   1      34.399  23.325  22.830  1.00  0.00     0.050 A 
ATOM     21  C   UNL A   1      32.966  21.262  24.048  1.00  0.00     0.050 A 
ATOM     22  C   UNL A   1      33.095  23.040  22.419  1.00  0.00     0.004 A 
ATOM     23  C   UNL A   1      32.381  22.004  23.023  1.00  0.00     0.004 A 
ENDBRANCH  13  14
ENDBRANCH  11  13
ENDBRANCH   5   6
ENDBRANCH   3   5
ENDBRANCH   2   3
ENDBRANCH   1   2
BRANCH   1  24
ATOM     24  C   UNL A   1      45.395  23.080  24.384  1.00  0.00     0.275 C 
BRANCH  24  25
ATOM     25  O   UNL A   1      44.447  24.159  24.520  1.00  0.00    -0.458 OA
BRANCH  25  26
ATOM     26  C   UNL A   1      44.951  25.328  24.990  1.00  0.00     0.338 C 
ATOM     27  O   UNL A   1      45.976  25.873  24.615  1.00  0.00    -0.246 OA
BRANCH  26  28
ATOM     28  C   UNL A   1      43.997  25.960  25.939  1.00  0.00     0.060 A 
ATOM     29  C   UNL A   1      44.147  27.329  26.194  1.00  0.00     0.016 A 
ATOM     30  C   UNL A   1      42.976  25.244  26.577  1.00  0.00     0.016 A 
ATOM     31  C   UNL A   1      43.337  27.965  27.137  1.00  0.00     0.010 A 
ATOM     32  C   UNL A   1      42.160  25.883  27.520  1.00  0.00     0.010 A 
ATOM     33  C   UNL A   1      42.371  27.235  27.843  1.00  0.00    -0.014 A 
BRANCH  33  34
ATOM     34  C   UNL A   1      41.745  27.842  29.048  1.00  0.00     0.031 A 
ATOM     35  C   UNL A   1      42.434  27.683  30.377  1.00  0.00     0.074 A 
ATOM     36  C   UNL A   1      40.622  28.578  28.969  1.00  0.00     0.049 A 
ATOM     37  N   UNL A   1      42.137  28.208  31.539  1.00  0.00    -0.248 NA
ATOM     38  C   UNL A   1      43.612  26.802  30.399  1.00  0.00     0.031 C 
ATOM     39  C   UNL A   1      39.845  28.799  27.756  1.00  0.00     0.029 A 
ATOM     40  N   UNL A   1      39.950  29.290  29.933  1.00  0.00    -0.354 N 
ATOM     41  C   UNL A   1      43.087  27.721  32.426  1.00  0.00     0.074 A 
ATOM     42  C   UNL A   1      43.945  26.826  31.680  1.00  0.00     0.031 C 
ATOM     43  C   UNL A   1      38.825  29.629  28.033  1.00  0.00     0.029 A 
ATOM     44  C   UNL A   1      38.863  29.978  29.453  1.00  0.00     0.049 A 
ATOM     45  H   UNL A   1      40.223  29.306  30.879  1.00  0.00     0.167 HD
ATOM     46  C   UNL A   1      43.244  28.004  33.740  1.00  0.00     0.037 A 
ATOM     47  C   UNL A   1      38.002  30.800  30.085  1.00  0.00     0.037 A 
ATOM     48  C   UNL A   1      42.398  28.894  34.490  1.00  0.00     0.049 A 
ATOM     49  C   UNL A   1      38.188  31.085  31.556  1.00  0.00     0.074 A 
ATOM     50  C   UNL A   1      42.493  29.256  35.823  1.00  0.00     0.029 A 
ATOM     51  N   UNL A   1      41.297  29.558  33.972  1.00  0.00    -0.354 N 
ATOM     52  N   UNL A   1      39.125  30.668  32.372  1.00  0.00    -0.248 NA
ATOM     53  C   UNL A   1      37.193  31.964  32.190  1.00  0.00     0.031 C 
ATOM     54  C   UNL A   1      41.421  30.103  36.124  1.00  0.00     0.029 A 
ATOM     55  C   UNL A   1      40.691  30.312  34.965  1.00  0.00     0.049 A 
ATOM     56  H   UNL A   1      40.992  29.502  33.038  1.00  0.00     0.167 HD
ATOM     57  C   UNL A   1      38.856  31.261  33.600  1.00  0.00     0.074 A 
ATOM     58  C   UNL A   1      37.674  32.077  33.420  1.00  0.00     0.031 C 
ATOM     59  C   UNL A   1      39.527  31.139  34.771  1.00  0.00     0.037 A 
BRANCH  46  60
ATOM     60  C   UNL A   1      44.370  27.320  34.457  1.00  0.00     0.064 A 
ATOM     61  C   UNL A   1      45.634  27.916  34.581  1.00  0.00     0.173 A 
ATOM     62  C   UNL A   1      44.177  26.058  35.039  1.00  0.00     0.173 A 
ATOM     63  F   UNL A   1      45.874  29.113  34.026  1.00  0.00    -0.203 F 
ATOM     64  C   UNL A   1      46.673  27.259  35.236  1.00  0.00     0.198 A 
ATOM     65  C   UNL A   1      45.210  25.418  35.718  1.00  0.00     0.198 A 
ATOM     66  F   UNL A   1      42.986  25.447  34.950  1.00  0.00    -0.203 F 
ATOM     67  F   UNL A   1      47.888  27.823  35.296  1.00  0.00    -0.200 F 
ATOM     68  C   UNL A   1      46.458  26.014  35.808  1.00  0.00     0.200 A 
ATOM     69  F   UNL A   1      44.998  24.219  36.279  1.00  0.00    -0.200 F 
ATOM     70  F   UNL A   1      47.458  25.385  36.439  1.00  0.00    -0.200 F 
ENDBRANCH  46  60
BRANCH  47  71
ATOM     71  C   UNL A   1      36.887  31.441  29.338  1.00  0.00     0.064 A 
ATOM     72  C   UNL A   1      36.898  32.817  29.068  1.00  0.00     0.173 A 
ATOM     73  C   UNL A   1      35.770  30.704  28.921  1.00  0.00     0.173 A 
ATOM     74  F   UNL A   1      37.933  33.571  29.466  1.00  0.00    -0.203 F 
ATOM     75  C   UNL A   1      35.824  33.435  28.430  1.00  0.00     0.198 A 
ATOM     76  C   UNL A   1      34.708  31.319  28.260  1.00  0.00     0.198 A 
ATOM     77  F   UNL A   1      35.706  29.387  29.162  1.00  0.00    -0.203 F 
ATOM     78  F   UNL A   1      35.839  34.761  28.233  1.00  0.00    -0.200 F 
ATOM     79  C   UNL A   1      34.731  32.685  28.023  1.00  0.00     0.200 A 
ATOM     80  F   UNL A   1      33.656  30.589  27.864  1.00  0.00    -0.200 F 
ATOM     81  F   UNL A   1      33.695  33.280  27.419  1.00  0.00    -0.200 F 
ENDBRANCH  47  71
BRANCH  59  82
ATOM     82  C   UNL A   1      39.039  31.946  35.941  1.00  0.00     0.064 A 
ATOM     83  C   UNL A   1      38.176  31.407  36.906  1.00  0.00     0.173 A 
ATOM     84  C   UNL A   1      39.472  33.270  36.115  1.00  0.00     0.173 A 
ATOM     85  F   UNL A   1      37.722  30.151  36.779  1.00  0.00    -0.203 F 
ATOM     86  C   UNL A   1      37.740  32.172  37.985  1.00  0.00     0.198 A 
ATOM     87  C   UNL A   1      39.060  34.021  37.212  1.00  0.00     0.198 A 
ATOM     88  F   UNL A   1      40.307  33.831  35.228  1.00  0.00    -0.203 F 
ATOM     89  F   UNL A   1      36.875  31.653  38.867  1.00  0.00    -0.200 F 
ATOM     90  C   UNL A   1      38.187  33.476  38.141  1.00  0.00     0.200 A 
ATOM     91  F   UNL A   1      39.506  35.276  37.368  1.00  0.00    -0.200 F 
ATOM     92  F   UNL A   1      37.771  34.209  39.182  1.00  0.00    -0.200 F 
ENDBRANCH  59  82
ENDBRANCH  33  34
ENDBRANCH  26  28
ENDBRANCH  25  26
ENDBRANCH  24  25
ENDBRANCH   1  24
TORSDOF 14
ENDMDL
MODEL 2
REMARK VINA RESULT:     -12.4      3.560      9.239
REMARK SMILES O=C(CC1CC[NH+](C[C@H]2COc3ccccc3O2)CC1)OCCOC(=O)c1ccc(-c2c3nc(c(-c4c(F)c(F)c(F)c(F)c4F)c4ccc([nH]4)c(-c4c(F)c(F)c(F)c(F)c4F)c4nc(c(-c5c(F)c(F)c(F)c(F)c5F)c5ccc2[nH]5)C=C4)C=C3)cc1
REMARK SMILES IDX 22 1 21 2 2 3 1 4 3 5 4 6 5 7 20 8 6 9 19 10 7 11 8 13 9 14
REMARK SMILES IDX 10 15 18 16 11 17 17 18 12 19 16 20 13 21 15 22 14 23 23 24
REMARK SMILES IDX 24 25 25 26 26 27 27 28 28 29 89 30 29 31 88 32 30 33 31 34
REMARK SMILES IDX 32 35 82 36 33 37 87 38 81 39 83 40 34 41 86 42 80 43 79 44
REMARK SMILES IDX 35 46 67 47 47 48 66 49 48 50 51 51 65 52 84 53 49 54 50 55
REMARK SMILES IDX 64 57 85 58 52 59 36 60 37 61 45 62 38 63 39 64 43 65 46 66
REMARK SMILES IDX 40 67 41 68 44 69 42 70 68 71 69 72 77 73 70 74 71 75 75 76
REMARK SMILES IDX 78 77 72 78 73 79 76 80 74 81 53 82 54 83 62 84 55 85 56 86
REMARK SMILES IDX 60 87 63 88 57 89 58 90 61 91 59 92
REMARK H PARENT 7 12 83 45 51 56
REMARK Flexibility Score: inf
ROOT
ATOM      1  C   UNL A   1      31.366  31.293  26.221  1.00  0.00     0.274 C 
ENDROOT
BRANCH   1   2
ATOM      2  O   UNL A   1      32.493  30.418  26.017  1.00  0.00    -0.462 OA
BRANCH   2   3
ATOM      3  C   UNL A   1      32.426  29.070  26.039  1.00  0.00     0.306 C 
ATOM      4  O   UNL A   1      32.972  28.430  26.935  1.00  0.00    -0.252 OA
BRANCH   3   5
ATOM      5  C   UNL A   1      31.738  28.356  24.902  1.00  0.00     0.126 C 
BRANCH   5   6
ATOM      6  C   UNL A   1      31.881  28.976  23.504  1.00  0.00     0.011 C 
ATOM      7  C   UNL A   1      30.920  28.417  22.455  1.00  0.00     0.066 C 
ATOM      8  C   UNL A   1      33.308  28.731  22.983  1.00  0.00     0.066 C 
ATOM      9  C   UNL A   1      31.165  26.930  22.225  1.00  0.00     0.262 C 
ATOM     10  C   UNL A   1      33.575  27.239  22.721  1.00  0.00     0.262 C 
ATOM     11  N   UNL A   1      32.550  26.606  21.889  1.00  0.00    -0.332 N 
ATOM     12  H   UNL A   1      32.672  27.053  20.981  1.00  0.00     0.348 HD
BRANCH  11  13
ATOM     13  C   UNL A   1      32.784  25.163  21.680  1.00  0.00     0.311 C 
BRANCH  13  14
ATOM     14  C   UNL A   1      33.242  24.231  22.840  1.00  0.00     0.265 C 
ATOM     15  C   UNL A   1      32.557  22.866  22.894  1.00  0.00     0.281 C 
ATOM     16  O   UNL A   1      34.669  24.038  22.651  1.00  0.00    -0.477 OA
ATOM     17  O   UNL A   1      33.010  22.122  24.035  1.00  0.00    -0.486 OA
ATOM     18  C   UNL A   1      35.175  23.003  23.393  1.00  0.00     0.162 A 
ATOM     19  C   UNL A   1      34.375  22.088  24.078  1.00  0.00     0.161 A 
ATOM     20  C   UNL A   1      36.560  22.864  23.426  1.00  0.00     0.050 A 
ATOM     21  C   UNL A   1      34.951  21.075  24.840  1.00  0.00     0.050 A 
ATOM     22  C   UNL A   1      37.142  21.836  24.170  1.00  0.00     0.004 A 
ATOM     23  C   UNL A   1      36.338  20.945  24.883  1.00  0.00     0.004 A 
ENDBRANCH  13  14
ENDBRANCH  11  13
ENDBRANCH   5   6
ENDBRANCH   3   5
ENDBRANCH   2   3
ENDBRANCH   1   2
BRANCH   1  24
ATOM     24  C   UNL A   1      31.774  32.624  26.858  1.00  0.00     0.275 C 
BRANCH  24  25
ATOM     25  O   UNL A   1      32.748  32.421  27.902  1.00  0.00    -0.458 OA
BRANCH  25  26
ATOM     26  C   UNL A   1      33.726  33.359  27.984  1.00  0.00     0.338 C 
ATOM     27  O   UNL A   1      33.570  34.569  27.942  1.00  0.00    -0.246 OA
BRANCH  26  28
ATOM     28  C   UNL A   1      35.033  32.721  28.291  1.00  0.00     0.060 A 
ATOM     29  C   UNL A   1      35.036  31.347  28.563  1.00  0.00     0.016 A 
ATOM     30  C   UNL A   1      36.237  33.436  28.321  1.00  0.00     0.016 A 
ATOM     31  C   UNL A   1      36.217  30.704  28.940  1.00  0.00     0.010 A 
ATOM     32  C   UNL A   1      37.423  32.790  28.694  1.00  0.00     0.010 A 
ATOM     33  C   UNL A   1      37.409  31.431  29.056  1.00  0.00    -0.014 A 
BRANCH  33  34
ATOM     34  C   UNL A   1      38.568  30.811  29.752  1.00  0.00     0.031 A 
ATOM     35  C   UNL A   1      38.793  31.133  31.205  1.00  0.00     0.074 A 
ATOM     36  C   UNL A   1      39.375  29.928  29.137  1.00  0.00     0.049 A 
ATOM     37  N   UNL A   1      39.667  30.635  32.044  1.00  0.00    -0.248 NA
ATOM     38  C   UNL A   1      37.920  32.164  31.788  1.00  0.00     0.031 C 
ATOM     39  C   UNL A   1      39.284  29.540  27.736  1.00  0.00     0.029 A 
ATOM     40  N   UNL A   1      40.424  29.185  29.624  1.00  0.00    -0.354 N 
ATOM     41  C   UNL A   1      39.450  31.292  33.247  1.00  0.00     0.074 A 
ATOM     42  C   UNL A   1      38.392  32.253  33.022  1.00  0.00     0.031 C 
ATOM     43  C   UNL A   1      40.206  28.596  27.480  1.00  0.00     0.029 A 
ATOM     44  C   UNL A   1      40.972  28.333  28.698  1.00  0.00     0.049 A 
ATOM     45  H   UNL A   1      40.750  29.257  30.550  1.00  0.00     0.167 HD
ATOM     46  C   UNL A   1      40.063  31.104  34.440  1.00  0.00     0.037 A 
ATOM     47  C   UNL A   1      41.972  27.438  28.821  1.00  0.00     0.037 A 
ATOM     48  C   UNL A   1      41.114  30.151  34.674  1.00  0.00     0.049 A 
ATOM     49  C   UNL A   1      42.652  27.260  30.157  1.00  0.00     0.074 A 
ATOM     50  C   UNL A   1      41.783  29.877  35.856  1.00  0.00     0.029 A 
ATOM     51  N   UNL A   1      41.654  29.318  33.707  1.00  0.00    -0.354 N 
ATOM     52  N   UNL A   1      42.399  27.842  31.303  1.00  0.00    -0.248 NA
ATOM     53  C   UNL A   1      43.758  26.291  30.211  1.00  0.00     0.031 C 
ATOM     54  C   UNL A   1      42.760  28.911  35.592  1.00  0.00     0.029 A 
ATOM     55  C   UNL A   1      42.662  28.543  34.260  1.00  0.00     0.049 A 
ATOM     56  H   UNL A   1      41.364  29.282  32.767  1.00  0.00     0.167 HD
ATOM     57  C   UNL A   1      43.284  27.285  32.220  1.00  0.00     0.074 A 
ATOM     58  C   UNL A   1      44.073  26.310  31.498  1.00  0.00     0.031 C 
ATOM     59  C   UNL A   1      43.428  27.559  33.539  1.00  0.00     0.037 A 
BRANCH  46  60
ATOM     60  C   UNL A   1      39.621  31.971  35.581  1.00  0.00     0.064 A 
ATOM     61  C   UNL A   1      40.200  33.226  35.819  1.00  0.00     0.173 A 
ATOM     62  C   UNL A   1      38.595  31.546  36.438  1.00  0.00     0.173 A 
ATOM     63  F   UNL A   1      41.197  33.669  35.038  1.00  0.00    -0.203 F 
ATOM     64  C   UNL A   1      39.789  34.012  36.893  1.00  0.00     0.198 A 
ATOM     65  C   UNL A   1      38.167  32.347  37.493  1.00  0.00     0.198 A 
ATOM     66  F   UNL A   1      38.007  30.355  36.252  1.00  0.00    -0.203 F 
ATOM     67  F   UNL A   1      40.394  35.184  37.134  1.00  0.00    -0.200 F 
ATOM     68  C   UNL A   1      38.770  33.574  37.725  1.00  0.00     0.200 A 
ATOM     69  F   UNL A   1      37.175  31.927  38.291  1.00  0.00    -0.200 F 
ATOM     70  F   UNL A   1      38.375  34.332  38.757  1.00  0.00    -0.200 F 
ENDBRANCH  46  60
BRANCH  47  71
ATOM     71  C   UNL A   1      42.392  26.614  27.656  1.00  0.00     0.064 A 
ATOM     72  C   UNL A   1      41.816  25.358  27.417  1.00  0.00     0.173 A 
ATOM     73  C   UNL A   1      43.406  27.041  26.788  1.00  0.00     0.173 A 
ATOM     74  F   UNL A   1      40.858  24.893  28.232  1.00  0.00    -0.203 F 
ATOM     75  C   UNL A   1      42.255  24.551  26.368  1.00  0.00     0.198 A 
ATOM     76  C   UNL A   1      43.826  26.245  25.724  1.00  0.00     0.198 A 
ATOM     77  F   UNL A   1      43.996  28.231  26.978  1.00  0.00    -0.203 F 
ATOM     78  F   UNL A   1      41.722  23.334  26.196  1.00  0.00    -0.200 F 
ATOM     79  C   UNL A   1      43.257  24.997  25.520  1.00  0.00     0.200 A 
ATOM     80  F   UNL A   1      44.792  26.681  24.904  1.00  0.00    -0.200 F 
ATOM     81  F   UNL A   1      43.685  24.218  24.518  1.00  0.00    -0.200 F 
ENDBRANCH  47  71
BRANCH  59  82
ATOM     82  C   UNL A   1      44.440  26.758  34.309  1.00  0.00     0.064 A 
ATOM     83  C   UNL A   1      45.759  27.199  34.484  1.00  0.00     0.173 A 
ATOM     84  C   UNL A   1      44.069  25.545  34.912  1.00  0.00     0.173 A 
ATOM     85  F   UNL A   1      46.168  28.345  33.918  1.00  0.00    -0.203 F 
ATOM     86  C   UNL A   1      46.679  26.442  35.207  1.00  0.00     0.198 A 
ATOM     87  C   UNL A   1      44.982  24.807  35.660  1.00  0.00     0.198 A 
ATOM     88  F   UNL A   1      42.817  25.082  34.786  1.00  0.00    -0.203 F 
ATOM     89  F   UNL A   1      47.947  26.859  35.317  1.00  0.00    -0.200 F 
ATOM     90  C   UNL A   1      46.288  25.250  35.799  1.00  0.00     0.200 A 
ATOM     91  F   UNL A   1      44.598  23.663  36.244  1.00  0.00    -0.200 F 
ATOM     92  F   UNL A   1      47.172  24.526  36.498  1.00  0.00    -0.200 F 
ENDBRANCH  59  82
ENDBRANCH  33  34
ENDBRANCH  26  28
ENDBRANCH  25  26
ENDBRANCH  24  25
ENDBRANCH   1  24
TORSDOF 14
ENDMDL
MODEL 3
REMARK VINA RESULT:     -12.4      3.492      9.107
REMARK SMILES O=C(CC1CC[NH+](C[C@H]2COc3ccccc3O2)CC1)OCCOC(=O)c1ccc(-c2c3nc(c(-c4c(F)c(F)c(F)c(F)c4F)c4ccc([nH]4)c(-c4c(F)c(F)c(F)c(F)c4F)c4nc(c(-c5c(F)c(F)c(F)c(F)c5F)c5ccc2[nH]5)C=C4)C=C3)cc1
REMARK SMILES IDX 22 1 21 2 2 3 1 4 3 5 4 6 5 7 20 8 6 9 19 10 7 11 8 13 9 14
REMARK SMILES IDX 10 15 18 16 11 17 17 18 12 19 16 20 13 21 15 22 14 23 23 24
REMARK SMILES IDX 24 25 25 26 26 27 27 28 28 29 89 30 29 31 88 32 30 33 31 34
REMARK SMILES IDX 32 35 82 36 33 37 87 38 81 39 83 40 34 41 86 42 80 43 79 44
REMARK SMILES IDX 35 46 67 47 47 48 66 49 48 50 51 51 65 52 84 53 49 54 50 55
REMARK SMILES IDX 64 57 85 58 52 59 36 60 37 61 45 62 38 63 39 64 43 65 46 66
REMARK SMILES IDX 40 67 41 68 44 69 42 70 68 71 69 72 77 73 70 74 71 75 75 76
REMARK SMILES IDX 78 77 72 78 73 79 76 80 74 81 53 82 54 83 62 84 55 85 56 86
REMARK SMILES IDX 60 87 63 88 57 89 58 90 61 91 59 92
REMARK H PARENT 7 12 83 45 51 56
REMARK Flexibility Score: inf
ROOT
ATOM      1  C   UNL A   1      31.425  29.747  25.564  1.00  0.00     0.274 C 
ENDROOT
BRANCH   1   2
ATOM      2  O   UNL A   1      32.586  28.903  25.441  1.00  0.00    -0.462 OA
BRANCH   2   3
ATOM      3  C   UNL A   1      32.866  28.145  24.358  1.00  0.00     0.306 C 
ATOM      4  O   UNL A   1      33.409  28.639  23.372  1.00  0.00    -0.252 OA
BRANCH   3   5
ATOM      5  C   UNL A   1      32.430  26.701  24.346  1.00  0.00     0.126 C 
BRANCH   5   6
ATOM      6  C   UNL A   1      30.943  26.426  24.082  1.00  0.00     0.011 C 
ATOM      7  C   UNL A   1      30.121  26.099  25.328  1.00  0.00     0.066 C 
ATOM      8  C   UNL A   1      30.810  25.226  23.128  1.00  0.00     0.066 C 
ATOM      9  C   UNL A   1      30.620  24.821  25.993  1.00  0.00     0.262 C 
ATOM     10  C   UNL A   1      31.285  23.918  23.781  1.00  0.00     0.262 C 
ATOM     11  N   UNL A   1      30.679  23.672  25.091  1.00  0.00    -0.332 N 
ATOM     12  H   UNL A   1      29.697  23.508  24.870  1.00  0.00     0.348 HD
BRANCH  11  13
ATOM     13  C   UNL A   1      31.174  22.440  25.736  1.00  0.00     0.311 C 
BRANCH  13  14
ATOM     14  C   UNL A   1      32.334  21.604  25.123  1.00  0.00     0.265 C 
ATOM     15  C   UNL A   1      33.611  21.539  25.960  1.00  0.00     0.281 C 
ATOM     16  O   UNL A   1      31.808  20.260  24.958  1.00  0.00    -0.477 OA
ATOM     17  O   UNL A   1      34.628  20.798  25.269  1.00  0.00    -0.486 OA
ATOM     18  C   UNL A   1      32.782  19.326  24.722  1.00  0.00     0.162 A 
ATOM     19  C   UNL A   1      34.146  19.590  24.853  1.00  0.00     0.161 A 
ATOM     20  C   UNL A   1      32.361  18.048  24.362  1.00  0.00     0.050 A 
ATOM     21  C   UNL A   1      35.089  18.605  24.570  1.00  0.00     0.050 A 
ATOM     22  C   UNL A   1      33.302  17.050  24.100  1.00  0.00     0.004 A 
ATOM     23  C   UNL A   1      34.666  17.330  24.197  1.00  0.00     0.004 A 
ENDBRANCH  13  14
ENDBRANCH  11  13
ENDBRANCH   5   6
ENDBRANCH   3   5
ENDBRANCH   2   3
ENDBRANCH   1   2
BRANCH   1  24
ATOM     24  C   UNL A   1      31.742  31.068  26.272  1.00  0.00     0.275 C 
BRANCH  24  25
ATOM     25  O   UNL A   1      32.764  30.885  27.274  1.00  0.00    -0.458 OA
BRANCH  25  26
ATOM     26  C   UNL A   1      33.519  31.979  27.549  1.00  0.00     0.338 C 
ATOM     27  O   UNL A   1      33.120  33.130  27.626  1.00  0.00    -0.246 OA
BRANCH  26  28
ATOM     28  C   UNL A   1      34.905  31.577  27.905  1.00  0.00     0.060 A 
ATOM     29  C   UNL A   1      35.183  30.206  27.979  1.00  0.00     0.016 A 
ATOM     30  C   UNL A   1      35.919  32.505  28.168  1.00  0.00     0.016 A 
ATOM     31  C   UNL A   1      36.443  29.762  28.389  1.00  0.00     0.010 A 
ATOM     32  C   UNL A   1      37.185  32.061  28.574  1.00  0.00     0.010 A 
ATOM     33  C   UNL A   1      37.437  30.687  28.737  1.00  0.00    -0.014 A 
BRANCH  33  34
ATOM     34  C   UNL A   1      38.644  30.209  29.462  1.00  0.00     0.031 A 
ATOM     35  C   UNL A   1      38.845  30.638  30.891  1.00  0.00     0.074 A 
ATOM     36  C   UNL A   1      39.521  29.360  28.897  1.00  0.00     0.049 A 
ATOM     37  N   UNL A   1      39.759  30.268  31.752  1.00  0.00    -0.248 NA
ATOM     38  C   UNL A   1      37.891  31.628  31.415  1.00  0.00     0.031 C 
ATOM     39  C   UNL A   1      39.459  28.879  27.523  1.00  0.00     0.029 A 
ATOM     40  N   UNL A   1      40.628  28.738  29.421  1.00  0.00    -0.354 N 
ATOM     41  C   UNL A   1      39.491  30.978  32.914  1.00  0.00     0.074 A 
ATOM     42  C   UNL A   1      38.356  31.832  32.638  1.00  0.00     0.031 C 
ATOM     43  C   UNL A   1      40.456  28.001  27.320  1.00  0.00     0.029 A 
ATOM     44  C   UNL A   1      41.244  27.878  28.545  1.00  0.00     0.049 A 
ATOM     45  H   UNL A   1      40.949  28.893  30.339  1.00  0.00     0.167 HD
ATOM     46  C   UNL A   1      40.120  30.916  34.111  1.00  0.00     0.037 A 
ATOM     47  C   UNL A   1      42.315  27.078  28.717  1.00  0.00     0.037 A 
ATOM     48  C   UNL A   1      41.247  30.069  34.397  1.00  0.00     0.049 A 
ATOM     49  C   UNL A   1      43.010  27.040  30.056  1.00  0.00     0.074 A 
ATOM     50  C   UNL A   1      41.938  29.926  35.588  1.00  0.00     0.029 A 
ATOM     51  N   UNL A   1      41.852  29.225  33.479  1.00  0.00    -0.354 N 
ATOM     52  N   UNL A   1      42.712  27.669  31.166  1.00  0.00    -0.248 NA
ATOM     53  C   UNL A   1      44.193  26.171  30.162  1.00  0.00     0.031 C 
ATOM     54  C   UNL A   1      42.992  29.029  35.378  1.00  0.00     0.029 A 
ATOM     55  C   UNL A   1      42.922  28.573  34.071  1.00  0.00     0.049 A 
ATOM     56  H   UNL A   1      41.564  29.107  32.546  1.00  0.00     0.167 HD
ATOM     57  C   UNL A   1      43.642  27.246  32.109  1.00  0.00     0.074 A 
ATOM     58  C   UNL A   1      44.508  26.296  31.443  1.00  0.00     0.031 C 
ATOM     59  C   UNL A   1      43.766  27.612  33.408  1.00  0.00     0.037 A 
BRANCH  46  60
ATOM     60  C   UNL A   1      39.609  31.812  35.200  1.00  0.00     0.064 A 
ATOM     61  C   UNL A   1      38.667  31.366  36.140  1.00  0.00     0.173 A 
ATOM     62  C   UNL A   1      40.077  33.129  35.312  1.00  0.00     0.173 A 
ATOM     63  F   UNL A   1      38.175  30.120  36.064  1.00  0.00    -0.203 F 
ATOM     64  C   UNL A   1      38.191  32.217  37.135  1.00  0.00     0.198 A 
ATOM     65  C   UNL A   1      39.621  33.967  36.325  1.00  0.00     0.198 A 
ATOM     66  F   UNL A   1      40.979  33.604  34.439  1.00  0.00    -0.203 F 
ATOM     67  F   UNL A   1      37.252  31.787  37.989  1.00  0.00    -0.200 F 
ATOM     68  C   UNL A   1      38.672  33.514  37.229  1.00  0.00     0.200 A 
ATOM     69  F   UNL A   1      40.094  35.218  36.422  1.00  0.00    -0.200 F 
ATOM     70  F   UNL A   1      38.214  34.330  38.188  1.00  0.00    -0.200 F 
ENDBRANCH  46  60
BRANCH  47  71
ATOM     71  C   UNL A   1      42.800  26.221  27.602  1.00  0.00     0.064 A 
ATOM     72  C   UNL A   1      43.797  26.674  26.725  1.00  0.00     0.173 A 
ATOM     73  C   UNL A   1      42.247  24.956  27.361  1.00  0.00     0.173 A 
ATOM     74  F   UNL A   1      44.342  27.887  26.898  1.00  0.00    -0.203 F 
ATOM     75  C   UNL A   1      44.205  25.904  25.637  1.00  0.00     0.198 A 
ATOM     76  C   UNL A   1      42.675  24.175  26.289  1.00  0.00     0.198 A 
ATOM     77  F   UNL A   1      41.285  24.479  28.165  1.00  0.00    -0.203 F 
ATOM     78  F   UNL A   1      45.121  26.385  24.786  1.00  0.00    -0.200 F 
ATOM     79  C   UNL A   1      43.646  24.653  25.422  1.00  0.00     0.200 A 
ATOM     80  F   UNL A   1      42.135  22.965  26.086  1.00  0.00    -0.200 F 
ATOM     81  F   UNL A   1      44.031  23.917  24.372  1.00  0.00    -0.200 F 
ENDBRANCH  47  71
BRANCH  59  82
ATOM     82  C   UNL A   1      44.842  26.947  34.218  1.00  0.00     0.064 A 
ATOM     83  C   UNL A   1      44.614  25.750  34.914  1.00  0.00     0.173 A 
ATOM     84  C   UNL A   1      46.131  27.499  34.270  1.00  0.00     0.173 A 
ATOM     85  F   UNL A   1      43.397  25.187  34.908  1.00  0.00    -0.203 F 
ATOM     86  C   UNL A   1      45.629  25.148  35.655  1.00  0.00     0.198 A 
ATOM     87  C   UNL A   1      47.151  26.879  34.985  1.00  0.00     0.198 A 
ATOM     88  F   UNL A   1      46.406  28.637  33.614  1.00  0.00    -0.203 F 
ATOM     89  F   UNL A   1      45.375  24.033  36.353  1.00  0.00    -0.200 F 
ATOM     90  C   UNL A   1      46.897  25.709  35.685  1.00  0.00     0.200 A 
ATOM     91  F   UNL A   1      48.380  27.415  35.001  1.00  0.00    -0.200 F 
ATOM     92  F   UNL A   1      47.873  25.126  36.395  1.00  0.00    -0.200 F 
ENDBRANCH  59  82
ENDBRANCH  33  34
ENDBRANCH  26  28
ENDBRANCH  25  26
ENDBRANCH  24  25
ENDBRANCH   1  24
TORSDOF 14
ENDMDL
