MODEL 1
REMARK VINA RESULT:     -12.8      0.000      0.000
REMARK SMILES CC(=O)N1C[C@@H]2C[N@H+](CC(=O)NCc3ccccc3)C[C@]2(C(=O)OCCOC(=O)c2ccc(-c3c4nc(c(-c5c(F)c(F)c(F)c(F)c5F)c5ccc([nH]5)c(-c5c(F)c(F)c(F)c(F)c5F)c5nc(c(-c6c(F)c(F)c(F)c(F)c6F)c6ccc3[nH]6)C=C5)C=C4)cc2)C1
REMARK SMILES IDX 25 1 24 2 22 3 23 4 21 5 4 6 5 7 93 8 6 9 7 10 20 11 8 12
REMARK SMILES IDX 2 14 1 15 3 16 9 17 10 18 11 19 12 20 13 22 14 23 15 24
REMARK SMILES IDX 19 25 16 26 18 27 17 28 26 29 27 30 28 31 29 32 30 33 31 34
REMARK SMILES IDX 92 35 32 36 91 37 33 38 34 39 35 40 85 41 36 42 90 43 84 44
REMARK SMILES IDX 86 45 37 46 89 47 83 48 82 49 38 51 70 52 50 53 69 54 51 55
REMARK SMILES IDX 54 56 68 57 87 58 52 59 53 60 67 62 88 63 55 64 39 65 40 66
REMARK SMILES IDX 48 67 41 68 42 69 46 70 49 71 43 72 44 73 47 74 45 75 71 76
REMARK SMILES IDX 72 77 80 78 73 79 74 80 78 81 81 82 75 83 76 84 79 85 77 86
REMARK SMILES IDX 56 87 57 88 65 89 58 90 59 91 63 92 66 93 60 94 61 95 64 96
REMARK SMILES IDX 62 97
REMARK H PARENT 8 13 12 21 86 50 54 61
REMARK Flexibility Score: inf
ROOT
ATOM      1  C   UNL A   1      31.277  31.452  26.221  1.00  0.00     0.274 C 
ENDROOT
BRANCH   1   2
ATOM      2  O   UNL A   1      32.224  30.367  26.015  1.00  0.00    -0.461 OA
BRANCH   2   3
ATOM      3  C   UNL A   1      31.849  29.110  26.432  1.00  0.00     0.320 C 
ATOM      4  O   UNL A   1      32.051  28.796  27.603  1.00  0.00    -0.251 OA
BRANCH   3   5
ATOM      5  C   UNL A   1      31.498  28.048  25.279  1.00  0.00     0.144 C 
ATOM      6  N   UNL A   1      30.981  25.614  25.562  1.00  0.00    -0.341 N 
ATOM      7  C   UNL A   1      30.649  25.915  24.224  1.00  0.00     0.130 C 
ATOM      8  C   UNL A   1      31.227  26.840  26.253  1.00  0.00     0.144 C 
ATOM      9  C   UNL A   1      30.512  27.466  24.168  1.00  0.00     0.089 C 
ATOM     10  C   UNL A   1      31.018  27.756  22.734  1.00  0.00     0.269 C 
ATOM     11  C   UNL A   1      32.426  28.705  24.253  1.00  0.00     0.284 C 
ATOM     12  N   UNL A   1      32.363  28.233  22.915  1.00  0.00    -0.326 N 
ATOM     13  H   UNL A   1      32.431  28.893  22.140  1.00  0.00     0.348 HD
BRANCH   6  14
ATOM     14  C   UNL A   1      31.053  24.312  25.999  1.00  0.00     0.219 C 
ATOM     15  C   UNL A   1      31.001  23.200  24.983  1.00  0.00     0.114 C 
ATOM     16  O   UNL A   1      31.174  24.031  27.192  1.00  0.00    -0.275 OA
ENDBRANCH   6  14
BRANCH  12  17
ATOM     17  C   UNL A   1      33.592  27.600  22.470  1.00  0.00     0.363 C 
BRANCH  17  18
ATOM     18  C   UNL A   1      33.492  26.108  22.171  1.00  0.00     0.275 C 
ATOM     19  O   UNL A   1      33.207  25.744  21.024  1.00  0.00    -0.268 OA
ATOM     20  N   UNL A   1      33.700  25.115  23.085  1.00  0.00    -0.347 N 
ATOM     21  H   UNL A   1      33.366  24.246  22.766  1.00  0.00     0.164 HD
BRANCH  20  22
ATOM     22  C   UNL A   1      34.294  25.020  24.420  1.00  0.00     0.151 C 
BRANCH  22  23
ATOM     23  C   UNL A   1      35.476  24.060  24.524  1.00  0.00    -0.029 A 
ATOM     24  C   UNL A   1      35.813  23.144  23.522  1.00  0.00     0.005 A 
ATOM     25  C   UNL A   1      36.281  24.056  25.678  1.00  0.00     0.005 A 
ATOM     26  C   UNL A   1      36.806  22.170  23.721  1.00  0.00     0.000 A 
ATOM     27  C   UNL A   1      37.280  23.087  25.875  1.00  0.00     0.000 A 
ATOM     28  C   UNL A   1      37.516  22.117  24.910  1.00  0.00     0.000 A 
ENDBRANCH  22  23
ENDBRANCH  20  22
ENDBRANCH  17  18
ENDBRANCH  12  17
ENDBRANCH   3   5
ENDBRANCH   2   3
ENDBRANCH   1   2
BRANCH   1  29
ATOM     29  C   UNL A   1      31.923  32.728  26.752  1.00  0.00     0.275 C 
BRANCH  29  30
ATOM     30  O   UNL A   1      32.832  32.405  27.808  1.00  0.00    -0.458 OA
BRANCH  30  31
ATOM     31  C   UNL A   1      33.794  33.346  27.982  1.00  0.00     0.338 C 
ATOM     32  O   UNL A   1      33.649  34.548  28.093  1.00  0.00    -0.246 OA
BRANCH  31  33
ATOM     33  C   UNL A   1      35.060  32.666  28.268  1.00  0.00     0.060 A 
ATOM     34  C   UNL A   1      35.016  31.280  28.469  1.00  0.00     0.016 A 
ATOM     35  C   UNL A   1      36.253  33.374  28.372  1.00  0.00     0.016 A 
ATOM     36  C   UNL A   1      36.173  30.573  28.724  1.00  0.00     0.010 A 
ATOM     37  C   UNL A   1      37.401  32.684  28.746  1.00  0.00     0.010 A 
ATOM     38  C   UNL A   1      37.347  31.291  28.945  1.00  0.00    -0.014 A 
BRANCH  38  39
ATOM     39  C   UNL A   1      38.401  30.610  29.703  1.00  0.00     0.031 A 
ATOM     40  C   UNL A   1      38.530  30.962  31.154  1.00  0.00     0.074 A 
ATOM     41  C   UNL A   1      39.138  29.645  29.136  1.00  0.00     0.049 A 
ATOM     42  N   UNL A   1      39.423  30.583  32.026  1.00  0.00    -0.248 NA
ATOM     43  C   UNL A   1      37.498  31.863  31.698  1.00  0.00     0.031 C 
ATOM     44  C   UNL A   1      38.977  29.151  27.771  1.00  0.00     0.029 A 
ATOM     45  N   UNL A   1      40.169  28.912  29.651  1.00  0.00    -0.354 N 
ATOM     46  C   UNL A   1      39.077  31.218  33.210  1.00  0.00     0.074 A 
ATOM     47  C   UNL A   1      37.896  32.008  32.950  1.00  0.00     0.031 C 
ATOM     48  C   UNL A   1      39.904  28.205  27.545  1.00  0.00     0.029 A 
ATOM     49  C   UNL A   1      40.744  28.073  28.733  1.00  0.00     0.049 A 
ATOM     50  H   UNL A   1      40.468  28.978  30.587  1.00  0.00     0.167 HD
ATOM     51  C   UNL A   1      39.706  31.151  34.404  1.00  0.00     0.037 A 
ATOM     52  C   UNL A   1      41.858  27.327  28.845  1.00  0.00     0.037 A 
ATOM     53  C   UNL A   1      40.889  30.366  34.624  1.00  0.00     0.049 A 
ATOM     54  C   UNL A   1      42.604  27.347  30.154  1.00  0.00     0.074 A 
ATOM     55  C   UNL A   1      41.650  30.249  35.770  1.00  0.00     0.029 A 
ATOM     56  N   UNL A   1      41.485  29.566  33.657  1.00  0.00    -0.354 N 
ATOM     57  N   UNL A   1      42.321  27.992  31.262  1.00  0.00    -0.248 NA
ATOM     58  C   UNL A   1      43.828  26.540  30.227  1.00  0.00     0.031 C 
ATOM     59  C   UNL A   1      42.739  29.418  35.480  1.00  0.00     0.029 A 
ATOM     60  C   UNL A   1      42.619  28.963  34.175  1.00  0.00     0.049 A 
ATOM     61  H   UNL A   1      41.151  29.445  32.740  1.00  0.00     0.167 HD
ATOM     62  C   UNL A   1      43.308  27.645  32.174  1.00  0.00     0.074 A 
ATOM     63  C   UNL A   1      44.194  26.725  31.488  1.00  0.00     0.031 C 
ATOM     64  C   UNL A   1      43.471  28.044  33.461  1.00  0.00     0.037 A 
BRANCH  51  65
ATOM     65  C   UNL A   1      39.165  32.011  35.508  1.00  0.00     0.064 A 
ATOM     66  C   UNL A   1      39.507  33.367  35.637  1.00  0.00     0.173 A 
ATOM     67  C   UNL A   1      38.323  31.454  36.483  1.00  0.00     0.173 A 
ATOM     68  F   UNL A   1      40.334  33.942  34.751  1.00  0.00    -0.203 F 
ATOM     69  C   UNL A   1      39.059  34.120  36.720  1.00  0.00     0.198 A 
ATOM     70  C   UNL A   1      37.850  32.219  37.545  1.00  0.00     0.198 A 
ATOM     71  F   UNL A   1      37.972  30.161  36.415  1.00  0.00    -0.203 F 
ATOM     72  F   UNL A   1      39.459  35.391  36.862  1.00  0.00    -0.200 F 
ATOM     73  C   UNL A   1      38.227  33.546  37.671  1.00  0.00     0.200 A 
ATOM     74  F   UNL A   1      37.041  31.663  38.459  1.00  0.00    -0.200 F 
ATOM     75  F   UNL A   1      37.803  34.269  38.716  1.00  0.00    -0.200 F 
ENDBRANCH  51  65
BRANCH  52  76
ATOM     76  C   UNL A   1      42.342  26.543  27.681  1.00  0.00     0.064 A 
ATOM     77  C   UNL A   1      43.303  27.064  26.804  1.00  0.00     0.173 A 
ATOM     78  C   UNL A   1      41.856  25.252  27.424  1.00  0.00     0.173 A 
ATOM     79  F   UNL A   1      43.782  28.301  26.995  1.00  0.00    -0.203 F 
ATOM     80  C   UNL A   1      43.748  26.328  25.706  1.00  0.00     0.198 A 
ATOM     81  C   UNL A   1      42.324  24.506  26.345  1.00  0.00     0.198 A 
ATOM     82  F   UNL A   1      40.937  24.706  28.233  1.00  0.00    -0.203 F 
ATOM     83  F   UNL A   1      44.635  26.866  24.859  1.00  0.00    -0.200 F 
ATOM     84  C   UNL A   1      43.264  25.049  25.482  1.00  0.00     0.200 A 
ATOM     85  F   UNL A   1      41.865  23.264  26.142  1.00  0.00    -0.200 F 
ATOM     86  F   UNL A   1      43.698  24.339  24.431  1.00  0.00    -0.200 F 
ENDBRANCH  52  76
BRANCH  64  87
ATOM     87  C   UNL A   1      44.616  27.442  34.222  1.00  0.00     0.064 A 
ATOM     88  C   UNL A   1      44.493  26.228  34.914  1.00  0.00     0.173 A 
ATOM     89  C   UNL A   1      45.870  28.073  34.220  1.00  0.00     0.173 A 
ATOM     90  F   UNL A   1      43.312  25.591  34.955  1.00  0.00    -0.203 F 
ATOM     91  C   UNL A   1      45.573  25.689  35.606  1.00  0.00     0.198 A 
ATOM     92  C   UNL A   1      46.957  27.512  34.883  1.00  0.00     0.198 A 
ATOM     93  F   UNL A   1      46.043  29.231  33.563  1.00  0.00    -0.203 F 
ATOM     94  F   UNL A   1      45.417  24.558  36.309  1.00  0.00    -0.200 F 
ATOM     95  C   UNL A   1      46.804  26.326  35.583  1.00  0.00     0.200 A 
ATOM     96  F   UNL A   1      48.150  28.121  34.843  1.00  0.00    -0.200 F 
ATOM     97  F   UNL A   1      47.845  25.801  36.244  1.00  0.00    -0.200 F 
ENDBRANCH  64  87
ENDBRANCH  38  39
ENDBRANCH  31  33
ENDBRANCH  30  31
ENDBRANCH  29  30
ENDBRANCH   1  29
TORSDOF 16
ENDMDL
MODEL 2
REMARK VINA RESULT:     -12.7      0.756      7.406
REMARK SMILES CC(=O)N1C[C@@H]2C[N@H+](CC(=O)NCc3ccccc3)C[C@]2(C(=O)OCCOC(=O)c2ccc(-c3c4nc(c(-c5c(F)c(F)c(F)c(F)c5F)c5ccc([nH]5)c(-c5c(F)c(F)c(F)c(F)c5F)c5nc(c(-c6c(F)c(F)c(F)c(F)c6F)c6ccc3[nH]6)C=C5)C=C4)cc2)C1
REMARK SMILES IDX 25 1 24 2 22 3 23 4 21 5 4 6 5 7 93 8 6 9 7 10 20 11 8 12
REMARK SMILES IDX 2 14 1 15 3 16 9 17 10 18 11 19 12 20 13 22 14 23 15 24
REMARK SMILES IDX 19 25 16 26 18 27 17 28 26 29 27 30 28 31 29 32 30 33 31 34
REMARK SMILES IDX 92 35 32 36 91 37 33 38 34 39 35 40 85 41 36 42 90 43 84 44
REMARK SMILES IDX 86 45 37 46 89 47 83 48 82 49 38 51 70 52 50 53 69 54 51 55
REMARK SMILES IDX 54 56 68 57 87 58 52 59 53 60 67 62 88 63 55 64 39 65 40 66
REMARK SMILES IDX 48 67 41 68 42 69 46 70 49 71 43 72 44 73 47 74 45 75 71 76
REMARK SMILES IDX 72 77 80 78 73 79 74 80 78 81 81 82 75 83 76 84 79 85 77 86
REMARK SMILES IDX 56 87 57 88 65 89 58 90 59 91 63 92 66 93 60 94 61 95 64 96
REMARK SMILES IDX 62 97
REMARK H PARENT 8 13 12 21 86 50 54 61
REMARK Flexibility Score: inf
ROOT
ATOM      1  C   UNL A   1      31.515  30.488  25.626  1.00  0.00     0.274 C 
ENDROOT
BRANCH   1   2
ATOM      2  O   UNL A   1      32.352  29.327  25.882  1.00  0.00    -0.461 OA
BRANCH   2   3
ATOM      3  C   UNL A   1      31.742  28.206  26.396  1.00  0.00     0.320 C 
ATOM      4  O   UNL A   1      31.808  28.005  27.607  1.00  0.00    -0.251 OA
BRANCH   3   5
ATOM      5  C   UNL A   1      31.293  27.084  25.337  1.00  0.00     0.144 C 
ATOM      6  N   UNL A   1      30.563  24.738  25.827  1.00  0.00    -0.341 N 
ATOM      7  C   UNL A   1      30.254  24.952  24.466  1.00  0.00     0.130 C 
ATOM      8  C   UNL A   1      30.920  25.992  26.411  1.00  0.00     0.144 C 
ATOM      9  C   UNL A   1      30.255  26.499  24.277  1.00  0.00     0.089 C 
ATOM     10  C   UNL A   1      30.779  26.618  22.826  1.00  0.00     0.269 C 
ATOM     11  C   UNL A   1      32.272  27.565  24.262  1.00  0.00     0.284 C 
ATOM     12  N   UNL A   1      32.162  26.987  22.969  1.00  0.00    -0.326 N 
ATOM     13  H   UNL A   1      32.285  27.570  22.141  1.00  0.00     0.348 HD
BRANCH   6  14
ATOM     14  C   UNL A   1      30.520  23.478  26.374  1.00  0.00     0.219 C 
ATOM     15  C   UNL A   1      31.312  22.374  25.722  1.00  0.00     0.114 C 
ATOM     16  O   UNL A   1      29.868  23.230  27.390  1.00  0.00    -0.275 OA
ENDBRANCH   6  14
BRANCH  12  17
ATOM     17  C   UNL A   1      33.328  26.212  22.585  1.00  0.00     0.363 C 
BRANCH  17  18
ATOM     18  C   UNL A   1      33.093  25.166  21.500  1.00  0.00     0.275 C 
ATOM     19  O   UNL A   1      32.999  25.533  20.324  1.00  0.00    -0.268 OA
ATOM     20  N   UNL A   1      32.979  23.824  21.725  1.00  0.00    -0.347 N 
ATOM     21  H   UNL A   1      32.604  23.351  20.948  1.00  0.00     0.164 HD
BRANCH  20  22
ATOM     22  C   UNL A   1      33.276  22.913  22.832  1.00  0.00     0.151 C 
BRANCH  22  23
ATOM     23  C   UNL A   1      34.555  23.235  23.599  1.00  0.00    -0.029 A 
ATOM     24  C   UNL A   1      35.826  22.823  23.180  1.00  0.00     0.005 A 
ATOM     25  C   UNL A   1      34.494  23.967  24.798  1.00  0.00     0.005 A 
ATOM     26  C   UNL A   1      36.959  22.999  23.992  1.00  0.00     0.000 A 
ATOM     27  C   UNL A   1      35.629  24.151  25.607  1.00  0.00     0.000 A 
ATOM     28  C   UNL A   1      36.857  23.632  25.221  1.00  0.00     0.000 A 
ENDBRANCH  22  23
ENDBRANCH  20  22
ENDBRANCH  17  18
ENDBRANCH  12  17
ENDBRANCH   3   5
ENDBRANCH   2   3
ENDBRANCH   1   2
BRANCH   1  29
ATOM     29  C   UNL A   1      31.753  31.634  26.604  1.00  0.00     0.275 C 
BRANCH  29  30
ATOM     30  O   UNL A   1      32.887  31.340  27.424  1.00  0.00    -0.458 OA
BRANCH  30  31
ATOM     31  C   UNL A   1      33.667  32.426  27.653  1.00  0.00     0.338 C 
ATOM     32  O   UNL A   1      33.324  33.591  27.713  1.00  0.00    -0.246 OA
BRANCH  31  33
ATOM     33  C   UNL A   1      34.994  31.963  28.071  1.00  0.00     0.060 A 
ATOM     34  C   UNL A   1      35.127  30.611  28.410  1.00  0.00     0.016 A 
ATOM     35  C   UNL A   1      36.070  32.841  28.161  1.00  0.00     0.016 A 
ATOM     36  C   UNL A   1      36.350  30.102  28.794  1.00  0.00     0.010 A 
ATOM     37  C   UNL A   1      37.275  32.359  28.661  1.00  0.00     0.010 A 
ATOM     38  C   UNL A   1      37.399  30.998  28.998  1.00  0.00    -0.014 A 
BRANCH  38  39
ATOM     39  C   UNL A   1      38.486  30.548  29.875  1.00  0.00     0.031 A 
ATOM     40  C   UNL A   1      39.477  29.589  29.289  1.00  0.00     0.074 A 
ATOM     41  C   UNL A   1      38.630  31.060  31.104  1.00  0.00     0.049 A 
ATOM     42  N   UNL A   1      40.472  28.968  29.861  1.00  0.00    -0.248 NA
ATOM     43  C   UNL A   1      39.329  29.298  27.851  1.00  0.00     0.031 C 
ATOM     44  C   UNL A   1      37.788  32.099  31.692  1.00  0.00     0.029 A 
ATOM     45  N   UNL A   1      39.547  30.767  32.074  1.00  0.00    -0.354 N 
ATOM     46  C   UNL A   1      41.048  28.196  28.863  1.00  0.00     0.074 A 
ATOM     47  C   UNL A   1      40.296  28.420  27.650  1.00  0.00     0.031 C 
ATOM     48  C   UNL A   1      38.215  32.340  32.943  1.00  0.00     0.029 A 
ATOM     49  C   UNL A   1      39.321  31.436  33.248  1.00  0.00     0.049 A 
ATOM     50  H   UNL A   1      40.295  30.140  31.943  1.00  0.00     0.167 HD
ATOM     51  C   UNL A   1      42.108  27.363  28.964  1.00  0.00     0.037 A 
ATOM     52  C   UNL A   1      39.922  31.284  34.442  1.00  0.00     0.037 A 
ATOM     53  C   UNL A   1      42.824  27.150  30.191  1.00  0.00     0.049 A 
ATOM     54  C   UNL A   1      41.033  30.273  34.559  1.00  0.00     0.074 A 
ATOM     55  C   UNL A   1      43.882  26.299  30.440  1.00  0.00     0.029 A 
ATOM     56  N   UNL A   1      42.538  27.803  31.384  1.00  0.00    -0.354 N 
ATOM     57  N   UNL A   1      41.547  29.492  33.637  1.00  0.00    -0.248 NA
ATOM     58  C   UNL A   1      41.646  30.119  35.884  1.00  0.00     0.031 C 
ATOM     59  C   UNL A   1      44.202  26.398  31.800  1.00  0.00     0.029 A 
ATOM     60  C   UNL A   1      43.389  27.359  32.381  1.00  0.00     0.049 A 
ATOM     61  H   UNL A   1      41.834  28.480  31.503  1.00  0.00     0.167 HD
ATOM     62  C   UNL A   1      42.563  28.778  34.258  1.00  0.00     0.074 A 
ATOM     63  C   UNL A   1      42.596  29.227  35.636  1.00  0.00     0.031 C 
ATOM     64  C   UNL A   1      43.396  27.839  33.742  1.00  0.00     0.037 A 
BRANCH  51  65
ATOM     65  C   UNL A   1      42.475  26.577  27.740  1.00  0.00     0.064 A 
ATOM     66  C   UNL A   1      41.895  25.332  27.446  1.00  0.00     0.173 A 
ATOM     67  C   UNL A   1      43.462  27.060  26.866  1.00  0.00     0.173 A 
ATOM     68  F   UNL A   1      40.970  24.809  28.265  1.00  0.00    -0.203 F 
ATOM     69  C   UNL A   1      42.317  24.585  26.349  1.00  0.00     0.198 A 
ATOM     70  C   UNL A   1      43.857  26.325  25.753  1.00  0.00     0.198 A 
ATOM     71  F   UNL A   1      44.057  28.239  27.104  1.00  0.00    -0.203 F 
ATOM     72  F   UNL A   1      41.802  23.367  26.131  1.00  0.00    -0.200 F 
ATOM     73  C   UNL A   1      43.295  25.084  25.500  1.00  0.00     0.200 A 
ATOM     74  F   UNL A   1      44.798  26.813  24.930  1.00  0.00    -0.200 F 
ATOM     75  F   UNL A   1      43.705  24.361  24.450  1.00  0.00    -0.200 F 
ENDBRANCH  51  65
BRANCH  52  76
ATOM     76  C   UNL A   1      39.458  32.074  35.609  1.00  0.00     0.064 A 
ATOM     77  C   UNL A   1      38.506  31.561  36.501  1.00  0.00     0.173 A 
ATOM     78  C   UNL A   1      39.960  33.360  35.860  1.00  0.00     0.173 A 
ATOM     79  F   UNL A   1      37.980  30.346  36.292  1.00  0.00    -0.203 F 
ATOM     80  C   UNL A   1      38.065  32.311  37.590  1.00  0.00     0.198 A 
ATOM     81  C   UNL A   1      39.542  34.096  36.967  1.00  0.00     0.198 A 
ATOM     82  F   UNL A   1      40.873  33.898  35.038  1.00  0.00    -0.203 F 
ATOM     83  F   UNL A   1      37.123  31.814  38.404  1.00  0.00    -0.200 F 
ATOM     84  C   UNL A   1      38.588  33.573  37.826  1.00  0.00     0.200 A 
ATOM     85  F   UNL A   1      40.061  35.309  37.198  1.00  0.00    -0.200 F 
ATOM     86  F   UNL A   1      38.169  34.290  38.879  1.00  0.00    -0.200 F 
ENDBRANCH  52  76
BRANCH  64  87
ATOM     87  C   UNL A   1      44.446  27.282  34.659  1.00  0.00     0.064 A 
ATOM     88  C   UNL A   1      45.694  27.902  34.822  1.00  0.00     0.173 A 
ATOM     89  C   UNL A   1      44.179  26.131  35.416  1.00  0.00     0.173 A 
ATOM     90  F   UNL A   1      46.003  28.998  34.113  1.00  0.00    -0.203 F 
ATOM     91  C   UNL A   1      46.648  27.367  35.683  1.00  0.00     0.198 A 
ATOM     92  C   UNL A   1      45.121  25.621  36.303  1.00  0.00     0.198 A 
ATOM     93  F   UNL A   1      42.995  25.507  35.303  1.00  0.00    -0.203 F 
ATOM     94  F   UNL A   1      47.855  27.941  35.781  1.00  0.00    -0.200 F 
ATOM     95  C   UNL A   1      46.358  26.233  36.428  1.00  0.00     0.200 A 
ATOM     96  F   UNL A   1      44.831  24.536  37.034  1.00  0.00    -0.200 F 
ATOM     97  F   UNL A   1      47.275  25.725  37.262  1.00  0.00    -0.200 F 
ENDBRANCH  64  87
ENDBRANCH  38  39
ENDBRANCH  31  33
ENDBRANCH  30  31
ENDBRANCH  29  30
ENDBRANCH   1  29
TORSDOF 16
ENDMDL
MODEL 3
REMARK VINA RESULT:     -12.7      4.281      7.580
REMARK SMILES CC(=O)N1C[C@@H]2C[N@H+](CC(=O)NCc3ccccc3)C[C@]2(C(=O)OCCOC(=O)c2ccc(-c3c4nc(c(-c5c(F)c(F)c(F)c(F)c5F)c5ccc([nH]5)c(-c5c(F)c(F)c(F)c(F)c5F)c5nc(c(-c6c(F)c(F)c(F)c(F)c6F)c6ccc3[nH]6)C=C5)C=C4)cc2)C1
REMARK SMILES IDX 25 1 24 2 22 3 23 4 21 5 4 6 5 7 93 8 6 9 7 10 20 11 8 12
REMARK SMILES IDX 2 14 1 15 3 16 9 17 10 18 11 19 12 20 13 22 14 23 15 24
REMARK SMILES IDX 19 25 16 26 18 27 17 28 26 29 27 30 28 31 29 32 30 33 31 34
REMARK SMILES IDX 92 35 32 36 91 37 33 38 34 39 35 40 85 41 36 42 90 43 84 44
REMARK SMILES IDX 86 45 37 46 89 47 83 48 82 49 38 51 70 52 50 53 69 54 51 55
REMARK SMILES IDX 54 56 68 57 87 58 52 59 53 60 67 62 88 63 55 64 39 65 40 66
REMARK SMILES IDX 48 67 41 68 42 69 46 70 49 71 43 72 44 73 47 74 45 75 71 76
REMARK SMILES IDX 72 77 80 78 73 79 74 80 78 81 81 82 75 83 76 84 79 85 77 86
REMARK SMILES IDX 56 87 57 88 65 89 58 90 59 91 63 92 66 93 60 94 61 95 64 96
REMARK SMILES IDX 62 97
REMARK H PARENT 8 13 12 21 86 50 54 61
REMARK Flexibility Score: inf
ROOT
ATOM      1  C   UNL A   1      36.638  20.368  24.790  1.00  0.00     0.274 C 
ENDROOT
BRANCH   1   2
ATOM      2  O   UNL A   1      36.056  21.664  25.102  1.00  0.00    -0.461 OA
BRANCH   2   3
ATOM      3  C   UNL A   1      35.643  22.445  24.046  1.00  0.00     0.320 C 
ATOM      4  O   UNL A   1      36.488  23.091  23.429  1.00  0.00    -0.251 OA
BRANCH   3   5
ATOM      5  C   UNL A   1      34.064  22.712  23.926  1.00  0.00     0.144 C 
ATOM      6  N   UNL A   1      32.910  24.347  22.420  1.00  0.00    -0.341 N 
ATOM      7  C   UNL A   1      31.884  23.534  22.948  1.00  0.00     0.130 C 
ATOM      8  C   UNL A   1      34.168  23.759  22.753  1.00  0.00     0.144 C 
ATOM      9  C   UNL A   1      32.600  22.259  23.486  1.00  0.00     0.089 C 
ATOM     10  C   UNL A   1      31.709  21.913  24.704  1.00  0.00     0.269 C 
ATOM     11  C   UNL A   1      33.806  22.451  25.413  1.00  0.00     0.284 C 
ATOM     12  N   UNL A   1      32.454  22.383  25.842  1.00  0.00    -0.326 N 
ATOM     13  H   UNL A   1      32.177  21.694  26.541  1.00  0.00     0.348 HD
BRANCH   6  14
ATOM     14  C   UNL A   1      32.618  25.506  21.741  1.00  0.00     0.219 C 
ATOM     15  C   UNL A   1      31.437  26.331  22.184  1.00  0.00     0.114 C 
ATOM     16  O   UNL A   1      33.301  25.897  20.793  1.00  0.00    -0.275 OA
ENDBRANCH   6  14
BRANCH  12  17
ATOM     17  C   UNL A   1      32.087  23.447  26.759  1.00  0.00     0.363 C 
BRANCH  17  18
ATOM     18  C   UNL A   1      30.592  23.719  26.886  1.00  0.00     0.275 C 
ATOM     19  O   UNL A   1      29.916  23.013  27.642  1.00  0.00    -0.268 OA
ATOM     20  N   UNL A   1      29.922  24.706  26.222  1.00  0.00    -0.347 N 
ATOM     21  H   UNL A   1      28.947  24.575  26.254  1.00  0.00     0.164 HD
BRANCH  20  22
ATOM     22  C   UNL A   1      30.290  25.910  25.473  1.00  0.00     0.151 C 
BRANCH  22  23
ATOM     23  C   UNL A   1      31.484  26.673  26.040  1.00  0.00    -0.029 A 
ATOM     24  C   UNL A   1      31.382  27.579  27.102  1.00  0.00     0.005 A 
ATOM     25  C   UNL A   1      32.764  26.495  25.484  1.00  0.00     0.005 A 
ATOM     26  C   UNL A   1      32.471  28.380  27.490  1.00  0.00     0.000 A 
ATOM     27  C   UNL A   1      33.855  27.289  25.877  1.00  0.00     0.000 A 
ATOM     28  C   UNL A   1      33.697  28.261  26.856  1.00  0.00     0.000 A 
ENDBRANCH  22  23
ENDBRANCH  20  22
ENDBRANCH  17  18
ENDBRANCH  12  17
ENDBRANCH   3   5
ENDBRANCH   2   3
ENDBRANCH   1   2
BRANCH   1  29
ATOM     29  C   UNL A   1      38.147  20.314  25.007  1.00  0.00     0.275 C 
BRANCH  29  30
ATOM     30  O   UNL A   1      38.554  21.403  25.840  1.00  0.00    -0.458 OA
BRANCH  30  31
ATOM     31  C   UNL A   1      39.766  21.203  26.414  1.00  0.00     0.338 C 
ATOM     32  O   UNL A   1      40.489  20.231  26.309  1.00  0.00    -0.246 OA
BRANCH  31  33
ATOM     33  C   UNL A   1      40.211  22.466  27.009  1.00  0.00     0.060 A 
ATOM     34  C   UNL A   1      39.665  23.649  26.493  1.00  0.00     0.016 A 
ATOM     35  C   UNL A   1      41.165  22.492  28.022  1.00  0.00     0.016 A 
ATOM     36  C   UNL A   1      40.024  24.873  27.018  1.00  0.00     0.010 A 
ATOM     37  C   UNL A   1      41.618  23.728  28.472  1.00  0.00     0.010 A 
ATOM     38  C   UNL A   1      41.062  24.910  27.948  1.00  0.00    -0.014 A 
BRANCH  38  39
ATOM     39  C   UNL A   1      41.767  26.188  28.096  1.00  0.00     0.031 A 
ATOM     40  C   UNL A   1      41.063  27.267  28.862  1.00  0.00     0.074 A 
ATOM     41  C   UNL A   1      43.022  26.333  27.650  1.00  0.00     0.049 A 
ATOM     42  N   UNL A   1      41.412  28.507  29.063  1.00  0.00    -0.248 NA
ATOM     43  C   UNL A   1      39.789  26.886  29.499  1.00  0.00     0.031 C 
ATOM     44  C   UNL A   1      43.822  25.287  27.019  1.00  0.00     0.029 A 
ATOM     45  N   UNL A   1      43.837  27.430  27.668  1.00  0.00    -0.354 N 
ATOM     46  C   UNL A   1      40.392  29.059  29.824  1.00  0.00     0.074 A 
ATOM     47  C   UNL A   1      39.408  28.026  30.048  1.00  0.00     0.031 C 
ATOM     48  C   UNL A   1      45.015  25.803  26.682  1.00  0.00     0.029 A 
ATOM     49  C   UNL A   1      45.032  27.222  27.031  1.00  0.00     0.049 A 
ATOM     50  H   UNL A   1      43.592  28.282  28.096  1.00  0.00     0.167 HD
ATOM     51  C   UNL A   1      40.288  30.327  30.280  1.00  0.00     0.037 A 
ATOM     52  C   UNL A   1      45.999  28.107  26.729  1.00  0.00     0.037 A 
ATOM     53  C   UNL A   1      41.278  31.336  30.025  1.00  0.00     0.049 A 
ATOM     54  C   UNL A   1      45.815  29.540  27.156  1.00  0.00     0.074 A 
ATOM     55  C   UNL A   1      41.271  32.668  30.388  1.00  0.00     0.029 A 
ATOM     56  N   UNL A   1      42.459  31.111  29.326  1.00  0.00    -0.354 N 
ATOM     57  N   UNL A   1      44.826  30.088  27.823  1.00  0.00    -0.248 NA
ATOM     58  C   UNL A   1      46.880  30.479  26.785  1.00  0.00     0.031 C 
ATOM     59  C   UNL A   1      42.425  33.263  29.861  1.00  0.00     0.029 A 
ATOM     60  C   UNL A   1      43.182  32.287  29.231  1.00  0.00     0.049 A 
ATOM     61  H   UNL A   1      42.739  30.244  28.955  1.00  0.00     0.167 HD
ATOM     62  C   UNL A   1      45.160  31.426  27.981  1.00  0.00     0.074 A 
ATOM     63  C   UNL A   1      46.451  31.603  27.345  1.00  0.00     0.031 C 
ATOM     64  C   UNL A   1      44.471  32.421  28.596  1.00  0.00     0.037 A 
BRANCH  51  65
ATOM     65  C   UNL A   1      39.029  30.687  31.013  1.00  0.00     0.064 A 
ATOM     66  C   UNL A   1      37.890  31.174  30.353  1.00  0.00     0.173 A 
ATOM     67  C   UNL A   1      38.978  30.582  32.412  1.00  0.00     0.173 A 
ATOM     68  F   UNL A   1      37.896  31.325  29.019  1.00  0.00    -0.203 F 
ATOM     69  C   UNL A   1      36.766  31.581  31.067  1.00  0.00     0.198 A 
ATOM     70  C   UNL A   1      37.840  30.957  33.120  1.00  0.00     0.198 A 
ATOM     71  F   UNL A   1      40.041  30.131  33.096  1.00  0.00    -0.203 F 
ATOM     72  F   UNL A   1      35.719  32.113  30.420  1.00  0.00    -0.200 F 
ATOM     73  C   UNL A   1      36.740  31.468  32.450  1.00  0.00     0.200 A 
ATOM     74  F   UNL A   1      37.816  30.841  34.455  1.00  0.00    -0.200 F 
ATOM     75  F   UNL A   1      35.660  31.866  33.136  1.00  0.00    -0.200 F 
ENDBRANCH  51  65
BRANCH  52  76
ATOM     76  C   UNL A   1      47.189  27.667  25.958  1.00  0.00     0.064 A 
ATOM     77  C   UNL A   1      47.203  27.708  24.558  1.00  0.00     0.173 A 
ATOM     78  C   UNL A   1      48.341  27.200  26.608  1.00  0.00     0.173 A 
ATOM     79  F   UNL A   1      46.118  28.127  23.890  1.00  0.00    -0.203 F 
ATOM     80  C   UNL A   1      48.319  27.285  23.837  1.00  0.00     0.198 A 
ATOM     81  C   UNL A   1      49.467  26.806  25.888  1.00  0.00     0.198 A 
ATOM     82  F   UNL A   1      48.381  27.141  27.947  1.00  0.00    -0.203 F 
ATOM     83  F   UNL A   1      48.290  27.295  22.498  1.00  0.00    -0.200 F 
ATOM     84  C   UNL A   1      49.451  26.842  24.503  1.00  0.00     0.200 A 
ATOM     85  F   UNL A   1      50.564  26.393  26.537  1.00  0.00    -0.200 F 
ATOM     86  F   UNL A   1      50.527  26.443  23.809  1.00  0.00    -0.200 F 
ENDBRANCH  52  76
BRANCH  64  87
ATOM     87  C   UNL A   1      45.128  33.768  28.658  1.00  0.00     0.064 A 
ATOM     88  C   UNL A   1      46.029  34.110  29.677  1.00  0.00     0.173 A 
ATOM     89  C   UNL A   1      44.881  34.717  27.653  1.00  0.00     0.173 A 
ATOM     90  F   UNL A   1      46.290  33.242  30.667  1.00  0.00    -0.203 F 
ATOM     91  C   UNL A   1      46.629  35.365  29.707  1.00  0.00     0.198 A 
ATOM     92  C   UNL A   1      45.511  35.957  27.667  1.00  0.00     0.198 A 
ATOM     93  F   UNL A   1      44.035  34.435  26.650  1.00  0.00    -0.203 F 
ATOM     94  F   UNL A   1      47.442  35.692  30.722  1.00  0.00    -0.200 F 
ATOM     95  C   UNL A   1      46.376  36.283  28.699  1.00  0.00     0.200 A 
ATOM     96  F   UNL A   1      45.279  36.835  26.682  1.00  0.00    -0.200 F 
ATOM     97  F   UNL A   1      46.961  37.489  28.727  1.00  0.00    -0.200 F 
ENDBRANCH  64  87
ENDBRANCH  38  39
ENDBRANCH  31  33
ENDBRANCH  30  31
ENDBRANCH  29  30
ENDBRANCH   1  29
TORSDOF 16
ENDMDL
