MODEL 1
REMARK VINA RESULT:     -11.8      0.000      0.000
REMARK SMILES C[C@H]1C[N@H+]2CCCC[C@@H]2CN1C(=O)[C@H]([NH3+])CC(=O)OCCOC(=O)c1ccc(-c2c3nc(c(-c4c(F)c(F)c(F)c(F)c4F)c4ccc([nH]4)c(-c4c(F)c(F)c(F)c(F)c4F)c4nc(c(-c5c(F)c(F)c(F)c(F)c5F)c5ccc2[nH]5)C=C4)C=C3)cc1
REMARK SMILES IDX 20 1 19 2 17 3 18 4 16 5 14 6 12 7 13 8 11 9 1 10 2 11 3 12
REMARK SMILES IDX 4 13 10 14 5 15 9 16 6 18 8 19 7 20 15 21 21 25 22 26 23 27
REMARK SMILES IDX 24 28 25 29 26 30 87 31 27 32 86 33 28 34 29 35 30 36 80 37
REMARK SMILES IDX 31 38 85 39 79 40 81 41 32 42 84 43 78 44 77 45 33 47 65 48
REMARK SMILES IDX 45 49 64 50 46 51 49 52 63 53 82 54 47 55 48 56 62 58 83 59
REMARK SMILES IDX 50 60 34 61 35 62 43 63 36 64 37 65 41 66 44 67 38 68 39 69
REMARK SMILES IDX 42 70 40 71 66 72 67 73 75 74 68 75 69 76 73 77 76 78 70 79
REMARK SMILES IDX 71 80 74 81 72 82 51 83 52 84 60 85 53 86 54 87 58 88 61 89
REMARK SMILES IDX 55 90 56 91 59 92 57 93
REMARK H PARENT 4 17 15 22 15 23 15 24 81 46 49 57
REMARK Flexibility Score: inf
ROOT
ATOM      1  C   UNL A   1      31.038  29.480  24.659  1.00  0.00     0.274 C 
ENDROOT
BRANCH   1   2
ATOM      2  O   UNL A   1      31.730  28.613  23.740  1.00  0.00    -0.462 OA
BRANCH   2   3
ATOM      3  C   UNL A   1      30.957  27.968  22.826  1.00  0.00     0.312 C 
ATOM      4  O   UNL A   1      30.273  28.516  21.971  1.00  0.00    -0.252 OA
BRANCH   3   5
ATOM      5  C   UNL A   1      30.941  26.484  23.061  1.00  0.00     0.198 C 
BRANCH   5   6
ATOM      6  C   UNL A   1      31.779  25.664  22.075  1.00  0.00     0.282 C 
BRANCH   6   7
ATOM      7  C   UNL A   1      33.271  25.645  22.505  1.00  0.00     0.282 C 
ATOM      8  O   UNL A   1      34.029  26.454  21.959  1.00  0.00    -0.268 OA
BRANCH   7   9
ATOM      9  N   UNL A   1      33.719  24.714  23.440  1.00  0.00    -0.323 N 
ATOM     10  C   UNL A   1      34.019  26.514  25.269  1.00  0.00     0.037 C 
ATOM     11  C   UNL A   1      34.288  25.090  24.766  1.00  0.00     0.137 C 
ATOM     12  C   UNL A   1      33.797  24.106  25.885  1.00  0.00     0.287 C 
ATOM     13  N   UNL A   1      33.872  22.664  25.544  1.00  0.00    -0.329 N 
ATOM     14  C   UNL A   1      33.866  23.283  23.169  1.00  0.00     0.185 C 
ATOM     15  C   UNL A   1      33.267  21.853  26.612  1.00  0.00     0.262 C 
ATOM     16  C   UNL A   1      33.191  22.435  24.255  1.00  0.00     0.203 C 
ATOM     17  H   UNL A   1      34.848  22.384  25.456  1.00  0.00     0.348 HD
ATOM     18  C   UNL A   1      33.289  20.361  26.270  1.00  0.00     0.062 C 
ATOM     19  C   UNL A   1      33.234  20.956  23.849  1.00  0.00     0.067 C 
ATOM     20  C   UNL A   1      32.618  20.082  24.931  1.00  0.00     0.012 C 
ENDBRANCH   7   9
ENDBRANCH   6   7
BRANCH   6  21
ATOM     21  N   UNL A   1      31.641  25.953  20.633  1.00  0.00    -0.347 N 
ATOM     22  H   UNL A   1      31.984  25.159  20.092  1.00  0.00     0.345 HD
ATOM     23  H   UNL A   1      32.185  26.784  20.399  1.00  0.00     0.345 HD
ATOM     24  H   UNL A   1      30.658  26.117  20.412  1.00  0.00     0.345 HD
ENDBRANCH   6  21
ENDBRANCH   5   6
ENDBRANCH   3   5
ENDBRANCH   2   3
ENDBRANCH   1   2
BRANCH   1  25
ATOM     25  C   UNL A   1      31.742  29.546  26.018  1.00  0.00     0.275 C 
BRANCH  25  26
ATOM     26  O   UNL A   1      33.018  30.203  25.922  1.00  0.00    -0.458 OA
BRANCH  26  27
ATOM     27  C   UNL A   1      33.255  31.137  26.873  1.00  0.00     0.338 C 
ATOM     28  O   UNL A   1      32.500  32.018  27.241  1.00  0.00    -0.246 OA
BRANCH  27  29
ATOM     29  C   UNL A   1      34.559  30.878  27.502  1.00  0.00     0.060 A 
ATOM     30  C   UNL A   1      34.862  29.581  27.930  1.00  0.00     0.016 A 
ATOM     31  C   UNL A   1      35.443  31.931  27.735  1.00  0.00     0.016 A 
ATOM     32  C   UNL A   1      36.063  29.328  28.591  1.00  0.00     0.010 A 
ATOM     33  C   UNL A   1      36.644  31.676  28.401  1.00  0.00     0.010 A 
ATOM     34  C   UNL A   1      36.957  30.376  28.839  1.00  0.00    -0.014 A 
BRANCH  34  35
ATOM     35  C   UNL A   1      38.208  30.149  29.597  1.00  0.00     0.031 A 
ATOM     36  C   UNL A   1      39.243  29.216  29.045  1.00  0.00     0.074 A 
ATOM     37  C   UNL A   1      38.382  30.729  30.798  1.00  0.00     0.049 A 
ATOM     38  N   UNL A   1      40.298  28.709  29.630  1.00  0.00    -0.248 NA
ATOM     39  C   UNL A   1      39.059  28.785  27.650  1.00  0.00     0.031 C 
ATOM     40  C   UNL A   1      37.465  31.686  31.415  1.00  0.00     0.029 A 
ATOM     41  N   UNL A   1      39.379  30.569  31.728  1.00  0.00    -0.354 N 
ATOM     42  C   UNL A   1      40.885  27.876  28.688  1.00  0.00     0.074 A 
ATOM     43  C   UNL A   1      40.071  27.944  27.492  1.00  0.00     0.031 C 
ATOM     44  C   UNL A   1      37.924  32.003  32.637  1.00  0.00     0.029 A 
ATOM     45  C   UNL A   1      39.137  31.235  32.904  1.00  0.00     0.049 A 
ATOM     46  H   UNL A   1      40.187  30.029  31.568  1.00  0.00     0.167 HD
ATOM     47  C   UNL A   1      42.001  27.121  28.818  1.00  0.00     0.037 A 
ATOM     48  C   UNL A   1      39.793  31.189  34.080  1.00  0.00     0.037 A 
ATOM     49  C   UNL A   1      42.819  27.084  30.001  1.00  0.00     0.049 A 
ATOM     50  C   UNL A   1      41.008  30.308  34.212  1.00  0.00     0.074 A 
ATOM     51  C   UNL A   1      43.987  26.374  30.219  1.00  0.00     0.029 A 
ATOM     52  N   UNL A   1      42.553  27.788  31.165  1.00  0.00    -0.354 N 
ATOM     53  N   UNL A   1      41.562  29.524  33.319  1.00  0.00    -0.248 NA
ATOM     54  C   UNL A   1      41.687  30.301  35.516  1.00  0.00     0.031 C 
ATOM     55  C   UNL A   1      44.407  26.620  31.530  1.00  0.00     0.029 A 
ATOM     56  C   UNL A   1      43.525  27.515  32.113  1.00  0.00     0.049 A 
ATOM     57  H   UNL A   1      41.787  28.391  31.298  1.00  0.00     0.167 HD
ATOM     58  C   UNL A   1      42.665  28.956  33.940  1.00  0.00     0.074 A 
ATOM     59  C   UNL A   1      42.707  29.485  35.287  1.00  0.00     0.031 C 
ATOM     60  C   UNL A   1      43.564  28.074  33.439  1.00  0.00     0.037 A 
BRANCH  47  61
ATOM     61  C   UNL A   1      42.394  26.248  27.666  1.00  0.00     0.064 A 
ATOM     62  C   UNL A   1      43.380  26.635  26.748  1.00  0.00     0.173 A 
ATOM     63  C   UNL A   1      41.821  24.974  27.521  1.00  0.00     0.173 A 
ATOM     64  F   UNL A   1      43.949  27.846  26.840  1.00  0.00    -0.203 F 
ATOM     65  C   UNL A   1      43.772  25.782  25.719  1.00  0.00     0.198 A 
ATOM     66  C   UNL A   1      42.232  24.116  26.505  1.00  0.00     0.198 A 
ATOM     67  F   UNL A   1      40.878  24.556  28.378  1.00  0.00    -0.203 F 
ATOM     68  F   UNL A   1      44.699  26.181  24.837  1.00  0.00    -0.200 F 
ATOM     69  C   UNL A   1      43.204  24.521  25.604  1.00  0.00     0.200 A 
ATOM     70  F   UNL A   1      41.691  22.894  26.403  1.00  0.00    -0.200 F 
ATOM     71  F   UNL A   1      43.594  23.697  24.622  1.00  0.00    -0.200 F 
ENDBRANCH  47  61
BRANCH  48  72
ATOM     72  C   UNL A   1      39.292  31.970  35.239  1.00  0.00     0.064 A 
ATOM     73  C   UNL A   1      38.494  31.373  36.223  1.00  0.00     0.173 A 
ATOM     74  C   UNL A   1      39.592  33.334  35.381  1.00  0.00     0.173 A 
ATOM     75  F   UNL A   1      38.158  30.078  36.117  1.00  0.00    -0.203 F 
ATOM     76  C   UNL A   1      38.000  32.113  37.296  1.00  0.00     0.198 A 
ATOM     77  C   UNL A   1      39.121  34.066  36.468  1.00  0.00     0.198 A 
ATOM     78  F   UNL A   1      40.349  33.954  34.463  1.00  0.00    -0.203 F 
ATOM     79  F   UNL A   1      37.201  31.527  38.199  1.00  0.00    -0.200 F 
ATOM     80  C   UNL A   1      38.319  33.456  37.421  1.00  0.00     0.200 A 
ATOM     81  F   UNL A   1      39.439  35.361  36.589  1.00  0.00    -0.200 F 
ATOM     82  F   UNL A   1      37.844  34.166  38.453  1.00  0.00    -0.200 F 
ENDBRANCH  48  72
BRANCH  60  83
ATOM     83  C   UNL A   1      44.701  27.664  34.325  1.00  0.00     0.064 A 
ATOM     84  C   UNL A   1      45.863  28.439  34.434  1.00  0.00     0.173 A 
ATOM     85  C   UNL A   1      44.589  26.521  35.130  1.00  0.00     0.173 A 
ATOM     86  F   UNL A   1      46.019  29.534  33.674  1.00  0.00    -0.203 F 
ATOM     87  C   UNL A   1      46.880  28.079  35.314  1.00  0.00     0.198 A 
ATOM     88  C   UNL A   1      45.597  26.176  36.025  1.00  0.00     0.198 A 
ATOM     89  F   UNL A   1      43.493  25.752  35.064  1.00  0.00    -0.203 F 
ATOM     90  F   UNL A   1      47.995  28.818  35.385  1.00  0.00    -0.200 F 
ATOM     91  C   UNL A   1      46.743  26.953  36.115  1.00  0.00     0.200 A 
ATOM     92  F   UNL A   1      45.458  25.095  36.806  1.00  0.00    -0.200 F 
ATOM     93  F   UNL A   1      47.716  26.616  36.972  1.00  0.00    -0.200 F 
ENDBRANCH  60  83
ENDBRANCH  34  35
ENDBRANCH  27  29
ENDBRANCH  26  27
ENDBRANCH  25  26
ENDBRANCH   1  25
TORSDOF 15
ENDMDL
MODEL 2
REMARK VINA RESULT:     -11.8      3.545      8.379
REMARK SMILES C[C@H]1C[N@H+]2CCCC[C@@H]2CN1C(=O)[C@H]([NH3+])CC(=O)OCCOC(=O)c1ccc(-c2c3nc(c(-c4c(F)c(F)c(F)c(F)c4F)c4ccc([nH]4)c(-c4c(F)c(F)c(F)c(F)c4F)c4nc(c(-c5c(F)c(F)c(F)c(F)c5F)c5ccc2[nH]5)C=C4)C=C3)cc1
REMARK SMILES IDX 20 1 19 2 17 3 18 4 16 5 14 6 12 7 13 8 11 9 1 10 2 11 3 12
REMARK SMILES IDX 4 13 10 14 5 15 9 16 6 18 8 19 7 20 15 21 21 25 22 26 23 27
REMARK SMILES IDX 24 28 25 29 26 30 87 31 27 32 86 33 28 34 29 35 30 36 80 37
REMARK SMILES IDX 31 38 85 39 79 40 81 41 32 42 84 43 78 44 77 45 33 47 65 48
REMARK SMILES IDX 45 49 64 50 46 51 49 52 63 53 82 54 47 55 48 56 62 58 83 59
REMARK SMILES IDX 50 60 34 61 35 62 43 63 36 64 37 65 41 66 44 67 38 68 39 69
REMARK SMILES IDX 42 70 40 71 66 72 67 73 75 74 68 75 69 76 73 77 76 78 70 79
REMARK SMILES IDX 71 80 74 81 72 82 51 83 52 84 60 85 53 86 54 87 58 88 61 89
REMARK SMILES IDX 55 90 56 91 59 92 57 93
REMARK H PARENT 4 17 15 22 15 23 15 24 81 46 49 57
REMARK Flexibility Score: inf
ROOT
ATOM      1  C   UNL A   1      42.723  20.683  26.480  1.00  0.00     0.274 C 
ENDROOT
BRANCH   1   2
ATOM      2  O   UNL A   1      41.397  20.255  26.117  1.00  0.00    -0.462 OA
BRANCH   2   3
ATOM      3  C   UNL A   1      40.372  21.027  26.569  1.00  0.00     0.312 C 
ATOM      4  O   UNL A   1      40.318  21.546  27.677  1.00  0.00    -0.252 OA
BRANCH   3   5
ATOM      5  C   UNL A   1      39.239  21.077  25.584  1.00  0.00     0.198 C 
BRANCH   5   6
ATOM      6  C   UNL A   1      38.218  22.193  25.829  1.00  0.00     0.282 C 
BRANCH   6   7
ATOM      7  C   UNL A   1      36.945  21.972  24.967  1.00  0.00     0.282 C 
ATOM      8  O   UNL A   1      36.840  22.640  23.932  1.00  0.00    -0.268 OA
BRANCH   7   9
ATOM      9  N   UNL A   1      35.958  21.084  25.388  1.00  0.00    -0.323 N 
ATOM     10  C   UNL A   1      34.552  22.966  26.463  1.00  0.00     0.037 C 
ATOM     11  C   UNL A   1      34.840  21.469  26.297  1.00  0.00     0.137 C 
ATOM     12  C   UNL A   1      33.498  20.787  25.853  1.00  0.00     0.287 C 
ATOM     13  N   UNL A   1      33.593  19.342  25.533  1.00  0.00    -0.329 N 
ATOM     14  C   UNL A   1      36.000  19.639  25.154  1.00  0.00     0.185 C 
ATOM     15  C   UNL A   1      32.311  18.848  25.008  1.00  0.00     0.262 C 
ATOM     16  C   UNL A   1      34.681  19.130  24.558  1.00  0.00     0.203 C 
ATOM     17  H   UNL A   1      33.804  18.817  26.382  1.00  0.00     0.348 HD
ATOM     18  C   UNL A   1      32.387  17.367  24.627  1.00  0.00     0.062 C 
ATOM     19  C   UNL A   1      34.826  17.649  24.186  1.00  0.00     0.067 C 
ATOM     20  C   UNL A   1      33.517  17.100  23.640  1.00  0.00     0.012 C 
ENDBRANCH   7   9
ENDBRANCH   6   7
BRANCH   6  21
ATOM     21  N   UNL A   1      38.683  23.593  25.751  1.00  0.00    -0.347 N 
ATOM     22  H   UNL A   1      37.884  24.209  25.604  1.00  0.00     0.345 HD
ATOM     23  H   UNL A   1      39.336  23.692  24.973  1.00  0.00     0.345 HD
ATOM     24  H   UNL A   1      39.151  23.844  26.622  1.00  0.00     0.345 HD
ENDBRANCH   6  21
ENDBRANCH   5   6
ENDBRANCH   3   5
ENDBRANCH   2   3
ENDBRANCH   1   2
BRANCH   1  25
ATOM     25  C   UNL A   1      43.383  21.498  25.365  1.00  0.00     0.275 C 
BRANCH  25  26
ATOM     26  O   UNL A   1      42.668  22.719  25.107  1.00  0.00    -0.458 OA
BRANCH  26  27
ATOM     27  C   UNL A   1      43.437  23.832  25.040  1.00  0.00     0.338 C 
ATOM     28  O   UNL A   1      44.337  24.055  24.251  1.00  0.00    -0.246 OA
BRANCH  27  29
ATOM     29  C   UNL A   1      42.960  24.819  26.020  1.00  0.00     0.060 A 
ATOM     30  C   UNL A   1      43.448  26.129  25.959  1.00  0.00     0.016 A 
ATOM     31  C   UNL A   1      42.092  24.428  27.039  1.00  0.00     0.016 A 
ATOM     32  C   UNL A   1      43.062  27.062  26.920  1.00  0.00     0.010 A 
ATOM     33  C   UNL A   1      41.710  25.362  28.003  1.00  0.00     0.010 A 
ATOM     34  C   UNL A   1      42.198  26.681  27.954  1.00  0.00    -0.014 A 
BRANCH  34  35
ATOM     35  C   UNL A   1      41.826  27.632  29.025  1.00  0.00     0.031 A 
ATOM     36  C   UNL A   1      42.583  27.615  30.319  1.00  0.00     0.074 A 
ATOM     37  C   UNL A   1      40.779  28.459  28.859  1.00  0.00     0.049 A 
ATOM     38  N   UNL A   1      42.297  28.198  31.455  1.00  0.00    -0.248 NA
ATOM     39  C   UNL A   1      43.824  26.825  30.341  1.00  0.00     0.031 C 
ATOM     40  C   UNL A   1      39.996  28.593  27.630  1.00  0.00     0.029 A 
ATOM     41  N   UNL A   1      40.173  29.319  29.741  1.00  0.00    -0.354 N 
ATOM     42  C   UNL A   1      43.301  27.820  32.335  1.00  0.00     0.074 A 
ATOM     43  C   UNL A   1      44.206  26.958  31.604  1.00  0.00     0.031 C 
ATOM     44  C   UNL A   1      38.992  29.459  27.847  1.00  0.00     0.029 A 
ATOM     45  C   UNL A   1      39.034  29.898  29.239  1.00  0.00     0.049 A 
ATOM     46  H   UNL A   1      40.521  29.502  30.643  1.00  0.00     0.167 HD
ATOM     47  C   UNL A   1      43.447  28.162  33.636  1.00  0.00     0.037 A 
ATOM     48  C   UNL A   1      38.103  30.657  29.850  1.00  0.00     0.037 A 
ATOM     49  C   UNL A   1      42.556  29.043  34.345  1.00  0.00     0.049 A 
ATOM     50  C   UNL A   1      38.266  30.988  31.310  1.00  0.00     0.074 A 
ATOM     51  C   UNL A   1      42.637  29.476  35.658  1.00  0.00     0.029 A 
ATOM     52  N   UNL A   1      41.424  29.627  33.798  1.00  0.00    -0.354 N 
ATOM     53  N   UNL A   1      39.217  30.632  32.138  1.00  0.00    -0.248 NA
ATOM     54  C   UNL A   1      37.222  31.824  31.924  1.00  0.00     0.031 C 
ATOM     55  C   UNL A   1      41.531  30.292  35.915  1.00  0.00     0.029 A 
ATOM     56  C   UNL A   1      40.787  30.401  34.751  1.00  0.00     0.049 A 
ATOM     57  H   UNL A   1      41.120  29.508  32.869  1.00  0.00     0.167 HD
ATOM     58  C   UNL A   1      38.906  31.219  33.356  1.00  0.00     0.074 A 
ATOM     59  C   UNL A   1      37.677  31.960  33.162  1.00  0.00     0.031 C 
ATOM     60  C   UNL A   1      39.578  31.152  34.530  1.00  0.00     0.037 A 
BRANCH  47  61
ATOM     61  C   UNL A   1      44.590  27.563  34.395  1.00  0.00     0.064 A 
ATOM     62  C   UNL A   1      45.819  28.226  34.524  1.00  0.00     0.173 A 
ATOM     63  C   UNL A   1      44.430  26.336  35.058  1.00  0.00     0.173 A 
ATOM     64  F   UNL A   1      46.023  29.396  33.902  1.00  0.00    -0.203 F 
ATOM     65  C   UNL A   1      46.850  27.677  35.284  1.00  0.00     0.198 A 
ATOM     66  C   UNL A   1      45.455  25.802  35.834  1.00  0.00     0.198 A 
ATOM     67  F   UNL A   1      43.271  25.666  34.968  1.00  0.00    -0.203 F 
ATOM     68  F   UNL A   1      48.025  28.315  35.376  1.00  0.00    -0.200 F 
ATOM     69  C   UNL A   1      46.664  26.471  35.944  1.00  0.00     0.200 A 
ATOM     70  F   UNL A   1      45.268  24.643  36.481  1.00  0.00    -0.200 F 
ATOM     71  F   UNL A   1      47.651  25.953  36.686  1.00  0.00    -0.200 F 
ENDBRANCH  47  61
BRANCH  48  72
ATOM     72  C   UNL A   1      36.912  31.121  29.094  1.00  0.00     0.064 A 
ATOM     73  C   UNL A   1      36.788  32.455  28.686  1.00  0.00     0.173 A 
ATOM     74  C   UNL A   1      35.867  30.240  28.773  1.00  0.00     0.173 A 
ATOM     75  F   UNL A   1      37.749  33.340  28.993  1.00  0.00    -0.203 F 
ATOM     76  C   UNL A   1      35.657  32.896  28.001  1.00  0.00     0.198 A 
ATOM     77  C   UNL A   1      34.751  30.675  28.064  1.00  0.00     0.198 A 
ATOM     78  F   UNL A   1      35.936  28.953  29.144  1.00  0.00    -0.203 F 
ATOM     79  F   UNL A   1      35.543  34.188  27.664  1.00  0.00    -0.200 F 
ATOM     80  C   UNL A   1      34.643  32.006  27.686  1.00  0.00     0.200 A 
ATOM     81  F   UNL A   1      33.777  29.810  27.754  1.00  0.00    -0.200 F 
ATOM     82  F   UNL A   1      33.556  32.430  27.027  1.00  0.00    -0.200 F 
ENDBRANCH  48  72
BRANCH  60  83
ATOM     83  C   UNL A   1      39.036  31.939  35.685  1.00  0.00     0.064 A 
ATOM     84  C   UNL A   1      38.207  31.351  36.649  1.00  0.00     0.173 A 
ATOM     85  C   UNL A   1      39.417  33.276  35.867  1.00  0.00     0.173 A 
ATOM     86  F   UNL A   1      37.806  30.078  36.510  1.00  0.00    -0.203 F 
ATOM     87  C   UNL A   1      37.769  32.079  37.752  1.00  0.00     0.198 A 
ATOM     88  C   UNL A   1      38.996  33.994  36.982  1.00  0.00     0.198 A 
ATOM     89  F   UNL A   1      40.215  33.880  34.974  1.00  0.00    -0.203 F 
ATOM     90  F   UNL A   1      36.955  31.507  38.650  1.00  0.00    -0.200 F 
ATOM     91  C   UNL A   1      38.171  33.396  37.923  1.00  0.00     0.200 A 
ATOM     92  F   UNL A   1      39.394  35.264  37.151  1.00  0.00    -0.200 F 
ATOM     93  F   UNL A   1      37.760  34.090  38.993  1.00  0.00    -0.200 F 
ENDBRANCH  60  83
ENDBRANCH  34  35
ENDBRANCH  27  29
ENDBRANCH  26  27
ENDBRANCH  25  26
ENDBRANCH   1  25
TORSDOF 15
ENDMDL
MODEL 3
REMARK VINA RESULT:     -11.7      1.106      1.979
REMARK SMILES C[C@H]1C[N@H+]2CCCC[C@@H]2CN1C(=O)[C@H]([NH3+])CC(=O)OCCOC(=O)c1ccc(-c2c3nc(c(-c4c(F)c(F)c(F)c(F)c4F)c4ccc([nH]4)c(-c4c(F)c(F)c(F)c(F)c4F)c4nc(c(-c5c(F)c(F)c(F)c(F)c5F)c5ccc2[nH]5)C=C4)C=C3)cc1
REMARK SMILES IDX 20 1 19 2 17 3 18 4 16 5 14 6 12 7 13 8 11 9 1 10 2 11 3 12
REMARK SMILES IDX 4 13 10 14 5 15 9 16 6 18 8 19 7 20 15 21 21 25 22 26 23 27
REMARK SMILES IDX 24 28 25 29 26 30 87 31 27 32 86 33 28 34 29 35 30 36 80 37
REMARK SMILES IDX 31 38 85 39 79 40 81 41 32 42 84 43 78 44 77 45 33 47 65 48
REMARK SMILES IDX 45 49 64 50 46 51 49 52 63 53 82 54 47 55 48 56 62 58 83 59
REMARK SMILES IDX 50 60 34 61 35 62 43 63 36 64 37 65 41 66 44 67 38 68 39 69
REMARK SMILES IDX 42 70 40 71 66 72 67 73 75 74 68 75 69 76 73 77 76 78 70 79
REMARK SMILES IDX 71 80 74 81 72 82 51 83 52 84 60 85 53 86 54 87 58 88 61 89
REMARK SMILES IDX 55 90 56 91 59 92 57 93
REMARK H PARENT 4 17 15 22 15 23 15 24 81 46 49 57
REMARK Flexibility Score: inf
ROOT
ATOM      1  C   UNL A   1      32.761  29.307  24.664  1.00  0.00     0.274 C 
ENDROOT
BRANCH   1   2
ATOM      2  O   UNL A   1      31.970  28.867  23.543  1.00  0.00    -0.462 OA
BRANCH   2   3
ATOM      3  C   UNL A   1      31.658  27.543  23.511  1.00  0.00     0.312 C 
ATOM      4  O   UNL A   1      32.362  26.666  23.027  1.00  0.00    -0.252 OA
BRANCH   3   5
ATOM      5  C   UNL A   1      30.276  27.286  24.040  1.00  0.00     0.198 C 
BRANCH   5   6
ATOM      6  C   UNL A   1      30.074  25.909  24.680  1.00  0.00     0.282 C 
BRANCH   6   7
ATOM      7  C   UNL A   1      30.876  25.795  26.005  1.00  0.00     0.282 C 
ATOM      8  O   UNL A   1      30.651  26.642  26.878  1.00  0.00    -0.268 OA
BRANCH   7   9
ATOM      9  N   UNL A   1      31.834  24.796  26.161  1.00  0.00    -0.323 N 
ATOM     10  C   UNL A   1      30.083  23.075  26.964  1.00  0.00     0.037 C 
ATOM     11  C   UNL A   1      31.553  23.484  26.811  1.00  0.00     0.137 C 
ATOM     12  C   UNL A   1      32.279  22.317  26.052  1.00  0.00     0.287 C 
ATOM     13  N   UNL A   1      33.700  22.569  25.708  1.00  0.00    -0.329 N 
ATOM     14  C   UNL A   1      33.261  24.977  25.888  1.00  0.00     0.185 C 
ATOM     15  C   UNL A   1      34.231  21.467  24.891  1.00  0.00     0.262 C 
ATOM     16  C   UNL A   1      33.806  23.856  24.994  1.00  0.00     0.203 C 
ATOM     17  H   UNL A   1      34.256  22.618  26.561  1.00  0.00     0.348 HD
ATOM     18  C   UNL A   1      35.685  21.716  24.481  1.00  0.00     0.062 C 
ATOM     19  C   UNL A   1      35.258  24.170  24.608  1.00  0.00     0.067 C 
ATOM     20  C   UNL A   1      35.844  23.050  23.762  1.00  0.00     0.012 C 
ENDBRANCH   7   9
ENDBRANCH   6   7
BRANCH   6  21
ATOM     21  N   UNL A   1      30.262  24.712  23.835  1.00  0.00    -0.347 N 
ATOM     22  H   UNL A   1      29.361  24.412  23.464  1.00  0.00     0.345 HD
ATOM     23  H   UNL A   1      30.667  23.961  24.395  1.00  0.00     0.345 HD
ATOM     24  H   UNL A   1      30.890  24.936  23.063  1.00  0.00     0.345 HD
ENDBRANCH   6  21
ENDBRANCH   5   6
ENDBRANCH   3   5
ENDBRANCH   2   3
ENDBRANCH   1   2
BRANCH   1  25
ATOM     25  C   UNL A   1      31.922  30.085  25.681  1.00  0.00     0.275 C 
BRANCH  25  26
ATOM     26  O   UNL A   1      32.584  30.175  26.955  1.00  0.00    -0.458 OA
BRANCH  26  27
ATOM     27  C   UNL A   1      33.203  31.355  27.198  1.00  0.00     0.338 C 
ATOM     28  O   UNL A   1      32.743  32.471  27.040  1.00  0.00    -0.246 OA
BRANCH  27  29
ATOM     29  C   UNL A   1      34.521  31.103  27.798  1.00  0.00     0.060 A 
ATOM     30  C   UNL A   1      34.826  29.817  28.257  1.00  0.00     0.016 A 
ATOM     31  C   UNL A   1      35.421  32.154  27.972  1.00  0.00     0.016 A 
ATOM     32  C   UNL A   1      36.043  29.574  28.891  1.00  0.00     0.010 A 
ATOM     33  C   UNL A   1      36.638  31.909  28.611  1.00  0.00     0.010 A 
ATOM     34  C   UNL A   1      36.953  30.621  29.081  1.00  0.00    -0.014 A 
BRANCH  34  35
ATOM     35  C   UNL A   1      38.222  30.405  29.811  1.00  0.00     0.031 A 
ATOM     36  C   UNL A   1      39.270  29.513  29.216  1.00  0.00     0.074 A 
ATOM     37  C   UNL A   1      38.405  30.958  31.022  1.00  0.00     0.049 A 
ATOM     38  N   UNL A   1      40.347  29.018  29.768  1.00  0.00    -0.248 NA
ATOM     39  C   UNL A   1      39.070  29.113  27.814  1.00  0.00     0.031 C 
ATOM     40  C   UNL A   1      37.476  31.876  31.681  1.00  0.00     0.029 A 
ATOM     41  N   UNL A   1      39.423  30.799  31.930  1.00  0.00    -0.354 N 
ATOM     42  C   UNL A   1      40.937  28.224  28.794  1.00  0.00     0.074 A 
ATOM     43  C   UNL A   1      40.099  28.302  27.616  1.00  0.00     0.031 C 
ATOM     44  C   UNL A   1      37.950  32.173  32.902  1.00  0.00     0.029 A 
ATOM     45  C   UNL A   1      39.187  31.429  33.127  1.00  0.00     0.049 A 
ATOM     46  H   UNL A   1      40.241  30.285  31.741  1.00  0.00     0.167 HD
ATOM     47  C   UNL A   1      42.074  27.494  28.884  1.00  0.00     0.037 A 
ATOM     48  C   UNL A   1      39.866  31.370  34.289  1.00  0.00     0.037 A 
ATOM     49  C   UNL A   1      42.914  27.446  30.051  1.00  0.00     0.049 A 
ATOM     50  C   UNL A   1      41.104  30.516  34.376  1.00  0.00     0.074 A 
ATOM     51  C   UNL A   1      44.103  26.761  30.230  1.00  0.00     0.029 A 
ATOM     52  N   UNL A   1      42.652  28.114  31.238  1.00  0.00    -0.354 N 
ATOM     53  N   UNL A   1      41.659  29.769  33.454  1.00  0.00    -0.248 NA
ATOM     54  C   UNL A   1      41.807  30.493  35.667  1.00  0.00     0.031 C 
ATOM     55  C   UNL A   1      44.542  26.983  31.538  1.00  0.00     0.029 A 
ATOM     56  C   UNL A   1      43.648  27.841  32.160  1.00  0.00     0.049 A 
ATOM     57  H   UNL A   1      41.874  28.694  31.400  1.00  0.00     0.167 HD
ATOM     58  C   UNL A   1      42.788  29.213  34.040  1.00  0.00     0.074 A 
ATOM     59  C   UNL A   1      42.842  29.709  35.399  1.00  0.00     0.031 C 
ATOM     60  C   UNL A   1      43.698  28.367  33.500  1.00  0.00     0.037 A 
BRANCH  47  61
ATOM     61  C   UNL A   1      42.466  26.660  27.704  1.00  0.00     0.064 A 
ATOM     62  C   UNL A   1      43.391  27.114  26.754  1.00  0.00     0.173 A 
ATOM     63  C   UNL A   1      41.958  25.359  27.560  1.00  0.00     0.173 A 
ATOM     64  F   UNL A   1      43.897  28.353  26.843  1.00  0.00    -0.203 F 
ATOM     65  C   UNL A   1      43.787  26.299  25.695  1.00  0.00     0.198 A 
ATOM     66  C   UNL A   1      42.373  24.540  26.514  1.00  0.00     0.198 A 
ATOM     67  F   UNL A   1      41.074  24.877  28.446  1.00  0.00    -0.203 F 
ATOM     68  F   UNL A   1      44.654  26.761  24.784  1.00  0.00    -0.200 F 
ATOM     69  C   UNL A   1      43.284  25.011  25.582  1.00  0.00     0.200 A 
ATOM     70  F   UNL A   1      41.895  23.292  26.413  1.00  0.00    -0.200 F 
ATOM     71  F   UNL A   1      43.678  24.224  24.572  1.00  0.00    -0.200 F 
ENDBRANCH  47  61
BRANCH  48  72
ATOM     72  C   UNL A   1      39.367  32.108  35.477  1.00  0.00     0.064 A 
ATOM     73  C   UNL A   1      39.765  33.426  35.731  1.00  0.00     0.173 A 
ATOM     74  C   UNL A   1      38.488  31.504  36.391  1.00  0.00     0.173 A 
ATOM     75  F   UNL A   1      40.625  34.036  34.901  1.00  0.00    -0.203 F 
ATOM     76  C   UNL A   1      39.319  34.108  36.861  1.00  0.00     0.198 A 
ATOM     77  C   UNL A   1      38.021  32.196  37.505  1.00  0.00     0.198 A 
ATOM     78  F   UNL A   1      38.079  30.241  36.196  1.00  0.00    -0.203 F 
ATOM     79  F   UNL A   1      39.753  35.352  37.104  1.00  0.00    -0.200 F 
ATOM     80  C   UNL A   1      38.443  33.495  37.744  1.00  0.00     0.200 A 
ATOM     81  F   UNL A   1      37.168  31.602  38.350  1.00  0.00    -0.200 F 
ATOM     82  F   UNL A   1      38.014  34.152  38.830  1.00  0.00    -0.200 F 
ENDBRANCH  48  72
BRANCH  60  83
ATOM     83  C   UNL A   1      44.861  27.963  34.354  1.00  0.00     0.064 A 
ATOM     84  C   UNL A   1      46.027  28.738  34.422  1.00  0.00     0.173 A 
ATOM     85  C   UNL A   1      44.774  26.826  35.170  1.00  0.00     0.173 A 
ATOM     86  F   UNL A   1      46.161  29.827  33.650  1.00  0.00    -0.203 F 
ATOM     87  C   UNL A   1      47.069  28.384  35.274  1.00  0.00     0.198 A 
ATOM     88  C   UNL A   1      45.808  26.487  36.037  1.00  0.00     0.198 A 
ATOM     89  F   UNL A   1      43.676  26.057  35.144  1.00  0.00    -0.203 F 
ATOM     90  F   UNL A   1      48.186  29.122  35.306  1.00  0.00    -0.200 F 
ATOM     91  C   UNL A   1      46.956  27.264  36.087  1.00  0.00     0.200 A 
ATOM     92  F   UNL A   1      45.693  25.412  36.830  1.00  0.00    -0.200 F 
ATOM     93  F   UNL A   1      47.955  26.933  36.916  1.00  0.00    -0.200 F 
ENDBRANCH  60  83
ENDBRANCH  34  35
ENDBRANCH  27  29
ENDBRANCH  26  27
ENDBRANCH  25  26
ENDBRANCH   1  25
TORSDOF 15
ENDMDL
