MODEL 1
REMARK VINA RESULT:     -14.1      0.000      0.000
REMARK SMILES O=C(OCCOC(=O)[C@]12CCC[NH2+][C@@H]1CCN(C(=O)Cc1c(F)cccc1Cl)C2)c1ccc(-c2c3nc(c(-c4c(F)c(F)c(F)c(F)c4F)c4ccc([nH]4)c(-c4c(F)c(F)c(F)c(F)c4F)c4nc(c(-c5c(F)c(F)c(F)c(F)c5F)c5ccc2[nH]5)C=C4)C=C3)cc1
REMARK SMILES IDX 5 1 4 2 3 3 2 4 1 5 30 6 31 7 92 8 32 9 91 10 33 11 34 12
REMARK SMILES IDX 35 13 85 14 36 15 90 16 84 17 86 18 37 19 89 20 83 21 82 22
REMARK SMILES IDX 38 24 70 25 50 26 69 27 51 28 54 29 68 30 87 31 52 32 53 33
REMARK SMILES IDX 67 35 88 36 55 37 39 38 40 39 48 40 41 41 42 42 46 43 49 44
REMARK SMILES IDX 43 45 44 46 47 47 45 48 71 49 72 50 80 51 73 52 74 53 78 54
REMARK SMILES IDX 81 55 75 56 76 57 79 58 77 59 56 60 57 61 65 62 58 63 59 64
REMARK SMILES IDX 63 65 66 66 60 67 61 68 64 69 62 70 6 71 7 72 8 73 9 74
REMARK SMILES IDX 10 75 14 76 29 77 11 78 13 79 15 80 17 81 12 82 16 85 18 86
REMARK SMILES IDX 19 87 20 88 21 89 22 90 27 91 23 92 24 93 26 94 28 95 25 96
REMARK H PARENT 86 23 54 34 13 83 13 84
REMARK Flexibility Score: inf
ROOT
ATOM      1  C   UNL A   1      45.543  21.634  40.315  1.00  0.00     0.274 C 
ENDROOT
BRANCH   1   2
ATOM      2  C   UNL A   1      46.425  22.387  39.308  1.00  0.00     0.275 C 
BRANCH   2   3
ATOM      3  O   UNL A   1      45.658  23.031  38.301  1.00  0.00    -0.458 OA
BRANCH   3   4
ATOM      4  C   UNL A   1      45.772  24.365  38.113  1.00  0.00     0.338 C 
ATOM      5  O   UNL A   1      46.107  25.138  38.994  1.00  0.00    -0.246 OA
BRANCH   4   6
ATOM      6  C   UNL A   1      45.391  24.837  36.759  1.00  0.00     0.060 A 
ATOM      7  C   UNL A   1      43.905  24.361  36.205  1.00  0.00     0.016 A 
ATOM      8  C   UNL A   1      45.954  26.218  36.061  1.00  0.00     0.016 A 
ATOM      9  C   UNL A   1      42.741  25.439  35.096  1.00  0.00     0.010 A 
ATOM     10  C   UNL A   1      45.056  27.250  34.886  1.00  0.00     0.010 A 
ATOM     11  C   UNL A   1      43.370  26.982  34.494  1.00  0.00    -0.014 A 
BRANCH  11  12
ATOM     12  C   UNL A   1      42.629  28.007  33.708  1.00  0.00     0.031 A 
ATOM     13  C   UNL A   1      42.498  27.970  32.214  1.00  0.00     0.074 A 
ATOM     14  C   UNL A   1      42.008  29.040  34.285  1.00  0.00     0.049 A 
ATOM     15  N   UNL A   1      41.432  27.844  31.472  1.00  0.00    -0.248 NA
ATOM     16  C   UNL A   1      43.735  28.147  31.439  1.00  0.00     0.031 C 
ATOM     17  C   UNL A   1      42.238  29.549  35.615  1.00  0.00     0.029 A 
ATOM     18  N   UNL A   1      40.932  29.754  33.844  1.00  0.00    -0.354 N 
ATOM     19  C   UNL A   1      41.905  27.664  30.177  1.00  0.00     0.074 A 
ATOM     20  C   UNL A   1      43.342  27.804  30.213  1.00  0.00     0.031 C 
ATOM     21  C   UNL A   1      41.167  30.226  36.025  1.00  0.00     0.029 A 
ATOM     22  C   UNL A   1      40.312  30.425  34.868  1.00  0.00     0.049 A 
ATOM     23  H   UNL A   1      40.636  29.783  32.905  1.00  0.00     0.167 HD
ATOM     24  C   UNL A   1      41.197  27.574  29.028  1.00  0.00     0.037 A 
ATOM     25  C   UNL A   1      39.208  31.183  34.845  1.00  0.00     0.037 A 
ATOM     26  C   UNL A   1      40.009  28.367  28.861  1.00  0.00     0.049 A 
ATOM     27  C   UNL A   1      38.525  31.319  33.521  1.00  0.00     0.074 A 
ATOM     28  C   UNL A   1      39.327  28.690  27.704  1.00  0.00     0.029 A 
ATOM     29  N   UNL A   1      39.465  29.142  29.882  1.00  0.00    -0.354 N 
ATOM     30  N   UNL A   1      38.775  30.698  32.390  1.00  0.00    -0.248 NA
ATOM     31  C   UNL A   1      37.440  32.295  33.453  1.00  0.00     0.031 C 
ATOM     32  C   UNL A   1      38.483  29.771  28.001  1.00  0.00     0.029 A 
ATOM     33  C   UNL A   1      38.535  30.021  29.366  1.00  0.00     0.049 A 
ATOM     34  H   UNL A   1      39.708  29.072  30.833  1.00  0.00     0.167 HD
ATOM     35  C   UNL A   1      37.889  31.223  31.465  1.00  0.00     0.074 A 
ATOM     36  C   UNL A   1      37.062  32.171  32.191  1.00  0.00     0.031 C 
ATOM     37  C   UNL A   1      37.770  30.971  30.137  1.00  0.00     0.037 A 
BRANCH  24  38
ATOM     38  C   UNL A   1      41.807  26.842  27.868  1.00  0.00     0.064 A 
ATOM     39  C   UNL A   1      42.588  27.551  26.937  1.00  0.00     0.173 A 
ATOM     40  C   UNL A   1      41.684  25.460  27.681  1.00  0.00     0.173 A 
ATOM     41  F   UNL A   1      42.773  28.874  27.078  1.00  0.00    -0.203 F 
ATOM     42  C   UNL A   1      43.195  26.910  25.855  1.00  0.00     0.198 A 
ATOM     43  C   UNL A   1      42.300  24.818  26.604  1.00  0.00     0.198 A 
ATOM     44  F   UNL A   1      40.967  24.725  28.543  1.00  0.00    -0.203 F 
ATOM     45  F   UNL A   1      43.919  27.619  24.976  1.00  0.00    -0.200 F 
ATOM     46  C   UNL A   1      43.049  25.544  25.688  1.00  0.00     0.200 A 
ATOM     47  F   UNL A   1      42.169  23.492  26.453  1.00  0.00    -0.200 F 
ATOM     48  F   UNL A   1      43.629  24.926  24.650  1.00  0.00    -0.200 F 
ENDBRANCH  24  38
BRANCH  25  49
ATOM     49  C   UNL A   1      38.803  31.938  36.060  1.00  0.00     0.064 A 
ATOM     50  C   UNL A   1      38.010  31.365  37.058  1.00  0.00     0.173 A 
ATOM     51  C   UNL A   1      39.220  33.269  36.249  1.00  0.00     0.173 A 
ATOM     52  F   UNL A   1      37.575  30.103  36.930  1.00  0.00    -0.203 F 
ATOM     53  C   UNL A   1      37.629  32.100  38.182  1.00  0.00     0.198 A 
ATOM     54  C   UNL A   1      38.896  33.978  37.399  1.00  0.00     0.198 A 
ATOM     55  F   UNL A   1      39.985  33.877  35.328  1.00  0.00    -0.203 F 
ATOM     56  F   UNL A   1      36.809  31.553  39.088  1.00  0.00    -0.200 F 
ATOM     57  C   UNL A   1      38.082  33.400  38.356  1.00  0.00     0.200 A 
ATOM     58  F   UNL A   1      39.377  35.216  37.575  1.00  0.00    -0.200 F 
ATOM     59  F   UNL A   1      37.724  34.101  39.440  1.00  0.00    -0.200 F 
ENDBRANCH  25  49
BRANCH  37  60
ATOM     60  C   UNL A   1      36.691  31.717  29.418  1.00  0.00     0.064 A 
ATOM     61  C   UNL A   1      36.783  33.090  29.145  1.00  0.00     0.173 A 
ATOM     62  C   UNL A   1      35.541  31.031  29.001  1.00  0.00     0.173 A 
ATOM     63  F   UNL A   1      37.860  33.788  29.538  1.00  0.00    -0.203 F 
ATOM     64  C   UNL A   1      35.732  33.761  28.532  1.00  0.00     0.198 A 
ATOM     65  C   UNL A   1      34.518  31.696  28.342  1.00  0.00     0.198 A 
ATOM     66  F   UNL A   1      35.415  29.716  29.233  1.00  0.00    -0.203 F 
ATOM     67  F   UNL A   1      35.798  35.089  28.363  1.00  0.00    -0.200 F 
ATOM     68  C   UNL A   1      34.605  33.063  28.125  1.00  0.00     0.200 A 
ATOM     69  F   UNL A   1      33.441  31.015  27.929  1.00  0.00    -0.200 F 
ATOM     70  F   UNL A   1      33.592  33.712  27.534  1.00  0.00    -0.200 F 
ENDBRANCH  37  60
ENDBRANCH  11  12
ENDBRANCH   4   6
ENDBRANCH   3   4
ENDBRANCH   2   3
ENDBRANCH   1   2
BRANCH   1  71
ATOM     71  O   UNL A   1      45.540  20.155  40.493  1.00  0.00    -0.461 OA
BRANCH  71  72
ATOM     72  C   UNL A   1      45.846  19.325  41.560  1.00  0.00     0.320 C 
ATOM     73  O   UNL A   1      45.794  19.681  42.725  1.00  0.00    -0.251 OA
BRANCH  72  74
ATOM     74  C   UNL A   1      46.364  17.811  41.041  1.00  0.00     0.137 C 
ATOM     75  C   UNL A   1      47.781  17.634  41.605  1.00  0.00     0.033 C 
ATOM     76  C   UNL A   1      46.664  17.892  39.237  1.00  0.00     0.203 C 
ATOM     77  C   UNL A   1      45.100  16.509  41.655  1.00  0.00     0.144 C 
ATOM     78  C   UNL A   1      48.633  18.870  41.263  1.00  0.00     0.063 C 
ATOM     79  N   UNL A   1      47.519  19.033  38.867  1.00  0.00    -0.343 N 
ATOM     80  C   UNL A   1      45.223  17.739  38.036  1.00  0.00     0.088 C 
ATOM     81  N   UNL A   1      43.525  16.197  40.640  1.00  0.00    -0.341 N 
ATOM     82  C   UNL A   1      48.636  19.328  39.786  1.00  0.00     0.260 C 
ATOM     83  H   UNL A   1      47.916  18.840  37.946  1.00  0.00     0.346 HD
ATOM     84  H   UNL A   1      46.913  19.852  38.896  1.00  0.00     0.346 HD
ATOM     85  C   UNL A   1      43.525  16.949  38.654  1.00  0.00     0.125 C 
BRANCH  81  86
ATOM     86  C   UNL A   1      42.543  15.316  41.583  1.00  0.00     0.227 C 
ATOM     87  O   UNL A   1      41.324  15.470  41.343  1.00  0.00    -0.275 OA
BRANCH  86  88
ATOM     88  C   UNL A   1      42.866  14.378  43.078  1.00  0.00     0.140 C 
BRANCH  88  89
ATOM     89  C   UNL A   1      43.314  12.866  43.419  1.00  0.00     0.016 A 
ATOM     90  C   UNL A   1      42.630  11.774  42.855  1.00  0.00     0.128 A 
ATOM     91  C   UNL A   1      44.236  12.418  44.365  1.00  0.00     0.047 A 
ATOM     92  F   UNL A   1      41.984  11.914  41.690  1.00  0.00    -0.207 F 
ATOM     93  C   UNL A   1      42.596  10.506  43.478  1.00  0.00     0.039 A 
ATOM     94  C   UNL A   1      43.915  11.362  45.235  1.00  0.00     0.021 A 
ATOM     95  Cl  UNL A   1      45.854  13.031  44.447  1.00  0.00    -0.084 Cl
ATOM     96  C   UNL A   1      43.096  10.360  44.765  1.00  0.00     0.005 A 
ENDBRANCH  88  89
ENDBRANCH  86  88
ENDBRANCH  81  86
ENDBRANCH  72  74
ENDBRANCH  71  72
ENDBRANCH   1  71
TORSDOF 14
ENDMDL
MODEL 2
REMARK VINA RESULT:     -14.0      7.591     15.732
REMARK SMILES O=C(OCCOC(=O)[C@]12CCC[NH2+][C@@H]1CCN(C(=O)Cc1c(F)cccc1Cl)C2)c1ccc(-c2c3nc(c(-c4c(F)c(F)c(F)c(F)c4F)c4ccc([nH]4)c(-c4c(F)c(F)c(F)c(F)c4F)c4nc(c(-c5c(F)c(F)c(F)c(F)c5F)c5ccc2[nH]5)C=C4)C=C3)cc1
REMARK SMILES IDX 5 1 4 2 3 3 2 4 1 5 30 6 31 7 92 8 32 9 91 10 33 11 34 12
REMARK SMILES IDX 35 13 85 14 36 15 90 16 84 17 86 18 37 19 89 20 83 21 82 22
REMARK SMILES IDX 38 24 70 25 50 26 69 27 51 28 54 29 68 30 87 31 52 32 53 33
REMARK SMILES IDX 67 35 88 36 55 37 39 38 40 39 48 40 41 41 42 42 46 43 49 44
REMARK SMILES IDX 43 45 44 46 47 47 45 48 71 49 72 50 80 51 73 52 74 53 78 54
REMARK SMILES IDX 81 55 75 56 76 57 79 58 77 59 56 60 57 61 65 62 58 63 59 64
REMARK SMILES IDX 63 65 66 66 60 67 61 68 64 69 62 70 6 71 7 72 8 73 9 74
REMARK SMILES IDX 10 75 14 76 29 77 11 78 13 79 15 80 17 81 12 82 16 85 18 86
REMARK SMILES IDX 19 87 20 88 21 89 22 90 27 91 23 92 24 93 26 94 28 95 25 96
REMARK H PARENT 86 23 54 34 13 83 13 84
REMARK Flexibility Score: inf
ROOT
ATOM      1  C   UNL A   1      31.506  29.270  26.611  1.00  0.00     0.274 C 
ENDROOT
BRANCH   1   2
ATOM      2  C   UNL A   1      32.325  30.566  26.528  1.00  0.00     0.275 C 
BRANCH   2   3
ATOM      3  O   UNL A   1      33.075  30.803  27.711  1.00  0.00    -0.458 OA
BRANCH   3   4
ATOM      4  C   UNL A   1      33.853  31.905  27.809  1.00  0.00     0.338 C 
ATOM      5  O   UNL A   1      33.404  33.030  27.952  1.00  0.00    -0.246 OA
BRANCH   4   6
ATOM      6  C   UNL A   1      35.308  31.655  27.659  1.00  0.00     0.060 A 
ATOM      7  C   UNL A   1      36.320  32.824  28.249  1.00  0.00     0.016 A 
ATOM      8  C   UNL A   1      35.992  30.160  27.571  1.00  0.00     0.016 A 
ATOM      9  C   UNL A   1      38.035  32.486  29.079  1.00  0.00     0.010 A 
ATOM     10  C   UNL A   1      37.640  29.717  28.152  1.00  0.00     0.010 A 
ATOM     11  C   UNL A   1      38.645  30.823  29.068  1.00  0.00    -0.014 A 
BRANCH  11  12
ATOM     12  C   UNL A   1      39.884  30.317  29.720  1.00  0.00     0.031 A 
ATOM     13  C   UNL A   1      40.252  30.616  31.144  1.00  0.00     0.074 A 
ATOM     14  C   UNL A   1      40.762  29.539  29.081  1.00  0.00     0.049 A 
ATOM     15  N   UNL A   1      40.391  29.807  32.158  1.00  0.00    -0.248 NA
ATOM     16  C   UNL A   1      40.553  32.018  31.466  1.00  0.00     0.031 C 
ATOM     17  C   UNL A   1      40.886  29.373  27.654  1.00  0.00     0.029 A 
ATOM     18  N   UNL A   1      41.632  28.620  29.593  1.00  0.00    -0.354 N 
ATOM     19  C   UNL A   1      40.533  30.631  33.269  1.00  0.00     0.074 A 
ATOM     20  C   UNL A   1      40.572  31.996  32.799  1.00  0.00     0.031 C 
ATOM     21  C   UNL A   1      41.493  28.218  27.390  1.00  0.00     0.029 A 
ATOM     22  C   UNL A   1      42.044  27.723  28.640  1.00  0.00     0.049 A 
ATOM     23  H   UNL A   1      41.926  28.602  30.533  1.00  0.00     0.167 HD
ATOM     24  C   UNL A   1      40.793  30.280  34.549  1.00  0.00     0.037 A 
ATOM     25  C   UNL A   1      42.846  26.657  28.762  1.00  0.00     0.037 A 
ATOM     26  C   UNL A   1      41.671  29.173  34.818  1.00  0.00     0.049 A 
ATOM     27  C   UNL A   1      43.368  26.375  30.136  1.00  0.00     0.074 A 
ATOM     28  C   UNL A   1      42.330  28.841  35.986  1.00  0.00     0.029 A 
ATOM     29  N   UNL A   1      42.179  28.348  33.818  1.00  0.00    -0.354 N 
ATOM     30  N   UNL A   1      43.054  26.947  31.277  1.00  0.00    -0.248 NA
ATOM     31  C   UNL A   1      44.390  25.337  30.234  1.00  0.00     0.031 C 
ATOM     32  C   UNL A   1      43.342  27.929  35.654  1.00  0.00     0.029 A 
ATOM     33  C   UNL A   1      43.218  27.587  34.314  1.00  0.00     0.049 A 
ATOM     34  H   UNL A   1      41.845  28.312  32.893  1.00  0.00     0.167 HD
ATOM     35  C   UNL A   1      43.858  26.351  32.233  1.00  0.00     0.074 A 
ATOM     36  C   UNL A   1      44.628  25.334  31.537  1.00  0.00     0.031 C 
ATOM     37  C   UNL A   1      43.974  26.618  33.559  1.00  0.00     0.037 A 
BRANCH  24  38
ATOM     38  C   UNL A   1      40.359  31.207  35.647  1.00  0.00     0.064 A 
ATOM     39  C   UNL A   1      41.284  32.119  36.187  1.00  0.00     0.173 A 
ATOM     40  C   UNL A   1      39.050  31.253  36.141  1.00  0.00     0.173 A 
ATOM     41  F   UNL A   1      42.548  32.148  35.733  1.00  0.00    -0.203 F 
ATOM     42  C   UNL A   1      40.921  33.016  37.193  1.00  0.00     0.198 A 
ATOM     43  C   UNL A   1      38.685  32.158  37.141  1.00  0.00     0.198 A 
ATOM     44  F   UNL A   1      38.117  30.420  35.655  1.00  0.00    -0.203 F 
ATOM     45  F   UNL A   1      41.832  33.861  37.698  1.00  0.00    -0.200 F 
ATOM     46  C   UNL A   1      39.622  33.034  37.670  1.00  0.00     0.200 A 
ATOM     47  F   UNL A   1      37.423  32.184  37.591  1.00  0.00    -0.200 F 
ATOM     48  F   UNL A   1      39.270  33.894  38.638  1.00  0.00    -0.200 F 
ENDBRANCH  24  38
BRANCH  25  49
ATOM     49  C   UNL A   1      43.275  25.911  27.550  1.00  0.00     0.064 A 
ATOM     50  C   UNL A   1      44.367  26.317  26.777  1.00  0.00     0.173 A 
ATOM     51  C   UNL A   1      42.591  24.750  27.144  1.00  0.00     0.173 A 
ATOM     52  F   UNL A   1      45.052  27.421  27.110  1.00  0.00    -0.203 F 
ATOM     53  C   UNL A   1      44.740  25.609  25.634  1.00  0.00     0.198 A 
ATOM     54  C   UNL A   1      43.005  24.007  26.045  1.00  0.00     0.198 A 
ATOM     55  F   UNL A   1      41.536  24.304  27.845  1.00  0.00    -0.203 F 
ATOM     56  F   UNL A   1      45.743  26.059  24.870  1.00  0.00    -0.200 F 
ATOM     57  C   UNL A   1      44.067  24.449  25.277  1.00  0.00     0.200 A 
ATOM     58  F   UNL A   1      42.374  22.866  25.738  1.00  0.00    -0.200 F 
ATOM     59  F   UNL A   1      44.433  23.764  24.186  1.00  0.00    -0.200 F 
ENDBRANCH  25  49
BRANCH  37  60
ATOM     60  C   UNL A   1      44.947  25.773  34.319  1.00  0.00     0.064 A 
ATOM     61  C   UNL A   1      46.292  26.139  34.478  1.00  0.00     0.173 A 
ATOM     62  C   UNL A   1      44.513  24.570  34.893  1.00  0.00     0.173 A 
ATOM     63  F   UNL A   1      46.755  27.276  33.934  1.00  0.00    -0.203 F 
ATOM     64  C   UNL A   1      47.181  25.297  35.136  1.00  0.00     0.198 A 
ATOM     65  C   UNL A   1      45.392  23.759  35.595  1.00  0.00     0.198 A 
ATOM     66  F   UNL A   1      43.233  24.186  34.772  1.00  0.00    -0.203 F 
ATOM     67  F   UNL A   1      48.481  25.619  35.199  1.00  0.00    -0.200 F 
ATOM     68  C   UNL A   1      46.729  24.113  35.700  1.00  0.00     0.200 A 
ATOM     69  F   UNL A   1      44.948  22.628  36.158  1.00  0.00    -0.200 F 
ATOM     70  F   UNL A   1      47.587  23.303  36.333  1.00  0.00    -0.200 F 
ENDBRANCH  37  60
ENDBRANCH  11  12
ENDBRANCH   4   6
ENDBRANCH   3   4
ENDBRANCH   2   3
ENDBRANCH   1   2
BRANCH   1  71
ATOM     71  O   UNL A   1      32.035  27.915  26.287  1.00  0.00    -0.461 OA
BRANCH  71  72
ATOM     72  C   UNL A   1      33.189  27.470  25.660  1.00  0.00     0.320 C 
ATOM     73  O   UNL A   1      34.296  27.927  25.887  1.00  0.00    -0.251 OA
BRANCH  72  74
ATOM     74  C   UNL A   1      32.854  26.290  24.509  1.00  0.00     0.137 C 
ATOM     75  C   UNL A   1      33.702  26.646  23.280  1.00  0.00     0.033 C 
ATOM     76  C   UNL A   1      31.147  26.548  23.899  1.00  0.00     0.203 C 
ATOM     77  C   UNL A   1      33.254  24.581  25.279  1.00  0.00     0.144 C 
ATOM     78  C   UNL A   1      33.487  28.126  22.914  1.00  0.00     0.063 C 
ATOM     79  N   UNL A   1      30.909  27.942  23.488  1.00  0.00    -0.343 N 
ATOM     80  C   UNL A   1      29.685  25.901  24.894  1.00  0.00     0.088 C 
ATOM     81  N   UNL A   1      31.953  23.730  26.371  1.00  0.00    -0.341 N 
ATOM     82  C   UNL A   1      32.022  28.606  22.783  1.00  0.00     0.260 C 
ATOM     83  H   UNL A   1      30.098  27.950  22.867  1.00  0.00     0.346 HD
ATOM     84  H   UNL A   1      30.777  28.465  24.352  1.00  0.00     0.346 HD
ATOM     85  C   UNL A   1      29.978  24.500  26.250  1.00  0.00     0.125 C 
BRANCH  81  86
ATOM     86  C   UNL A   1      32.715  22.506  27.114  1.00  0.00     0.227 C 
ATOM     87  O   UNL A   1      32.712  22.581  28.363  1.00  0.00    -0.275 OA
BRANCH  86  88
ATOM     88  C   UNL A   1      33.788  21.219  26.475  1.00  0.00     0.140 C 
BRANCH  88  89
ATOM     89  C   UNL A   1      33.828  20.299  25.150  1.00  0.00     0.016 A 
ATOM     90  C   UNL A   1      32.764  20.324  24.231  1.00  0.00     0.128 A 
ATOM     91  C   UNL A   1      34.734  19.295  24.808  1.00  0.00     0.047 A 
ATOM     92  F   UNL A   1      31.987  21.410  24.131  1.00  0.00    -0.207 F 
ATOM     93  C   UNL A   1      32.474  19.229  23.386  1.00  0.00     0.039 A 
ATOM     94  C   UNL A   1      34.282  18.051  24.337  1.00  0.00     0.021 A 
ATOM     95  Cl  UNL A   1      36.448  19.550  24.813  1.00  0.00    -0.084 Cl
ATOM     96  C   UNL A   1      33.134  18.022  23.577  1.00  0.00     0.005 A 
ENDBRANCH  88  89
ENDBRANCH  86  88
ENDBRANCH  81  86
ENDBRANCH  72  74
ENDBRANCH  71  72
ENDBRANCH   1  71
TORSDOF 14
ENDMDL
MODEL 3
REMARK VINA RESULT:     -14.0      7.871     15.675
REMARK SMILES O=C(OCCOC(=O)[C@]12CCC[NH2+][C@@H]1CCN(C(=O)Cc1c(F)cccc1Cl)C2)c1ccc(-c2c3nc(c(-c4c(F)c(F)c(F)c(F)c4F)c4ccc([nH]4)c(-c4c(F)c(F)c(F)c(F)c4F)c4nc(c(-c5c(F)c(F)c(F)c(F)c5F)c5ccc2[nH]5)C=C4)C=C3)cc1
REMARK SMILES IDX 5 1 4 2 3 3 2 4 1 5 30 6 31 7 92 8 32 9 91 10 33 11 34 12
REMARK SMILES IDX 35 13 85 14 36 15 90 16 84 17 86 18 37 19 89 20 83 21 82 22
REMARK SMILES IDX 38 24 70 25 50 26 69 27 51 28 54 29 68 30 87 31 52 32 53 33
REMARK SMILES IDX 67 35 88 36 55 37 39 38 40 39 48 40 41 41 42 42 46 43 49 44
REMARK SMILES IDX 43 45 44 46 47 47 45 48 71 49 72 50 80 51 73 52 74 53 78 54
REMARK SMILES IDX 81 55 75 56 76 57 79 58 77 59 56 60 57 61 65 62 58 63 59 64
REMARK SMILES IDX 63 65 66 66 60 67 61 68 64 69 62 70 6 71 7 72 8 73 9 74
REMARK SMILES IDX 10 75 14 76 29 77 11 78 13 79 15 80 17 81 12 82 16 85 18 86
REMARK SMILES IDX 19 87 20 88 21 89 22 90 27 91 23 92 24 93 26 94 28 95 25 96
REMARK H PARENT 86 23 54 34 13 83 13 84
REMARK Flexibility Score: inf
ROOT
ATOM      1  C   UNL A   1      32.421  29.691  25.249  1.00  0.00     0.274 C 
ENDROOT
BRANCH   1   2
ATOM      2  C   UNL A   1      32.067  30.456  26.533  1.00  0.00     0.275 C 
BRANCH   2   3
ATOM      3  O   UNL A   1      33.101  30.382  27.504  1.00  0.00    -0.458 OA
BRANCH   3   4
ATOM      4  C   UNL A   1      33.866  31.467  27.761  1.00  0.00     0.338 C 
ATOM      5  O   UNL A   1      33.403  32.567  28.012  1.00  0.00    -0.246 OA
BRANCH   4   6
ATOM      6  C   UNL A   1      35.328  31.239  27.646  1.00  0.00     0.060 A 
ATOM      7  C   UNL A   1      36.306  32.489  28.116  1.00  0.00     0.016 A 
ATOM      8  C   UNL A   1      36.049  29.761  27.721  1.00  0.00     0.016 A 
ATOM      9  C   UNL A   1      38.022  32.283  28.988  1.00  0.00     0.010 A 
ATOM     10  C   UNL A   1      37.702  29.423  28.355  1.00  0.00     0.010 A 
ATOM     11  C   UNL A   1      38.671  30.644  29.156  1.00  0.00    -0.014 A 
BRANCH  11  12
ATOM     12  C   UNL A   1      39.917  30.241  29.865  1.00  0.00     0.031 A 
ATOM     13  C   UNL A   1      40.208  30.594  31.294  1.00  0.00     0.074 A 
ATOM     14  C   UNL A   1      40.872  29.515  29.277  1.00  0.00     0.049 A 
ATOM     15  N   UNL A   1      40.364  29.817  32.331  1.00  0.00    -0.248 NA
ATOM     16  C   UNL A   1      40.397  32.020  31.596  1.00  0.00     0.031 C 
ATOM     17  C   UNL A   1      41.063  29.329  27.860  1.00  0.00     0.029 A 
ATOM     18  N   UNL A   1      41.783  28.671  29.842  1.00  0.00    -0.354 N 
ATOM     19  C   UNL A   1      40.404  30.672  33.427  1.00  0.00     0.074 A 
ATOM     20  C   UNL A   1      40.365  32.026  32.928  1.00  0.00     0.031 C 
ATOM     21  C   UNL A   1      41.759  28.216  27.645  1.00  0.00     0.029 A 
ATOM     22  C   UNL A   1      42.294  27.786  28.925  1.00  0.00     0.049 A 
ATOM     23  H   UNL A   1      42.042  28.692  30.792  1.00  0.00     0.167 HD
ATOM     24  C   UNL A   1      40.638  30.365  34.724  1.00  0.00     0.037 A 
ATOM     25  C   UNL A   1      43.164  26.783  29.101  1.00  0.00     0.037 A 
ATOM     26  C   UNL A   1      41.582  29.330  35.051  1.00  0.00     0.049 A 
ATOM     27  C   UNL A   1      43.651  26.567  30.500  1.00  0.00     0.074 A 
ATOM     28  C   UNL A   1      42.216  29.070  36.250  1.00  0.00     0.029 A 
ATOM     29  N   UNL A   1      42.185  28.523  34.090  1.00  0.00    -0.354 N 
ATOM     30  N   UNL A   1      43.254  27.137  31.615  1.00  0.00    -0.248 NA
ATOM     31  C   UNL A   1      44.740  25.606  30.660  1.00  0.00     0.031 C 
ATOM     32  C   UNL A   1      43.302  28.225  35.977  1.00  0.00     0.029 A 
ATOM     33  C   UNL A   1      43.254  27.848  34.641  1.00  0.00     0.049 A 
ATOM     34  H   UNL A   1      41.890  28.445  33.154  1.00  0.00     0.167 HD
ATOM     35  C   UNL A   1      44.060  26.619  32.614  1.00  0.00     0.074 A 
ATOM     36  C   UNL A   1      44.926  25.646  31.970  1.00  0.00     0.031 C 
ATOM     37  C   UNL A   1      44.105  26.920  33.937  1.00  0.00     0.037 A 
BRANCH  24  38
ATOM     38  C   UNL A   1      40.098  31.281  35.783  1.00  0.00     0.064 A 
ATOM     39  C   UNL A   1      40.929  32.280  36.323  1.00  0.00     0.173 A 
ATOM     40  C   UNL A   1      38.775  31.232  36.239  1.00  0.00     0.173 A 
ATOM     41  F   UNL A   1      42.199  32.401  35.904  1.00  0.00    -0.203 F 
ATOM     42  C   UNL A   1      40.465  33.170  37.294  1.00  0.00     0.198 A 
ATOM     43  C   UNL A   1      38.308  32.130  37.203  1.00  0.00     0.198 A 
ATOM     44  F   UNL A   1      37.928  30.314  35.752  1.00  0.00    -0.203 F 
ATOM     45  F   UNL A   1      41.289  34.099  37.800  1.00  0.00    -0.200 F 
ATOM     46  C   UNL A   1      39.155  33.092  37.734  1.00  0.00     0.200 A 
ATOM     47  F   UNL A   1      37.036  32.063  37.618  1.00  0.00    -0.200 F 
ATOM     48  F   UNL A   1      38.706  33.945  38.667  1.00  0.00    -0.200 F 
ENDBRANCH  24  38
BRANCH  25  49
ATOM     49  C   UNL A   1      43.691  26.044  27.924  1.00  0.00     0.064 A 
ATOM     50  C   UNL A   1      44.610  26.618  27.040  1.00  0.00     0.173 A 
ATOM     51  C   UNL A   1      43.283  24.723  27.665  1.00  0.00     0.173 A 
ATOM     52  F   UNL A   1      45.030  27.877  27.231  1.00  0.00    -0.203 F 
ATOM     53  C   UNL A   1      45.078  25.910  25.932  1.00  0.00     0.198 A 
ATOM     54  C   UNL A   1      43.801  23.996  26.601  1.00  0.00     0.198 A 
ATOM     55  F   UNL A   1      42.404  24.113  28.477  1.00  0.00    -0.203 F 
ATOM     56  F   UNL A   1      45.901  26.506  25.060  1.00  0.00    -0.200 F 
ATOM     57  C   UNL A   1      44.682  24.597  25.721  1.00  0.00     0.200 A 
ATOM     58  F   UNL A   1      43.444  22.715  26.434  1.00  0.00    -0.200 F 
ATOM     59  F   UNL A   1      45.141  23.915  24.664  1.00  0.00    -0.200 F 
ENDBRANCH  25  49
BRANCH  37  60
ATOM     60  C   UNL A   1      45.106  26.163  34.751  1.00  0.00     0.064 A 
ATOM     61  C   UNL A   1      46.415  26.626  34.952  1.00  0.00     0.173 A 
ATOM     62  C   UNL A   1      44.734  24.944  35.337  1.00  0.00     0.173 A 
ATOM     63  F   UNL A   1      46.817  27.781  34.399  1.00  0.00    -0.203 F 
ATOM     64  C   UNL A   1      47.334  25.863  35.661  1.00  0.00     0.198 A 
ATOM     65  C   UNL A   1      45.641  24.212  36.090  1.00  0.00     0.198 A 
ATOM     66  F   UNL A   1      43.490  24.468  35.179  1.00  0.00    -0.203 F 
ATOM     67  F   UNL A   1      48.605  26.277  35.764  1.00  0.00    -0.200 F 
ATOM     68  C   UNL A   1      46.944  24.662  36.236  1.00  0.00     0.200 A 
ATOM     69  F   UNL A   1      45.256  23.065  36.662  1.00  0.00    -0.200 F 
ATOM     70  F   UNL A   1      47.832  23.927  36.919  1.00  0.00    -0.200 F 
ENDBRANCH  37  60
ENDBRANCH  11  12
ENDBRANCH   4   6
ENDBRANCH   3   4
ENDBRANCH   2   3
ENDBRANCH   1   2
BRANCH   1  71
ATOM     71  O   UNL A   1      32.644  28.220  25.178  1.00  0.00    -0.461 OA
BRANCH  71  72
ATOM     72  C   UNL A   1      31.794  27.126  25.233  1.00  0.00     0.320 C 
ATOM     73  O   UNL A   1      31.129  26.841  26.214  1.00  0.00    -0.251 OA
BRANCH  72  74
ATOM     74  C   UNL A   1      31.859  26.217  23.819  1.00  0.00     0.137 C 
ATOM     75  C   UNL A   1      31.474  27.175  22.683  1.00  0.00     0.033 C 
ATOM     76  C   UNL A   1      30.462  25.034  23.829  1.00  0.00     0.203 C 
ATOM     77  C   UNL A   1      33.622  25.480  23.669  1.00  0.00     0.144 C 
ATOM     78  C   UNL A   1      30.165  27.902  23.040  1.00  0.00     0.063 C 
ATOM     79  N   UNL A   1      29.177  25.694  24.118  1.00  0.00    -0.343 N 
ATOM     80  C   UNL A   1      30.600  23.424  24.795  1.00  0.00     0.088 C 
ATOM     81  N   UNL A   1      34.035  23.872  24.593  1.00  0.00    -0.341 N 
ATOM     82  C   UNL A   1      28.980  27.021  23.500  1.00  0.00     0.260 C 
ATOM     83  H   UNL A   1      28.430  25.082  23.787  1.00  0.00     0.346 HD
ATOM     84  H   UNL A   1      29.170  25.854  25.125  1.00  0.00     0.346 HD
ATOM     85  C   UNL A   1      32.380  22.753  25.313  1.00  0.00     0.125 C 
BRANCH  81  86
ATOM     86  C   UNL A   1      35.648  23.714  24.532  1.00  0.00     0.227 C 
ATOM     87  O   UNL A   1      36.090  23.373  23.412  1.00  0.00    -0.275 OA
BRANCH  86  88
ATOM     88  C   UNL A   1      36.882  23.672  25.833  1.00  0.00     0.140 C 
BRANCH  88  89
ATOM     89  C   UNL A   1      38.374  23.078  25.991  1.00  0.00     0.016 A 
ATOM     90  C   UNL A   1      38.668  21.766  25.578  1.00  0.00     0.128 A 
ATOM     91  C   UNL A   1      39.470  23.629  26.654  1.00  0.00     0.047 A 
ATOM     92  F   UNL A   1      37.935  21.181  24.622  1.00  0.00    -0.207 F 
ATOM     93  C   UNL A   1      39.730  21.021  26.141  1.00  0.00     0.039 A 
ATOM     94  C   UNL A   1      40.240  22.852  27.536  1.00  0.00     0.021 A 
ATOM     95  Cl  UNL A   1      40.028  25.240  26.346  1.00  0.00    -0.084 Cl
ATOM     96  C   UNL A   1      40.400  21.514  27.252  1.00  0.00     0.005 A 
ENDBRANCH  88  89
ENDBRANCH  86  88
ENDBRANCH  81  86
ENDBRANCH  72  74
ENDBRANCH  71  72
ENDBRANCH   1  71
TORSDOF 14
ENDMDL
