MODEL 1
REMARK VINA RESULT:     -11.2      0.000      0.000
REMARK SMILES O=C(CSC(=S)NC(=O)c1ccc([N+](=O)[O-])cc1)OCCOC(=O)c1ccc(-c2c3nc(c(-c4c(F)c(F)c(F)c(F)c4F)c4ccc([nH]4)c(-c4c(F)c(F)c(F)c(F)c4F)c4nc(c(-c5c(F)c(F)c(F)c(F)c5F)c5ccc2[nH]5)C=C4)C=C3)cc1
REMARK SMILES IDX 19 1 2 2 1 3 3 4 4 5 5 6 6 7 7 8 8 9 9 11 10 12 11 13 18 14
REMARK SMILES IDX 12 15 17 16 13 17 14 18 15 19 16 20 20 21 21 22 22 23 23 24
REMARK SMILES IDX 24 25 25 26 26 27 87 28 27 29 86 30 28 31 29 32 30 33 80 34
REMARK SMILES IDX 31 35 85 36 79 37 81 38 32 39 84 40 78 41 77 42 33 44 65 45
REMARK SMILES IDX 45 46 64 47 46 48 49 49 63 50 82 51 47 52 48 53 62 55 83 56
REMARK SMILES IDX 50 57 34 58 35 59 43 60 36 61 37 62 41 63 44 64 38 65 39 66
REMARK SMILES IDX 42 67 40 68 66 69 67 70 75 71 68 72 69 73 73 74 76 75 70 76
REMARK SMILES IDX 71 77 74 78 72 79 51 80 52 81 60 82 53 83 54 84 58 85 61 86
REMARK SMILES IDX 55 87 56 88 59 89 57 90
REMARK H PARENT 7 10 81 43 49 54
REMARK Flexibility Score: inf
ROOT
ATOM      1  O   UNL A   1      31.475  30.033  26.913  1.00  0.00    -0.461 OA
ENDROOT
BRANCH   1   2
ATOM      2  C   UNL A   1      32.093  28.831  27.008  1.00  0.00     0.316 C 
ATOM      3  O   UNL A   1      33.165  28.727  27.601  1.00  0.00    -0.251 OA
BRANCH   2   4
ATOM      4  C   UNL A   1      31.438  27.620  26.388  1.00  0.00     0.199 C 
BRANCH   4   5
ATOM      5  S   UNL A   1      32.517  26.915  25.114  1.00  0.00    -0.085 SA
BRANCH   5   6
ATOM      6  C   UNL A   1      31.839  27.611  23.664  1.00  0.00     0.141 C 
ATOM      7  S   UNL A   1      32.654  28.683  22.675  1.00  0.00    -0.052 S 
BRANCH   6   8
ATOM      8  N   UNL A   1      30.614  27.119  23.235  1.00  0.00    -0.307 N 
ATOM      9  C   UNL A   1      29.309  27.588  23.317  1.00  0.00     0.256 C 
ATOM     10  H   UNL A   1      30.685  26.253  22.773  1.00  0.00     0.171 HD
ATOM     11  O   UNL A   1      28.379  26.837  23.593  1.00  0.00    -0.269 OA
BRANCH   9  12
ATOM     12  C   UNL A   1      29.043  29.016  23.026  1.00  0.00     0.040 A 
ATOM     13  C   UNL A   1      29.516  29.991  23.913  1.00  0.00     0.021 A 
ATOM     14  C   UNL A   1      28.271  29.383  21.914  1.00  0.00     0.021 A 
ATOM     15  C   UNL A   1      29.261  31.343  23.663  1.00  0.00     0.086 A 
ATOM     16  C   UNL A   1      28.011  30.732  21.662  1.00  0.00     0.086 A 
ATOM     17  C   UNL A   1      28.515  31.709  22.533  1.00  0.00     0.269 A 
BRANCH  17  18
ATOM     18  N   UNL A   1      28.269  33.129  22.250  1.00  0.00     0.062 N 
ATOM     19  O   UNL A   1      28.727  33.962  23.043  1.00  0.00    -0.258 OA
ATOM     20  O   UNL A   1      27.642  33.406  21.217  1.00  0.00    -0.258 OA
ENDBRANCH  17  18
ENDBRANCH   9  12
ENDBRANCH   6   8
ENDBRANCH   5   6
ENDBRANCH   4   5
ENDBRANCH   2   4
ENDBRANCH   1   2
BRANCH   1  21
ATOM     21  C   UNL A   1      32.021  31.194  26.252  1.00  0.00     0.274 C 
BRANCH  21  22
ATOM     22  C   UNL A   1      31.774  32.467  27.066  1.00  0.00     0.275 C 
BRANCH  22  23
ATOM     23  O   UNL A   1      32.881  33.380  26.940  1.00  0.00    -0.458 OA
BRANCH  23  24
ATOM     24  C   UNL A   1      33.318  33.912  28.109  1.00  0.00     0.338 C 
ATOM     25  O   UNL A   1      32.745  34.738  28.800  1.00  0.00    -0.246 OA
BRANCH  24  26
ATOM     26  C   UNL A   1      34.551  33.226  28.534  1.00  0.00     0.060 A 
ATOM     27  C   UNL A   1      34.432  31.966  29.130  1.00  0.00     0.016 A 
ATOM     28  C   UNL A   1      35.803  33.835  28.409  1.00  0.00     0.016 A 
ATOM     29  C   UNL A   1      35.565  31.326  29.635  1.00  0.00     0.010 A 
ATOM     30  C   UNL A   1      36.938  33.191  28.919  1.00  0.00     0.010 A 
ATOM     31  C   UNL A   1      36.823  31.945  29.560  1.00  0.00    -0.014 A 
BRANCH  31  32
ATOM     32  C   UNL A   1      37.989  31.312  30.231  1.00  0.00     0.031 A 
ATOM     33  C   UNL A   1      38.314  31.662  31.658  1.00  0.00     0.074 A 
ATOM     34  C   UNL A   1      38.724  30.389  29.586  1.00  0.00     0.049 A 
ATOM     35  N   UNL A   1      39.250  31.179  32.438  1.00  0.00    -0.248 NA
ATOM     36  C   UNL A   1      37.476  32.690  32.292  1.00  0.00     0.031 C 
ATOM     37  C   UNL A   1      38.509  29.953  28.207  1.00  0.00     0.029 A 
ATOM     38  N   UNL A   1      39.800  29.648  30.009  1.00  0.00    -0.354 N 
ATOM     39  C   UNL A   1      39.099  31.827  33.659  1.00  0.00     0.074 A 
ATOM     40  C   UNL A   1      38.019  32.778  33.498  1.00  0.00     0.031 C 
ATOM     41  C   UNL A   1      39.424  29.019  27.898  1.00  0.00     0.029 A 
ATOM     42  C   UNL A   1      40.302  28.807  29.047  1.00  0.00     0.049 A 
ATOM     43  H   UNL A   1      40.176  29.713  30.917  1.00  0.00     0.167 HD
ATOM     44  C   UNL A   1      39.780  31.630  34.814  1.00  0.00     0.037 A 
ATOM     45  C   UNL A   1      41.355  27.967  29.085  1.00  0.00     0.037 A 
ATOM     46  C   UNL A   1      40.867  30.696  34.974  1.00  0.00     0.049 A 
ATOM     47  C   UNL A   1      42.139  27.818  30.364  1.00  0.00     0.074 A 
ATOM     48  C   UNL A   1      41.614  30.426  36.108  1.00  0.00     0.029 A 
ATOM     49  N   UNL A   1      41.369  29.886  33.966  1.00  0.00    -0.354 N 
ATOM     50  N   UNL A   1      41.955  28.399  31.524  1.00  0.00    -0.248 NA
ATOM     51  C   UNL A   1      43.269  26.878  30.341  1.00  0.00     0.031 C 
ATOM     52  C   UNL A   1      42.603  29.495  35.773  1.00  0.00     0.029 A 
ATOM     53  C   UNL A   1      42.432  29.134  34.447  1.00  0.00     0.049 A 
ATOM     54  H   UNL A   1      41.021  29.848  33.046  1.00  0.00     0.167 HD
ATOM     55  C   UNL A   1      42.925  27.876  32.373  1.00  0.00     0.074 A 
ATOM     56  C   UNL A   1      43.673  26.907  31.602  1.00  0.00     0.031 C 
ATOM     57  C   UNL A   1      43.176  28.174  33.672  1.00  0.00     0.037 A 
BRANCH  44  58
ATOM     58  C   UNL A   1      39.374  32.445  36.009  1.00  0.00     0.064 A 
ATOM     59  C   UNL A   1      38.450  31.960  36.948  1.00  0.00     0.173 A 
ATOM     60  C   UNL A   1      39.957  33.699  36.252  1.00  0.00     0.173 A 
ATOM     61  F   UNL A   1      37.856  30.772  36.759  1.00  0.00    -0.203 F 
ATOM     62  C   UNL A   1      38.111  32.707  38.073  1.00  0.00     0.198 A 
ATOM     63  C   UNL A   1      39.639  34.429  37.394  1.00  0.00     0.198 A 
ATOM     64  F   UNL A   1      40.851  34.207  35.391  1.00  0.00    -0.203 F 
ATOM     65  F   UNL A   1      37.197  32.241  38.934  1.00  0.00    -0.200 F 
ATOM     66  C   UNL A   1      38.712  33.936  38.300  1.00  0.00     0.200 A 
ATOM     67  F   UNL A   1      40.233  35.609  37.620  1.00  0.00    -0.200 F 
ATOM     68  F   UNL A   1      38.396  34.647  39.391  1.00  0.00    -0.200 F 
ENDBRANCH  44  58
BRANCH  45  69
ATOM     69  C   UNL A   1      41.748  27.203  27.868  1.00  0.00     0.064 A 
ATOM     70  C   UNL A   1      41.274  25.905  27.634  1.00  0.00     0.173 A 
ATOM     71  C   UNL A   1      42.651  27.743  26.939  1.00  0.00     0.173 A 
ATOM     72  F   UNL A   1      40.427  25.334  28.504  1.00  0.00    -0.203 F 
ATOM     73  C   UNL A   1      41.716  25.163  26.541  1.00  0.00     0.198 A 
ATOM     74  C   UNL A   1      43.063  27.014  25.826  1.00  0.00     0.198 A 
ATOM     75  F   UNL A   1      43.133  28.983  27.112  1.00  0.00    -0.203 F 
ATOM     76  F   UNL A   1      41.302  23.899  26.380  1.00  0.00    -0.200 F 
ATOM     77  C   UNL A   1      42.607  25.720  25.635  1.00  0.00     0.200 A 
ATOM     78  F   UNL A   1      43.911  27.563  24.946  1.00  0.00    -0.200 F 
ATOM     79  F   UNL A   1      43.035  25.004  24.587  1.00  0.00    -0.200 F 
ENDBRANCH  45  69
BRANCH  57  80
ATOM     80  C   UNL A   1      44.292  27.422  34.347  1.00  0.00     0.064 A 
ATOM     81  C   UNL A   1      45.598  27.933  34.408  1.00  0.00     0.173 A 
ATOM     82  C   UNL A   1      44.053  26.173  34.941  1.00  0.00     0.173 A 
ATOM     83  F   UNL A   1      45.887  29.118  33.847  1.00  0.00    -0.203 F 
ATOM     84  C   UNL A   1      46.630  27.201  34.991  1.00  0.00     0.198 A 
ATOM     85  C   UNL A   1      45.079  25.461  35.559  1.00  0.00     0.198 A 
ATOM     86  F   UNL A   1      42.822  25.639  34.925  1.00  0.00    -0.203 F 
ATOM     87  F   UNL A   1      47.883  27.678  34.970  1.00  0.00    -0.200 F 
ATOM     88  C   UNL A   1      46.369  25.969  35.569  1.00  0.00     0.200 A 
ATOM     89  F   UNL A   1      44.820  24.278  36.133  1.00  0.00    -0.200 F 
ATOM     90  F   UNL A   1      47.363  25.263  36.128  1.00  0.00    -0.200 F 
ENDBRANCH  57  80
ENDBRANCH  31  32
ENDBRANCH  24  26
ENDBRANCH  23  24
ENDBRANCH  22  23
ENDBRANCH  21  22
ENDBRANCH   1  21
TORSDOF 16
ENDMDL
MODEL 2
REMARK VINA RESULT:     -11.1      6.273     11.610
REMARK SMILES O=C(CSC(=S)NC(=O)c1ccc([N+](=O)[O-])cc1)OCCOC(=O)c1ccc(-c2c3nc(c(-c4c(F)c(F)c(F)c(F)c4F)c4ccc([nH]4)c(-c4c(F)c(F)c(F)c(F)c4F)c4nc(c(-c5c(F)c(F)c(F)c(F)c5F)c5ccc2[nH]5)C=C4)C=C3)cc1
REMARK SMILES IDX 19 1 2 2 1 3 3 4 4 5 5 6 6 7 7 8 8 9 9 11 10 12 11 13 18 14
REMARK SMILES IDX 12 15 17 16 13 17 14 18 15 19 16 20 20 21 21 22 22 23 23 24
REMARK SMILES IDX 24 25 25 26 26 27 87 28 27 29 86 30 28 31 29 32 30 33 80 34
REMARK SMILES IDX 31 35 85 36 79 37 81 38 32 39 84 40 78 41 77 42 33 44 65 45
REMARK SMILES IDX 45 46 64 47 46 48 49 49 63 50 82 51 47 52 48 53 62 55 83 56
REMARK SMILES IDX 50 57 34 58 35 59 43 60 36 61 37 62 41 63 44 64 38 65 39 66
REMARK SMILES IDX 42 67 40 68 66 69 67 70 75 71 68 72 69 73 73 74 76 75 70 76
REMARK SMILES IDX 71 77 74 78 72 79 51 80 52 81 60 82 53 83 54 84 58 85 61 86
REMARK SMILES IDX 55 87 56 88 59 89 57 90
REMARK H PARENT 7 10 81 43 49 54
REMARK Flexibility Score: inf
ROOT
ATOM      1  O   UNL A   1      37.594  21.414  25.668  1.00  0.00    -0.461 OA
ENDROOT
BRANCH   1   2
ATOM      2  C   UNL A   1      37.142  22.519  25.028  1.00  0.00     0.316 C 
ATOM      3  O   UNL A   1      37.430  23.641  25.443  1.00  0.00    -0.251 OA
BRANCH   2   4
ATOM      4  C   UNL A   1      36.294  22.355  23.790  1.00  0.00     0.199 C 
BRANCH   4   5
ATOM      5  S   UNL A   1      34.719  23.226  23.996  1.00  0.00    -0.085 SA
BRANCH   5   6
ATOM      6  C   UNL A   1      33.744  21.997  24.763  1.00  0.00     0.141 C 
ATOM      7  S   UNL A   1      33.970  21.473  26.334  1.00  0.00    -0.052 S 
BRANCH   6   8
ATOM      8  N   UNL A   1      32.624  21.552  24.074  1.00  0.00    -0.307 N 
ATOM      9  C   UNL A   1      32.350  20.420  23.317  1.00  0.00     0.256 C 
ATOM     10  H   UNL A   1      31.860  22.170  24.136  1.00  0.00     0.171 HD
ATOM     11  O   UNL A   1      31.728  20.495  22.263  1.00  0.00    -0.269 OA
BRANCH   9  12
ATOM     12  C   UNL A   1      32.791  19.098  23.822  1.00  0.00     0.040 A 
ATOM     13  C   UNL A   1      33.416  18.207  22.942  1.00  0.00     0.021 A 
ATOM     14  C   UNL A   1      32.527  18.719  25.147  1.00  0.00     0.021 A 
ATOM     15  C   UNL A   1      33.824  16.949  23.396  1.00  0.00     0.086 A 
ATOM     16  C   UNL A   1      32.930  17.463  25.605  1.00  0.00     0.086 A 
ATOM     17  C   UNL A   1      33.586  16.585  24.729  1.00  0.00     0.269 A 
BRANCH  17  18
ATOM     18  N   UNL A   1      34.039  15.276  25.220  1.00  0.00     0.062 N 
ATOM     19  O   UNL A   1      33.174  14.447  25.531  1.00  0.00    -0.258 OA
ATOM     20  O   UNL A   1      35.261  15.074  25.265  1.00  0.00    -0.258 OA
ENDBRANCH  17  18
ENDBRANCH   9  12
ENDBRANCH   6   8
ENDBRANCH   5   6
ENDBRANCH   4   5
ENDBRANCH   2   4
ENDBRANCH   1   2
BRANCH   1  21
ATOM     21  C   UNL A   1      37.803  20.127  25.050  1.00  0.00     0.274 C 
BRANCH  21  22
ATOM     22  C   UNL A   1      39.158  19.532  25.445  1.00  0.00     0.275 C 
BRANCH  22  23
ATOM     23  O   UNL A   1      39.615  20.084  26.695  1.00  0.00    -0.458 OA
BRANCH  23  24
ATOM     24  C   UNL A   1      40.954  20.289  26.770  1.00  0.00     0.338 C 
ATOM     25  O   UNL A   1      41.836  19.513  26.440  1.00  0.00    -0.246 OA
BRANCH  24  26
ATOM     26  C   UNL A   1      41.219  21.681  27.177  1.00  0.00     0.060 A 
ATOM     27  C   UNL A   1      40.772  22.708  26.339  1.00  0.00     0.016 A 
ATOM     28  C   UNL A   1      41.951  21.976  28.331  1.00  0.00     0.016 A 
ATOM     29  C   UNL A   1      41.088  24.034  26.637  1.00  0.00     0.010 A 
ATOM     30  C   UNL A   1      42.267  23.308  28.626  1.00  0.00     0.010 A 
ATOM     31  C   UNL A   1      41.862  24.344  27.766  1.00  0.00    -0.014 A 
BRANCH  31  32
ATOM     32  C   UNL A   1      42.307  25.745  27.984  1.00  0.00     0.031 A 
ATOM     33  C   UNL A   1      43.637  26.204  27.447  1.00  0.00     0.074 A 
ATOM     34  C   UNL A   1      41.505  26.622  28.614  1.00  0.00     0.049 A 
ATOM     35  N   UNL A   1      44.179  27.396  27.481  1.00  0.00    -0.248 NA
ATOM     36  C   UNL A   1      44.465  25.186  26.784  1.00  0.00     0.031 C 
ATOM     37  C   UNL A   1      40.190  26.311  29.173  1.00  0.00     0.029 A 
ATOM     38  N   UNL A   1      41.677  27.957  28.887  1.00  0.00    -0.354 N 
ATOM     39  C   UNL A   1      45.399  27.277  26.826  1.00  0.00     0.074 A 
ATOM     40  C   UNL A   1      45.543  25.885  26.456  1.00  0.00     0.031 C 
ATOM     41  C   UNL A   1      39.674  27.423  29.721  1.00  0.00     0.029 A 
ATOM     42  C   UNL A   1      40.629  28.520  29.572  1.00  0.00     0.049 A 
ATOM     43  H   UNL A   1      42.477  28.463  28.616  1.00  0.00     0.167 HD
ATOM     44  C   UNL A   1      46.305  28.243  26.537  1.00  0.00     0.037 A 
ATOM     45  C   UNL A   1      40.462  29.774  30.035  1.00  0.00     0.037 A 
ATOM     46  C   UNL A   1      46.174  29.627  26.918  1.00  0.00     0.049 A 
ATOM     47  C   UNL A   1      41.518  30.814  29.758  1.00  0.00     0.074 A 
ATOM     48  C   UNL A   1      47.040  30.678  26.666  1.00  0.00     0.029 A 
ATOM     49  N   UNL A   1      45.113  30.153  27.640  1.00  0.00    -0.354 N 
ATOM     50  N   UNL A   1      42.643  30.700  29.095  1.00  0.00    -0.248 NA
ATOM     51  C   UNL A   1      41.269  32.165  30.281  1.00  0.00     0.031 C 
ATOM     52  C   UNL A   1      46.531  31.826  27.283  1.00  0.00     0.029 A 
ATOM     53  C   UNL A   1      45.316  31.507  27.865  1.00  0.00     0.049 A 
ATOM     54  H   UNL A   1      44.331  29.641  27.948  1.00  0.00     0.167 HD
ATOM     55  C   UNL A   1      43.219  31.966  29.097  1.00  0.00     0.074 A 
ATOM     56  C   UNL A   1      42.303  32.838  29.800  1.00  0.00     0.031 C 
ATOM     57  C   UNL A   1      44.402  32.369  28.570  1.00  0.00     0.037 A 
BRANCH  44  58
ATOM     58  C   UNL A   1      47.531  27.840  25.768  1.00  0.00     0.064 A 
ATOM     59  C   UNL A   1      48.724  27.492  26.420  1.00  0.00     0.173 A 
ATOM     60  C   UNL A   1      47.498  27.741  24.368  1.00  0.00     0.173 A 
ATOM     61  F   UNL A   1      48.814  27.579  27.756  1.00  0.00    -0.203 F 
ATOM     62  C   UNL A   1      49.842  27.081  25.700  1.00  0.00     0.198 A 
ATOM     63  C   UNL A   1      48.608  27.298  23.653  1.00  0.00     0.198 A 
ATOM     64  F   UNL A   1      46.381  28.054  23.694  1.00  0.00    -0.203 F 
ATOM     65  F   UNL A   1      50.983  26.793  26.342  1.00  0.00    -0.200 F 
ATOM     66  C   UNL A   1      49.781  26.975  24.318  1.00  0.00     0.200 A 
ATOM     67  F   UNL A   1      48.541  27.182  22.320  1.00  0.00    -0.200 F 
ATOM     68  F   UNL A   1      50.853  26.564  23.627  1.00  0.00    -0.200 F 
ENDBRANCH  44  58
BRANCH  45  69
ATOM     69  C   UNL A   1      39.248  30.125  30.824  1.00  0.00     0.064 A 
ATOM     70  C   UNL A   1      38.115  30.682  30.215  1.00  0.00     0.173 A 
ATOM     71  C   UNL A   1      39.222  29.956  32.217  1.00  0.00     0.173 A 
ATOM     72  F   UNL A   1      38.099  30.886  28.889  1.00  0.00    -0.203 F 
ATOM     73  C   UNL A   1      37.019  31.092  30.972  1.00  0.00     0.198 A 
ATOM     74  C   UNL A   1      38.110  30.332  32.967  1.00  0.00     0.198 A 
ATOM     75  F   UNL A   1      40.278  29.425  32.851  1.00  0.00    -0.203 F 
ATOM     76  F   UNL A   1      35.978  31.686  30.373  1.00  0.00    -0.200 F 
ATOM     77  C   UNL A   1      37.016  30.912  32.347  1.00  0.00     0.200 A 
ATOM     78  F   UNL A   1      38.106  30.140  34.294  1.00  0.00    -0.200 F 
ATOM     79  F   UNL A   1      35.963  31.310  33.074  1.00  0.00    -0.200 F 
ENDBRANCH  45  69
BRANCH  57  80
ATOM     80  C   UNL A   1      44.758  33.825  28.711  1.00  0.00     0.064 A 
ATOM     81  C   UNL A   1      44.360  34.779  27.761  1.00  0.00     0.173 A 
ATOM     82  C   UNL A   1      45.506  34.273  29.811  1.00  0.00     0.173 A 
ATOM     83  F   UNL A   1      43.652  34.406  26.684  1.00  0.00    -0.203 F 
ATOM     84  C   UNL A   1      44.741  36.114  27.881  1.00  0.00     0.198 A 
ATOM     85  C   UNL A   1      45.852  35.615  29.948  1.00  0.00     0.198 A 
ATOM     86  F   UNL A   1      45.904  33.409  30.757  1.00  0.00    -0.203 F 
ATOM     87  F   UNL A   1      44.413  36.991  26.922  1.00  0.00    -0.200 F 
ATOM     88  C   UNL A   1      45.482  36.531  28.975  1.00  0.00     0.200 A 
ATOM     89  F   UNL A   1      46.553  36.019  31.017  1.00  0.00    -0.200 F 
ATOM     90  F   UNL A   1      45.851  37.815  29.088  1.00  0.00    -0.200 F 
ENDBRANCH  57  80
ENDBRANCH  31  32
ENDBRANCH  24  26
ENDBRANCH  23  24
ENDBRANCH  22  23
ENDBRANCH  21  22
ENDBRANCH   1  21
TORSDOF 16
ENDMDL
MODEL 3
REMARK VINA RESULT:     -11.1      1.309      2.308
REMARK SMILES O=C(CSC(=S)NC(=O)c1ccc([N+](=O)[O-])cc1)OCCOC(=O)c1ccc(-c2c3nc(c(-c4c(F)c(F)c(F)c(F)c4F)c4ccc([nH]4)c(-c4c(F)c(F)c(F)c(F)c4F)c4nc(c(-c5c(F)c(F)c(F)c(F)c5F)c5ccc2[nH]5)C=C4)C=C3)cc1
REMARK SMILES IDX 19 1 2 2 1 3 3 4 4 5 5 6 6 7 7 8 8 9 9 11 10 12 11 13 18 14
REMARK SMILES IDX 12 15 17 16 13 17 14 18 15 19 16 20 20 21 21 22 22 23 23 24
REMARK SMILES IDX 24 25 25 26 26 27 87 28 27 29 86 30 28 31 29 32 30 33 80 34
REMARK SMILES IDX 31 35 85 36 79 37 81 38 32 39 84 40 78 41 77 42 33 44 65 45
REMARK SMILES IDX 45 46 64 47 46 48 49 49 63 50 82 51 47 52 48 53 62 55 83 56
REMARK SMILES IDX 50 57 34 58 35 59 43 60 36 61 37 62 41 63 44 64 38 65 39 66
REMARK SMILES IDX 42 67 40 68 66 69 67 70 75 71 68 72 69 73 73 74 76 75 70 76
REMARK SMILES IDX 71 77 74 78 72 79 51 80 52 81 60 82 53 83 54 84 58 85 61 86
REMARK SMILES IDX 55 87 56 88 59 89 57 90
REMARK H PARENT 7 10 81 43 49 54
REMARK Flexibility Score: inf
ROOT
ATOM      1  O   UNL A   1      33.628  30.705  26.929  1.00  0.00    -0.461 OA
ENDROOT
BRANCH   1   2
ATOM      2  C   UNL A   1      33.337  29.577  26.239  1.00  0.00     0.316 C 
ATOM      3  O   UNL A   1      34.174  28.683  26.124  1.00  0.00    -0.251 OA
BRANCH   2   4
ATOM      4  C   UNL A   1      31.965  29.425  25.627  1.00  0.00     0.199 C 
BRANCH   4   5
ATOM      5  S   UNL A   1      31.471  27.682  25.636  1.00  0.00    -0.085 SA
BRANCH   5   6
ATOM      6  C   UNL A   1      31.383  27.340  23.927  1.00  0.00     0.141 C 
ATOM      7  S   UNL A   1      32.708  27.331  22.908  1.00  0.00    -0.052 S 
BRANCH   6   8
ATOM      8  N   UNL A   1      30.165  26.897  23.428  1.00  0.00    -0.307 N 
ATOM      9  C   UNL A   1      28.886  27.438  23.401  1.00  0.00     0.256 C 
ATOM     10  H   UNL A   1      30.219  26.012  23.003  1.00  0.00     0.171 HD
ATOM     11  O   UNL A   1      27.899  26.749  23.636  1.00  0.00    -0.269 OA
BRANCH   9  12
ATOM     12  C   UNL A   1      28.721  28.866  23.042  1.00  0.00     0.040 A 
ATOM     13  C   UNL A   1      27.653  29.587  23.590  1.00  0.00     0.021 A 
ATOM     14  C   UNL A   1      29.584  29.471  22.116  1.00  0.00     0.021 A 
ATOM     15  C   UNL A   1      27.471  30.931  23.252  1.00  0.00     0.086 A 
ATOM     16  C   UNL A   1      29.405  30.813  21.772  1.00  0.00     0.086 A 
ATOM     17  C   UNL A   1      28.354  31.542  22.349  1.00  0.00     0.269 A 
BRANCH  17  18
ATOM     18  N   UNL A   1      28.187  32.962  22.012  1.00  0.00     0.062 N 
ATOM     19  O   UNL A   1      27.629  33.238  20.941  1.00  0.00    -0.258 OA
ATOM     20  O   UNL A   1      28.589  33.796  22.835  1.00  0.00    -0.258 OA
ENDBRANCH  17  18
ENDBRANCH   9  12
ENDBRANCH   6   8
ENDBRANCH   5   6
ENDBRANCH   4   5
ENDBRANCH   2   4
ENDBRANCH   1   2
BRANCH   1  21
ATOM     21  C   UNL A   1      32.702  31.783  27.184  1.00  0.00     0.274 C 
BRANCH  21  22
ATOM     22  C   UNL A   1      33.433  33.053  27.628  1.00  0.00     0.275 C 
BRANCH  22  23
ATOM     23  O   UNL A   1      32.495  34.079  28.006  1.00  0.00    -0.458 OA
BRANCH  23  24
ATOM     24  C   UNL A   1      33.004  35.049  28.808  1.00  0.00     0.338 C 
ATOM     25  O   UNL A   1      32.528  36.152  29.019  1.00  0.00    -0.246 OA
BRANCH  24  26
ATOM     26  C   UNL A   1      34.171  34.524  29.538  1.00  0.00     0.060 A 
ATOM     27  C   UNL A   1      35.432  34.652  28.945  1.00  0.00     0.016 A 
ATOM     28  C   UNL A   1      34.028  33.858  30.759  1.00  0.00     0.016 A 
ATOM     29  C   UNL A   1      36.549  34.082  29.556  1.00  0.00     0.010 A 
ATOM     30  C   UNL A   1      35.151  33.286  31.369  1.00  0.00     0.010 A 
ATOM     31  C   UNL A   1      36.415  33.370  30.758  1.00  0.00    -0.014 A 
BRANCH  31  32
ATOM     32  C   UNL A   1      37.591  32.650  31.315  1.00  0.00     0.031 A 
ATOM     33  C   UNL A   1      38.123  33.020  32.674  1.00  0.00     0.074 A 
ATOM     34  C   UNL A   1      38.150  31.634  30.634  1.00  0.00     0.049 A 
ATOM     35  N   UNL A   1      39.099  32.477  33.359  1.00  0.00    -0.248 NA
ATOM     36  C   UNL A   1      37.470  34.151  33.351  1.00  0.00     0.031 C 
ATOM     37  C   UNL A   1      37.725  31.169  29.315  1.00  0.00     0.029 A 
ATOM     38  N   UNL A   1      39.195  30.806  30.961  1.00  0.00    -0.354 N 
ATOM     39  C   UNL A   1      39.162  33.183  34.555  1.00  0.00     0.074 A 
ATOM     40  C   UNL A   1      38.165  34.230  34.477  1.00  0.00     0.031 C 
ATOM     41  C   UNL A   1      38.502  30.138  28.945  1.00  0.00     0.029 A 
ATOM     42  C   UNL A   1      39.493  29.883  29.989  1.00  0.00     0.049 A 
ATOM     43  H   UNL A   1      39.686  30.868  31.813  1.00  0.00     0.167 HD
ATOM     44  C   UNL A   1      39.960  32.964  35.628  1.00  0.00     0.037 A 
ATOM     45  C   UNL A   1      40.459  28.945  29.943  1.00  0.00     0.037 A 
ATOM     46  C   UNL A   1      40.966  31.933  35.703  1.00  0.00     0.049 A 
ATOM     47  C   UNL A   1      41.378  28.767  31.125  1.00  0.00     0.074 A 
ATOM     48  C   UNL A   1      41.819  31.634  36.751  1.00  0.00     0.029 A 
ATOM     49  N   UNL A   1      41.259  31.038  34.685  1.00  0.00    -0.354 N 
ATOM     50  N   UNL A   1      41.395  29.408  32.268  1.00  0.00    -0.248 NA
ATOM     51  C   UNL A   1      42.403  27.719  31.013  1.00  0.00     0.031 C 
ATOM     52  C   UNL A   1      42.667  30.596  36.347  1.00  0.00     0.029 A 
ATOM     53  C   UNL A   1      42.299  30.204  35.071  1.00  0.00     0.049 A 
ATOM     54  H   UNL A   1      40.799  31.000  33.816  1.00  0.00     0.167 HD
ATOM     55  C   UNL A   1      42.410  28.825  33.020  1.00  0.00     0.074 A 
ATOM     56  C   UNL A   1      42.961  27.757  32.214  1.00  0.00     0.031 C 
ATOM     57  C   UNL A   1      42.847  29.146  34.262  1.00  0.00     0.037 A 
BRANCH  44  58
ATOM     58  C   UNL A   1      39.784  33.860  36.821  1.00  0.00     0.064 A 
ATOM     59  C   UNL A   1      40.408  35.116  36.892  1.00  0.00     0.173 A 
ATOM     60  C   UNL A   1      38.937  33.490  37.876  1.00  0.00     0.173 A 
ATOM     61  F   UNL A   1      41.236  35.515  35.915  1.00  0.00    -0.203 F 
ATOM     62  C   UNL A   1      40.205  35.956  37.984  1.00  0.00     0.198 A 
ATOM     63  C   UNL A   1      38.712  34.346  38.951  1.00  0.00     0.198 A 
ATOM     64  F   UNL A   1      38.310  32.304  37.856  1.00  0.00    -0.203 F 
ATOM     65  F   UNL A   1      40.843  37.133  38.049  1.00  0.00    -0.200 F 
ATOM     66  C   UNL A   1      39.351  35.575  39.007  1.00  0.00     0.200 A 
ATOM     67  F   UNL A   1      37.873  33.983  39.931  1.00  0.00    -0.200 F 
ATOM     68  F   UNL A   1      39.145  36.392  40.050  1.00  0.00    -0.200 F 
ENDBRANCH  44  58
BRANCH  45  69
ATOM     69  C   UNL A   1      40.623  28.100  28.727  1.00  0.00     0.064 A 
ATOM     70  C   UNL A   1      41.410  28.519  27.646  1.00  0.00     0.173 A 
ATOM     71  C   UNL A   1      39.950  26.875  28.606  1.00  0.00     0.173 A 
ATOM     72  F   UNL A   1      42.055  29.693  27.702  1.00  0.00    -0.203 F 
ATOM     73  C   UNL A   1      41.486  27.765  26.476  1.00  0.00     0.198 A 
ATOM     74  C   UNL A   1      40.057  26.104  27.451  1.00  0.00     0.198 A 
ATOM     75  F   UNL A   1      39.186  26.423  29.613  1.00  0.00    -0.203 F 
ATOM     76  F   UNL A   1      42.188  28.224  25.431  1.00  0.00    -0.200 F 
ATOM     77  C   UNL A   1      40.813  26.556  26.381  1.00  0.00     0.200 A 
ATOM     78  F   UNL A   1      39.418  24.929  27.371  1.00  0.00    -0.200 F 
ATOM     79  F   UNL A   1      40.884  25.834  25.255  1.00  0.00    -0.200 F 
ENDBRANCH  45  69
BRANCH  57  80
ATOM     80  C   UNL A   1      43.963  28.313  34.835  1.00  0.00     0.064 A 
ATOM     81  C   UNL A   1      45.311  28.670  34.676  1.00  0.00     0.173 A 
ATOM     82  C   UNL A   1      43.680  27.140  35.554  1.00  0.00     0.173 A 
ATOM     83  F   UNL A   1      45.640  29.775  33.989  1.00  0.00    -0.203 F 
ATOM     84  C   UNL A   1      46.332  27.861  35.168  1.00  0.00     0.198 A 
ATOM     85  C   UNL A   1      44.703  26.354  36.080  1.00  0.00     0.198 A 
ATOM     86  F   UNL A   1      42.410  26.754  35.749  1.00  0.00    -0.203 F 
ATOM     87  F   UNL A   1      47.612  28.186  34.937  1.00  0.00    -0.200 F 
ATOM     88  C   UNL A   1      46.028  26.707  35.873  1.00  0.00     0.200 A 
ATOM     89  F   UNL A   1      44.405  25.248  36.776  1.00  0.00    -0.200 F 
ATOM     90  F   UNL A   1      47.011  25.927  36.344  1.00  0.00    -0.200 F 
ENDBRANCH  57  80
ENDBRANCH  31  32
ENDBRANCH  24  26
ENDBRANCH  23  24
ENDBRANCH  22  23
ENDBRANCH  21  22
ENDBRANCH   1  21
TORSDOF 16
ENDMDL
