MODEL 1
REMARK VINA RESULT:     -12.0      0.000      0.000
REMARK SMILES C[C@@H]1[C@@H](C(=O)OCCOC(=O)c2ccc(-c3c4nc(c(-c5c(F)c(F)c(F)c(F)c5F)c5ccc([nH]5)c(-c5c(F)c(F)c(F)c(F)c5F)c5nc(c(-c6c(F)c(F)c(F)c(F)c6F)c6ccc3[nH]6)C=C5)C=C4)cc2)CCN1C(=O)NC[C@@H]1COCCO1
REMARK SMILES IDX 7 1 6 2 4 3 5 4 3 5 1 6 2 7 77 8 75 9 76 10 78 11 79 12
REMARK SMILES IDX 80 13 81 15 82 16 83 17 87 18 84 19 86 20 85 21 8 22 9 23
REMARK SMILES IDX 10 24 11 25 12 26 13 27 74 28 14 29 73 30 15 31 16 32 17 33
REMARK SMILES IDX 67 34 18 35 72 36 66 37 68 38 19 39 71 40 65 41 64 42 20 44
REMARK SMILES IDX 52 45 32 46 51 47 33 48 36 49 50 50 69 51 34 52 35 53 49 55
REMARK SMILES IDX 70 56 37 57 21 58 22 59 30 60 23 61 24 62 28 63 31 64 25 65
REMARK SMILES IDX 26 66 29 67 27 68 53 69 54 70 62 71 55 72 56 73 60 74 63 75
REMARK SMILES IDX 57 76 58 77 61 78 59 79 38 80 39 81 47 82 40 83 41 84 45 85
REMARK SMILES IDX 48 86 42 87 43 88 46 89 44 90
REMARK H PARENT 80 14 68 43 36 54
REMARK Flexibility Score: inf
ROOT
ATOM      1  C   UNL A   1      31.383  29.251  24.382  1.00  0.00     0.274 C 
ENDROOT
BRANCH   1   2
ATOM      2  O   UNL A   1      32.141  28.042  24.597  1.00  0.00    -0.462 OA
BRANCH   2   3
ATOM      3  C   UNL A   1      31.411  26.896  24.710  1.00  0.00     0.311 C 
ATOM      4  O   UNL A   1      30.318  26.817  25.252  1.00  0.00    -0.252 OA
BRANCH   3   5
ATOM      5  C   UNL A   1      32.132  25.740  24.035  1.00  0.00     0.123 C 
ATOM      6  C   UNL A   1      31.682  23.336  23.373  1.00  0.00     0.032 C 
ATOM      7  C   UNL A   1      31.542  24.389  24.475  1.00  0.00     0.098 C 
ATOM      8  N   UNL A   1      32.296  24.010  25.665  1.00  0.00    -0.321 N 
ATOM      9  C   UNL A   1      33.581  25.645  24.490  1.00  0.00     0.039 C 
ATOM     10  C   UNL A   1      33.496  24.831  25.777  1.00  0.00     0.122 C 
BRANCH   8  11
ATOM     11  C   UNL A   1      32.004  23.166  26.692  1.00  0.00     0.317 C 
ATOM     12  O   UNL A   1      31.235  23.512  27.594  1.00  0.00    -0.249 OA
ATOM     13  N   UNL A   1      32.505  21.923  26.804  1.00  0.00    -0.335 N 
ATOM     14  H   UNL A   1      32.210  21.492  27.639  1.00  0.00     0.165 HD
BRANCH  13  15
ATOM     15  C   UNL A   1      33.365  21.038  26.028  1.00  0.00     0.152 C 
BRANCH  15  16
ATOM     16  C   UNL A   1      32.561  20.040  25.181  1.00  0.00     0.163 C 
ATOM     17  C   UNL A   1      32.812  18.606  25.673  1.00  0.00     0.194 C 
ATOM     18  O   UNL A   1      32.970  20.162  23.802  1.00  0.00    -0.372 OA
ATOM     19  O   UNL A   1      32.087  17.666  24.873  1.00  0.00    -0.376 OA
ATOM     20  C   UNL A   1      32.276  19.197  22.994  1.00  0.00     0.189 C 
ATOM     21  C   UNL A   1      32.508  17.775  23.507  1.00  0.00     0.188 C 
ENDBRANCH  15  16
ENDBRANCH  13  15
ENDBRANCH   8  11
ENDBRANCH   3   5
ENDBRANCH   2   3
ENDBRANCH   1   2
BRANCH   1  22
ATOM     22  C   UNL A   1      31.481  30.181  25.590  1.00  0.00     0.275 C 
BRANCH  22  23
ATOM     23  O   UNL A   1      32.843  30.243  26.051  1.00  0.00    -0.458 OA
BRANCH  23  24
ATOM     24  C   UNL A   1      33.140  31.244  26.909  1.00  0.00     0.338 C 
ATOM     25  O   UNL A   1      32.455  32.205  27.209  1.00  0.00    -0.246 OA
BRANCH  24  26
ATOM     26  C   UNL A   1      34.451  30.976  27.520  1.00  0.00     0.060 A 
ATOM     27  C   UNL A   1      34.791  29.658  27.807  1.00  0.00     0.016 A 
ATOM     28  C   UNL A   1      35.289  32.018  27.921  1.00  0.00     0.016 A 
ATOM     29  C   UNL A   1      35.945  29.373  28.530  1.00  0.00     0.010 A 
ATOM     30  C   UNL A   1      36.479  31.724  28.604  1.00  0.00     0.010 A 
ATOM     31  C   UNL A   1      36.807  30.399  28.939  1.00  0.00    -0.014 A 
BRANCH  31  32
ATOM     32  C   UNL A   1      37.986  30.075  29.792  1.00  0.00     0.031 A 
ATOM     33  C   UNL A   1      39.114  29.250  29.231  1.00  0.00     0.074 A 
ATOM     34  C   UNL A   1      38.110  30.588  31.032  1.00  0.00     0.049 A 
ATOM     35  N   UNL A   1      40.163  28.753  29.838  1.00  0.00    -0.248 NA
ATOM     36  C   UNL A   1      39.060  28.954  27.791  1.00  0.00     0.031 C 
ATOM     37  C   UNL A   1      37.158  31.492  31.676  1.00  0.00     0.029 A 
ATOM     38  N   UNL A   1      39.112  30.446  31.963  1.00  0.00    -0.354 N 
ATOM     39  C   UNL A   1      40.863  28.047  28.869  1.00  0.00     0.074 A 
ATOM     40  C   UNL A   1      40.129  28.189  27.630  1.00  0.00     0.031 C 
ATOM     41  C   UNL A   1      37.644  31.863  32.872  1.00  0.00     0.029 A 
ATOM     42  C   UNL A   1      38.897  31.157  33.119  1.00  0.00     0.049 A 
ATOM     43  H   UNL A   1      39.908  29.887  31.814  1.00  0.00     0.167 HD
ATOM     44  C   UNL A   1      42.010  27.338  29.002  1.00  0.00     0.037 A 
ATOM     45  C   UNL A   1      39.608  31.205  34.262  1.00  0.00     0.037 A 
ATOM     46  C   UNL A   1      42.770  27.227  30.217  1.00  0.00     0.049 A 
ATOM     47  C   UNL A   1      40.838  30.350  34.410  1.00  0.00     0.074 A 
ATOM     48  C   UNL A   1      43.913  26.484  30.460  1.00  0.00     0.029 A 
ATOM     49  N   UNL A   1      42.476  27.900  31.392  1.00  0.00    -0.354 N 
ATOM     50  N   UNL A   1      41.432  29.592  33.521  1.00  0.00    -0.248 NA
ATOM     51  C   UNL A   1      41.479  30.335  35.734  1.00  0.00     0.031 C 
ATOM     52  C   UNL A   1      44.299  26.692  31.789  1.00  0.00     0.029 A 
ATOM     53  C   UNL A   1      43.413  27.587  32.364  1.00  0.00     0.049 A 
ATOM     54  H   UNL A   1      41.713  28.511  31.518  1.00  0.00     0.167 HD
ATOM     55  C   UNL A   1      42.511  29.012  34.175  1.00  0.00     0.074 A 
ATOM     56  C   UNL A   1      42.511  29.529  35.528  1.00  0.00     0.031 C 
ATOM     57  C   UNL A   1      43.411  28.117  33.701  1.00  0.00     0.037 A 
BRANCH  44  58
ATOM     58  C   UNL A   1      42.491  26.578  27.803  1.00  0.00     0.064 A 
ATOM     59  C   UNL A   1      42.049  25.277  27.526  1.00  0.00     0.173 A 
ATOM     60  C   UNL A   1      43.384  27.178  26.904  1.00  0.00     0.173 A 
ATOM     61  F   UNL A   1      41.209  24.655  28.367  1.00  0.00    -0.203 F 
ATOM     62  C   UNL A   1      42.498  24.598  26.395  1.00  0.00     0.198 A 
ATOM     63  C   UNL A   1      43.814  26.504  25.764  1.00  0.00     0.198 A 
ATOM     64  F   UNL A   1      43.833  28.422  27.127  1.00  0.00    -0.203 F 
ATOM     65  F   UNL A   1      42.093  23.342  26.166  1.00  0.00    -0.200 F 
ATOM     66  C   UNL A   1      43.375  25.213  25.514  1.00  0.00     0.200 A 
ATOM     67  F   UNL A   1      44.655  27.105  24.910  1.00  0.00    -0.200 F 
ATOM     68  F   UNL A   1      43.803  24.559  24.425  1.00  0.00    -0.200 F 
ENDBRANCH  44  58
BRANCH  45  69
ATOM     69  C   UNL A   1      39.153  32.058  35.391  1.00  0.00     0.064 A 
ATOM     70  C   UNL A   1      39.547  33.400  35.479  1.00  0.00     0.173 A 
ATOM     71  C   UNL A   1      38.356  31.542  36.422  1.00  0.00     0.173 A 
ATOM     72  F   UNL A   1      40.339  33.928  34.533  1.00  0.00    -0.203 F 
ATOM     73  C   UNL A   1      39.171  34.190  36.563  1.00  0.00     0.198 A 
ATOM     74  C   UNL A   1      37.955  32.339  37.490  1.00  0.00     0.198 A 
ATOM     75  F   UNL A   1      37.964  30.259  36.390  1.00  0.00    -0.203 F 
ATOM     76  F   UNL A   1      39.605  35.454  36.652  1.00  0.00    -0.200 F 
ATOM     77  C   UNL A   1      38.370  33.660  37.565  1.00  0.00     0.200 A 
ATOM     78  F   UNL A   1      37.178  31.824  38.454  1.00  0.00    -0.200 F 
ATOM     79  F   UNL A   1      38.012  34.418  38.611  1.00  0.00    -0.200 F 
ENDBRANCH  45  69
BRANCH  57  80
ATOM     80  C   UNL A   1      44.484  27.656  34.640  1.00  0.00     0.064 A 
ATOM     81  C   UNL A   1      44.322  26.504  35.424  1.00  0.00     0.173 A 
ATOM     82  C   UNL A   1      45.702  28.345  34.726  1.00  0.00     0.173 A 
ATOM     83  F   UNL A   1      43.168  25.820  35.387  1.00  0.00    -0.203 F 
ATOM     84  C   UNL A   1      45.335  26.069  36.274  1.00  0.00     0.198 A 
ATOM     85  C   UNL A   1      46.722  27.895  35.561  1.00  0.00     0.198 A 
ATOM     86  F   UNL A   1      45.906  29.450  33.993  1.00  0.00    -0.203 F 
ATOM     87  F   UNL A   1      45.146  24.986  37.041  1.00  0.00    -0.200 F 
ATOM     88  C   UNL A   1      46.535  26.761  36.338  1.00  0.00     0.200 A 
ATOM     89  F   UNL A   1      47.884  28.561  35.616  1.00  0.00    -0.200 F 
ATOM     90  F   UNL A   1      47.511  26.338  37.153  1.00  0.00    -0.200 F 
ENDBRANCH  57  80
ENDBRANCH  31  32
ENDBRANCH  24  26
ENDBRANCH  23  24
ENDBRANCH  22  23
ENDBRANCH   1  22
TORSDOF 14
ENDMDL
MODEL 2
REMARK VINA RESULT:     -12.0      0.678      1.792
REMARK SMILES C[C@@H]1[C@@H](C(=O)OCCOC(=O)c2ccc(-c3c4nc(c(-c5c(F)c(F)c(F)c(F)c5F)c5ccc([nH]5)c(-c5c(F)c(F)c(F)c(F)c5F)c5nc(c(-c6c(F)c(F)c(F)c(F)c6F)c6ccc3[nH]6)C=C5)C=C4)cc2)CCN1C(=O)NC[C@@H]1COCCO1
REMARK SMILES IDX 7 1 6 2 4 3 5 4 3 5 1 6 2 7 77 8 75 9 76 10 78 11 79 12
REMARK SMILES IDX 80 13 81 15 82 16 83 17 87 18 84 19 86 20 85 21 8 22 9 23
REMARK SMILES IDX 10 24 11 25 12 26 13 27 74 28 14 29 73 30 15 31 16 32 17 33
REMARK SMILES IDX 67 34 18 35 72 36 66 37 68 38 19 39 71 40 65 41 64 42 20 44
REMARK SMILES IDX 52 45 32 46 51 47 33 48 36 49 50 50 69 51 34 52 35 53 49 55
REMARK SMILES IDX 70 56 37 57 21 58 22 59 30 60 23 61 24 62 28 63 31 64 25 65
REMARK SMILES IDX 26 66 29 67 27 68 53 69 54 70 62 71 55 72 56 73 60 74 63 75
REMARK SMILES IDX 57 76 58 77 61 78 59 79 38 80 39 81 47 82 40 83 41 84 45 85
REMARK SMILES IDX 48 86 42 87 43 88 46 89 44 90
REMARK H PARENT 80 14 68 43 36 54
REMARK Flexibility Score: inf
ROOT
ATOM      1  C   UNL A   1      31.913  29.423  24.998  1.00  0.00     0.274 C 
ENDROOT
BRANCH   1   2
ATOM      2  O   UNL A   1      32.576  28.373  25.732  1.00  0.00    -0.462 OA
BRANCH   2   3
ATOM      3  C   UNL A   1      31.845  27.240  25.937  1.00  0.00     0.311 C 
ATOM      4  O   UNL A   1      31.114  27.047  26.896  1.00  0.00    -0.252 OA
BRANCH   3   5
ATOM      5  C   UNL A   1      32.043  26.268  24.784  1.00  0.00     0.123 C 
ATOM      6  C   UNL A   1      30.750  24.456  23.574  1.00  0.00     0.032 C 
ATOM      7  C   UNL A   1      31.131  25.039  24.937  1.00  0.00     0.098 C 
ATOM      8  N   UNL A   1      31.905  24.082  25.720  1.00  0.00    -0.321 N 
ATOM      9  C   UNL A   1      33.439  25.662  24.798  1.00  0.00     0.039 C 
ATOM     10  C   UNL A   1      33.306  24.485  25.758  1.00  0.00     0.122 C 
BRANCH   8  11
ATOM     11  C   UNL A   1      31.527  23.022  26.486  1.00  0.00     0.317 C 
ATOM     12  O   UNL A   1      31.041  23.196  27.609  1.00  0.00    -0.249 OA
ATOM     13  N   UNL A   1      31.639  21.740  26.097  1.00  0.00    -0.335 N 
ATOM     14  H   UNL A   1      31.355  21.123  26.811  1.00  0.00     0.165 HD
BRANCH  13  15
ATOM     15  C   UNL A   1      32.066  21.012  24.909  1.00  0.00     0.152 C 
BRANCH  15  16
ATOM     16  C   UNL A   1      32.834  19.729  25.257  1.00  0.00     0.163 C 
ATOM     17  C   UNL A   1      34.185  19.706  24.525  1.00  0.00     0.194 C 
ATOM     18  O   UNL A   1      32.043  18.589  24.859  1.00  0.00    -0.372 OA
ATOM     19  O   UNL A   1      34.898  18.501  24.822  1.00  0.00    -0.376 OA
ATOM     20  C   UNL A   1      32.764  17.372  25.118  1.00  0.00     0.189 C 
ATOM     21  C   UNL A   1      34.120  17.370  24.408  1.00  0.00     0.188 C 
ENDBRANCH  15  16
ENDBRANCH  13  15
ENDBRANCH   8  11
ENDBRANCH   3   5
ENDBRANCH   2   3
ENDBRANCH   1   2
BRANCH   1  22
ATOM     22  C   UNL A   1      31.677  30.647  25.883  1.00  0.00     0.275 C 
BRANCH  22  23
ATOM     23  O   UNL A   1      32.549  30.598  27.027  1.00  0.00    -0.458 OA
BRANCH  23  24
ATOM     24  C   UNL A   1      33.237  31.729  27.304  1.00  0.00     0.338 C 
ATOM     25  O   UNL A   1      32.866  32.883  27.184  1.00  0.00    -0.246 OA
BRANCH  24  26
ATOM     26  C   UNL A   1      34.549  31.365  27.862  1.00  0.00     0.060 A 
ATOM     27  C   UNL A   1      34.769  30.041  28.225  1.00  0.00     0.016 A 
ATOM     28  C   UNL A   1      35.510  32.337  28.140  1.00  0.00     0.016 A 
ATOM     29  C   UNL A   1      35.931  29.685  28.904  1.00  0.00     0.010 A 
ATOM     30  C   UNL A   1      36.704  31.966  28.778  1.00  0.00     0.010 A 
ATOM     31  C   UNL A   1      36.916  30.639  29.190  1.00  0.00    -0.014 A 
BRANCH  31  32
ATOM     32  C   UNL A   1      38.105  30.249  30.000  1.00  0.00     0.031 A 
ATOM     33  C   UNL A   1      39.186  29.400  29.386  1.00  0.00     0.074 A 
ATOM     34  C   UNL A   1      38.282  30.725  31.249  1.00  0.00     0.049 A 
ATOM     35  N   UNL A   1      40.232  28.849  29.950  1.00  0.00    -0.248 NA
ATOM     36  C   UNL A   1      39.081  29.145  27.941  1.00  0.00     0.031 C 
ATOM     37  C   UNL A   1      37.383  31.645  31.944  1.00  0.00     0.029 A 
ATOM     38  N   UNL A   1      39.305  30.522  32.147  1.00  0.00    -0.354 N 
ATOM     39  C   UNL A   1      40.879  28.145  28.943  1.00  0.00     0.074 A 
ATOM     40  C   UNL A   1      40.117  28.346  27.730  1.00  0.00     0.031 C 
ATOM     41  C   UNL A   1      37.916  31.967  33.133  1.00  0.00     0.029 A 
ATOM     42  C   UNL A   1      39.148  31.209  33.326  1.00  0.00     0.049 A 
ATOM     43  H   UNL A   1      40.075  29.939  31.961  1.00  0.00     0.167 HD
ATOM     44  C   UNL A   1      42.002  27.391  29.024  1.00  0.00     0.037 A 
ATOM     45  C   UNL A   1      39.893  31.201  34.449  1.00  0.00     0.037 A 
ATOM     46  C   UNL A   1      42.791  27.221  30.214  1.00  0.00     0.049 A 
ATOM     47  C   UNL A   1      41.094  30.299  34.539  1.00  0.00     0.074 A 
ATOM     48  C   UNL A   1      43.913  26.431  30.404  1.00  0.00     0.029 A 
ATOM     49  N   UNL A   1      42.555  27.873  31.414  1.00  0.00    -0.354 N 
ATOM     50  N   UNL A   1      41.634  29.544  33.615  1.00  0.00    -0.248 NA
ATOM     51  C   UNL A   1      41.770  30.225  35.843  1.00  0.00     0.031 C 
ATOM     52  C   UNL A   1      44.343  26.590  31.727  1.00  0.00     0.029 A 
ATOM     53  C   UNL A   1      43.507  27.500  32.350  1.00  0.00     0.049 A 
ATOM     54  H   UNL A   1      41.819  28.507  31.577  1.00  0.00     0.167 HD
ATOM     55  C   UNL A   1      42.709  28.908  34.222  1.00  0.00     0.074 A 
ATOM     56  C   UNL A   1      42.766  29.389  35.587  1.00  0.00     0.031 C 
ATOM     57  C   UNL A   1      43.562  27.995  33.699  1.00  0.00     0.037 A 
BRANCH  44  58
ATOM     58  C   UNL A   1      42.421  26.647  27.793  1.00  0.00     0.064 A 
ATOM     59  C   UNL A   1      43.371  27.165  26.903  1.00  0.00     0.173 A 
ATOM     60  C   UNL A   1      41.882  25.381  27.521  1.00  0.00     0.173 A 
ATOM     61  F   UNL A   1      43.900  28.380  27.111  1.00  0.00    -0.203 F 
ATOM     62  C   UNL A   1      43.757  26.445  25.774  1.00  0.00     0.198 A 
ATOM     63  C   UNL A   1      42.284  24.656  26.403  1.00  0.00     0.198 A 
ATOM     64  F   UNL A   1      40.970  24.844  28.345  1.00  0.00    -0.203 F 
ATOM     65  F   UNL A   1      44.640  26.972  24.915  1.00  0.00    -0.200 F 
ATOM     66  C   UNL A   1      43.217  25.190  25.528  1.00  0.00     0.200 A 
ATOM     67  F   UNL A   1      41.768  23.440  26.173  1.00  0.00    -0.200 F 
ATOM     68  F   UNL A   1      43.592  24.499  24.443  1.00  0.00    -0.200 F 
ENDBRANCH  44  58
BRANCH  45  69
ATOM     69  C   UNL A   1      39.501  32.039  35.612  1.00  0.00     0.064 A 
ATOM     70  C   UNL A   1      38.601  31.558  36.572  1.00  0.00     0.173 A 
ATOM     71  C   UNL A   1      39.983  33.347  35.765  1.00  0.00     0.173 A 
ATOM     72  F   UNL A   1      38.087  30.325  36.448  1.00  0.00    -0.203 F 
ATOM     73  C   UNL A   1      38.186  32.359  37.634  1.00  0.00     0.198 A 
ATOM     74  C   UNL A   1      39.592  34.137  36.843  1.00  0.00     0.198 A 
ATOM     75  F   UNL A   1      40.837  33.858  34.865  1.00  0.00    -0.203 F 
ATOM     76  F   UNL A   1      37.283  31.896  38.508  1.00  0.00    -0.200 F 
ATOM     77  C   UNL A   1      38.687  33.646  37.772  1.00  0.00     0.200 A 
ATOM     78  F   UNL A   1      40.081  35.378  36.974  1.00  0.00    -0.200 F 
ATOM     79  F   UNL A   1      38.285  34.419  38.791  1.00  0.00    -0.200 F 
ENDBRANCH  45  69
BRANCH  57  80
ATOM     80  C   UNL A   1      44.643  27.469  34.595  1.00  0.00     0.064 A 
ATOM     81  C   UNL A   1      44.438  26.342  35.403  1.00  0.00     0.173 A 
ATOM     82  C   UNL A   1      45.909  28.072  34.613  1.00  0.00     0.173 A 
ATOM     83  F   UNL A   1      43.238  25.741  35.431  1.00  0.00    -0.203 F 
ATOM     84  C   UNL A   1      45.457  25.847  36.212  1.00  0.00     0.198 A 
ATOM     85  C   UNL A   1      46.933  27.562  35.407  1.00  0.00     0.198 A 
ATOM     86  F   UNL A   1      46.155  29.150  33.855  1.00  0.00    -0.203 F 
ATOM     87  F   UNL A   1      45.229  24.790  37.004  1.00  0.00    -0.200 F 
ATOM     88  C   UNL A   1      46.705  26.453  36.209  1.00  0.00     0.200 A 
ATOM     89  F   UNL A   1      48.141  28.143  35.398  1.00  0.00    -0.200 F 
ATOM     90  F   UNL A   1      47.686  25.972  36.985  1.00  0.00    -0.200 F 
ENDBRANCH  57  80
ENDBRANCH  31  32
ENDBRANCH  24  26
ENDBRANCH  23  24
ENDBRANCH  22  23
ENDBRANCH   1  22
TORSDOF 14
ENDMDL
MODEL 3
REMARK VINA RESULT:     -11.9      4.393      9.598
REMARK SMILES C[C@@H]1[C@@H](C(=O)OCCOC(=O)c2ccc(-c3c4nc(c(-c5c(F)c(F)c(F)c(F)c5F)c5ccc([nH]5)c(-c5c(F)c(F)c(F)c(F)c5F)c5nc(c(-c6c(F)c(F)c(F)c(F)c6F)c6ccc3[nH]6)C=C5)C=C4)cc2)CCN1C(=O)NC[C@@H]1COCCO1
REMARK SMILES IDX 7 1 6 2 4 3 5 4 3 5 1 6 2 7 77 8 75 9 76 10 78 11 79 12
REMARK SMILES IDX 80 13 81 15 82 16 83 17 87 18 84 19 86 20 85 21 8 22 9 23
REMARK SMILES IDX 10 24 11 25 12 26 13 27 74 28 14 29 73 30 15 31 16 32 17 33
REMARK SMILES IDX 67 34 18 35 72 36 66 37 68 38 19 39 71 40 65 41 64 42 20 44
REMARK SMILES IDX 52 45 32 46 51 47 33 48 36 49 50 50 69 51 34 52 35 53 49 55
REMARK SMILES IDX 70 56 37 57 21 58 22 59 30 60 23 61 24 62 28 63 31 64 25 65
REMARK SMILES IDX 26 66 29 67 27 68 53 69 54 70 62 71 55 72 56 73 60 74 63 75
REMARK SMILES IDX 57 76 58 77 61 78 59 79 38 80 39 81 47 82 40 83 41 84 45 85
REMARK SMILES IDX 48 86 42 87 43 88 46 89 44 90
REMARK H PARENT 80 14 68 43 36 54
REMARK Flexibility Score: inf
ROOT
ATOM      1  C   UNL A   1      35.997  21.086  24.620  1.00  0.00     0.274 C 
ENDROOT
BRANCH   1   2
ATOM      2  O   UNL A   1      35.832  22.503  24.839  1.00  0.00    -0.462 OA
BRANCH   2   3
ATOM      3  C   UNL A   1      35.534  23.244  23.734  1.00  0.00     0.311 C 
ATOM      4  O   UNL A   1      36.052  23.097  22.637  1.00  0.00    -0.252 OA
BRANCH   3   5
ATOM      5  C   UNL A   1      34.442  24.253  24.053  1.00  0.00     0.123 C 
ATOM      6  C   UNL A   1      33.082  25.025  26.046  1.00  0.00     0.032 C 
ATOM      7  C   UNL A   1      33.630  23.816  25.285  1.00  0.00     0.098 C 
ATOM      8  N   UNL A   1      32.549  22.991  24.759  1.00  0.00    -0.321 N 
ATOM      9  C   UNL A   1      33.392  24.306  22.952  1.00  0.00     0.039 C 
ATOM     10  C   UNL A   1      32.440  23.171  23.315  1.00  0.00     0.122 C 
BRANCH   8  11
ATOM     11  C   UNL A   1      31.771  22.037  25.341  1.00  0.00     0.317 C 
ATOM     12  O   UNL A   1      30.874  22.350  26.130  1.00  0.00    -0.249 OA
ATOM     13  N   UNL A   1      31.902  20.720  25.108  1.00  0.00    -0.335 N 
ATOM     14  H   UNL A   1      31.277  20.195  25.660  1.00  0.00     0.165 HD
BRANCH  13  15
ATOM     15  C   UNL A   1      32.716  19.854  24.263  1.00  0.00     0.152 C 
BRANCH  15  16
ATOM     16  C   UNL A   1      33.146  18.570  24.987  1.00  0.00     0.163 C 
ATOM     17  C   UNL A   1      34.265  17.869  24.201  1.00  0.00     0.194 C 
ATOM     18  O   UNL A   1      32.005  17.693  25.101  1.00  0.00    -0.372 OA
ATOM     19  O   UNL A   1      34.655  16.657  24.855  1.00  0.00    -0.376 OA
ATOM     20  C   UNL A   1      32.393  16.456  25.723  1.00  0.00     0.189 C 
ATOM     21  C   UNL A   1      33.526  15.779  24.950  1.00  0.00     0.188 C 
ENDBRANCH  15  16
ENDBRANCH  13  15
ENDBRANCH   8  11
ENDBRANCH   3   5
ENDBRANCH   2   3
ENDBRANCH   1   2
BRANCH   1  22
ATOM     22  C   UNL A   1      37.423  20.644  24.944  1.00  0.00     0.275 C 
BRANCH  22  23
ATOM     23  O   UNL A   1      37.971  21.478  25.981  1.00  0.00    -0.458 OA
BRANCH  23  24
ATOM     24  C   UNL A   1      39.269  21.271  26.293  1.00  0.00     0.338 C 
ATOM     25  O   UNL A   1      39.921  20.251  26.162  1.00  0.00    -0.246 OA
BRANCH  24  26
ATOM     26  C   UNL A   1      39.850  22.532  26.783  1.00  0.00     0.060 A 
ATOM     27  C   UNL A   1      39.383  23.727  26.247  1.00  0.00     0.016 A 
ATOM     28  C   UNL A   1      40.926  22.535  27.670  1.00  0.00     0.016 A 
ATOM     29  C   UNL A   1      40.012  24.928  26.560  1.00  0.00     0.010 A 
ATOM     30  C   UNL A   1      41.526  23.753  28.025  1.00  0.00     0.010 A 
ATOM     31  C   UNL A   1      41.091  24.961  27.453  1.00  0.00    -0.014 A 
BRANCH  31  32
ATOM     32  C   UNL A   1      41.806  26.247  27.697  1.00  0.00     0.031 A 
ATOM     33  C   UNL A   1      41.182  27.297  28.577  1.00  0.00     0.074 A 
ATOM     34  C   UNL A   1      43.051  26.451  27.223  1.00  0.00     0.049 A 
ATOM     35  N   UNL A   1      41.575  28.524  28.815  1.00  0.00    -0.248 NA
ATOM     36  C   UNL A   1      39.957  26.910  29.295  1.00  0.00     0.031 C 
ATOM     37  C   UNL A   1      43.834  25.490  26.447  1.00  0.00     0.029 A 
ATOM     38  N   UNL A   1      43.891  27.532  27.353  1.00  0.00    -0.354 N 
ATOM     39  C   UNL A   1      40.622  29.069  29.666  1.00  0.00     0.074 A 
ATOM     40  C   UNL A   1      39.638  28.038  29.915  1.00  0.00     0.031 C 
ATOM     41  C   UNL A   1      45.054  26.001  26.216  1.00  0.00     0.029 A 
ATOM     42  C   UNL A   1      45.112  27.359  26.747  1.00  0.00     0.049 A 
ATOM     43  H   UNL A   1      43.640  28.353  27.835  1.00  0.00     0.167 HD
ATOM     44  C   UNL A   1      40.569  30.319  30.186  1.00  0.00     0.037 A 
ATOM     45  C   UNL A   1      46.146  28.211  26.602  1.00  0.00     0.037 A 
ATOM     46  C   UNL A   1      41.564  31.337  29.981  1.00  0.00     0.049 A 
ATOM     47  C   UNL A   1      46.031  29.617  27.126  1.00  0.00     0.074 A 
ATOM     48  C   UNL A   1      41.565  32.649  30.422  1.00  0.00     0.029 A 
ATOM     49  N   UNL A   1      42.752  31.146  29.293  1.00  0.00    -0.354 N 
ATOM     50  N   UNL A   1      45.072  30.161  27.833  1.00  0.00    -0.248 NA
ATOM     51  C   UNL A   1      47.132  30.537  26.800  1.00  0.00     0.031 C 
ATOM     52  C   UNL A   1      42.745  33.259  29.982  1.00  0.00     0.029 A 
ATOM     53  C   UNL A   1      43.491  32.318  29.294  1.00  0.00     0.049 A 
ATOM     54  H   UNL A   1      43.030  30.303  28.866  1.00  0.00     0.167 HD
ATOM     55  C   UNL A   1      45.452  31.482  28.037  1.00  0.00     0.074 A 
ATOM     56  C   UNL A   1      46.745  31.650  27.406  1.00  0.00     0.031 C 
ATOM     57  C   UNL A   1      44.781  32.470  28.675  1.00  0.00     0.037 A 
BRANCH  44  58
ATOM     58  C   UNL A   1      39.359  30.675  30.995  1.00  0.00     0.064 A 
ATOM     59  C   UNL A   1      39.316  30.487  32.383  1.00  0.00     0.173 A 
ATOM     60  C   UNL A   1      38.239  31.243  30.369  1.00  0.00     0.173 A 
ATOM     61  F   UNL A   1      40.355  29.931  33.022  1.00  0.00    -0.203 F 
ATOM     62  C   UNL A   1      38.185  30.843  33.115  1.00  0.00     0.198 A 
ATOM     63  C   UNL A   1      37.119  31.615  31.107  1.00  0.00     0.198 A 
ATOM     64  F   UNL A   1      38.235  31.442  29.043  1.00  0.00    -0.203 F 
ATOM     65  F   UNL A   1      38.148  30.623  34.436  1.00  0.00    -0.200 F 
ATOM     66  C   UNL A   1      37.091  31.411  32.478  1.00  0.00     0.200 A 
ATOM     67  F   UNL A   1      36.067  32.172  30.490  1.00  0.00    -0.200 F 
ATOM     68  F   UNL A   1      36.006  31.755  33.185  1.00  0.00    -0.200 F 
ENDBRANCH  44  58
BRANCH  45  69
ATOM     69  C   UNL A   1      47.375  27.780  25.885  1.00  0.00     0.064 A 
ATOM     70  C   UNL A   1      48.525  27.409  26.594  1.00  0.00     0.173 A 
ATOM     71  C   UNL A   1      47.439  27.772  24.485  1.00  0.00     0.173 A 
ATOM     72  F   UNL A   1      48.522  27.435  27.936  1.00  0.00    -0.203 F 
ATOM     73  C   UNL A   1      49.698  27.059  25.928  1.00  0.00     0.198 A 
ATOM     74  C   UNL A   1      48.602  27.393  23.820  1.00  0.00     0.198 A 
ATOM     75  F   UNL A   1      46.367  28.132  23.762  1.00  0.00    -0.203 F 
ATOM     76  F   UNL A   1      50.801  26.761  26.628  1.00  0.00    -0.200 F 
ATOM     77  C   UNL A   1      49.733  27.045  24.541  1.00  0.00     0.200 A 
ATOM     78  F   UNL A   1      48.629  27.377  22.479  1.00  0.00    -0.200 F 
ATOM     79  F   UNL A   1      50.863  26.713  23.900  1.00  0.00    -0.200 F 
ENDBRANCH  45  69
BRANCH  57  80
ATOM     80  C   UNL A   1      45.438  33.816  28.745  1.00  0.00     0.064 A 
ATOM     81  C   UNL A   1      46.321  34.144  29.783  1.00  0.00     0.173 A 
ATOM     82  C   UNL A   1      45.216  34.771  27.742  1.00  0.00     0.173 A 
ATOM     83  F   UNL A   1      46.553  33.268  30.774  1.00  0.00    -0.203 F 
ATOM     84  C   UNL A   1      46.946  35.387  29.825  1.00  0.00     0.198 A 
ATOM     85  C   UNL A   1      45.859  36.006  27.775  1.00  0.00     0.198 A 
ATOM     86  F   UNL A   1      44.382  34.503  26.726  1.00  0.00    -0.203 F 
ATOM     87  F   UNL A   1      47.760  35.693  30.845  1.00  0.00    -0.200 F 
ATOM     88  C   UNL A   1      46.719  36.315  28.819  1.00  0.00     0.200 A 
ATOM     89  F   UNL A   1      45.644  36.898  26.798  1.00  0.00    -0.200 F 
ATOM     90  F   UNL A   1      47.325  37.509  28.858  1.00  0.00    -0.200 F 
ENDBRANCH  57  80
ENDBRANCH  31  32
ENDBRANCH  24  26
ENDBRANCH  23  24
ENDBRANCH  22  23
ENDBRANCH   1  22
TORSDOF 14
ENDMDL
