MODEL 1
REMARK VINA RESULT:     -13.6      0.000      0.000
REMARK SMILES CC(C)[C@H](NC(=O)c1cc2cc(Cl)ccc2n1C)C(=O)N[C@@H](C(=O)OCCOC(=O)c1ccc(-c2c3nc(c(-c4c(F)c(F)c(F)c(F)c4F)c4ccc([nH]4)c(-c4c(F)c(F)c(F)c(F)c4F)c4nc(c(-c5c(F)c(F)c(F)c(F)c5F)c5ccc2[nH]5)C=C4)C=C3)cc1)c1ccccc1
REMARK SMILES IDX 26 1 25 2 23 3 24 4 22 5 21 6 19 7 20 8 4 10 2 11 1 12 3 13
REMARK SMILES IDX 5 14 6 15 7 17 8 18 9 19 17 20 10 21 16 22 18 23 11 24 15 25
REMARK SMILES IDX 12 26 14 27 13 28 94 29 95 30 99 31 96 32 98 33 97 34 27 35
REMARK SMILES IDX 28 36 29 37 30 38 31 39 32 40 93 41 33 42 92 43 34 44 35 45
REMARK SMILES IDX 36 46 86 47 37 48 91 49 85 50 87 51 38 52 90 53 84 54 83 55
REMARK SMILES IDX 39 57 71 58 51 59 70 60 52 61 55 62 69 63 88 64 53 65 54 66
REMARK SMILES IDX 68 68 89 69 56 70 40 71 41 72 49 73 42 74 43 75 47 76 50 77
REMARK SMILES IDX 44 78 45 79 48 80 46 81 72 82 73 83 81 84 74 85 75 86 79 87
REMARK SMILES IDX 82 88 76 89 77 90 80 91 78 92 57 93 58 94 66 95 59 96 60 97
REMARK SMILES IDX 64 98 67 99 61 100 62 101 65 102 63 103
REMARK H PARENT 21 9 5 16 87 56 55 67
REMARK Flexibility Score: inf
ROOT
ATOM      1  C   UNL A   1      37.084  21.927  25.332  1.00  0.00     0.274 C 
ENDROOT
BRANCH   1   2
ATOM      2  O   UNL A   1      36.352  20.655  25.248  1.00  0.00    -0.460 OA
BRANCH   2   3
ATOM      3  C   UNL A   1      35.013  20.728  25.455  1.00  0.00     0.333 C 
ATOM      4  O   UNL A   1      34.588  21.205  26.500  1.00  0.00    -0.249 OA
BRANCH   3   5
ATOM      5  C   UNL A   1      34.032  20.113  24.389  1.00  0.00     0.223 C 
BRANCH   5   6
ATOM      6  N   UNL A   1      32.686  20.603  24.082  1.00  0.00    -0.337 N 
ATOM      7  C   UNL A   1      32.283  21.862  23.777  1.00  0.00     0.243 C 
ATOM      8  O   UNL A   1      31.475  22.039  22.865  1.00  0.00    -0.273 OA
ATOM      9  H   UNL A   1      31.973  19.923  24.098  1.00  0.00     0.164 HD
BRANCH   7  10
ATOM     10  C   UNL A   1      32.857  23.013  24.543  1.00  0.00     0.174 C 
BRANCH  10  11
ATOM     11  C   UNL A   1      31.740  23.695  25.430  1.00  0.00     0.015 C 
ATOM     12  C   UNL A   1      30.695  22.783  26.081  1.00  0.00     0.010 C 
ATOM     13  C   UNL A   1      32.215  24.714  26.491  1.00  0.00     0.010 C 
ENDBRANCH  10  11
BRANCH  10  14
ATOM     14  N   UNL A   1      33.650  23.787  23.570  1.00  0.00    -0.339 N 
ATOM     15  C   UNL A   1      33.177  24.912  22.859  1.00  0.00     0.268 C 
ATOM     16  H   UNL A   1      34.576  23.500  23.405  1.00  0.00     0.164 HD
ATOM     17  O   UNL A   1      33.220  24.757  21.633  1.00  0.00    -0.268 OA
BRANCH  15  18
ATOM     18  C   UNL A   1      32.995  26.279  23.423  1.00  0.00     0.107 A 
ATOM     19  C   UNL A   1      34.028  26.949  24.102  1.00  0.00     0.042 A 
ATOM     20  N   UNL A   1      31.985  27.243  23.446  1.00  0.00    -0.340 N 
ATOM     21  C   UNL A   1      33.494  28.036  24.851  1.00  0.00     0.002 A 
ATOM     22  C   UNL A   1      32.143  28.090  24.541  1.00  0.00     0.048 A 
ATOM     23  C   UNL A   1      31.089  27.645  22.377  1.00  0.00     0.150 C 
ATOM     24  C   UNL A   1      34.014  28.950  25.791  1.00  0.00     0.030 A 
ATOM     25  C   UNL A   1      31.255  28.975  25.185  1.00  0.00     0.028 A 
ATOM     26  C   UNL A   1      33.143  29.835  26.436  1.00  0.00     0.041 A 
ATOM     27  C   UNL A   1      31.778  29.830  26.161  1.00  0.00     0.023 A 
ATOM     28  Cl  UNL A   1      33.771  30.961  27.579  1.00  0.00    -0.084 Cl
ENDBRANCH  15  18
ENDBRANCH  10  14
ENDBRANCH   7  10
ENDBRANCH   5   6
BRANCH   5  29
ATOM     29  C   UNL A   1      33.740  18.604  24.498  1.00  0.00    -0.014 A 
ATOM     30  C   UNL A   1      34.776  17.679  24.227  1.00  0.00     0.006 A 
ATOM     31  C   UNL A   1      32.602  18.134  25.165  1.00  0.00     0.006 A 
ATOM     32  C   UNL A   1      34.716  16.370  24.699  1.00  0.00     0.000 A 
ATOM     33  C   UNL A   1      32.528  16.814  25.610  1.00  0.00     0.000 A 
ATOM     34  C   UNL A   1      33.596  15.944  25.406  1.00  0.00     0.000 A 
ENDBRANCH   5  29
ENDBRANCH   3   5
ENDBRANCH   2   3
ENDBRANCH   1   2
BRANCH   1  35
ATOM     35  C   UNL A   1      38.561  21.810  25.753  1.00  0.00     0.275 C 
BRANCH  35  36
ATOM     36  O   UNL A   1      38.968  23.011  26.428  1.00  0.00    -0.458 OA
BRANCH  36  37
ATOM     37  C   UNL A   1      39.994  22.878  27.288  1.00  0.00     0.338 C 
ATOM     38  O   UNL A   1      40.551  21.831  27.636  1.00  0.00    -0.246 OA
BRANCH  37  39
ATOM     39  C   UNL A   1      40.616  24.205  27.312  1.00  0.00     0.060 A 
ATOM     40  C   UNL A   1      41.647  24.550  28.200  1.00  0.00     0.016 A 
ATOM     41  C   UNL A   1      39.879  25.187  26.681  1.00  0.00     0.016 A 
ATOM     42  C   UNL A   1      41.822  25.889  28.592  1.00  0.00     0.010 A 
ATOM     43  C   UNL A   1      40.071  26.492  27.089  1.00  0.00     0.010 A 
ATOM     44  C   UNL A   1      40.959  26.870  28.104  1.00  0.00    -0.014 A 
BRANCH  44  45
ATOM     45  C   UNL A   1      40.993  28.302  28.499  1.00  0.00     0.031 A 
ATOM     46  C   UNL A   1      42.181  29.034  27.964  1.00  0.00     0.074 A 
ATOM     47  C   UNL A   1      40.033  29.044  29.132  1.00  0.00     0.049 A 
ATOM     48  N   UNL A   1      43.094  29.596  28.688  1.00  0.00    -0.248 NA
ATOM     49  C   UNL A   1      42.458  29.129  26.520  1.00  0.00     0.031 C 
ATOM     50  C   UNL A   1      38.694  28.649  29.583  1.00  0.00     0.029 A 
ATOM     51  N   UNL A   1      40.027  30.396  29.443  1.00  0.00    -0.354 N 
ATOM     52  C   UNL A   1      43.942  30.246  27.802  1.00  0.00     0.074 A 
ATOM     53  C   UNL A   1      43.571  29.854  26.478  1.00  0.00     0.031 C 
ATOM     54  C   UNL A   1      37.936  29.734  29.882  1.00  0.00     0.029 A 
ATOM     55  C   UNL A   1      38.795  30.904  29.882  1.00  0.00     0.049 A 
ATOM     56  H   UNL A   1      40.830  30.960  29.363  1.00  0.00     0.167 HD
ATOM     57  C   UNL A   1      44.738  31.257  28.221  1.00  0.00     0.037 A 
ATOM     58  C   UNL A   1      38.499  32.144  30.360  1.00  0.00     0.037 A 
ATOM     59  C   UNL A   1      44.881  31.257  29.647  1.00  0.00     0.049 A 
ATOM     60  C   UNL A   1      39.734  32.671  30.957  1.00  0.00     0.074 A 
ATOM     61  C   UNL A   1      45.581  30.502  30.562  1.00  0.00     0.029 A 
ATOM     62  N   UNL A   1      43.864  31.872  30.317  1.00  0.00    -0.354 N 
ATOM     63  N   UNL A   1      40.242  32.205  32.059  1.00  0.00    -0.248 NA
ATOM     64  C   UNL A   1      40.535  33.659  30.249  1.00  0.00     0.031 C 
ATOM     65  C   UNL A   1      44.851  30.568  31.786  1.00  0.00     0.029 A 
ATOM     66  C   UNL A   1      43.741  31.380  31.594  1.00  0.00     0.049 A 
ATOM     67  H   UNL A   1      43.293  32.578  29.937  1.00  0.00     0.167 HD
ATOM     68  C   UNL A   1      41.578  32.476  31.928  1.00  0.00     0.074 A 
ATOM     69  C   UNL A   1      41.665  33.554  30.952  1.00  0.00     0.031 C 
ATOM     70  C   UNL A   1      42.498  31.551  32.308  1.00  0.00     0.037 A 
BRANCH  57  71
ATOM     71  C   UNL A   1      45.025  32.461  27.380  1.00  0.00     0.064 A 
ATOM     72  C   UNL A   1      46.286  32.607  26.784  1.00  0.00     0.173 A 
ATOM     73  C   UNL A   1      44.195  33.606  27.376  1.00  0.00     0.173 A 
ATOM     74  F   UNL A   1      47.158  31.589  26.787  1.00  0.00    -0.203 F 
ATOM     75  C   UNL A   1      46.697  33.823  26.233  1.00  0.00     0.198 A 
ATOM     76  C   UNL A   1      44.589  34.802  26.783  1.00  0.00     0.198 A 
ATOM     77  F   UNL A   1      43.026  33.629  28.034  1.00  0.00    -0.203 F 
ATOM     78  F   UNL A   1      47.940  33.948  25.751  1.00  0.00    -0.200 F 
ATOM     79  C   UNL A   1      45.847  34.918  26.230  1.00  0.00     0.200 A 
ATOM     80  F   UNL A   1      43.766  35.861  26.817  1.00  0.00    -0.200 F 
ATOM     81  F   UNL A   1      46.257  36.094  25.737  1.00  0.00    -0.200 F 
ENDBRANCH  57  71
BRANCH  58  82
ATOM     82  C   UNL A   1      37.269  32.964  30.519  1.00  0.00     0.064 A 
ATOM     83  C   UNL A   1      36.789  33.795  29.486  1.00  0.00     0.173 A 
ATOM     84  C   UNL A   1      36.351  32.644  31.529  1.00  0.00     0.173 A 
ATOM     85  F   UNL A   1      37.582  34.128  28.458  1.00  0.00    -0.203 F 
ATOM     86  C   UNL A   1      35.459  34.224  29.436  1.00  0.00     0.198 A 
ATOM     87  C   UNL A   1      35.023  33.091  31.492  1.00  0.00     0.198 A 
ATOM     88  F   UNL A   1      36.703  31.783  32.488  1.00  0.00    -0.203 F 
ATOM     89  F   UNL A   1      35.022  34.927  28.382  1.00  0.00    -0.200 F 
ATOM     90  C   UNL A   1      34.572  33.861  30.433  1.00  0.00     0.200 A 
ATOM     91  F   UNL A   1      34.163  32.702  32.445  1.00  0.00    -0.200 F 
ATOM     92  F   UNL A   1      33.279  34.204  30.347  1.00  0.00    -0.200 F 
ENDBRANCH  58  82
BRANCH  70  93
ATOM     93  C   UNL A   1      42.103  30.558  33.363  1.00  0.00     0.064 A 
ATOM     94  C   UNL A   1      41.629  29.257  33.116  1.00  0.00     0.173 A 
ATOM     95  C   UNL A   1      42.258  30.933  34.703  1.00  0.00     0.173 A 
ATOM     96  F   UNL A   1      41.501  28.791  31.870  1.00  0.00    -0.203 F 
ATOM     97  C   UNL A   1      41.302  28.390  34.158  1.00  0.00     0.198 A 
ATOM     98  C   UNL A   1      41.968  30.053  35.743  1.00  0.00     0.198 A 
ATOM     99  F   UNL A   1      42.721  32.155  35.008  1.00  0.00    -0.203 F 
ATOM    100  F   UNL A   1      40.831  27.163  33.890  1.00  0.00    -0.200 F 
ATOM    101  C   UNL A   1      41.482  28.785  35.471  1.00  0.00     0.200 A 
ATOM    102  F   UNL A   1      42.175  30.432  37.011  1.00  0.00    -0.200 F 
ATOM    103  F   UNL A   1      41.204  27.941  36.474  1.00  0.00    -0.200 F 
ENDBRANCH  70  93
ENDBRANCH  44  45
ENDBRANCH  37  39
ENDBRANCH  36  37
ENDBRANCH  35  36
ENDBRANCH   1  35
TORSDOF 17
ENDMDL
MODEL 2
REMARK VINA RESULT:     -12.4      5.425     10.367
REMARK SMILES CC(C)[C@H](NC(=O)c1cc2cc(Cl)ccc2n1C)C(=O)N[C@@H](C(=O)OCCOC(=O)c1ccc(-c2c3nc(c(-c4c(F)c(F)c(F)c(F)c4F)c4ccc([nH]4)c(-c4c(F)c(F)c(F)c(F)c4F)c4nc(c(-c5c(F)c(F)c(F)c(F)c5F)c5ccc2[nH]5)C=C4)C=C3)cc1)c1ccccc1
REMARK SMILES IDX 26 1 25 2 23 3 24 4 22 5 21 6 19 7 20 8 4 10 2 11 1 12 3 13
REMARK SMILES IDX 5 14 6 15 7 17 8 18 9 19 17 20 10 21 16 22 18 23 11 24 15 25
REMARK SMILES IDX 12 26 14 27 13 28 94 29 95 30 99 31 96 32 98 33 97 34 27 35
REMARK SMILES IDX 28 36 29 37 30 38 31 39 32 40 93 41 33 42 92 43 34 44 35 45
REMARK SMILES IDX 36 46 86 47 37 48 91 49 85 50 87 51 38 52 90 53 84 54 83 55
REMARK SMILES IDX 39 57 71 58 51 59 70 60 52 61 55 62 69 63 88 64 53 65 54 66
REMARK SMILES IDX 68 68 89 69 56 70 40 71 41 72 49 73 42 74 43 75 47 76 50 77
REMARK SMILES IDX 44 78 45 79 48 80 46 81 72 82 73 83 81 84 74 85 75 86 79 87
REMARK SMILES IDX 82 88 76 89 77 90 80 91 78 92 57 93 58 94 66 95 59 96 60 97
REMARK SMILES IDX 64 98 67 99 61 100 62 101 65 102 63 103
REMARK H PARENT 21 9 5 16 87 56 55 67
REMARK Flexibility Score: inf
ROOT
ATOM      1  C   UNL A   1      45.104  32.431  25.961  1.00  0.00     0.274 C 
ENDROOT
BRANCH   1   2
ATOM      2  O   UNL A   1      43.777  31.798  25.946  1.00  0.00    -0.460 OA
BRANCH   2   3
ATOM      3  C   UNL A   1      43.724  30.523  26.406  1.00  0.00     0.333 C 
ATOM      4  O   UNL A   1      42.766  29.815  26.118  1.00  0.00    -0.249 OA
BRANCH   3   5
ATOM      5  C   UNL A   1      44.848  30.005  27.379  1.00  0.00     0.223 C 
BRANCH   5   6
ATOM      6  N   UNL A   1      45.295  28.616  27.507  1.00  0.00    -0.337 N 
ATOM      7  C   UNL A   1      44.567  27.472  27.435  1.00  0.00     0.243 C 
ATOM      8  O   UNL A   1      45.007  26.509  26.808  1.00  0.00    -0.273 OA
ATOM      9  H   UNL A   1      46.259  28.494  27.668  1.00  0.00     0.164 HD
BRANCH   7  10
ATOM     10  C   UNL A   1      43.227  27.423  28.100  1.00  0.00     0.174 C 
BRANCH  10  11
ATOM     11  C   UNL A   1      43.303  26.567  29.427  1.00  0.00     0.015 C 
ATOM     12  C   UNL A   1      44.679  26.054  29.863  1.00  0.00     0.010 C 
ATOM     13  C   UNL A   1      42.590  27.143  30.672  1.00  0.00     0.010 C 
ENDBRANCH  10  11
BRANCH  10  14
ATOM     14  N   UNL A   1      42.261  27.106  27.032  1.00  0.00    -0.339 N 
ATOM     15  C   UNL A   1      42.383  26.027  26.128  1.00  0.00     0.268 C 
ATOM     16  H   UNL A   1      41.473  27.689  26.942  1.00  0.00     0.164 HD
ATOM     17  O   UNL A   1      42.423  26.392  24.949  1.00  0.00    -0.268 OA
BRANCH  15  18
ATOM     18  C   UNL A   1      42.119  24.596  26.449  1.00  0.00     0.107 A 
ATOM     19  C   UNL A   1      43.128  23.620  26.391  1.00  0.00     0.042 A 
ATOM     20  N   UNL A   1      41.033  23.838  26.893  1.00  0.00    -0.340 N 
ATOM     21  C   UNL A   1      42.548  22.319  26.366  1.00  0.00     0.002 A 
ATOM     22  C   UNL A   1      41.182  22.505  26.516  1.00  0.00     0.048 A 
ATOM     23  C   UNL A   1      40.045  24.171  27.902  1.00  0.00     0.150 C 
ATOM     24  C   UNL A   1      43.042  21.011  26.189  1.00  0.00     0.030 A 
ATOM     25  C   UNL A   1      40.261  21.442  26.424  1.00  0.00     0.028 A 
ATOM     26  C   UNL A   1      42.137  19.947  26.097  1.00  0.00     0.041 A 
ATOM     27  C   UNL A   1      40.764  20.160  26.184  1.00  0.00     0.023 A 
ATOM     28  Cl  UNL A   1      42.733  18.342  25.890  1.00  0.00    -0.084 Cl
ENDBRANCH  15  18
ENDBRANCH  10  14
ENDBRANCH   7  10
ENDBRANCH   5   6
BRANCH   5  29
ATOM     29  C   UNL A   1      44.704  30.370  28.869  1.00  0.00    -0.014 A 
ATOM     30  C   UNL A   1      43.417  30.646  29.390  1.00  0.00     0.006 A 
ATOM     31  C   UNL A   1      45.738  30.117  29.778  1.00  0.00     0.006 A 
ATOM     32  C   UNL A   1      43.162  30.566  30.757  1.00  0.00     0.000 A 
ATOM     33  C   UNL A   1      45.488  30.068  31.150  1.00  0.00     0.000 A 
ATOM     34  C   UNL A   1      44.197  30.260  31.635  1.00  0.00     0.000 A 
ENDBRANCH   5  29
ENDBRANCH   3   5
ENDBRANCH   2   3
ENDBRANCH   1   2
BRANCH   1  35
ATOM     35  C   UNL A   1      45.099  33.971  25.916  1.00  0.00     0.275 C 
BRANCH  35  36
ATOM     36  O   UNL A   1      45.853  34.488  27.024  1.00  0.00    -0.458 OA
BRANCH  36  37
ATOM     37  C   UNL A   1      45.502  35.717  27.446  1.00  0.00     0.338 C 
ATOM     38  O   UNL A   1      45.337  36.728  26.756  1.00  0.00    -0.246 OA
BRANCH  37  39
ATOM     39  C   UNL A   1      44.879  35.482  28.751  1.00  0.00     0.060 A 
ATOM     40  C   UNL A   1      45.120  34.330  29.517  1.00  0.00     0.016 A 
ATOM     41  C   UNL A   1      43.772  36.269  29.001  1.00  0.00     0.016 A 
ATOM     42  C   UNL A   1      44.147  33.868  30.421  1.00  0.00     0.010 A 
ATOM     43  C   UNL A   1      42.833  35.787  29.892  1.00  0.00     0.010 A 
ATOM     44  C   UNL A   1      42.939  34.552  30.545  1.00  0.00    -0.014 A 
BRANCH  44  45
ATOM     45  C   UNL A   1      41.806  34.124  31.407  1.00  0.00     0.031 A 
ATOM     46  C   UNL A   1      42.201  33.896  32.830  1.00  0.00     0.074 A 
ATOM     47  C   UNL A   1      40.471  34.068  31.110  1.00  0.00     0.049 A 
ATOM     48  N   UNL A   1      42.110  32.765  33.452  1.00  0.00    -0.248 NA
ATOM     49  C   UNL A   1      42.803  34.957  33.656  1.00  0.00     0.031 C 
ATOM     50  C   UNL A   1      39.774  34.430  29.870  1.00  0.00     0.029 A 
ATOM     51  N   UNL A   1      39.400  33.736  31.927  1.00  0.00    -0.354 N 
ATOM     52  C   UNL A   1      42.476  33.020  34.767  1.00  0.00     0.074 A 
ATOM     53  C   UNL A   1      42.985  34.354  34.826  1.00  0.00     0.031 C 
ATOM     54  C   UNL A   1      38.436  34.528  30.070  1.00  0.00     0.029 A 
ATOM     55  C   UNL A   1      38.132  34.002  31.389  1.00  0.00     0.049 A 
ATOM     56  H   UNL A   1      39.520  33.341  32.820  1.00  0.00     0.167 HD
ATOM     57  C   UNL A   1      42.102  32.184  35.763  1.00  0.00     0.037 A 
ATOM     58  C   UNL A   1      36.904  33.692  31.890  1.00  0.00     0.037 A 
ATOM     59  C   UNL A   1      41.696  30.908  35.254  1.00  0.00     0.049 A 
ATOM     60  C   UNL A   1      37.081  32.497  32.727  1.00  0.00     0.074 A 
ATOM     61  C   UNL A   1      42.344  29.802  34.749  1.00  0.00     0.029 A 
ATOM     62  N   UNL A   1      40.403  30.857  34.820  1.00  0.00    -0.354 N 
ATOM     63  N   UNL A   1      37.342  31.322  32.236  1.00  0.00    -0.248 NA
ATOM     64  C   UNL A   1      37.116  32.608  34.178  1.00  0.00     0.031 C 
ATOM     65  C   UNL A   1      41.426  29.162  33.865  1.00  0.00     0.029 A 
ATOM     66  C   UNL A   1      40.234  29.876  33.873  1.00  0.00     0.049 A 
ATOM     67  H   UNL A   1      39.684  31.446  35.143  1.00  0.00     0.167 HD
ATOM     68  C   UNL A   1      38.014  30.699  33.253  1.00  0.00     0.074 A 
ATOM     69  C   UNL A   1      37.641  31.415  34.466  1.00  0.00     0.031 C 
ATOM     70  C   UNL A   1      39.103  29.934  32.978  1.00  0.00     0.037 A 
BRANCH  57  71
ATOM     71  C   UNL A   1      41.715  32.672  37.124  1.00  0.00     0.064 A 
ATOM     72  C   UNL A   1      42.386  32.184  38.254  1.00  0.00     0.173 A 
ATOM     73  C   UNL A   1      40.520  33.389  37.367  1.00  0.00     0.173 A 
ATOM     74  F   UNL A   1      43.500  31.451  38.115  1.00  0.00    -0.203 F 
ATOM     75  C   UNL A   1      41.889  32.385  39.543  1.00  0.00     0.198 A 
ATOM     76  C   UNL A   1      40.052  33.629  38.656  1.00  0.00     0.198 A 
ATOM     77  F   UNL A   1      39.721  33.784  36.365  1.00  0.00    -0.203 F 
ATOM     78  F   UNL A   1      42.511  31.829  40.591  1.00  0.00    -0.200 F 
ATOM     79  C   UNL A   1      40.724  33.110  39.743  1.00  0.00     0.200 A 
ATOM     80  F   UNL A   1      38.907  34.305  38.830  1.00  0.00    -0.200 F 
ATOM     81  F   UNL A   1      40.227  33.269  40.977  1.00  0.00    -0.200 F 
ENDBRANCH  57  71
BRANCH  58  82
ATOM     82  C   UNL A   1      35.513  34.176  31.689  1.00  0.00     0.064 A 
ATOM     83  C   UNL A   1      34.946  35.176  32.505  1.00  0.00     0.173 A 
ATOM     84  C   UNL A   1      34.871  33.943  30.465  1.00  0.00     0.173 A 
ATOM     85  F   UNL A   1      35.509  35.493  33.679  1.00  0.00    -0.203 F 
ATOM     86  C   UNL A   1      33.847  35.936  32.093  1.00  0.00     0.198 A 
ATOM     87  C   UNL A   1      33.756  34.689  30.059  1.00  0.00     0.198 A 
ATOM     88  F   UNL A   1      35.406  33.081  29.595  1.00  0.00    -0.203 F 
ATOM     89  F   UNL A   1      33.406  36.945  32.858  1.00  0.00    -0.200 F 
ATOM     90  C   UNL A   1      33.260  35.701  30.863  1.00  0.00     0.200 A 
ATOM     91  F   UNL A   1      33.218  34.477  28.849  1.00  0.00    -0.200 F 
ATOM     92  F   UNL A   1      32.258  36.480  30.432  1.00  0.00    -0.200 F 
ENDBRANCH  58  82
BRANCH  70  93
ATOM     93  C   UNL A   1      39.201  29.313  31.615  1.00  0.00     0.064 A 
ATOM     94  C   UNL A   1      39.721  29.944  30.471  1.00  0.00     0.173 A 
ATOM     95  C   UNL A   1      38.783  27.984  31.472  1.00  0.00     0.173 A 
ATOM     96  F   UNL A   1      40.195  31.193  30.523  1.00  0.00    -0.203 F 
ATOM     97  C   UNL A   1      39.793  29.286  29.243  1.00  0.00     0.198 A 
ATOM     98  C   UNL A   1      38.891  27.315  30.255  1.00  0.00     0.198 A 
ATOM     99  F   UNL A   1      38.291  27.319  32.528  1.00  0.00    -0.203 F 
ATOM    100  F   UNL A   1      40.273  29.922  28.165  1.00  0.00    -0.200 F 
ATOM    101  C   UNL A   1      39.387  27.968  29.139  1.00  0.00     0.200 A 
ATOM    102  F   UNL A   1      38.525  26.028  30.170  1.00  0.00    -0.200 F 
ATOM    103  F   UNL A   1      39.488  27.321  27.970  1.00  0.00    -0.200 F 
ENDBRANCH  70  93
ENDBRANCH  44  45
ENDBRANCH  37  39
ENDBRANCH  36  37
ENDBRANCH  35  36
ENDBRANCH   1  35
TORSDOF 17
ENDMDL
MODEL 3
REMARK VINA RESULT:     -12.4      6.252     12.842
REMARK SMILES CC(C)[C@H](NC(=O)c1cc2cc(Cl)ccc2n1C)C(=O)N[C@@H](C(=O)OCCOC(=O)c1ccc(-c2c3nc(c(-c4c(F)c(F)c(F)c(F)c4F)c4ccc([nH]4)c(-c4c(F)c(F)c(F)c(F)c4F)c4nc(c(-c5c(F)c(F)c(F)c(F)c5F)c5ccc2[nH]5)C=C4)C=C3)cc1)c1ccccc1
REMARK SMILES IDX 26 1 25 2 23 3 24 4 22 5 21 6 19 7 20 8 4 10 2 11 1 12 3 13
REMARK SMILES IDX 5 14 6 15 7 17 8 18 9 19 17 20 10 21 16 22 18 23 11 24 15 25
REMARK SMILES IDX 12 26 14 27 13 28 94 29 95 30 99 31 96 32 98 33 97 34 27 35
REMARK SMILES IDX 28 36 29 37 30 38 31 39 32 40 93 41 33 42 92 43 34 44 35 45
REMARK SMILES IDX 36 46 86 47 37 48 91 49 85 50 87 51 38 52 90 53 84 54 83 55
REMARK SMILES IDX 39 57 71 58 51 59 70 60 52 61 55 62 69 63 88 64 53 65 54 66
REMARK SMILES IDX 68 68 89 69 56 70 40 71 41 72 49 73 42 74 43 75 47 76 50 77
REMARK SMILES IDX 44 78 45 79 48 80 46 81 72 82 73 83 81 84 74 85 75 86 79 87
REMARK SMILES IDX 82 88 76 89 77 90 80 91 78 92 57 93 58 94 66 95 59 96 60 97
REMARK SMILES IDX 64 98 67 99 61 100 62 101 65 102 63 103
REMARK H PARENT 21 9 5 16 87 56 55 67
REMARK Flexibility Score: inf
ROOT
ATOM      1  C   UNL A   1      34.924  33.887  32.182  1.00  0.00     0.274 C 
ENDROOT
BRANCH   1   2
ATOM      2  O   UNL A   1      35.198  32.573  32.783  1.00  0.00    -0.460 OA
BRANCH   2   3
ATOM      3  C   UNL A   1      36.183  32.542  33.714  1.00  0.00     0.333 C 
ATOM      4  O   UNL A   1      36.054  33.179  34.753  1.00  0.00    -0.249 OA
BRANCH   3   5
ATOM      5  C   UNL A   1      37.515  31.762  33.405  1.00  0.00     0.223 C 
BRANCH   5   6
ATOM      6  N   UNL A   1      38.240  30.901  34.342  1.00  0.00    -0.337 N 
ATOM      7  C   UNL A   1      38.464  31.079  35.670  1.00  0.00     0.243 C 
ATOM      8  O   UNL A   1      38.342  30.126  36.440  1.00  0.00    -0.273 OA
ATOM      9  H   UNL A   1      38.618  30.078  33.956  1.00  0.00     0.164 HD
BRANCH   7  10
ATOM     10  C   UNL A   1      38.826  32.443  36.168  1.00  0.00     0.174 C 
BRANCH  10  11
ATOM     11  C   UNL A   1      40.396  32.623  36.186  1.00  0.00     0.015 C 
ATOM     12  C   UNL A   1      41.249  31.471  35.644  1.00  0.00     0.010 C 
ATOM     13  C   UNL A   1      40.955  33.945  35.613  1.00  0.00     0.010 C 
ENDBRANCH  10  11
BRANCH  10  14
ATOM     14  N   UNL A   1      38.010  32.657  37.378  1.00  0.00    -0.339 N 
ATOM     15  C   UNL A   1      38.529  32.803  38.684  1.00  0.00     0.268 C 
ATOM     16  H   UNL A   1      37.033  32.703  37.268  1.00  0.00     0.164 HD
ATOM     17  O   UNL A   1      38.106  31.944  39.466  1.00  0.00    -0.268 OA
BRANCH  15  18
ATOM     18  C   UNL A   1      39.196  34.024  39.219  1.00  0.00     0.107 A 
ATOM     19  C   UNL A   1      38.476  35.044  39.864  1.00  0.00     0.042 A 
ATOM     20  N   UNL A   1      40.503  34.503  39.325  1.00  0.00    -0.340 N 
ATOM     21  C   UNL A   1      39.263  36.230  39.929  1.00  0.00     0.002 A 
ATOM     22  C   UNL A   1      40.507  35.894  39.414  1.00  0.00     0.048 A 
ATOM     23  C   UNL A   1      41.711  33.779  39.676  1.00  0.00     0.150 C 
ATOM     24  C   UNL A   1      39.031  37.560  40.333  1.00  0.00     0.030 A 
ATOM     25  C   UNL A   1      41.522  36.849  39.210  1.00  0.00     0.028 A 
ATOM     26  C   UNL A   1      40.032  38.517  40.138  1.00  0.00     0.041 A 
ATOM     27  C   UNL A   1      41.251  38.176  39.557  1.00  0.00     0.023 A 
ATOM     28  Cl  UNL A   1      39.759  40.144  40.638  1.00  0.00    -0.084 Cl
ENDBRANCH  15  18
ENDBRANCH  10  14
ENDBRANCH   7  10
ENDBRANCH   5   6
BRANCH   5  29
ATOM     29  C   UNL A   1      38.692  32.585  32.846  1.00  0.00    -0.014 A 
ATOM     30  C   UNL A   1      39.894  31.923  32.501  1.00  0.00     0.006 A 
ATOM     31  C   UNL A   1      38.500  33.886  32.366  1.00  0.00     0.006 A 
ATOM     32  C   UNL A   1      40.810  32.503  31.628  1.00  0.00     0.000 A 
ATOM     33  C   UNL A   1      39.434  34.480  31.516  1.00  0.00     0.000 A 
ATOM     34  C   UNL A   1      40.570  33.777  31.122  1.00  0.00     0.000 A 
ENDBRANCH   5  29
ENDBRANCH   3   5
ENDBRANCH   2   3
ENDBRANCH   1   2
BRANCH   1  35
ATOM     35  C   UNL A   1      35.066  33.952  30.649  1.00  0.00     0.275 C 
BRANCH  35  36
ATOM     36  O   UNL A   1      35.875  32.856  30.193  1.00  0.00    -0.458 OA
BRANCH  36  37
ATOM     37  C   UNL A   1      35.451  32.246  29.070  1.00  0.00     0.338 C 
ATOM     38  O   UNL A   1      34.492  32.565  28.360  1.00  0.00    -0.246 OA
BRANCH  37  39
ATOM     39  C   UNL A   1      36.620  31.490  28.611  1.00  0.00     0.060 A 
ATOM     40  C   UNL A   1      36.531  30.192  28.082  1.00  0.00     0.016 A 
ATOM     41  C   UNL A   1      37.827  31.976  29.073  1.00  0.00     0.016 A 
ATOM     42  C   UNL A   1      37.624  29.314  28.184  1.00  0.00     0.010 A 
ATOM     43  C   UNL A   1      38.881  31.089  29.163  1.00  0.00     0.010 A 
ATOM     44  C   UNL A   1      38.791  29.733  28.820  1.00  0.00    -0.014 A 
BRANCH  44  45
ATOM     45  C   UNL A   1      39.984  28.878  29.056  1.00  0.00     0.031 A 
ATOM     46  C   UNL A   1      40.256  28.634  30.506  1.00  0.00     0.074 A 
ATOM     47  C   UNL A   1      40.740  28.185  28.151  1.00  0.00     0.049 A 
ATOM     48  N   UNL A   1      41.332  28.993  31.128  1.00  0.00    -0.248 NA
ATOM     49  C   UNL A   1      39.268  27.996  31.392  1.00  0.00     0.031 C 
ATOM     50  C   UNL A   1      40.582  28.069  26.697  1.00  0.00     0.029 A 
ATOM     51  N   UNL A   1      41.811  27.330  28.367  1.00  0.00    -0.354 N 
ATOM     52  C   UNL A   1      41.222  28.481  32.413  1.00  0.00     0.074 A 
ATOM     53  C   UNL A   1      39.899  27.959  32.561  1.00  0.00     0.031 C 
ATOM     54  C   UNL A   1      41.333  27.055  26.200  1.00  0.00     0.029 A 
ATOM     55  C   UNL A   1      42.222  26.590  27.249  1.00  0.00     0.049 A 
ATOM     56  H   UNL A   1      42.253  27.250  29.244  1.00  0.00     0.167 HD
ATOM     57  C   UNL A   1      42.319  28.307  33.186  1.00  0.00     0.037 A 
ATOM     58  C   UNL A   1      43.296  25.763  27.114  1.00  0.00     0.037 A 
ATOM     59  C   UNL A   1      43.433  29.061  32.694  1.00  0.00     0.049 A 
ATOM     60  C   UNL A   1      44.314  26.238  28.061  1.00  0.00     0.074 A 
ATOM     61  C   UNL A   1      43.799  30.389  32.704  1.00  0.00     0.029 A 
ATOM     62  N   UNL A   1      44.128  28.453  31.689  1.00  0.00    -0.354 N 
ATOM     63  N   UNL A   1      44.964  27.352  27.900  1.00  0.00    -0.248 NA
ATOM     64  C   UNL A   1      44.539  25.539  29.318  1.00  0.00     0.031 C 
ATOM     65  C   UNL A   1      44.632  30.589  31.563  1.00  0.00     0.029 A 
ATOM     66  C   UNL A   1      44.774  29.375  30.902  1.00  0.00     0.049 A 
ATOM     67  H   UNL A   1      44.164  27.480  31.547  1.00  0.00     0.167 HD
ATOM     68  C   UNL A   1      45.289  27.713  29.181  1.00  0.00     0.074 A 
ATOM     69  C   UNL A   1      45.227  26.485  29.962  1.00  0.00     0.031 C 
ATOM     70  C   UNL A   1      45.185  29.012  29.567  1.00  0.00     0.037 A 
BRANCH  57  71
ATOM     71  C   UNL A   1      42.477  27.143  34.115  1.00  0.00     0.064 A 
ATOM     72  C   UNL A   1      42.073  27.262  35.452  1.00  0.00     0.173 A 
ATOM     73  C   UNL A   1      43.270  26.015  33.798  1.00  0.00     0.173 A 
ATOM     74  F   UNL A   1      41.362  28.325  35.852  1.00  0.00    -0.203 F 
ATOM     75  C   UNL A   1      42.450  26.323  36.415  1.00  0.00     0.198 A 
ATOM     76  C   UNL A   1      43.604  25.056  34.750  1.00  0.00     0.198 A 
ATOM     77  F   UNL A   1      43.828  25.866  32.588  1.00  0.00    -0.203 F 
ATOM     78  F   UNL A   1      42.119  26.517  37.698  1.00  0.00    -0.200 F 
ATOM     79  C   UNL A   1      43.212  25.220  36.062  1.00  0.00     0.200 A 
ATOM     80  F   UNL A   1      44.367  24.012  34.398  1.00  0.00    -0.200 F 
ATOM     81  F   UNL A   1      43.606  24.342  36.994  1.00  0.00    -0.200 F 
ENDBRANCH  57  71
BRANCH  58  82
ATOM     82  C   UNL A   1      43.686  24.657  26.201  1.00  0.00     0.064 A 
ATOM     83  C   UNL A   1      44.783  24.768  25.322  1.00  0.00     0.173 A 
ATOM     84  C   UNL A   1      43.234  23.356  26.459  1.00  0.00     0.173 A 
ATOM     85  F   UNL A   1      45.308  25.968  25.040  1.00  0.00    -0.203 F 
ATOM     86  C   UNL A   1      45.423  23.645  24.788  1.00  0.00     0.198 A 
ATOM     87  C   UNL A   1      43.859  22.230  25.908  1.00  0.00     0.198 A 
ATOM     88  F   UNL A   1      42.263  23.164  27.358  1.00  0.00    -0.203 F 
ATOM     89  F   UNL A   1      46.524  23.795  24.039  1.00  0.00    -0.200 F 
ATOM     90  C   UNL A   1      44.969  22.374  25.092  1.00  0.00     0.200 A 
ATOM     91  F   UNL A   1      43.434  21.002  26.239  1.00  0.00    -0.200 F 
ATOM     92  F   UNL A   1      45.628  21.295  24.646  1.00  0.00    -0.200 F 
ENDBRANCH  58  82
BRANCH  70  93
ATOM     93  C   UNL A   1      45.299  30.072  28.509  1.00  0.00     0.064 A 
ATOM     94  C   UNL A   1      44.217  30.658  27.828  1.00  0.00     0.173 A 
ATOM     95  C   UNL A   1      46.578  30.552  28.202  1.00  0.00     0.173 A 
ATOM     96  F   UNL A   1      42.957  30.304  28.094  1.00  0.00    -0.203 F 
ATOM     97  C   UNL A   1      44.412  31.653  26.870  1.00  0.00     0.198 A 
ATOM     98  C   UNL A   1      46.768  31.573  27.274  1.00  0.00     0.198 A 
ATOM     99  F   UNL A   1      47.652  30.047  28.828  1.00  0.00    -0.203 F 
ATOM    100  F   UNL A   1      43.362  32.177  26.221  1.00  0.00    -0.200 F 
ATOM    101  C   UNL A   1      45.687  32.117  26.602  1.00  0.00     0.200 A 
ATOM    102  F   UNL A   1      48.003  32.038  27.043  1.00  0.00    -0.200 F 
ATOM    103  F   UNL A   1      45.874  33.098  25.709  1.00  0.00    -0.200 F 
ENDBRANCH  70  93
ENDBRANCH  44  45
ENDBRANCH  37  39
ENDBRANCH  36  37
ENDBRANCH  35  36
ENDBRANCH   1  35
TORSDOF 17
ENDMDL
