MODEL 1
REMARK VINA RESULT:     -12.1      0.000      0.000
REMARK SMILES C[C@@H](Cc1cccs1)N(C)c1ncc(Br)cc1C(=O)OCCOC(=O)c1ccc(-c2c3nc(c(-c4c(F)c(F)c(F)c(F)c4F)c4ccc([nH]4)c(-c4c(F)c(F)c(F)c(F)c4F)c4nc(c(-c5c(F)c(F)c(F)c(F)c5F)c5ccc2[nH]5)C=C4)C=C3)cc1
REMARK SMILES IDX 21 1 20 2 18 3 19 4 17 5 11 6 12 7 13 8 16 9 14 10 15 11
REMARK SMILES IDX 9 12 10 13 2 14 1 15 3 16 4 17 5 18 8 19 6 20 7 21 22 22
REMARK SMILES IDX 23 23 24 24 25 25 26 26 27 27 88 28 28 29 87 30 29 31 30 32
REMARK SMILES IDX 31 33 81 34 32 35 86 36 80 37 82 38 33 39 85 40 79 41 78 42
REMARK SMILES IDX 34 44 66 45 46 46 65 47 47 48 50 49 64 50 83 51 48 52 49 53
REMARK SMILES IDX 63 55 84 56 51 57 35 58 36 59 44 60 37 61 38 62 42 63 45 64
REMARK SMILES IDX 39 65 40 66 43 67 41 68 67 69 68 70 76 71 69 72 70 73 74 74
REMARK SMILES IDX 77 75 71 76 72 77 75 78 73 79 52 80 53 81 61 82 54 83 55 84
REMARK SMILES IDX 59 85 62 86 56 87 57 88 60 89 58 90
REMARK H PARENT 82 43 50 54
REMARK Flexibility Score: inf
ROOT
ATOM      1  C   UNL A   1      32.033  27.047  26.489  1.00  0.00     0.275 C 
ENDROOT
BRANCH   1   2
ATOM      2  O   UNL A   1      33.166  26.360  25.879  1.00  0.00    -0.458 OA
BRANCH   2   3
ATOM      3  C   UNL A   1      33.140  24.992  25.886  1.00  0.00     0.342 C 
ATOM      4  O   UNL A   1      32.323  24.320  26.499  1.00  0.00    -0.246 OA
BRANCH   3   5
ATOM      5  C   UNL A   1      34.268  24.352  25.143  1.00  0.00     0.103 A 
ATOM      6  C   UNL A   1      34.185  23.640  23.922  1.00  0.00     0.143 A 
ATOM      7  N   UNL A   1      35.253  22.927  23.467  1.00  0.00    -0.237 NA
ATOM      8  C   UNL A   1      36.423  22.984  24.129  1.00  0.00     0.129 A 
ATOM      9  C   UNL A   1      35.491  24.352  25.836  1.00  0.00     0.037 A 
ATOM     10  C   UNL A   1      36.590  23.692  25.299  1.00  0.00     0.037 A 
ATOM     11  Br  UNL A   1      38.276  23.766  26.132  1.00  0.00    -0.049 Br
BRANCH   6  12
ATOM     12  N   UNL A   1      33.132  23.624  23.040  1.00  0.00    -0.356 N 
ATOM     13  C   UNL A   1      32.942  24.764  22.143  1.00  0.00     0.145 C 
BRANCH  12  14
ATOM     14  C   UNL A   1      31.978  22.772  23.235  1.00  0.00     0.085 C 
ATOM     15  C   UNL A   1      30.757  23.695  23.144  1.00  0.00     0.031 C 
BRANCH  14  16
ATOM     16  C   UNL A   1      32.082  21.284  22.742  1.00  0.00     0.071 C 
BRANCH  16  17
ATOM     17  C   UNL A   1      32.322  20.073  23.624  1.00  0.00     0.007 A 
ATOM     18  C   UNL A   1      32.722  20.029  24.950  1.00  0.00     0.015 A 
ATOM     19  S   UNL A   1      32.421  18.487  22.952  1.00  0.00    -0.149 S 
ATOM     20  C   UNL A   1      32.820  18.709  25.474  1.00  0.00     0.012 A 
ATOM     21  C   UNL A   1      32.655  17.767  24.488  1.00  0.00     0.065 A 
ENDBRANCH  16  17
ENDBRANCH  14  16
ENDBRANCH  12  14
ENDBRANCH   6  12
ENDBRANCH   3   5
ENDBRANCH   2   3
ENDBRANCH   1   2
BRANCH   1  22
ATOM     22  C   UNL A   1      31.974  28.571  26.149  1.00  0.00     0.275 C 
BRANCH  22  23
ATOM     23  O   UNL A   1      32.258  29.422  27.294  1.00  0.00    -0.458 OA
BRANCH  23  24
ATOM     24  C   UNL A   1      32.850  30.639  27.099  1.00  0.00     0.338 C 
ATOM     25  O   UNL A   1      32.258  31.677  26.847  1.00  0.00    -0.246 OA
BRANCH  24  26
ATOM     26  C   UNL A   1      34.328  30.583  27.409  1.00  0.00     0.060 A 
ATOM     27  C   UNL A   1      34.966  29.363  27.544  1.00  0.00     0.016 A 
ATOM     28  C   UNL A   1      35.061  31.716  27.773  1.00  0.00     0.016 A 
ATOM     29  C   UNL A   1      36.103  29.247  28.344  1.00  0.00     0.010 A 
ATOM     30  C   UNL A   1      36.355  31.592  28.349  1.00  0.00     0.010 A 
ATOM     31  C   UNL A   1      36.875  30.341  28.733  1.00  0.00    -0.014 A 
BRANCH  31  32
ATOM     32  C   UNL A   1      38.154  30.147  29.533  1.00  0.00     0.031 A 
ATOM     33  C   UNL A   1      39.314  29.346  28.963  1.00  0.00     0.074 A 
ATOM     34  C   UNL A   1      38.361  30.724  30.747  1.00  0.00     0.049 A 
ATOM     35  N   UNL A   1      40.311  28.764  29.588  1.00  0.00    -0.248 NA
ATOM     36  C   UNL A   1      39.356  29.168  27.504  1.00  0.00     0.031 C 
ATOM     37  C   UNL A   1      37.442  31.624  31.448  1.00  0.00     0.029 A 
ATOM     38  N   UNL A   1      39.439  30.666  31.612  1.00  0.00    -0.354 N 
ATOM     39  C   UNL A   1      41.019  28.058  28.618  1.00  0.00     0.074 A 
ATOM     40  C   UNL A   1      40.367  28.322  27.354  1.00  0.00     0.031 C 
ATOM     41  C   UNL A   1      38.035  32.138  32.531  1.00  0.00     0.029 A 
ATOM     42  C   UNL A   1      39.268  31.408  32.763  1.00  0.00     0.049 A 
ATOM     43  H   UNL A   1      40.253  30.144  31.424  1.00  0.00     0.167 HD
ATOM     44  C   UNL A   1      42.094  27.245  28.781  1.00  0.00     0.037 A 
ATOM     45  C   UNL A   1      39.926  31.422  33.939  1.00  0.00     0.037 A 
ATOM     46  C   UNL A   1      42.792  27.072  30.031  1.00  0.00     0.049 A 
ATOM     47  C   UNL A   1      41.057  30.456  34.134  1.00  0.00     0.074 A 
ATOM     48  C   UNL A   1      43.856  26.234  30.327  1.00  0.00     0.029 A 
ATOM     49  N   UNL A   1      42.518  27.786  31.190  1.00  0.00    -0.354 N 
ATOM     50  N   UNL A   1      41.592  29.627  33.273  1.00  0.00    -0.248 NA
ATOM     51  C   UNL A   1      41.639  30.385  35.481  1.00  0.00     0.031 C 
ATOM     52  C   UNL A   1      44.193  26.410  31.674  1.00  0.00     0.029 A 
ATOM     53  C   UNL A   1      43.382  27.400  32.202  1.00  0.00     0.049 A 
ATOM     54  H   UNL A   1      41.812  28.467  31.278  1.00  0.00     0.167 HD
ATOM     55  C   UNL A   1      42.577  28.944  33.967  1.00  0.00     0.074 A 
ATOM     56  C   UNL A   1      42.588  29.475  35.314  1.00  0.00     0.031 C 
ATOM     57  C   UNL A   1      43.392  27.953  33.532  1.00  0.00     0.037 A 
BRANCH  44  58
ATOM     58  C   UNL A   1      42.526  26.403  27.610  1.00  0.00     0.064 A 
ATOM     59  C   UNL A   1      41.954  25.159  27.309  1.00  0.00     0.173 A 
ATOM     60  C   UNL A   1      43.531  26.881  26.750  1.00  0.00     0.173 A 
ATOM     61  F   UNL A   1      40.998  24.647  28.099  1.00  0.00    -0.203 F 
ATOM     62  C   UNL A   1      42.392  24.414  26.213  1.00  0.00     0.198 A 
ATOM     63  C   UNL A   1      43.944  26.148  25.639  1.00  0.00     0.198 A 
ATOM     64  F   UNL A   1      44.108  28.070  26.980  1.00  0.00    -0.203 F 
ATOM     65  F   UNL A   1      41.865  23.204  25.975  1.00  0.00    -0.200 F 
ATOM     66  C   UNL A   1      43.381  24.910  25.378  1.00  0.00     0.200 A 
ATOM     67  F   UNL A   1      44.889  26.640  24.826  1.00  0.00    -0.200 F 
ATOM     68  F   UNL A   1      43.798  24.192  24.326  1.00  0.00    -0.200 F 
ENDBRANCH  44  58
BRANCH  45  69
ATOM     69  C   UNL A   1      39.437  32.261  35.078  1.00  0.00     0.064 A 
ATOM     70  C   UNL A   1      39.817  33.603  35.212  1.00  0.00     0.173 A 
ATOM     71  C   UNL A   1      38.597  31.730  36.073  1.00  0.00     0.173 A 
ATOM     72  F   UNL A   1      40.649  34.156  34.316  1.00  0.00    -0.203 F 
ATOM     73  C   UNL A   1      39.387  34.373  36.294  1.00  0.00     0.198 A 
ATOM     74  C   UNL A   1      38.125  32.514  37.124  1.00  0.00     0.198 A 
ATOM     75  F   UNL A   1      38.207  30.448  36.013  1.00  0.00    -0.203 F 
ATOM     76  F   UNL A   1      39.818  35.635  36.428  1.00  0.00    -0.200 F 
ATOM     77  C   UNL A   1      38.531  33.832  37.242  1.00  0.00     0.200 A 
ATOM     78  F   UNL A   1      37.278  31.989  38.020  1.00  0.00    -0.200 F 
ATOM     79  F   UNL A   1      38.107  34.575  38.272  1.00  0.00    -0.200 F 
ENDBRANCH  45  69
BRANCH  57  80
ATOM     80  C   UNL A   1      44.402  27.430  34.508  1.00  0.00     0.064 A 
ATOM     81  C   UNL A   1      45.657  28.035  34.668  1.00  0.00     0.173 A 
ATOM     82  C   UNL A   1      44.102  26.311  35.298  1.00  0.00     0.173 A 
ATOM     83  F   UNL A   1      45.999  29.093  33.917  1.00  0.00    -0.203 F 
ATOM     84  C   UNL A   1      46.588  27.517  35.564  1.00  0.00     0.198 A 
ATOM     85  C   UNL A   1      45.023  25.817  36.216  1.00  0.00     0.198 A 
ATOM     86  F   UNL A   1      42.915  25.698  35.180  1.00  0.00    -0.203 F 
ATOM     87  F   UNL A   1      47.804  28.073  35.658  1.00  0.00    -0.200 F 
ATOM     88  C   UNL A   1      46.268  26.413  36.342  1.00  0.00     0.200 A 
ATOM     89  F   UNL A   1      44.709  24.757  36.974  1.00  0.00    -0.200 F 
ATOM     90  F   UNL A   1      47.165  25.919  37.205  1.00  0.00    -0.200 F 
ENDBRANCH  57  80
ENDBRANCH  31  32
ENDBRANCH  24  26
ENDBRANCH  23  24
ENDBRANCH  22  23
ENDBRANCH   1  22
TORSDOF 15
ENDMDL
MODEL 2
REMARK VINA RESULT:     -12.1      1.853      3.069
REMARK SMILES C[C@@H](Cc1cccs1)N(C)c1ncc(Br)cc1C(=O)OCCOC(=O)c1ccc(-c2c3nc(c(-c4c(F)c(F)c(F)c(F)c4F)c4ccc([nH]4)c(-c4c(F)c(F)c(F)c(F)c4F)c4nc(c(-c5c(F)c(F)c(F)c(F)c5F)c5ccc2[nH]5)C=C4)C=C3)cc1
REMARK SMILES IDX 21 1 20 2 18 3 19 4 17 5 11 6 12 7 13 8 16 9 14 10 15 11
REMARK SMILES IDX 9 12 10 13 2 14 1 15 3 16 4 17 5 18 8 19 6 20 7 21 22 22
REMARK SMILES IDX 23 23 24 24 25 25 26 26 27 27 88 28 28 29 87 30 29 31 30 32
REMARK SMILES IDX 31 33 81 34 32 35 86 36 80 37 82 38 33 39 85 40 79 41 78 42
REMARK SMILES IDX 34 44 66 45 46 46 65 47 47 48 50 49 64 50 83 51 48 52 49 53
REMARK SMILES IDX 63 55 84 56 51 57 35 58 36 59 44 60 37 61 38 62 42 63 45 64
REMARK SMILES IDX 39 65 40 66 43 67 41 68 67 69 68 70 76 71 69 72 70 73 74 74
REMARK SMILES IDX 77 75 71 76 72 77 75 78 73 79 52 80 53 81 61 82 54 83 55 84
REMARK SMILES IDX 59 85 62 86 56 87 57 88 60 89 58 90
REMARK H PARENT 82 43 50 54
REMARK Flexibility Score: inf
ROOT
ATOM      1  C   UNL A   1      32.365  27.179  26.777  1.00  0.00     0.275 C 
ENDROOT
BRANCH   1   2
ATOM      2  O   UNL A   1      31.363  26.121  26.732  1.00  0.00    -0.458 OA
BRANCH   2   3
ATOM      3  C   UNL A   1      31.818  24.839  26.585  1.00  0.00     0.342 C 
ATOM      4  O   UNL A   1      31.453  23.894  27.270  1.00  0.00    -0.246 OA
BRANCH   3   5
ATOM      5  C   UNL A   1      32.893  24.682  25.559  1.00  0.00     0.103 A 
ATOM      6  C   UNL A   1      32.747  24.780  24.154  1.00  0.00     0.143 A 
ATOM      7  N   UNL A   1      33.764  24.405  23.328  1.00  0.00    -0.237 NA
ATOM      8  C   UNL A   1      34.947  24.037  23.852  1.00  0.00     0.129 A 
ATOM      9  C   UNL A   1      34.127  24.249  26.074  1.00  0.00     0.037 A 
ATOM     10  C   UNL A   1      35.175  23.961  25.209  1.00  0.00     0.037 A 
ATOM     11  Br  UNL A   1      36.878  23.492  25.860  1.00  0.00    -0.049 Br
BRANCH   6  12
ATOM     12  N   UNL A   1      31.679  25.301  23.465  1.00  0.00    -0.356 N 
ATOM     13  C   UNL A   1      30.549  24.429  23.144  1.00  0.00     0.145 C 
BRANCH  12  14
ATOM     14  C   UNL A   1      31.787  26.512  22.679  1.00  0.00     0.085 C 
ATOM     15  C   UNL A   1      31.695  26.068  21.214  1.00  0.00     0.031 C 
BRANCH  14  16
ATOM     16  C   UNL A   1      31.226  27.838  23.306  1.00  0.00     0.071 C 
BRANCH  16  17
ATOM     17  C   UNL A   1      29.875  28.460  23.003  1.00  0.00     0.007 A 
ATOM     18  C   UNL A   1      28.610  27.961  23.267  1.00  0.00     0.015 A 
ATOM     19  S   UNL A   1      29.737  29.822  21.955  1.00  0.00    -0.149 S 
ATOM     20  C   UNL A   1      27.558  28.833  22.870  1.00  0.00     0.012 A 
ATOM     21  C   UNL A   1      28.039  29.905  22.158  1.00  0.00     0.065 A 
ENDBRANCH  16  17
ENDBRANCH  14  16
ENDBRANCH  12  14
ENDBRANCH   6  12
ENDBRANCH   3   5
ENDBRANCH   2   3
ENDBRANCH   1   2
BRANCH   1  22
ATOM     22  C   UNL A   1      31.770  28.609  26.565  1.00  0.00     0.275 C 
BRANCH  22  23
ATOM     23  O   UNL A   1      32.227  29.570  27.558  1.00  0.00    -0.458 OA
BRANCH  23  24
ATOM     24  C   UNL A   1      32.855  30.714  27.150  1.00  0.00     0.338 C 
ATOM     25  O   UNL A   1      32.293  31.708  26.718  1.00  0.00    -0.246 OA
BRANCH  24  26
ATOM     26  C   UNL A   1      34.332  30.668  27.465  1.00  0.00     0.060 A 
ATOM     27  C   UNL A   1      34.991  29.454  27.542  1.00  0.00     0.016 A 
ATOM     28  C   UNL A   1      35.043  31.794  27.888  1.00  0.00     0.016 A 
ATOM     29  C   UNL A   1      36.125  29.318  28.342  1.00  0.00     0.010 A 
ATOM     30  C   UNL A   1      36.336  31.664  28.465  1.00  0.00     0.010 A 
ATOM     31  C   UNL A   1      36.877  30.404  28.789  1.00  0.00    -0.014 A 
BRANCH  31  32
ATOM     32  C   UNL A   1      38.155  30.194  29.585  1.00  0.00     0.031 A 
ATOM     33  C   UNL A   1      39.314  29.402  29.000  1.00  0.00     0.074 A 
ATOM     34  C   UNL A   1      38.363  30.748  30.810  1.00  0.00     0.049 A 
ATOM     35  N   UNL A   1      40.310  28.806  29.614  1.00  0.00    -0.248 NA
ATOM     36  C   UNL A   1      39.355  29.251  27.538  1.00  0.00     0.031 C 
ATOM     37  C   UNL A   1      37.445  31.635  31.528  1.00  0.00     0.029 A 
ATOM     38  N   UNL A   1      39.441  30.671  31.674  1.00  0.00    -0.354 N 
ATOM     39  C   UNL A   1      41.017  28.117  28.632  1.00  0.00     0.074 A 
ATOM     40  C   UNL A   1      40.366  28.407  27.373  1.00  0.00     0.031 C 
ATOM     41  C   UNL A   1      38.039  32.127  32.621  1.00  0.00     0.029 A 
ATOM     42  C   UNL A   1      39.270  31.391  32.839  1.00  0.00     0.049 A 
ATOM     43  H   UNL A   1      40.254  30.151  31.477  1.00  0.00     0.167 HD
ATOM     44  C   UNL A   1      42.090  27.300  28.779  1.00  0.00     0.037 A 
ATOM     45  C   UNL A   1      39.928  31.382  34.016  1.00  0.00     0.037 A 
ATOM     46  C   UNL A   1      42.788  27.102  30.026  1.00  0.00     0.049 A 
ATOM     47  C   UNL A   1      41.058  30.411  34.192  1.00  0.00     0.074 A 
ATOM     48  C   UNL A   1      43.850  26.257  30.306  1.00  0.00     0.029 A 
ATOM     49  N   UNL A   1      42.515  27.794  31.198  1.00  0.00    -0.354 N 
ATOM     50  N   UNL A   1      41.591  29.598  33.316  1.00  0.00    -0.248 NA
ATOM     51  C   UNL A   1      41.639  30.313  35.538  1.00  0.00     0.031 C 
ATOM     52  C   UNL A   1      44.188  26.407  31.656  1.00  0.00     0.029 A 
ATOM     53  C   UNL A   1      43.378  27.387  32.203  1.00  0.00     0.049 A 
ATOM     54  H   UNL A   1      41.810  28.475  31.299  1.00  0.00     0.167 HD
ATOM     55  C   UNL A   1      42.576  28.899  33.997  1.00  0.00     0.074 A 
ATOM     56  C   UNL A   1      42.586  29.405  35.353  1.00  0.00     0.031 C 
ATOM     57  C   UNL A   1      43.388  27.915  33.543  1.00  0.00     0.037 A 
BRANCH  44  58
ATOM     58  C   UNL A   1      42.521  26.480  27.593  1.00  0.00     0.064 A 
ATOM     59  C   UNL A   1      43.561  26.863  26.735  1.00  0.00     0.173 A 
ATOM     60  C   UNL A   1      41.881  25.255  27.331  1.00  0.00     0.173 A 
ATOM     61  F   UNL A   1      44.203  28.025  26.928  1.00  0.00    -0.203 F 
ATOM     62  C   UNL A   1      43.922  26.069  25.644  1.00  0.00     0.198 A 
ATOM     63  C   UNL A   1      42.263  24.450  26.260  1.00  0.00     0.198 A 
ATOM     64  F   UNL A   1      40.886  24.829  28.124  1.00  0.00    -0.203 F 
ATOM     65  F   UNL A   1      44.885  26.481  24.807  1.00  0.00    -0.200 F 
ATOM     66  C   UNL A   1      43.277  24.863  25.411  1.00  0.00     0.200 A 
ATOM     67  F   UNL A   1      41.649  23.278  26.049  1.00  0.00    -0.200 F 
ATOM     68  F   UNL A   1      43.627  24.103  24.364  1.00  0.00    -0.200 F 
ENDBRANCH  44  58
BRANCH  45  69
ATOM     69  C   UNL A   1      39.440  32.200  35.170  1.00  0.00     0.064 A 
ATOM     70  C   UNL A   1      39.876  33.517  35.367  1.00  0.00     0.173 A 
ATOM     71  C   UNL A   1      38.544  31.672  36.117  1.00  0.00     0.173 A 
ATOM     72  F   UNL A   1      40.761  34.064  34.520  1.00  0.00    -0.203 F 
ATOM     73  C   UNL A   1      39.446  34.265  36.464  1.00  0.00     0.198 A 
ATOM     74  C   UNL A   1      38.074  32.437  37.182  1.00  0.00     0.198 A 
ATOM     75  F   UNL A   1      38.100  30.412  35.996  1.00  0.00    -0.203 F 
ATOM     76  F   UNL A   1      39.929  35.500  36.661  1.00  0.00    -0.200 F 
ATOM     77  C   UNL A   1      38.536  33.730  37.363  1.00  0.00     0.200 A 
ATOM     78  F   UNL A   1      37.175  31.919  38.030  1.00  0.00    -0.200 F 
ATOM     79  F   UNL A   1      38.112  34.454  38.408  1.00  0.00    -0.200 F 
ENDBRANCH  45  69
BRANCH  57  80
ATOM     80  C   UNL A   1      44.398  27.372  34.509  1.00  0.00     0.064 A 
ATOM     81  C   UNL A   1      45.658  27.965  34.672  1.00  0.00     0.173 A 
ATOM     82  C   UNL A   1      44.091  26.247  35.287  1.00  0.00     0.173 A 
ATOM     83  F   UNL A   1      46.006  29.029  33.932  1.00  0.00    -0.203 F 
ATOM     84  C   UNL A   1      46.588  27.429  35.558  1.00  0.00     0.198 A 
ATOM     85  C   UNL A   1      45.011  25.733  36.195  1.00  0.00     0.198 A 
ATOM     86  F   UNL A   1      42.898  25.644  35.166  1.00  0.00    -0.203 F 
ATOM     87  F   UNL A   1      47.809  27.973  35.655  1.00  0.00    -0.200 F 
ATOM     88  C   UNL A   1      46.261  26.318  36.324  1.00  0.00     0.200 A 
ATOM     89  F   UNL A   1      44.690  24.667  36.941  1.00  0.00    -0.200 F 
ATOM     90  F   UNL A   1      47.157  25.806  37.178  1.00  0.00    -0.200 F 
ENDBRANCH  57  80
ENDBRANCH  31  32
ENDBRANCH  24  26
ENDBRANCH  23  24
ENDBRANCH  22  23
ENDBRANCH   1  22
TORSDOF 15
ENDMDL
MODEL 3
REMARK VINA RESULT:     -11.9      1.702      3.300
REMARK SMILES C[C@@H](Cc1cccs1)N(C)c1ncc(Br)cc1C(=O)OCCOC(=O)c1ccc(-c2c3nc(c(-c4c(F)c(F)c(F)c(F)c4F)c4ccc([nH]4)c(-c4c(F)c(F)c(F)c(F)c4F)c4nc(c(-c5c(F)c(F)c(F)c(F)c5F)c5ccc2[nH]5)C=C4)C=C3)cc1
REMARK SMILES IDX 21 1 20 2 18 3 19 4 17 5 11 6 12 7 13 8 16 9 14 10 15 11
REMARK SMILES IDX 9 12 10 13 2 14 1 15 3 16 4 17 5 18 8 19 6 20 7 21 22 22
REMARK SMILES IDX 23 23 24 24 25 25 26 26 27 27 88 28 28 29 87 30 29 31 30 32
REMARK SMILES IDX 31 33 81 34 32 35 86 36 80 37 82 38 33 39 85 40 79 41 78 42
REMARK SMILES IDX 34 44 66 45 46 46 65 47 47 48 50 49 64 50 83 51 48 52 49 53
REMARK SMILES IDX 63 55 84 56 51 57 35 58 36 59 44 60 37 61 38 62 42 63 45 64
REMARK SMILES IDX 39 65 40 66 43 67 41 68 67 69 68 70 76 71 69 72 70 73 74 74
REMARK SMILES IDX 77 75 71 76 72 77 75 78 73 79 52 80 53 81 61 82 54 83 55 84
REMARK SMILES IDX 59 85 62 86 56 87 57 88 60 89 58 90
REMARK H PARENT 82 43 50 54
REMARK Flexibility Score: inf
ROOT
ATOM      1  C   UNL A   1      31.738  27.343  26.195  1.00  0.00     0.275 C 
ENDROOT
BRANCH   1   2
ATOM      2  O   UNL A   1      33.035  26.705  25.999  1.00  0.00    -0.458 OA
BRANCH   2   3
ATOM      3  C   UNL A   1      33.049  25.339  25.911  1.00  0.00     0.342 C 
ATOM      4  O   UNL A   1      32.284  24.601  26.516  1.00  0.00    -0.246 OA
BRANCH   3   5
ATOM      5  C   UNL A   1      34.154  24.788  25.071  1.00  0.00     0.103 A 
ATOM      6  C   UNL A   1      34.094  24.466  23.693  1.00  0.00     0.143 A 
ATOM      7  N   UNL A   1      35.108  23.772  23.104  1.00  0.00    -0.237 NA
ATOM      8  C   UNL A   1      36.217  23.484  23.809  1.00  0.00     0.129 A 
ATOM      9  C   UNL A   1      35.306  24.429  25.792  1.00  0.00     0.037 A 
ATOM     10  C   UNL A   1      36.363  23.805  25.141  1.00  0.00     0.037 A 
ATOM     11  Br  UNL A   1      37.970  23.415  26.040  1.00  0.00    -0.049 Br
BRANCH   6  12
ATOM     12  N   UNL A   1      33.125  24.840  22.795  1.00  0.00    -0.356 N 
ATOM     13  C   UNL A   1      32.919  24.028  21.595  1.00  0.00     0.145 C 
BRANCH  12  14
ATOM     14  C   UNL A   1      32.603  26.189  22.742  1.00  0.00     0.085 C 
ATOM     15  C   UNL A   1      33.711  27.041  22.111  1.00  0.00     0.031 C 
BRANCH  14  16
ATOM     16  C   UNL A   1      31.052  26.363  22.562  1.00  0.00     0.071 C 
BRANCH  16  17
ATOM     17  C   UNL A   1      30.295  27.676  22.616  1.00  0.00     0.007 A 
ATOM     18  C   UNL A   1      30.748  28.953  22.326  1.00  0.00     0.015 A 
ATOM     19  S   UNL A   1      28.754  27.785  23.383  1.00  0.00    -0.149 S 
ATOM     20  C   UNL A   1      29.748  29.957  22.456  1.00  0.00     0.012 A 
ATOM     21  C   UNL A   1      28.596  29.447  23.006  1.00  0.00     0.065 A 
ENDBRANCH  16  17
ENDBRANCH  14  16
ENDBRANCH  12  14
ENDBRANCH   6  12
ENDBRANCH   3   5
ENDBRANCH   2   3
ENDBRANCH   1   2
BRANCH   1  22
ATOM     22  C   UNL A   1      31.782  28.898  26.047  1.00  0.00     0.275 C 
BRANCH  22  23
ATOM     23  O   UNL A   1      32.258  29.572  27.246  1.00  0.00    -0.458 OA
BRANCH  23  24
ATOM     24  C   UNL A   1      32.872  30.788  27.136  1.00  0.00     0.338 C 
ATOM     25  O   UNL A   1      32.300  31.852  26.962  1.00  0.00    -0.246 OA
BRANCH  24  26
ATOM     26  C   UNL A   1      34.350  30.682  27.436  1.00  0.00     0.060 A 
ATOM     27  C   UNL A   1      34.938  29.443  27.614  1.00  0.00     0.016 A 
ATOM     28  C   UNL A   1      35.133  31.796  27.748  1.00  0.00     0.016 A 
ATOM     29  C   UNL A   1      36.076  29.310  28.408  1.00  0.00     0.010 A 
ATOM     30  C   UNL A   1      36.426  31.641  28.317  1.00  0.00     0.010 A 
ATOM     31  C   UNL A   1      36.898  30.385  28.746  1.00  0.00    -0.014 A 
BRANCH  31  32
ATOM     32  C   UNL A   1      38.176  30.169  29.542  1.00  0.00     0.031 A 
ATOM     33  C   UNL A   1      39.327  29.364  28.962  1.00  0.00     0.074 A 
ATOM     34  C   UNL A   1      38.390  30.730  30.763  1.00  0.00     0.049 A 
ATOM     35  N   UNL A   1      40.319  28.765  29.578  1.00  0.00    -0.248 NA
ATOM     36  C   UNL A   1      39.365  29.203  27.500  1.00  0.00     0.031 C 
ATOM     37  C   UNL A   1      37.480  31.630  31.476  1.00  0.00     0.029 A 
ATOM     38  N   UNL A   1      39.468  30.650  31.626  1.00  0.00    -0.354 N 
ATOM     39  C   UNL A   1      41.019  28.063  28.599  1.00  0.00     0.074 A 
ATOM     40  C   UNL A   1      40.368  28.349  27.339  1.00  0.00     0.031 C 
ATOM     41  C   UNL A   1      38.080  32.125  32.565  1.00  0.00     0.029 A 
ATOM     42  C   UNL A   1      39.305  31.380  32.786  1.00  0.00     0.049 A 
ATOM     43  H   UNL A   1      40.277  30.123  31.431  1.00  0.00     0.167 HD
ATOM     44  C   UNL A   1      42.086  27.238  28.751  1.00  0.00     0.037 A 
ATOM     45  C   UNL A   1      39.965  31.374  33.962  1.00  0.00     0.037 A 
ATOM     46  C   UNL A   1      42.784  27.043  29.998  1.00  0.00     0.049 A 
ATOM     47  C   UNL A   1      41.087  30.395  34.144  1.00  0.00     0.074 A 
ATOM     48  C   UNL A   1      43.840  26.192  30.283  1.00  0.00     0.029 A 
ATOM     49  N   UNL A   1      42.518  27.746  31.166  1.00  0.00    -0.354 N 
ATOM     50  N   UNL A   1      41.612  29.571  33.272  1.00  0.00    -0.248 NA
ATOM     51  C   UNL A   1      41.669  30.302  35.489  1.00  0.00     0.031 C 
ATOM     52  C   UNL A   1      44.181  26.348  31.632  1.00  0.00     0.029 A 
ATOM     53  C   UNL A   1      43.379  27.339  32.172  1.00  0.00     0.049 A 
ATOM     54  H   UNL A   1      41.819  28.433  31.263  1.00  0.00     0.167 HD
ATOM     55  C   UNL A   1      42.592  28.870  33.957  1.00  0.00     0.074 A 
ATOM     56  C   UNL A   1      42.609  29.385  35.310  1.00  0.00     0.031 C 
ATOM     57  C   UNL A   1      43.396  27.876  33.508  1.00  0.00     0.037 A 
BRANCH  44  58
ATOM     58  C   UNL A   1      42.509  26.406  27.570  1.00  0.00     0.064 A 
ATOM     59  C   UNL A   1      43.553  26.773  26.710  1.00  0.00     0.173 A 
ATOM     60  C   UNL A   1      41.855  25.187  27.315  1.00  0.00     0.173 A 
ATOM     61  F   UNL A   1      44.207  27.929  26.897  1.00  0.00    -0.203 F 
ATOM     62  C   UNL A   1      43.906  25.969  25.625  1.00  0.00     0.198 A 
ATOM     63  C   UNL A   1      42.230  24.372  26.249  1.00  0.00     0.198 A 
ATOM     64  F   UNL A   1      40.855  24.777  28.110  1.00  0.00    -0.203 F 
ATOM     65  F   UNL A   1      44.874  26.365  24.786  1.00  0.00    -0.200 F 
ATOM     66  C   UNL A   1      43.248  24.769  25.399  1.00  0.00     0.200 A 
ATOM     67  F   UNL A   1      41.602  23.205  26.045  1.00  0.00    -0.200 F 
ATOM     68  F   UNL A   1      43.590  23.999  24.356  1.00  0.00    -0.200 F 
ENDBRANCH  44  58
BRANCH  45  69
ATOM     69  C   UNL A   1      39.485  32.204  35.111  1.00  0.00     0.064 A 
ATOM     70  C   UNL A   1      38.610  31.681  36.073  1.00  0.00     0.173 A 
ATOM     71  C   UNL A   1      39.871  33.549  35.258  1.00  0.00     0.173 A 
ATOM     72  F   UNL A   1      38.174  30.417  35.966  1.00  0.00    -0.203 F 
ATOM     73  C   UNL A   1      38.137  32.468  37.124  1.00  0.00     0.198 A 
ATOM     74  C   UNL A   1      39.440  34.317  36.337  1.00  0.00     0.198 A 
ATOM     75  F   UNL A   1      40.694  34.115  34.363  1.00  0.00    -0.203 F 
ATOM     76  F   UNL A   1      37.253  31.960  37.993  1.00  0.00    -0.200 F 
ATOM     77  C   UNL A   1      38.562  33.781  37.263  1.00  0.00     0.200 A 
ATOM     78  F   UNL A   1      39.878  35.576  36.475  1.00  0.00    -0.200 F 
ATOM     79  F   UNL A   1      38.119  34.532  38.280  1.00  0.00    -0.200 F 
ENDBRANCH  45  69
BRANCH  57  80
ATOM     80  C   UNL A   1      44.402  27.332  34.477  1.00  0.00     0.064 A 
ATOM     81  C   UNL A   1      44.100  26.266  35.336  1.00  0.00     0.173 A 
ATOM     82  C   UNL A   1      45.690  27.885  34.537  1.00  0.00     0.173 A 
ATOM     83  F   UNL A   1      42.874  25.720  35.331  1.00  0.00    -0.203 F 
ATOM     84  C   UNL A   1      45.043  25.793  36.244  1.00  0.00     0.198 A 
ATOM     85  C   UNL A   1      46.640  27.388  35.424  1.00  0.00     0.198 A 
ATOM     86  F   UNL A   1      46.026  28.907  33.737  1.00  0.00    -0.203 F 
ATOM     87  F   UNL A   1      44.715  24.814  37.098  1.00  0.00    -0.200 F 
ATOM     88  C   UNL A   1      46.314  26.350  36.282  1.00  0.00     0.200 A 
ATOM     89  F   UNL A   1      47.870  27.920  35.453  1.00  0.00    -0.200 F 
ATOM     90  F   UNL A   1      47.220  25.891  37.156  1.00  0.00    -0.200 F 
ENDBRANCH  57  80
ENDBRANCH  31  32
ENDBRANCH  24  26
ENDBRANCH  23  24
ENDBRANCH  22  23
ENDBRANCH   1  22
TORSDOF 15
ENDMDL
