MODEL 1
REMARK VINA RESULT:     -13.3      0.000      0.000
REMARK SMILES Cc1ccc([N+](=O)[O-])c(NCc2ccc(C(=O)OCCOC(=O)c3ccc(-c4c5nc(c(-c6c(F)c(F)c(F)c(F)c6F)c6ccc([nH]6)c(-c6c(F)c(F)c(F)c(F)c6F)c6nc(c(-c7c(F)c(F)c(F)c(F)c7F)c7ccc4[nH]7)C=C6)C=C5)cc3)cc2)c1
REMARK SMILES IDX 19 1 18 2 16 3 17 4 15 5 12 6 13 7 88 8 14 9 87 10 11 11
REMARK SMILES IDX 10 12 9 14 1 15 2 16 3 17 89 18 4 19 5 20 6 21 7 22 8 23
REMARK SMILES IDX 20 24 21 25 22 26 23 27 24 28 25 29 86 30 26 31 85 32 27 33
REMARK SMILES IDX 28 34 29 35 79 36 30 37 84 38 78 39 80 40 31 41 83 42 77 43
REMARK SMILES IDX 76 44 32 46 64 47 44 48 63 49 45 50 48 51 62 52 81 53 46 54
REMARK SMILES IDX 47 55 61 57 82 58 49 59 33 60 34 61 42 62 35 63 36 64 40 65
REMARK SMILES IDX 43 66 37 67 38 68 41 69 39 70 65 71 66 72 74 73 67 74 68 75
REMARK SMILES IDX 72 76 75 77 69 78 70 79 73 80 71 81 50 82 51 83 59 84 52 85
REMARK SMILES IDX 53 86 57 87 60 88 54 89 55 90 58 91 56 92
REMARK H PARENT 10 13 80 45 48 56
REMARK Flexibility Score: inf
ROOT
ATOM      1  C   UNL A   1      33.035  29.447  25.952  1.00  0.00     0.275 C 
ENDROOT
BRANCH   1   2
ATOM      2  O   UNL A   1      31.636  29.169  26.109  1.00  0.00    -0.458 OA
BRANCH   2   3
ATOM      3  C   UNL A   1      31.427  28.044  26.839  1.00  0.00     0.338 C 
ATOM      4  O   UNL A   1      31.535  27.957  28.056  1.00  0.00    -0.246 OA
BRANCH   3   5
ATOM      5  C   UNL A   1      31.091  26.859  26.020  1.00  0.00     0.060 A 
ATOM      6  C   UNL A   1      30.672  24.755  24.169  1.00  0.00    -0.029 A 
ATOM      7  C   UNL A   1      31.144  24.496  25.470  1.00  0.00     0.006 A 
ATOM      8  C   UNL A   1      30.392  26.090  23.835  1.00  0.00     0.006 A 
ATOM      9  C   UNL A   1      31.320  25.536  26.402  1.00  0.00     0.016 A 
ATOM     10  C   UNL A   1      30.613  27.126  24.738  1.00  0.00     0.016 A 
BRANCH   6  11
ATOM     11  C   UNL A   1      30.553  23.594  23.177  1.00  0.00     0.149 C 
BRANCH  11  12
ATOM     12  N   UNL A   1      31.850  23.198  22.654  1.00  0.00    -0.375 N 
ATOM     13  H   UNL A   1      31.804  22.821  21.746  1.00  0.00     0.161 HD
BRANCH  12  14
ATOM     14  C   UNL A   1      33.130  23.240  23.163  1.00  0.00     0.114 A 
ATOM     15  C   UNL A   1      35.104  20.462  24.965  1.00  0.00     0.044 C 
ATOM     16  C   UNL A   1      34.765  21.800  24.376  1.00  0.00    -0.049 A 
ATOM     17  C   UNL A   1      35.665  22.856  24.439  1.00  0.00     0.010 A 
ATOM     18  C   UNL A   1      33.528  22.010  23.753  1.00  0.00     0.036 A 
ATOM     19  C   UNL A   1      35.314  24.092  23.896  1.00  0.00     0.088 A 
ATOM     20  C   UNL A   1      34.055  24.290  23.274  1.00  0.00     0.292 A 
BRANCH  20  21
ATOM     21  N   UNL A   1      33.844  25.624  22.715  1.00  0.00     0.064 N 
ATOM     22  O   UNL A   1      33.564  25.695  21.508  1.00  0.00    -0.258 OA
ATOM     23  O   UNL A   1      33.888  26.603  23.471  1.00  0.00    -0.258 OA
ENDBRANCH  20  21
ENDBRANCH  12  14
ENDBRANCH  11  12
ENDBRANCH   6  11
ENDBRANCH   3   5
ENDBRANCH   2   3
ENDBRANCH   1   2
BRANCH   1  24
ATOM     24  C   UNL A   1      33.589  30.435  26.988  1.00  0.00     0.275 C 
BRANCH  24  25
ATOM     25  O   UNL A   1      34.707  30.098  27.856  1.00  0.00    -0.458 OA
BRANCH  25  26
ATOM     26  C   UNL A   1      35.800  30.873  28.037  1.00  0.00     0.338 C 
ATOM     27  O   UNL A   1      35.818  32.078  27.825  1.00  0.00    -0.246 OA
BRANCH  26  28
ATOM     28  C   UNL A   1      37.013  30.132  28.420  1.00  0.00     0.060 A 
ATOM     29  C   UNL A   1      36.986  29.302  29.556  1.00  0.00     0.016 A 
ATOM     30  C   UNL A   1      38.112  30.155  27.568  1.00  0.00     0.016 A 
ATOM     31  C   UNL A   1      38.016  28.400  29.781  1.00  0.00     0.010 A 
ATOM     32  C   UNL A   1      39.058  29.179  27.707  1.00  0.00     0.010 A 
ATOM     33  C   UNL A   1      39.037  28.352  28.843  1.00  0.00    -0.014 A 
BRANCH  33  34
ATOM     34  C   UNL A   1      40.319  27.722  29.080  1.00  0.00     0.031 A 
ATOM     35  C   UNL A   1      40.593  26.351  28.640  1.00  0.00     0.074 A 
ATOM     36  C   UNL A   1      41.223  28.655  29.450  1.00  0.00     0.049 A 
ATOM     37  N   UNL A   1      41.689  25.734  28.893  1.00  0.00    -0.248 NA
ATOM     38  C   UNL A   1      39.645  25.523  27.903  1.00  0.00     0.031 C 
ATOM     39  C   UNL A   1      42.669  28.701  29.354  1.00  0.00     0.029 A 
ATOM     40  N   UNL A   1      40.897  29.849  30.127  1.00  0.00    -0.354 N 
ATOM     41  C   UNL A   1      41.741  24.612  28.090  1.00  0.00     0.074 A 
ATOM     42  C   UNL A   1      40.396  24.456  27.598  1.00  0.00     0.031 C 
ATOM     43  C   UNL A   1      43.118  29.645  30.208  1.00  0.00     0.029 A 
ATOM     44  C   UNL A   1      41.969  30.097  30.986  1.00  0.00     0.049 A 
ATOM     45  H   UNL A   1      40.084  30.393  30.017  1.00  0.00     0.167 HD
ATOM     46  C   UNL A   1      42.975  24.086  27.834  1.00  0.00     0.037 A 
ATOM     47  C   UNL A   1      41.769  29.856  32.317  1.00  0.00     0.037 A 
ATOM     48  C   UNL A   1      43.963  24.786  28.658  1.00  0.00     0.049 A 
ATOM     49  C   UNL A   1      42.646  28.714  32.763  1.00  0.00     0.074 A 
ATOM     50  C   UNL A   1      44.785  25.868  28.389  1.00  0.00     0.029 A 
ATOM     51  N   UNL A   1      43.882  24.679  30.043  1.00  0.00    -0.354 N 
ATOM     52  N   UNL A   1      42.908  27.651  32.046  1.00  0.00    -0.248 NA
ATOM     53  C   UNL A   1      43.411  28.779  34.000  1.00  0.00     0.031 C 
ATOM     54  C   UNL A   1      45.115  26.474  29.632  1.00  0.00     0.029 A 
ATOM     55  C   UNL A   1      44.503  25.755  30.648  1.00  0.00     0.049 A 
ATOM     56  H   UNL A   1      43.444  23.940  30.525  1.00  0.00     0.167 HD
ATOM     57  C   UNL A   1      43.928  26.958  32.648  1.00  0.00     0.074 A 
ATOM     58  C   UNL A   1      44.186  27.692  33.877  1.00  0.00     0.031 C 
ATOM     59  C   UNL A   1      44.547  25.871  32.097  1.00  0.00     0.037 A 
BRANCH  46  60
ATOM     60  C   UNL A   1      43.376  23.176  26.684  1.00  0.00     0.064 A 
ATOM     61  C   UNL A   1      43.094  21.787  26.758  1.00  0.00     0.173 A 
ATOM     62  C   UNL A   1      44.083  23.559  25.530  1.00  0.00     0.173 A 
ATOM     63  F   UNL A   1      42.374  21.270  27.763  1.00  0.00    -0.203 F 
ATOM     64  C   UNL A   1      43.544  20.866  25.805  1.00  0.00     0.198 A 
ATOM     65  C   UNL A   1      44.540  22.634  24.579  1.00  0.00     0.198 A 
ATOM     66  F   UNL A   1      44.339  24.839  25.250  1.00  0.00    -0.203 F 
ATOM     67  F   UNL A   1      43.264  19.564  25.955  1.00  0.00    -0.200 F 
ATOM     68  C   UNL A   1      44.280  21.288  24.721  1.00  0.00     0.200 A 
ATOM     69  F   UNL A   1      45.239  23.065  23.518  1.00  0.00    -0.200 F 
ATOM     70  F   UNL A   1      44.723  20.407  23.814  1.00  0.00    -0.200 F 
ENDBRANCH  46  60
BRANCH  47  71
ATOM     71  C   UNL A   1      40.356  30.117  32.761  1.00  0.00     0.064 A 
ATOM     72  C   UNL A   1      39.854  31.436  32.643  1.00  0.00     0.173 A 
ATOM     73  C   UNL A   1      39.411  29.101  32.950  1.00  0.00     0.173 A 
ATOM     74  F   UNL A   1      40.703  32.462  32.466  1.00  0.00    -0.203 F 
ATOM     75  C   UNL A   1      38.485  31.703  32.580  1.00  0.00     0.198 A 
ATOM     76  C   UNL A   1      38.037  29.378  32.918  1.00  0.00     0.198 A 
ATOM     77  F   UNL A   1      39.799  27.824  33.074  1.00  0.00    -0.203 F 
ATOM     78  F   UNL A   1      38.057  32.948  32.327  1.00  0.00    -0.200 F 
ATOM     79  C   UNL A   1      37.577  30.669  32.699  1.00  0.00     0.200 A 
ATOM     80  F   UNL A   1      37.150  28.374  33.002  1.00  0.00    -0.200 F 
ATOM     81  F   UNL A   1      36.264  30.904  32.551  1.00  0.00    -0.200 F 
ENDBRANCH  47  71
BRANCH  59  82
ATOM     82  C   UNL A   1      45.367  24.865  32.869  1.00  0.00     0.064 A 
ATOM     83  C   UNL A   1      46.675  25.114  33.315  1.00  0.00     0.173 A 
ATOM     84  C   UNL A   1      44.787  23.660  33.341  1.00  0.00     0.173 A 
ATOM     85  F   UNL A   1      47.288  26.282  33.082  1.00  0.00    -0.203 F 
ATOM     86  C   UNL A   1      47.384  24.190  34.082  1.00  0.00     0.198 A 
ATOM     87  C   UNL A   1      45.467  22.782  34.179  1.00  0.00     0.198 A 
ATOM     88  F   UNL A   1      43.527  23.312  33.040  1.00  0.00    -0.203 F 
ATOM     89  F   UNL A   1      48.655  24.449  34.416  1.00  0.00    -0.200 F 
ATOM     90  C   UNL A   1      46.777  23.032  34.525  1.00  0.00     0.200 A 
ATOM     91  F   UNL A   1      44.836  21.705  34.666  1.00  0.00    -0.200 F 
ATOM     92  F   UNL A   1      47.443  22.174  35.308  1.00  0.00    -0.200 F 
ENDBRANCH  59  82
ENDBRANCH  33  34
ENDBRANCH  26  28
ENDBRANCH  25  26
ENDBRANCH  24  25
ENDBRANCH   1  24
TORSDOF 15
ENDMDL
MODEL 2
REMARK VINA RESULT:     -13.1      1.492      1.933
REMARK SMILES Cc1ccc([N+](=O)[O-])c(NCc2ccc(C(=O)OCCOC(=O)c3ccc(-c4c5nc(c(-c6c(F)c(F)c(F)c(F)c6F)c6ccc([nH]6)c(-c6c(F)c(F)c(F)c(F)c6F)c6nc(c(-c7c(F)c(F)c(F)c(F)c7F)c7ccc4[nH]7)C=C6)C=C5)cc3)cc2)c1
REMARK SMILES IDX 19 1 18 2 16 3 17 4 15 5 12 6 13 7 88 8 14 9 87 10 11 11
REMARK SMILES IDX 10 12 9 14 1 15 2 16 3 17 89 18 4 19 5 20 6 21 7 22 8 23
REMARK SMILES IDX 20 24 21 25 22 26 23 27 24 28 25 29 86 30 26 31 85 32 27 33
REMARK SMILES IDX 28 34 29 35 79 36 30 37 84 38 78 39 80 40 31 41 83 42 77 43
REMARK SMILES IDX 76 44 32 46 64 47 44 48 63 49 45 50 48 51 62 52 81 53 46 54
REMARK SMILES IDX 47 55 61 57 82 58 49 59 33 60 34 61 42 62 35 63 36 64 40 65
REMARK SMILES IDX 43 66 37 67 38 68 41 69 39 70 65 71 66 72 74 73 67 74 68 75
REMARK SMILES IDX 72 76 75 77 69 78 70 79 73 80 71 81 50 82 51 83 59 84 52 85
REMARK SMILES IDX 53 86 57 87 60 88 54 89 55 90 58 91 56 92
REMARK H PARENT 10 13 80 45 48 56
REMARK Flexibility Score: inf
ROOT
ATOM      1  C   UNL A   1      32.471  30.434  26.080  1.00  0.00     0.275 C 
ENDROOT
BRANCH   1   2
ATOM      2  O   UNL A   1      31.424  29.453  26.097  1.00  0.00    -0.458 OA
BRANCH   2   3
ATOM      3  C   UNL A   1      31.470  28.651  25.003  1.00  0.00     0.338 C 
ATOM      4  O   UNL A   1      31.342  29.026  23.844  1.00  0.00    -0.246 OA
BRANCH   3   5
ATOM      5  C   UNL A   1      31.647  27.218  25.323  1.00  0.00     0.060 A 
ATOM      6  C   UNL A   1      32.215  24.597  26.238  1.00  0.00    -0.029 A 
ATOM      7  C   UNL A   1      30.888  25.034  26.057  1.00  0.00     0.006 A 
ATOM      8  C   UNL A   1      33.243  25.500  25.921  1.00  0.00     0.006 A 
ATOM      9  C   UNL A   1      30.604  26.323  25.571  1.00  0.00     0.016 A 
ATOM     10  C   UNL A   1      32.964  26.794  25.487  1.00  0.00     0.016 A 
BRANCH   6  11
ATOM     11  C   UNL A   1      32.466  23.204  26.824  1.00  0.00     0.149 C 
BRANCH  11  12
ATOM     12  N   UNL A   1      32.888  22.260  25.802  1.00  0.00    -0.375 N 
ATOM     13  H   UNL A   1      32.172  22.033  25.165  1.00  0.00     0.161 HD
BRANCH  12  14
ATOM     14  C   UNL A   1      34.078  21.616  25.541  1.00  0.00     0.114 A 
ATOM     15  C   UNL A   1      37.653  23.058  25.540  1.00  0.00     0.044 C 
ATOM     16  C   UNL A   1      36.523  22.082  25.393  1.00  0.00    -0.049 A 
ATOM     17  C   UNL A   1      36.760  20.770  25.002  1.00  0.00     0.010 A 
ATOM     18  C   UNL A   1      35.203  22.477  25.646  1.00  0.00     0.036 A 
ATOM     19  C   UNL A   1      35.687  19.890  24.861  1.00  0.00     0.088 A 
ATOM     20  C   UNL A   1      34.356  20.308  25.114  1.00  0.00     0.292 A 
BRANCH  20  21
ATOM     21  N   UNL A   1      33.341  19.266  24.964  1.00  0.00     0.064 N 
ATOM     22  O   UNL A   1      32.153  19.625  24.989  1.00  0.00    -0.258 OA
ATOM     23  O   UNL A   1      33.706  18.103  24.755  1.00  0.00    -0.258 OA
ENDBRANCH  20  21
ENDBRANCH  12  14
ENDBRANCH  11  12
ENDBRANCH   6  11
ENDBRANCH   3   5
ENDBRANCH   2   3
ENDBRANCH   1   2
BRANCH   1  24
ATOM     24  C   UNL A   1      33.290  30.485  27.377  1.00  0.00     0.275 C 
BRANCH  24  25
ATOM     25  O   UNL A   1      34.696  30.109  27.418  1.00  0.00    -0.458 OA
BRANCH  25  26
ATOM     26  C   UNL A   1      35.683  30.884  27.921  1.00  0.00     0.338 C 
ATOM     27  O   UNL A   1      35.625  32.105  27.977  1.00  0.00    -0.246 OA
BRANCH  26  28
ATOM     28  C   UNL A   1      36.895  30.144  28.313  1.00  0.00     0.060 A 
ATOM     29  C   UNL A   1      36.869  29.337  29.465  1.00  0.00     0.016 A 
ATOM     30  C   UNL A   1      37.990  30.144  27.455  1.00  0.00     0.016 A 
ATOM     31  C   UNL A   1      37.896  28.434  29.702  1.00  0.00     0.010 A 
ATOM     32  C   UNL A   1      38.931  29.167  27.609  1.00  0.00     0.010 A 
ATOM     33  C   UNL A   1      38.912  28.362  28.761  1.00  0.00    -0.014 A 
BRANCH  33  34
ATOM     34  C   UNL A   1      40.192  27.730  29.004  1.00  0.00     0.031 A 
ATOM     35  C   UNL A   1      40.458  26.351  28.587  1.00  0.00     0.074 A 
ATOM     36  C   UNL A   1      41.102  28.665  29.355  1.00  0.00     0.049 A 
ATOM     37  N   UNL A   1      41.552  25.733  28.846  1.00  0.00    -0.248 NA
ATOM     38  C   UNL A   1      39.503  25.515  27.867  1.00  0.00     0.031 C 
ATOM     39  C   UNL A   1      42.547  28.703  29.253  1.00  0.00     0.029 A 
ATOM     40  N   UNL A   1      40.783  29.872  30.013  1.00  0.00    -0.354 N 
ATOM     41  C   UNL A   1      41.595  24.597  28.063  1.00  0.00     0.074 A 
ATOM     42  C   UNL A   1      40.248  24.439  27.578  1.00  0.00     0.031 C 
ATOM     43  C   UNL A   1      43.004  29.659  30.089  1.00  0.00     0.029 A 
ATOM     44  C   UNL A   1      41.859  30.130  30.863  1.00  0.00     0.049 A 
ATOM     45  H   UNL A   1      39.972  30.418  29.896  1.00  0.00     0.167 HD
ATOM     46  C   UNL A   1      42.827  24.061  27.811  1.00  0.00     0.037 A 
ATOM     47  C   UNL A   1      41.663  29.913  32.199  1.00  0.00     0.037 A 
ATOM     48  C   UNL A   1      43.820  24.771  28.619  1.00  0.00     0.049 A 
ATOM     49  C   UNL A   1      42.537  28.774  32.661  1.00  0.00     0.074 A 
ATOM     50  C   UNL A   1      44.646  25.844  28.329  1.00  0.00     0.029 A 
ATOM     51  N   UNL A   1      43.744  24.688  30.007  1.00  0.00    -0.354 N 
ATOM     52  N   UNL A   1      42.791  27.698  31.962  1.00  0.00    -0.248 NA
ATOM     53  C   UNL A   1      43.306  28.857  33.894  1.00  0.00     0.031 C 
ATOM     54  C   UNL A   1      44.984  26.470  29.560  1.00  0.00     0.029 A 
ATOM     55  C   UNL A   1      44.372  25.771  30.591  1.00  0.00     0.049 A 
ATOM     56  H   UNL A   1      43.304  23.959  30.502  1.00  0.00     0.167 HD
ATOM     57  C   UNL A   1      43.810  27.011  32.572  1.00  0.00     0.074 A 
ATOM     58  C   UNL A   1      44.076  27.764  33.788  1.00  0.00     0.031 C 
ATOM     59  C   UNL A   1      44.422  25.911  32.037  1.00  0.00     0.037 A 
BRANCH  46  60
ATOM     60  C   UNL A   1      43.218  23.129  26.676  1.00  0.00     0.064 A 
ATOM     61  C   UNL A   1      42.932  21.743  26.775  1.00  0.00     0.173 A 
ATOM     62  C   UNL A   1      43.921  23.490  25.511  1.00  0.00     0.173 A 
ATOM     63  F   UNL A   1      42.216  21.246  27.792  1.00  0.00    -0.203 F 
ATOM     64  C   UNL A   1      43.375  20.804  25.837  1.00  0.00     0.198 A 
ATOM     65  C   UNL A   1      44.371  22.547  24.575  1.00  0.00     0.198 A 
ATOM     66  F   UNL A   1      44.180  24.764  25.208  1.00  0.00    -0.203 F 
ATOM     67  F   UNL A   1      43.092  19.505  26.011  1.00  0.00    -0.200 F 
ATOM     68  C   UNL A   1      44.108  21.204  24.742  1.00  0.00     0.200 A 
ATOM     69  F   UNL A   1      45.066  22.957  23.503  1.00  0.00    -0.200 F 
ATOM     70  F   UNL A   1      44.543  20.306  23.848  1.00  0.00    -0.200 F 
ENDBRANCH  46  60
BRANCH  47  71
ATOM     71  C   UNL A   1      40.253  30.187  32.643  1.00  0.00     0.064 A 
ATOM     72  C   UNL A   1      39.766  31.512  32.529  1.00  0.00     0.173 A 
ATOM     73  C   UNL A   1      39.297  29.181  32.830  1.00  0.00     0.173 A 
ATOM     74  F   UNL A   1      40.626  32.530  32.354  1.00  0.00    -0.203 F 
ATOM     75  C   UNL A   1      38.399  31.794  32.466  1.00  0.00     0.198 A 
ATOM     76  C   UNL A   1      37.926  29.473  32.798  1.00  0.00     0.198 A 
ATOM     77  F   UNL A   1      39.671  27.900  32.951  1.00  0.00    -0.203 F 
ATOM     78  F   UNL A   1      37.985  33.045  32.216  1.00  0.00    -0.200 F 
ATOM     79  C   UNL A   1      37.480  30.769  32.583  1.00  0.00     0.200 A 
ATOM     80  F   UNL A   1      37.029  28.479  32.880  1.00  0.00    -0.200 F 
ATOM     81  F   UNL A   1      36.170  31.020  32.435  1.00  0.00    -0.200 F 
ENDBRANCH  47  71
BRANCH  59  82
ATOM     82  C   UNL A   1      45.240  24.915  32.824  1.00  0.00     0.064 A 
ATOM     83  C   UNL A   1      46.545  25.172  33.274  1.00  0.00     0.173 A 
ATOM     84  C   UNL A   1      44.660  23.713  33.304  1.00  0.00     0.173 A 
ATOM     85  F   UNL A   1      47.156  26.338  33.033  1.00  0.00    -0.203 F 
ATOM     86  C   UNL A   1      47.252  24.257  34.054  1.00  0.00     0.198 A 
ATOM     87  C   UNL A   1      45.338  22.845  34.154  1.00  0.00     0.198 A 
ATOM     88  F   UNL A   1      43.403  23.358  32.999  1.00  0.00    -0.203 F 
ATOM     89  F   UNL A   1      48.520  24.522  34.392  1.00  0.00    -0.200 F 
ATOM     90  C   UNL A   1      46.646  23.101  34.505  1.00  0.00     0.200 A 
ATOM     91  F   UNL A   1      44.707  21.771  34.648  1.00  0.00    -0.200 F 
ATOM     92  F   UNL A   1      47.309  22.253  35.299  1.00  0.00    -0.200 F 
ENDBRANCH  59  82
ENDBRANCH  33  34
ENDBRANCH  26  28
ENDBRANCH  25  26
ENDBRANCH  24  25
ENDBRANCH   1  24
TORSDOF 15
ENDMDL
MODEL 3
REMARK VINA RESULT:     -13.0      1.602      2.492
REMARK SMILES Cc1ccc([N+](=O)[O-])c(NCc2ccc(C(=O)OCCOC(=O)c3ccc(-c4c5nc(c(-c6c(F)c(F)c(F)c(F)c6F)c6ccc([nH]6)c(-c6c(F)c(F)c(F)c(F)c6F)c6nc(c(-c7c(F)c(F)c(F)c(F)c7F)c7ccc4[nH]7)C=C6)C=C5)cc3)cc2)c1
REMARK SMILES IDX 19 1 18 2 16 3 17 4 15 5 12 6 13 7 88 8 14 9 87 10 11 11
REMARK SMILES IDX 10 12 9 14 1 15 2 16 3 17 89 18 4 19 5 20 6 21 7 22 8 23
REMARK SMILES IDX 20 24 21 25 22 26 23 27 24 28 25 29 86 30 26 31 85 32 27 33
REMARK SMILES IDX 28 34 29 35 79 36 30 37 84 38 78 39 80 40 31 41 83 42 77 43
REMARK SMILES IDX 76 44 32 46 64 47 44 48 63 49 45 50 48 51 62 52 81 53 46 54
REMARK SMILES IDX 47 55 61 57 82 58 49 59 33 60 34 61 42 62 35 63 36 64 40 65
REMARK SMILES IDX 43 66 37 67 38 68 41 69 39 70 65 71 66 72 74 73 67 74 68 75
REMARK SMILES IDX 72 76 75 77 69 78 70 79 73 80 71 81 50 82 51 83 59 84 52 85
REMARK SMILES IDX 53 86 57 87 60 88 54 89 55 90 58 91 56 92
REMARK H PARENT 10 13 80 45 48 56
REMARK Flexibility Score: inf
ROOT
ATOM      1  C   UNL A   1      33.513  28.573  25.817  1.00  0.00     0.275 C 
ENDROOT
BRANCH   1   2
ATOM      2  O   UNL A   1      33.141  27.202  25.617  1.00  0.00    -0.458 OA
BRANCH   2   3
ATOM      3  C   UNL A   1      33.645  26.711  24.455  1.00  0.00     0.338 C 
ATOM      4  O   UNL A   1      33.586  27.267  23.366  1.00  0.00    -0.246 OA
BRANCH   3   5
ATOM      5  C   UNL A   1      34.259  25.372  24.594  1.00  0.00     0.060 A 
ATOM      6  C   UNL A   1      35.651  22.904  24.539  1.00  0.00    -0.029 A 
ATOM      7  C   UNL A   1      35.615  23.695  25.704  1.00  0.00     0.006 A 
ATOM      8  C   UNL A   1      34.948  23.373  23.417  1.00  0.00     0.006 A 
ATOM      9  C   UNL A   1      34.896  24.903  25.744  1.00  0.00     0.016 A 
ATOM     10  C   UNL A   1      34.278  24.594  23.438  1.00  0.00     0.016 A 
BRANCH   6  11
ATOM     11  C   UNL A   1      36.495  21.626  24.532  1.00  0.00     0.149 C 
BRANCH  11  12
ATOM     12  N   UNL A   1      35.838  20.545  25.247  1.00  0.00    -0.375 N 
ATOM     13  H   UNL A   1      36.332  20.252  26.047  1.00  0.00     0.161 HD
BRANCH  12  14
ATOM     14  C   UNL A   1      34.669  19.844  25.039  1.00  0.00     0.114 A 
ATOM     15  C   UNL A   1      34.182  16.402  23.374  1.00  0.00     0.044 C 
ATOM     16  C   UNL A   1      33.861  17.707  24.040  1.00  0.00    -0.049 A 
ATOM     17  C   UNL A   1      32.547  18.065  24.311  1.00  0.00     0.010 A 
ATOM     18  C   UNL A   1      34.885  18.594  24.399  1.00  0.00     0.036 A 
ATOM     19  C   UNL A   1      32.279  19.292  24.917  1.00  0.00     0.088 A 
ATOM     20  C   UNL A   1      33.326  20.182  25.268  1.00  0.00     0.292 A 
BRANCH  20  21
ATOM     21  N   UNL A   1      32.897  21.411  25.933  1.00  0.00     0.064 N 
ATOM     22  O   UNL A   1      32.062  22.114  25.341  1.00  0.00    -0.258 OA
ATOM     23  O   UNL A   1      33.328  21.659  27.066  1.00  0.00    -0.258 OA
ENDBRANCH  20  21
ENDBRANCH  12  14
ENDBRANCH  11  12
ENDBRANCH   6  11
ENDBRANCH   3   5
ENDBRANCH   2   3
ENDBRANCH   1   2
BRANCH   1  24
ATOM     24  C   UNL A   1      34.373  28.803  27.068  1.00  0.00     0.275 C 
BRANCH  24  25
ATOM     25  O   UNL A   1      35.159  30.014  27.254  1.00  0.00    -0.458 OA
BRANCH  25  26
ATOM     26  C   UNL A   1      35.845  30.319  28.377  1.00  0.00     0.338 C 
ATOM     27  O   UNL A   1      35.481  31.162  29.186  1.00  0.00    -0.246 OA
BRANCH  26  28
ATOM     28  C   UNL A   1      37.135  29.621  28.509  1.00  0.00     0.060 A 
ATOM     29  C   UNL A   1      38.120  29.797  27.520  1.00  0.00     0.016 A 
ATOM     30  C   UNL A   1      37.404  28.922  29.681  1.00  0.00     0.016 A 
ATOM     31  C   UNL A   1      39.420  29.372  27.753  1.00  0.00     0.010 A 
ATOM     32  C   UNL A   1      38.706  28.625  29.972  1.00  0.00     0.010 A 
ATOM     33  C   UNL A   1      39.691  28.794  28.985  1.00  0.00    -0.014 A 
BRANCH  33  34
ATOM     34  C   UNL A   1      40.881  28.019  29.267  1.00  0.00     0.031 A 
ATOM     35  C   UNL A   1      41.052  26.659  28.748  1.00  0.00     0.074 A 
ATOM     36  C   UNL A   1      41.841  28.826  29.770  1.00  0.00     0.049 A 
ATOM     37  N   UNL A   1      42.057  25.916  29.033  1.00  0.00    -0.248 NA
ATOM     38  C   UNL A   1      40.088  25.986  27.884  1.00  0.00     0.031 C 
ATOM     39  C   UNL A   1      43.287  28.727  29.782  1.00  0.00     0.029 A 
ATOM     40  N   UNL A   1      41.582  29.999  30.508  1.00  0.00    -0.354 N 
ATOM     41  C   UNL A   1      42.061  24.850  28.155  1.00  0.00     0.074 A 
ATOM     42  C   UNL A   1      40.750  24.868  27.556  1.00  0.00     0.031 C 
ATOM     43  C   UNL A   1      43.758  29.559  30.734  1.00  0.00     0.029 A 
ATOM     44  C   UNL A   1      42.601  30.077  31.459  1.00  0.00     0.049 A 
ATOM     45  H   UNL A   1      40.838  30.632  30.381  1.00  0.00     0.167 HD
ATOM     46  C   UNL A   1      43.254  24.215  27.951  1.00  0.00     0.037 A 
ATOM     47  C   UNL A   1      42.273  29.770  32.750  1.00  0.00     0.037 A 
ATOM     48  C   UNL A   1      44.237  24.753  28.894  1.00  0.00     0.049 A 
ATOM     49  C   UNL A   1      42.994  28.515  33.173  1.00  0.00     0.074 A 
ATOM     50  C   UNL A   1      45.181  25.758  28.766  1.00  0.00     0.029 A 
ATOM     51  N   UNL A   1      44.036  24.563  30.258  1.00  0.00    -0.354 N 
ATOM     52  N   UNL A   1      43.206  27.481  32.400  1.00  0.00    -0.248 NA
ATOM     53  C   UNL A   1      43.661  28.418  34.463  1.00  0.00     0.031 C 
ATOM     54  C   UNL A   1      45.470  26.242  30.071  1.00  0.00     0.029 A 
ATOM     55  C   UNL A   1      44.710  25.526  30.984  1.00  0.00     0.049 A 
ATOM     56  H   UNL A   1      43.490  23.844  30.650  1.00  0.00     0.167 HD
ATOM     57  C   UNL A   1      44.100  26.647  33.021  1.00  0.00     0.074 A 
ATOM     58  C   UNL A   1      44.332  27.266  34.317  1.00  0.00     0.031 C 
ATOM     59  C   UNL A   1      44.650  25.539  32.436  1.00  0.00     0.037 A 
BRANCH  46  60
ATOM     60  C   UNL A   1      43.652  23.347  26.768  1.00  0.00     0.064 A 
ATOM     61  C   UNL A   1      43.124  22.035  26.653  1.00  0.00     0.173 A 
ATOM     62  C   UNL A   1      44.576  23.686  25.763  1.00  0.00     0.173 A 
ATOM     63  F   UNL A   1      42.186  21.580  27.494  1.00  0.00    -0.203 F 
ATOM     64  C   UNL A   1      43.540  21.129  25.670  1.00  0.00     0.198 A 
ATOM     65  C   UNL A   1      44.998  22.775  24.783  1.00  0.00     0.198 A 
ATOM     66  F   UNL A   1      45.090  24.914  25.661  1.00  0.00    -0.203 F 
ATOM     67  F   UNL A   1      43.018  19.896  25.639  1.00  0.00    -0.200 F 
ATOM     68  C   UNL A   1      44.489  21.495  24.742  1.00  0.00     0.200 A 
ATOM     69  F   UNL A   1      45.908  23.155  23.873  1.00  0.00    -0.200 F 
ATOM     70  F   UNL A   1      44.898  20.627  23.807  1.00  0.00    -0.200 F 
ENDBRANCH  46  60
BRANCH  47  71
ATOM     71  C   UNL A   1      40.862  30.147  33.109  1.00  0.00     0.064 A 
ATOM     72  C   UNL A   1      40.500  31.514  33.038  1.00  0.00     0.173 A 
ATOM     73  C   UNL A   1      39.812  29.223  33.168  1.00  0.00     0.173 A 
ATOM     74  F   UNL A   1      41.455  32.458  32.984  1.00  0.00    -0.203 F 
ATOM     75  C   UNL A   1      39.172  31.921  32.895  1.00  0.00     0.198 A 
ATOM     76  C   UNL A   1      38.478  29.638  33.056  1.00  0.00     0.198 A 
ATOM     77  F   UNL A   1      40.064  27.908  33.240  1.00  0.00    -0.203 F 
ATOM     78  F   UNL A   1      38.886  33.215  32.690  1.00  0.00    -0.200 F 
ATOM     79  C   UNL A   1      38.162  30.978  32.886  1.00  0.00     0.200 A 
ATOM     80  F   UNL A   1      37.494  28.726  33.016  1.00  0.00    -0.200 F 
ATOM     81  F   UNL A   1      36.893  31.353  32.661  1.00  0.00    -0.200 F 
ENDBRANCH  47  71
BRANCH  59  82
ATOM     82  C   UNL A   1      45.303  24.404  33.190  1.00  0.00     0.064 A 
ATOM     83  C   UNL A   1      46.577  24.495  33.771  1.00  0.00     0.173 A 
ATOM     84  C   UNL A   1      44.578  23.226  33.502  1.00  0.00     0.173 A 
ATOM     85  F   UNL A   1      47.308  25.615  33.696  1.00  0.00    -0.203 F 
ATOM     86  C   UNL A   1      47.127  23.452  34.515  1.00  0.00     0.198 A 
ATOM     87  C   UNL A   1      45.096  22.225  34.318  1.00  0.00     0.198 A 
ATOM     88  F   UNL A   1      43.329  23.021  33.059  1.00  0.00    -0.203 F 
ATOM     89  F   UNL A   1      48.377  23.564  34.983  1.00  0.00    -0.200 F 
ATOM     90  C   UNL A   1      46.383  22.324  34.801  1.00  0.00     0.200 A 
ATOM     91  F   UNL A   1      44.331  21.177  34.652  1.00  0.00    -0.200 F 
ATOM     92  F   UNL A   1      46.894  21.350  35.563  1.00  0.00    -0.200 F 
ENDBRANCH  59  82
ENDBRANCH  33  34
ENDBRANCH  26  28
ENDBRANCH  25  26
ENDBRANCH  24  25
ENDBRANCH   1  24
TORSDOF 15
ENDMDL
