MODEL 1
REMARK VINA RESULT:     -10.9      0.000      0.000
REMARK SMILES C[N@H+](CCC(=O)Nc1sccc1C#N)CC(=O)OCCOC(=O)c1ccc(-c2c3nc(c(-c4c(F)c(F)c(F)c(F)c4F)c4ccc([nH]4)c(-c4c(F)c(F)c(F)c(F)c4F)c4nc(c(-c5c(F)c(F)c(F)c(F)c5F)c5ccc2[nH]5)C=C4)C=C3)cc1
REMARK SMILES IDX 16 1 17 2 15 3 2 4 1 5 3 7 4 8 5 9 6 10 7 11 8 13 9 14 12 15
REMARK SMILES IDX 10 16 11 17 13 18 14 19 18 20 19 21 20 22 21 23 22 24 23 25
REMARK SMILES IDX 24 26 25 27 86 28 26 29 85 30 27 31 28 32 29 33 79 34 30 35
REMARK SMILES IDX 84 36 78 37 80 38 31 39 83 40 77 41 76 42 32 44 64 45 44 46
REMARK SMILES IDX 63 47 45 48 48 49 62 50 81 51 46 52 47 53 61 55 82 56 49 57
REMARK SMILES IDX 33 58 34 59 42 60 35 61 36 62 40 63 43 64 37 65 38 66 41 67
REMARK SMILES IDX 39 68 65 69 66 70 74 71 67 72 68 73 72 74 75 75 69 76 70 77
REMARK SMILES IDX 73 78 71 79 50 80 51 81 59 82 52 83 53 84 57 85 60 86 54 87
REMARK SMILES IDX 55 88 58 89 56 90
REMARK H PARENT 2 6 7 12 80 43 48 54
REMARK Flexibility Score: inf
ROOT
ATOM      1  C   UNL A   1      31.712  26.838  26.220  1.00  0.00     0.361 C 
ATOM      2  O   UNL A   1      31.042  27.062  27.219  1.00  0.00    -0.245 OA
ENDROOT
BRANCH   1   3
ATOM      3  C   UNL A   1      32.035  25.450  25.712  1.00  0.00     0.386 C 
BRANCH   3   4
ATOM      4  N   UNL A   1      30.823  24.761  25.252  1.00  0.00    -0.328 N 
ATOM      5  C   UNL A   1      30.761  23.438  25.880  1.00  0.00     0.333 C 
ATOM      6  H   UNL A   1      30.028  25.330  25.540  1.00  0.00     0.348 HD
BRANCH   4   7
ATOM      7  C   UNL A   1      30.695  24.667  23.788  1.00  0.00     0.272 C 
BRANCH   7   8
ATOM      8  C   UNL A   1      31.766  25.299  22.896  1.00  0.00     0.161 C 
BRANCH   8   9
ATOM      9  C   UNL A   1      32.940  24.643  22.174  1.00  0.00     0.230 C 
ATOM     10  O   UNL A   1      33.435  25.295  21.235  1.00  0.00    -0.274 OA
ATOM     11  N   UNL A   1      33.593  23.497  22.451  1.00  0.00    -0.316 N 
ATOM     12  H   UNL A   1      34.447  23.420  21.966  1.00  0.00     0.170 HD
BRANCH  11  13
ATOM     13  C   UNL A   1      33.347  22.417  23.248  1.00  0.00     0.113 A 
ATOM     14  S   UNL A   1      32.098  21.443  22.598  1.00  0.00    -0.125 S 
ATOM     15  C   UNL A   1      33.764  21.935  24.464  1.00  0.00     0.087 A 
ATOM     16  C   UNL A   1      32.476  20.158  23.659  1.00  0.00     0.068 A 
ATOM     17  C   UNL A   1      33.328  20.580  24.659  1.00  0.00     0.033 A 
BRANCH  15  18
ATOM     18  C   UNL A   1      34.501  22.684  25.433  1.00  0.00     0.102 C 
ATOM     19  N   UNL A   1      35.109  23.284  26.216  1.00  0.00    -0.192 NA
ENDBRANCH  15  18
ENDBRANCH  11  13
ENDBRANCH   8   9
ENDBRANCH   7   8
ENDBRANCH   4   7
ENDBRANCH   3   4
ENDBRANCH   1   3
BRANCH   1  20
ATOM     20  O   UNL A   1      32.196  27.785  25.376  1.00  0.00    -0.458 OA
BRANCH  20  21
ATOM     21  C   UNL A   1      31.238  28.735  24.899  1.00  0.00     0.274 C 
BRANCH  21  22
ATOM     22  C   UNL A   1      31.539  30.101  25.514  1.00  0.00     0.275 C 
BRANCH  22  23
ATOM     23  O   UNL A   1      32.943  30.227  25.835  1.00  0.00    -0.458 OA
BRANCH  23  24
ATOM     24  C   UNL A   1      33.234  31.028  26.887  1.00  0.00     0.338 C 
ATOM     25  O   UNL A   1      32.490  31.829  27.431  1.00  0.00    -0.246 OA
BRANCH  24  26
ATOM     26  C   UNL A   1      34.607  30.805  27.380  1.00  0.00     0.060 A 
ATOM     27  C   UNL A   1      35.073  29.522  27.651  1.00  0.00     0.016 A 
ATOM     28  C   UNL A   1      35.370  31.910  27.756  1.00  0.00     0.016 A 
ATOM     29  C   UNL A   1      36.244  29.351  28.395  1.00  0.00     0.010 A 
ATOM     30  C   UNL A   1      36.604  31.725  28.392  1.00  0.00     0.010 A 
ATOM     31  C   UNL A   1      37.046  30.442  28.761  1.00  0.00    -0.014 A 
BRANCH  31  32
ATOM     32  C   UNL A   1      38.325  30.273  29.526  1.00  0.00     0.031 A 
ATOM     33  C   UNL A   1      39.438  29.416  28.964  1.00  0.00     0.074 A 
ATOM     34  C   UNL A   1      38.501  30.839  30.738  1.00  0.00     0.049 A 
ATOM     35  N   UNL A   1      40.442  28.842  29.580  1.00  0.00    -0.248 NA
ATOM     36  C   UNL A   1      39.401  29.154  27.516  1.00  0.00     0.031 C 
ATOM     37  C   UNL A   1      37.576  31.760  31.400  1.00  0.00     0.029 A 
ATOM     38  N   UNL A   1      39.524  30.699  31.651  1.00  0.00    -0.354 N 
ATOM     39  C   UNL A   1      41.100  28.083  28.617  1.00  0.00     0.074 A 
ATOM     40  C   UNL A   1      40.394  28.286  27.370  1.00  0.00     0.031 C 
ATOM     41  C   UNL A   1      38.078  32.124  32.586  1.00  0.00     0.029 A 
ATOM     42  C   UNL A   1      39.284  31.348  32.839  1.00  0.00     0.049 A 
ATOM     43  H   UNL A   1      40.345  30.187  31.470  1.00  0.00     0.167 HD
ATOM     44  C   UNL A   1      42.182  27.280  28.772  1.00  0.00     0.037 A 
ATOM     45  C   UNL A   1      39.893  31.264  34.038  1.00  0.00     0.037 A 
ATOM     46  C   UNL A   1      42.919  27.145  30.005  1.00  0.00     0.049 A 
ATOM     47  C   UNL A   1      41.045  30.318  34.209  1.00  0.00     0.074 A 
ATOM     48  C   UNL A   1      44.048  26.385  30.259  1.00  0.00     0.029 A 
ATOM     49  N   UNL A   1      42.608  27.798  31.189  1.00  0.00    -0.354 N 
ATOM     50  N   UNL A   1      41.608  29.531  33.326  1.00  0.00    -0.248 NA
ATOM     51  C   UNL A   1      41.631  30.230  35.554  1.00  0.00     0.031 C 
ATOM     52  C   UNL A   1      44.387  26.534  31.608  1.00  0.00     0.029 A 
ATOM     53  C   UNL A   1      43.510  27.440  32.180  1.00  0.00     0.049 A 
ATOM     54  H   UNL A   1      41.858  28.424  31.309  1.00  0.00     0.167 HD
ATOM     55  C   UNL A   1      42.626  28.871  33.999  1.00  0.00     0.074 A 
ATOM     56  C   UNL A   1      42.614  29.363  35.361  1.00  0.00     0.031 C 
ATOM     57  C   UNL A   1      43.492  27.941  33.530  1.00  0.00     0.037 A 
BRANCH  44  58
ATOM     58  C   UNL A   1      42.622  26.439  27.602  1.00  0.00     0.064 A 
ATOM     59  C   UNL A   1      43.640  26.838  26.726  1.00  0.00     0.173 A 
ATOM     60  C   UNL A   1      42.054  25.168  27.405  1.00  0.00     0.173 A 
ATOM     61  F   UNL A   1      44.214  28.043  26.860  1.00  0.00    -0.203 F 
ATOM     62  C   UNL A   1      44.060  26.007  25.686  1.00  0.00     0.198 A 
ATOM     63  C   UNL A   1      42.498  24.328  26.387  1.00  0.00     0.198 A 
ATOM     64  F   UNL A   1      41.081  24.729  28.218  1.00  0.00    -0.203 F 
ATOM     65  F   UNL A   1      45.007  26.428  24.836  1.00  0.00    -0.200 F 
ATOM     66  C   UNL A   1      43.495  24.751  25.523  1.00  0.00     0.200 A 
ATOM     67  F   UNL A   1      41.963  23.107  26.246  1.00  0.00    -0.200 F 
ATOM     68  F   UNL A   1      43.912  23.949  24.534  1.00  0.00    -0.200 F 
ENDBRANCH  44  58
BRANCH  45  69
ATOM     69  C   UNL A   1      39.361  32.041  35.191  1.00  0.00     0.064 A 
ATOM     70  C   UNL A   1      38.539  31.437  36.151  1.00  0.00     0.173 A 
ATOM     71  C   UNL A   1      39.680  33.398  35.368  1.00  0.00     0.173 A 
ATOM     72  F   UNL A   1      38.181  30.151  36.011  1.00  0.00    -0.203 F 
ATOM     73  C   UNL A   1      38.057  32.158  37.240  1.00  0.00     0.198 A 
ATOM     74  C   UNL A   1      39.231  34.105  36.479  1.00  0.00     0.198 A 
ATOM     75  F   UNL A   1      40.460  34.027  34.476  1.00  0.00    -0.203 F 
ATOM     76  F   UNL A   1      37.238  31.566  38.121  1.00  0.00    -0.200 F 
ATOM     77  C   UNL A   1      38.412  33.488  37.412  1.00  0.00     0.200 A 
ATOM     78  F   UNL A   1      39.597  35.383  36.649  1.00  0.00    -0.200 F 
ATOM     79  F   UNL A   1      37.964  34.174  38.471  1.00  0.00    -0.200 F 
ENDBRANCH  45  69
BRANCH  57  80
ATOM     80  C   UNL A   1      44.537  27.439  34.485  1.00  0.00     0.064 A 
ATOM     81  C   UNL A   1      45.768  28.092  34.647  1.00  0.00     0.173 A 
ATOM     82  C   UNL A   1      44.297  26.291  35.254  1.00  0.00     0.173 A 
ATOM     83  F   UNL A   1      46.054  29.183  33.922  1.00  0.00    -0.203 F 
ATOM     84  C   UNL A   1      46.733  27.592  35.517  1.00  0.00     0.198 A 
ATOM     85  C   UNL A   1      45.250  25.813  36.148  1.00  0.00     0.198 A 
ATOM     86  F   UNL A   1      43.133  25.631  35.140  1.00  0.00    -0.203 F 
ATOM     87  F   UNL A   1      47.926  28.196  35.609  1.00  0.00    -0.200 F 
ATOM     88  C   UNL A   1      46.471  26.457  36.271  1.00  0.00     0.200 A 
ATOM     89  F   UNL A   1      44.989  24.725  36.885  1.00  0.00    -0.200 F 
ATOM     90  F   UNL A   1      47.401  25.978  37.108  1.00  0.00    -0.200 F 
ENDBRANCH  57  80
ENDBRANCH  31  32
ENDBRANCH  24  26
ENDBRANCH  23  24
ENDBRANCH  22  23
ENDBRANCH  21  22
ENDBRANCH  20  21
ENDBRANCH   1  20
TORSDOF 17
ENDMDL
MODEL 2
REMARK VINA RESULT:     -10.7      4.447      9.752
REMARK SMILES C[N@H+](CCC(=O)Nc1sccc1C#N)CC(=O)OCCOC(=O)c1ccc(-c2c3nc(c(-c4c(F)c(F)c(F)c(F)c4F)c4ccc([nH]4)c(-c4c(F)c(F)c(F)c(F)c4F)c4nc(c(-c5c(F)c(F)c(F)c(F)c5F)c5ccc2[nH]5)C=C4)C=C3)cc1
REMARK SMILES IDX 16 1 17 2 15 3 2 4 1 5 3 7 4 8 5 9 6 10 7 11 8 13 9 14 12 15
REMARK SMILES IDX 10 16 11 17 13 18 14 19 18 20 19 21 20 22 21 23 22 24 23 25
REMARK SMILES IDX 24 26 25 27 86 28 26 29 85 30 27 31 28 32 29 33 79 34 30 35
REMARK SMILES IDX 84 36 78 37 80 38 31 39 83 40 77 41 76 42 32 44 64 45 44 46
REMARK SMILES IDX 63 47 45 48 48 49 62 50 81 51 46 52 47 53 61 55 82 56 49 57
REMARK SMILES IDX 33 58 34 59 42 60 35 61 36 62 40 63 43 64 37 65 38 66 41 67
REMARK SMILES IDX 39 68 65 69 66 70 74 71 67 72 68 73 72 74 75 75 69 76 70 77
REMARK SMILES IDX 73 78 71 79 50 80 51 81 59 82 52 83 53 84 57 85 60 86 54 87
REMARK SMILES IDX 55 88 58 89 56 90
REMARK H PARENT 2 6 7 12 80 43 48 54
REMARK Flexibility Score: inf
ROOT
ATOM      1  C   UNL A   1      33.157  19.725  24.673  1.00  0.00     0.361 C 
ATOM      2  O   UNL A   1      32.354  18.966  24.149  1.00  0.00    -0.245 OA
ENDROOT
BRANCH   1   3
ATOM      3  C   UNL A   1      32.766  20.926  25.505  1.00  0.00     0.386 C 
BRANCH   3   4
ATOM      4  N   UNL A   1      31.755  21.739  24.818  1.00  0.00    -0.328 N 
ATOM      5  C   UNL A   1      32.349  22.312  23.607  1.00  0.00     0.333 C 
ATOM      6  H   UNL A   1      30.985  21.116  24.577  1.00  0.00     0.348 HD
BRANCH   4   7
ATOM      7  C   UNL A   1      31.136  22.779  25.657  1.00  0.00     0.272 C 
BRANCH   7   8
ATOM      8  C   UNL A   1      31.752  24.178  25.698  1.00  0.00     0.161 C 
BRANCH   8   9
ATOM      9  C   UNL A   1      33.170  24.606  26.067  1.00  0.00     0.230 C 
ATOM     10  O   UNL A   1      33.808  23.815  26.788  1.00  0.00    -0.274 OA
ATOM     11  N   UNL A   1      33.885  25.673  25.657  1.00  0.00    -0.316 N 
ATOM     12  H   UNL A   1      34.843  25.592  25.870  1.00  0.00     0.170 HD
BRANCH  11  13
ATOM     13  C   UNL A   1      33.589  26.840  25.015  1.00  0.00     0.113 A 
ATOM     14  S   UNL A   1      33.038  28.028  26.117  1.00  0.00    -0.125 S 
ATOM     15  C   UNL A   1      33.534  27.305  23.724  1.00  0.00     0.087 A 
ATOM     16  C   UNL A   1      33.217  29.267  24.955  1.00  0.00     0.068 A 
ATOM     17  C   UNL A   1      33.408  28.736  23.696  1.00  0.00     0.033 A 
BRANCH  15  18
ATOM     18  C   UNL A   1      33.560  26.482  22.556  1.00  0.00     0.102 C 
ATOM     19  N   UNL A   1      33.585  25.824  21.602  1.00  0.00    -0.192 NA
ENDBRANCH  15  18
ENDBRANCH  11  13
ENDBRANCH   8   9
ENDBRANCH   7   8
ENDBRANCH   4   7
ENDBRANCH   3   4
ENDBRANCH   1   3
BRANCH   1  20
ATOM     20  O   UNL A   1      34.506  19.566  24.661  1.00  0.00    -0.458 OA
BRANCH  20  21
ATOM     21  C   UNL A   1      35.259  20.643  25.229  1.00  0.00     0.274 C 
BRANCH  21  22
ATOM     22  C   UNL A   1      36.732  20.470  24.864  1.00  0.00     0.275 C 
BRANCH  22  23
ATOM     23  O   UNL A   1      37.507  21.619  25.277  1.00  0.00    -0.458 OA
BRANCH  23  24
ATOM     24  C   UNL A   1      38.701  21.345  25.855  1.00  0.00     0.338 C 
ATOM     25  O   UNL A   1      39.303  20.283  25.833  1.00  0.00    -0.246 OA
BRANCH  24  26
ATOM     26  C   UNL A   1      39.271  22.531  26.521  1.00  0.00     0.060 A 
ATOM     27  C   UNL A   1      38.840  23.814  26.195  1.00  0.00     0.016 A 
ATOM     28  C   UNL A   1      40.385  22.366  27.344  1.00  0.00     0.016 A 
ATOM     29  C   UNL A   1      39.590  24.922  26.601  1.00  0.00     0.010 A 
ATOM     30  C   UNL A   1      41.056  23.487  27.847  1.00  0.00     0.010 A 
ATOM     31  C   UNL A   1      40.696  24.788  27.452  1.00  0.00    -0.014 A 
BRANCH  31  32
ATOM     32  C   UNL A   1      41.487  25.970  27.928  1.00  0.00     0.031 A 
ATOM     33  C   UNL A   1      40.824  27.038  28.769  1.00  0.00     0.074 A 
ATOM     34  C   UNL A   1      42.784  26.132  27.590  1.00  0.00     0.049 A 
ATOM     35  N   UNL A   1      41.185  28.281  28.976  1.00  0.00    -0.248 NA
ATOM     36  C   UNL A   1      39.576  26.660  29.451  1.00  0.00     0.031 C 
ATOM     37  C   UNL A   1      43.608  25.170  26.858  1.00  0.00     0.029 A 
ATOM     38  N   UNL A   1      43.638  27.192  27.802  1.00  0.00    -0.354 N 
ATOM     39  C   UNL A   1      40.168  28.855  29.732  1.00  0.00     0.074 A 
ATOM     40  C   UNL A   1      39.185  27.819  29.966  1.00  0.00     0.031 C 
ATOM     41  C   UNL A   1      44.843  25.662  26.707  1.00  0.00     0.029 A 
ATOM     42  C   UNL A   1      44.861  27.033  27.194  1.00  0.00     0.049 A 
ATOM     43  H   UNL A   1      43.397  27.984  28.335  1.00  0.00     0.167 HD
ATOM     44  C   UNL A   1      40.064  30.134  30.172  1.00  0.00     0.037 A 
ATOM     45  C   UNL A   1      45.857  27.910  26.957  1.00  0.00     0.037 A 
ATOM     46  C   UNL A   1      41.086  31.136  29.993  1.00  0.00     0.049 A 
ATOM     47  C   UNL A   1      45.695  29.337  27.388  1.00  0.00     0.074 A 
ATOM     48  C   UNL A   1      41.094  32.451  30.428  1.00  0.00     0.029 A 
ATOM     49  N   UNL A   1      42.291  30.930  29.336  1.00  0.00    -0.354 N 
ATOM     50  N   UNL A   1      44.696  29.903  28.019  1.00  0.00    -0.248 NA
ATOM     51  C   UNL A   1      46.790  30.256  27.050  1.00  0.00     0.031 C 
ATOM     52  C   UNL A   1      42.276  33.055  29.987  1.00  0.00     0.029 A 
ATOM     53  C   UNL A   1      43.038  32.099  29.336  1.00  0.00     0.049 A 
ATOM     54  H   UNL A   1      42.575  30.079  28.930  1.00  0.00     0.167 HD
ATOM     55  C   UNL A   1      45.049  31.235  28.174  1.00  0.00     0.074 A 
ATOM     56  C   UNL A   1      46.363  31.390  27.585  1.00  0.00     0.031 C 
ATOM     57  C   UNL A   1      44.347  32.240  28.752  1.00  0.00     0.037 A 
BRANCH  44  58
ATOM     58  C   UNL A   1      38.787  30.555  30.850  1.00  0.00     0.064 A 
ATOM     59  C   UNL A   1      38.639  30.564  32.244  1.00  0.00     0.173 A 
ATOM     60  C   UNL A   1      37.712  31.032  30.079  1.00  0.00     0.173 A 
ATOM     61  F   UNL A   1      39.628  30.113  33.031  1.00  0.00    -0.203 F 
ATOM     62  C   UNL A   1      37.460  31.014  32.839  1.00  0.00     0.198 A 
ATOM     63  C   UNL A   1      36.550  31.512  30.677  1.00  0.00     0.198 A 
ATOM     64  F   UNL A   1      37.799  31.056  28.740  1.00  0.00    -0.203 F 
ATOM     65  F   UNL A   1      37.328  30.974  34.172  1.00  0.00    -0.200 F 
ATOM     66  C   UNL A   1      36.422  31.496  32.056  1.00  0.00     0.200 A 
ATOM     67  F   UNL A   1      35.557  31.995  29.917  1.00  0.00    -0.200 F 
ATOM     68  F   UNL A   1      35.297  31.943  32.631  1.00  0.00    -0.200 F 
ENDBRANCH  44  58
BRANCH  45  69
ATOM     69  C   UNL A   1      47.059  27.470  26.195  1.00  0.00     0.064 A 
ATOM     70  C   UNL A   1      47.125  27.619  24.804  1.00  0.00     0.173 A 
ATOM     71  C   UNL A   1      48.173  26.914  26.845  1.00  0.00     0.173 A 
ATOM     72  F   UNL A   1      46.076  28.117  24.133  1.00  0.00    -0.203 F 
ATOM     73  C   UNL A   1      48.257  27.226  24.093  1.00  0.00     0.198 A 
ATOM     74  C   UNL A   1      49.318  26.560  26.138  1.00  0.00     0.198 A 
ATOM     75  F   UNL A   1      48.160  26.745  28.176  1.00  0.00    -0.203 F 
ATOM     76  F   UNL A   1      48.278  27.340  22.758  1.00  0.00    -0.200 F 
ATOM     77  C   UNL A   1      49.358  26.709  24.761  1.00  0.00     0.200 A 
ATOM     78  F   UNL A   1      50.385  26.082  26.792  1.00  0.00    -0.200 F 
ATOM     79  F   UNL A   1      50.453  26.351  24.077  1.00  0.00    -0.200 F 
ENDBRANCH  45  69
BRANCH  57  80
ATOM     80  C   UNL A   1      45.015  33.583  28.827  1.00  0.00     0.064 A 
ATOM     81  C   UNL A   1      45.859  33.932  29.891  1.00  0.00     0.173 A 
ATOM     82  C   UNL A   1      44.810  34.530  27.813  1.00  0.00     0.173 A 
ATOM     83  F   UNL A   1      46.072  33.069  30.895  1.00  0.00    -0.203 F 
ATOM     84  C   UNL A   1      46.444  35.194  29.954  1.00  0.00     0.198 A 
ATOM     85  C   UNL A   1      45.423  35.779  27.862  1.00  0.00     0.198 A 
ATOM     86  F   UNL A   1      44.015  34.244  26.771  1.00  0.00    -0.203 F 
ATOM     87  F   UNL A   1      47.196  35.529  31.012  1.00  0.00    -0.200 F 
ATOM     88  C   UNL A   1      46.231  36.113  28.937  1.00  0.00     0.200 A 
ATOM     89  F   UNL A   1      45.227  36.659  26.871  1.00  0.00    -0.200 F 
ATOM     90  F   UNL A   1      46.795  37.327  29.000  1.00  0.00    -0.200 F 
ENDBRANCH  57  80
ENDBRANCH  31  32
ENDBRANCH  24  26
ENDBRANCH  23  24
ENDBRANCH  22  23
ENDBRANCH  21  22
ENDBRANCH  20  21
ENDBRANCH   1  20
TORSDOF 17
ENDMDL
MODEL 3
REMARK VINA RESULT:     -10.7      1.173      2.651
REMARK SMILES C[N@H+](CCC(=O)Nc1sccc1C#N)CC(=O)OCCOC(=O)c1ccc(-c2c3nc(c(-c4c(F)c(F)c(F)c(F)c4F)c4ccc([nH]4)c(-c4c(F)c(F)c(F)c(F)c4F)c4nc(c(-c5c(F)c(F)c(F)c(F)c5F)c5ccc2[nH]5)C=C4)C=C3)cc1
REMARK SMILES IDX 16 1 17 2 15 3 2 4 1 5 3 7 4 8 5 9 6 10 7 11 8 13 9 14 12 15
REMARK SMILES IDX 10 16 11 17 13 18 14 19 18 20 19 21 20 22 21 23 22 24 23 25
REMARK SMILES IDX 24 26 25 27 86 28 26 29 85 30 27 31 28 32 29 33 79 34 30 35
REMARK SMILES IDX 84 36 78 37 80 38 31 39 83 40 77 41 76 42 32 44 64 45 44 46
REMARK SMILES IDX 63 47 45 48 48 49 62 50 81 51 46 52 47 53 61 55 82 56 49 57
REMARK SMILES IDX 33 58 34 59 42 60 35 61 36 62 40 63 43 64 37 65 38 66 41 67
REMARK SMILES IDX 39 68 65 69 66 70 74 71 67 72 68 73 72 74 75 75 69 76 70 77
REMARK SMILES IDX 73 78 71 79 50 80 51 81 59 82 52 83 53 84 57 85 60 86 54 87
REMARK SMILES IDX 55 88 58 89 56 90
REMARK H PARENT 2 6 7 12 80 43 48 54
REMARK Flexibility Score: inf
ROOT
ATOM      1  C   UNL A   1      30.662  27.565  24.257  1.00  0.00     0.361 C 
ATOM      2  O   UNL A   1      30.203  28.445  23.542  1.00  0.00    -0.245 OA
ENDROOT
BRANCH   1   3
ATOM      3  C   UNL A   1      30.371  26.091  24.077  1.00  0.00     0.386 C 
BRANCH   3   4
ATOM      4  N   UNL A   1      31.542  25.382  23.545  1.00  0.00    -0.328 N 
ATOM      5  C   UNL A   1      31.668  25.681  22.116  1.00  0.00     0.333 C 
ATOM      6  H   UNL A   1      32.355  25.725  24.054  1.00  0.00     0.348 HD
BRANCH   4   7
ATOM      7  C   UNL A   1      31.539  23.931  23.793  1.00  0.00     0.272 C 
BRANCH   7   8
ATOM      8  C   UNL A   1      30.698  23.364  24.939  1.00  0.00     0.161 C 
BRANCH   8   9
ATOM      9  C   UNL A   1      31.121  22.967  26.350  1.00  0.00     0.230 C 
ATOM     10  O   UNL A   1      30.356  23.318  27.269  1.00  0.00    -0.274 OA
ATOM     11  N   UNL A   1      32.157  22.206  26.760  1.00  0.00    -0.316 N 
ATOM     12  H   UNL A   1      32.071  21.924  27.700  1.00  0.00     0.170 HD
BRANCH  11  13
ATOM     13  C   UNL A   1      33.296  21.737  26.175  1.00  0.00     0.113 A 
ATOM     14  S   UNL A   1      34.479  22.968  26.053  1.00  0.00    -0.125 S 
ATOM     15  C   UNL A   1      33.733  20.576  25.585  1.00  0.00     0.087 A 
ATOM     16  C   UNL A   1      35.702  21.831  25.690  1.00  0.00     0.068 A 
ATOM     17  C   UNL A   1      35.155  20.601  25.387  1.00  0.00     0.033 A 
BRANCH  15  18
ATOM     18  C   UNL A   1      32.888  19.495  25.182  1.00  0.00     0.102 C 
ATOM     19  N   UNL A   1      32.194  18.624  24.863  1.00  0.00    -0.192 NA
ENDBRANCH  15  18
ENDBRANCH  11  13
ENDBRANCH   8   9
ENDBRANCH   7   8
ENDBRANCH   4   7
ENDBRANCH   3   4
ENDBRANCH   1   3
BRANCH   1  20
ATOM     20  O   UNL A   1      31.558  27.760  25.259  1.00  0.00    -0.458 OA
BRANCH  20  21
ATOM     21  C   UNL A   1      32.855  28.207  24.849  1.00  0.00     0.274 C 
BRANCH  21  22
ATOM     22  C   UNL A   1      33.000  29.691  25.179  1.00  0.00     0.275 C 
BRANCH  22  23
ATOM     23  O   UNL A   1      32.642  29.954  26.556  1.00  0.00    -0.458 OA
BRANCH  23  24
ATOM     24  C   UNL A   1      33.206  31.054  27.109  1.00  0.00     0.338 C 
ATOM     25  O   UNL A   1      32.689  32.149  27.261  1.00  0.00    -0.246 OA
BRANCH  24  26
ATOM     26  C   UNL A   1      34.577  30.784  27.583  1.00  0.00     0.060 A 
ATOM     27  C   UNL A   1      34.953  29.514  28.007  1.00  0.00     0.016 A 
ATOM     28  C   UNL A   1      35.439  31.862  27.783  1.00  0.00     0.016 A 
ATOM     29  C   UNL A   1      36.139  29.345  28.729  1.00  0.00     0.010 A 
ATOM     30  C   UNL A   1      36.681  31.660  28.398  1.00  0.00     0.010 A 
ATOM     31  C   UNL A   1      37.038  30.404  28.920  1.00  0.00    -0.014 A 
BRANCH  31  32
ATOM     32  C   UNL A   1      38.332  30.231  29.658  1.00  0.00     0.031 A 
ATOM     33  C   UNL A   1      39.406  29.321  29.105  1.00  0.00     0.074 A 
ATOM     34  C   UNL A   1      38.555  30.842  30.841  1.00  0.00     0.049 A 
ATOM     35  N   UNL A   1      40.411  28.746  29.719  1.00  0.00    -0.248 NA
ATOM     36  C   UNL A   1      39.324  29.001  27.670  1.00  0.00     0.031 C 
ATOM     37  C   UNL A   1      37.673  31.815  31.486  1.00  0.00     0.029 A 
ATOM     38  N   UNL A   1      39.598  30.712  31.732  1.00  0.00    -0.354 N 
ATOM     39  C   UNL A   1      41.022  27.929  28.772  1.00  0.00     0.074 A 
ATOM     40  C   UNL A   1      40.289  28.100  27.536  1.00  0.00     0.031 C 
ATOM     41  C   UNL A   1      38.216  32.213  32.643  1.00  0.00     0.029 A 
ATOM     42  C   UNL A   1      39.407  31.416  32.898  1.00  0.00     0.049 A 
ATOM     43  H   UNL A   1      40.400  30.169  31.553  1.00  0.00     0.167 HD
ATOM     44  C   UNL A   1      42.087  27.104  28.933  1.00  0.00     0.037 A 
ATOM     45  C   UNL A   1      40.046  31.365  34.083  1.00  0.00     0.037 A 
ATOM     46  C   UNL A   1      42.852  26.999  30.152  1.00  0.00     0.049 A 
ATOM     47  C   UNL A   1      41.176  30.395  34.265  1.00  0.00     0.074 A 
ATOM     48  C   UNL A   1      43.967  26.219  30.408  1.00  0.00     0.029 A 
ATOM     49  N   UNL A   1      42.590  27.709  31.315  1.00  0.00    -0.354 N 
ATOM     50  N   UNL A   1      41.694  29.557  33.402  1.00  0.00    -0.248 NA
ATOM     51  C   UNL A   1      41.794  30.346  35.597  1.00  0.00     0.031 C 
ATOM     52  C   UNL A   1      44.345  26.414  31.741  1.00  0.00     0.029 A 
ATOM     53  C   UNL A   1      43.508  27.368  32.296  1.00  0.00     0.049 A 
ATOM     54  H   UNL A   1      41.860  28.360  31.427  1.00  0.00     0.167 HD
ATOM     55  C   UNL A   1      42.711  28.897  34.076  1.00  0.00     0.074 A 
ATOM     56  C   UNL A   1      42.748  29.445  35.416  1.00  0.00     0.031 C 
ATOM     57  C   UNL A   1      43.539  27.924  33.625  1.00  0.00     0.037 A 
BRANCH  44  58
ATOM     58  C   UNL A   1      42.472  26.203  27.789  1.00  0.00     0.064 A 
ATOM     59  C   UNL A   1      41.821  24.990  27.530  1.00  0.00     0.173 A 
ATOM     60  C   UNL A   1      43.475  26.609  26.890  1.00  0.00     0.173 A 
ATOM     61  F   UNL A   1      40.862  24.548  28.358  1.00  0.00    -0.203 F 
ATOM     62  C   UNL A   1      42.169  24.208  26.428  1.00  0.00     0.198 A 
ATOM     63  C   UNL A   1      43.796  25.843  25.772  1.00  0.00     0.198 A 
ATOM     64  F   UNL A   1      44.128  27.766  27.082  1.00  0.00    -0.203 F 
ATOM     65  F   UNL A   1      41.559  23.032  26.224  1.00  0.00    -0.200 F 
ATOM     66  C   UNL A   1      43.148  24.640  25.546  1.00  0.00     0.200 A 
ATOM     67  F   UNL A   1      44.730  26.274  24.912  1.00  0.00    -0.200 F 
ATOM     68  F   UNL A   1      43.469  23.895  24.479  1.00  0.00    -0.200 F 
ENDBRANCH  44  58
BRANCH  45  69
ATOM     69  C   UNL A   1      39.565  32.203  35.216  1.00  0.00     0.064 A 
ATOM     70  C   UNL A   1      39.985  33.532  35.359  1.00  0.00     0.173 A 
ATOM     71  C   UNL A   1      38.661  31.700  36.166  1.00  0.00     0.173 A 
ATOM     72  F   UNL A   1      40.871  34.051  34.495  1.00  0.00    -0.203 F 
ATOM     73  C   UNL A   1      39.521  34.323  36.407  1.00  0.00     0.198 A 
ATOM     74  C   UNL A   1      38.167  32.504  37.188  1.00  0.00     0.198 A 
ATOM     75  F   UNL A   1      38.230  30.432  36.078  1.00  0.00    -0.203 F 
ATOM     76  F   UNL A   1      39.970  35.578  36.545  1.00  0.00    -0.200 F 
ATOM     77  C   UNL A   1      38.603  33.814  37.314  1.00  0.00     0.200 A 
ATOM     78  F   UNL A   1      37.264  32.012  38.047  1.00  0.00    -0.200 F 
ATOM     79  F   UNL A   1      38.142  34.583  38.309  1.00  0.00    -0.200 F 
ENDBRANCH  45  69
BRANCH  57  80
ATOM     80  C   UNL A   1      44.595  27.433  34.573  1.00  0.00     0.064 A 
ATOM     81  C   UNL A   1      44.388  26.318  35.399  1.00  0.00     0.173 A 
ATOM     82  C   UNL A   1      45.834  28.086  34.649  1.00  0.00     0.173 A 
ATOM     83  F   UNL A   1      43.214  25.670  35.378  1.00  0.00    -0.203 F 
ATOM     84  C   UNL A   1      45.371  25.899  36.292  1.00  0.00     0.198 A 
ATOM     85  C   UNL A   1      46.827  27.644  35.519  1.00  0.00     0.198 A 
ATOM     86  F   UNL A   1      46.083  29.155  33.877  1.00  0.00    -0.203 F 
ATOM     87  F   UNL A   1      45.129  24.871  37.117  1.00  0.00    -0.200 F 
ATOM     88  C   UNL A   1      46.591  26.558  36.347  1.00  0.00     0.200 A 
ATOM     89  F   UNL A   1      48.009  28.274  35.559  1.00  0.00    -0.200 F 
ATOM     90  F   UNL A   1      47.535  26.152  37.207  1.00  0.00    -0.200 F 
ENDBRANCH  57  80
ENDBRANCH  31  32
ENDBRANCH  24  26
ENDBRANCH  23  24
ENDBRANCH  22  23
ENDBRANCH  21  22
ENDBRANCH  20  21
ENDBRANCH   1  20
TORSDOF 17
ENDMDL
