MODEL 1
REMARK VINA RESULT:     -12.2      0.000      0.000
REMARK SMILES CC(C)c1ccc(C(=O)NC[C@H]2CC[C@@H](C(=O)OCCOC(=O)c3ccc(-c4c5nc(c(-c6c(F)c(F)c(F)c(F)c6F)c6ccc([nH]6)c(-c6c(F)c(F)c(F)c(F)c6F)c6nc(c(-c7c(F)c(F)c(F)c(F)c7F)c7ccc4[nH]7)C=C6)C=C5)cc3)O2)cc1
REMARK SMILES IDX 19 1 18 2 16 3 17 4 15 5 12 6 13 7 87 8 14 9 11 10 10 11
REMARK SMILES IDX 8 12 9 13 7 15 4 16 5 17 89 18 6 19 88 20 2 21 1 22 3 23
REMARK SMILES IDX 20 24 21 25 22 26 23 27 24 28 25 29 86 30 26 31 85 32 27 33
REMARK SMILES IDX 28 34 29 35 79 36 30 37 84 38 78 39 80 40 31 41 83 42 77 43
REMARK SMILES IDX 76 44 32 46 64 47 44 48 63 49 45 50 48 51 62 52 81 53 46 54
REMARK SMILES IDX 47 55 61 57 82 58 49 59 33 60 34 61 42 62 35 63 36 64 40 65
REMARK SMILES IDX 43 66 37 67 38 68 41 69 39 70 65 71 66 72 74 73 67 74 68 75
REMARK SMILES IDX 72 76 75 77 69 78 70 79 73 80 71 81 50 82 51 83 59 84 52 85
REMARK SMILES IDX 53 86 57 87 60 88 54 89 55 90 58 91 56 92
REMARK H PARENT 10 14 80 45 48 56
REMARK Flexibility Score: inf
ROOT
ATOM      1  C   UNL A   1      36.028  20.371  25.102  1.00  0.00     0.274 C 
ENDROOT
BRANCH   1   2
ATOM      2  O   UNL A   1      35.699  21.540  25.883  1.00  0.00    -0.460 OA
BRANCH   2   3
ATOM      3  C   UNL A   1      34.427  21.989  25.686  1.00  0.00     0.335 C 
ATOM      4  O   UNL A   1      33.676  22.299  26.601  1.00  0.00    -0.249 OA
BRANCH   3   5
ATOM      5  C   UNL A   1      34.033  22.020  24.205  1.00  0.00     0.228 C 
ATOM      6  C   UNL A   1      32.177  22.988  23.115  1.00  0.00     0.138 C 
ATOM      7  C   UNL A   1      33.347  23.929  22.881  1.00  0.00     0.037 C 
ATOM      8  O   UNL A   1      32.601  22.046  24.101  1.00  0.00    -0.361 OA
ATOM      9  C   UNL A   1      34.563  23.225  23.448  1.00  0.00     0.047 C 
BRANCH   6  10
ATOM     10  C   UNL A   1      30.899  23.729  23.565  1.00  0.00     0.148 C 
BRANCH  10  11
ATOM     11  N   UNL A   1      30.644  23.639  24.997  1.00  0.00    -0.349 N 
ATOM     12  C   UNL A   1      30.902  24.439  26.083  1.00  0.00     0.251 C 
ATOM     13  O   UNL A   1      30.386  24.076  27.147  1.00  0.00    -0.269 OA
ATOM     14  H   UNL A   1      30.176  22.810  25.245  1.00  0.00     0.163 HD
BRANCH  12  15
ATOM     15  C   UNL A   1      31.732  25.683  26.091  1.00  0.00     0.039 A 
ATOM     16  C   UNL A   1      33.196  28.125  26.407  1.00  0.00    -0.045 A 
ATOM     17  C   UNL A   1      31.805  28.090  26.563  1.00  0.00     0.005 A 
ATOM     18  C   UNL A   1      33.825  26.934  26.037  1.00  0.00     0.005 A 
ATOM     19  C   UNL A   1      31.088  26.891  26.411  1.00  0.00     0.014 A 
ATOM     20  C   UNL A   1      33.105  25.736  25.894  1.00  0.00     0.014 A 
BRANCH  16  21
ATOM     21  C   UNL A   1      33.964  29.411  26.685  1.00  0.00     0.013 C 
ATOM     22  C   UNL A   1      33.027  30.494  27.243  1.00  0.00     0.012 C 
ATOM     23  C   UNL A   1      35.160  29.267  27.638  1.00  0.00     0.012 C 
ENDBRANCH  16  21
ENDBRANCH  12  15
ENDBRANCH  10  11
ENDBRANCH   6  10
ENDBRANCH   3   5
ENDBRANCH   2   3
ENDBRANCH   1   2
BRANCH   1  24
ATOM     24  C   UNL A   1      37.533  20.180  24.890  1.00  0.00     0.275 C 
BRANCH  24  25
ATOM     25  O   UNL A   1      38.298  21.346  25.249  1.00  0.00    -0.458 OA
BRANCH  25  26
ATOM     26  C   UNL A   1      39.289  21.126  26.136  1.00  0.00     0.338 C 
ATOM     27  O   UNL A   1      39.828  20.057  26.403  1.00  0.00    -0.246 OA
BRANCH  26  28
ATOM     28  C   UNL A   1      39.751  22.386  26.729  1.00  0.00     0.060 A 
ATOM     29  C   UNL A   1      39.224  23.574  26.226  1.00  0.00     0.016 A 
ATOM     30  C   UNL A   1      40.827  22.412  27.617  1.00  0.00     0.016 A 
ATOM     31  C   UNL A   1      39.813  24.792  26.548  1.00  0.00     0.010 A 
ATOM     32  C   UNL A   1      41.389  23.643  27.979  1.00  0.00     0.010 A 
ATOM     33  C   UNL A   1      40.911  24.840  27.418  1.00  0.00    -0.014 A 
BRANCH  33  34
ATOM     34  C   UNL A   1      41.589  26.138  27.665  1.00  0.00     0.031 A 
ATOM     35  C   UNL A   1      40.902  27.207  28.470  1.00  0.00     0.074 A 
ATOM     36  C   UNL A   1      42.850  26.332  27.238  1.00  0.00     0.049 A 
ATOM     37  N   UNL A   1      41.300  28.424  28.746  1.00  0.00    -0.248 NA
ATOM     38  C   UNL A   1      39.598  26.857  29.055  1.00  0.00     0.031 C 
ATOM     39  C   UNL A   1      43.661  25.350  26.518  1.00  0.00     0.029 A 
ATOM     40  N   UNL A   1      43.678  27.420  27.369  1.00  0.00    -0.354 N 
ATOM     41  C   UNL A   1      40.289  28.992  29.509  1.00  0.00     0.074 A 
ATOM     42  C   UNL A   1      39.256  27.989  29.653  1.00  0.00     0.031 C 
ATOM     43  C   UNL A   1      44.879  25.868  26.294  1.00  0.00     0.029 A 
ATOM     44  C   UNL A   1      44.917  27.237  26.805  1.00  0.00     0.049 A 
ATOM     45  H   UNL A   1      43.411  28.251  27.824  1.00  0.00     0.167 HD
ATOM     46  C   UNL A   1      40.228  30.236  30.041  1.00  0.00     0.037 A 
ATOM     47  C   UNL A   1      45.956  28.086  26.691  1.00  0.00     0.037 A 
ATOM     48  C   UNL A   1      41.261  31.231  29.921  1.00  0.00     0.049 A 
ATOM     49  C   UNL A   1      45.834  29.485  27.227  1.00  0.00     0.074 A 
ATOM     50  C   UNL A   1      41.276  32.527  30.406  1.00  0.00     0.029 A 
ATOM     51  N   UNL A   1      42.472  31.031  29.277  1.00  0.00    -0.354 N 
ATOM     52  N   UNL A   1      44.845  30.034  27.888  1.00  0.00    -0.248 NA
ATOM     53  C   UNL A   1      46.968  30.388  26.982  1.00  0.00     0.031 C 
ATOM     54  C   UNL A   1      42.489  33.120  30.035  1.00  0.00     0.029 A 
ATOM     55  C   UNL A   1      43.239  32.183  29.343  1.00  0.00     0.049 A 
ATOM     56  H   UNL A   1      42.747  30.194  28.838  1.00  0.00     0.167 HD
ATOM     57  C   UNL A   1      45.236  31.342  28.141  1.00  0.00     0.074 A 
ATOM     58  C   UNL A   1      46.561  31.500  27.579  1.00  0.00     0.031 C 
ATOM     59  C   UNL A   1      44.554  32.325  28.777  1.00  0.00     0.037 A 
BRANCH  46  60
ATOM     60  C   UNL A   1      38.979  30.604  30.782  1.00  0.00     0.064 A 
ATOM     61  C   UNL A   1      37.834  31.055  30.113  1.00  0.00     0.173 A 
ATOM     62  C   UNL A   1      38.923  30.480  32.179  1.00  0.00     0.173 A 
ATOM     63  F   UNL A   1      37.847  31.205  28.780  1.00  0.00    -0.203 F 
ATOM     64  C   UNL A   1      36.679  31.383  30.817  1.00  0.00     0.198 A 
ATOM     65  C   UNL A   1      37.760  30.792  32.879  1.00  0.00     0.198 A 
ATOM     66  F   UNL A   1      39.994  30.052  32.863  1.00  0.00    -0.203 F 
ATOM     67  F   UNL A   1      35.604  31.843  30.162  1.00  0.00    -0.200 F 
ATOM     68  C   UNL A   1      36.641  31.247  32.198  1.00  0.00     0.200 A 
ATOM     69  F   UNL A   1      37.724  30.656  34.212  1.00  0.00    -0.200 F 
ATOM     70  F   UNL A   1      35.528  31.563  32.874  1.00  0.00    -0.200 F 
ENDBRANCH  46  60
BRANCH  47  71
ATOM     71  C   UNL A   1      47.198  27.640  26.013  1.00  0.00     0.064 A 
ATOM     72  C   UNL A   1      47.320  27.709  24.619  1.00  0.00     0.173 A 
ATOM     73  C   UNL A   1      48.283  27.135  26.743  1.00  0.00     0.173 A 
ATOM     74  F   UNL A   1      46.294  28.155  23.879  1.00  0.00    -0.203 F 
ATOM     75  C   UNL A   1      48.482  27.285  23.979  1.00  0.00     0.198 A 
ATOM     76  C   UNL A   1      49.453  26.732  26.105  1.00  0.00     0.198 A 
ATOM     77  F   UNL A   1      48.207  27.039  28.078  1.00  0.00    -0.203 F 
ATOM     78  F   UNL A   1      48.562  27.326  22.643  1.00  0.00    -0.200 F 
ATOM     79  C   UNL A   1      49.550  26.803  24.723  1.00  0.00     0.200 A 
ATOM     80  F   UNL A   1      50.482  26.269  26.826  1.00  0.00    -0.200 F 
ATOM     81  F   UNL A   1      50.668  26.396  24.107  1.00  0.00    -0.200 F 
ENDBRANCH  47  71
BRANCH  59  82
ATOM     82  C   UNL A   1      45.234  33.652  28.907  1.00  0.00     0.064 A 
ATOM     83  C   UNL A   1      46.080  33.932  29.989  1.00  0.00     0.173 A 
ATOM     84  C   UNL A   1      45.065  34.641  27.926  1.00  0.00     0.173 A 
ATOM     85  F   UNL A   1      46.260  33.022  30.959  1.00  0.00    -0.203 F 
ATOM     86  C   UNL A   1      46.723  35.163  30.092  1.00  0.00     0.198 A 
ATOM     87  C   UNL A   1      45.723  35.862  28.025  1.00  0.00     0.198 A 
ATOM     88  F   UNL A   1      44.267  34.416  26.873  1.00  0.00    -0.203 F 
ATOM     89  F   UNL A   1      47.504  35.422  31.151  1.00  0.00    -0.200 F 
ATOM     90  C   UNL A   1      46.547  36.125  29.109  1.00  0.00     0.200 A 
ATOM     91  F   UNL A   1      45.557  36.791  27.072  1.00  0.00    -0.200 F 
ATOM     92  F   UNL A   1      47.168  37.308  29.210  1.00  0.00    -0.200 F 
ENDBRANCH  59  82
ENDBRANCH  33  34
ENDBRANCH  26  28
ENDBRANCH  25  26
ENDBRANCH  24  25
ENDBRANCH   1  24
TORSDOF 15
ENDMDL
MODEL 2
REMARK VINA RESULT:     -12.1      0.728      7.313
REMARK SMILES CC(C)c1ccc(C(=O)NC[C@H]2CC[C@@H](C(=O)OCCOC(=O)c3ccc(-c4c5nc(c(-c6c(F)c(F)c(F)c(F)c6F)c6ccc([nH]6)c(-c6c(F)c(F)c(F)c(F)c6F)c6nc(c(-c7c(F)c(F)c(F)c(F)c7F)c7ccc4[nH]7)C=C6)C=C5)cc3)O2)cc1
REMARK SMILES IDX 19 1 18 2 16 3 17 4 15 5 12 6 13 7 87 8 14 9 11 10 10 11
REMARK SMILES IDX 8 12 9 13 7 15 4 16 5 17 89 18 6 19 88 20 2 21 1 22 3 23
REMARK SMILES IDX 20 24 21 25 22 26 23 27 24 28 25 29 86 30 26 31 85 32 27 33
REMARK SMILES IDX 28 34 29 35 79 36 30 37 84 38 78 39 80 40 31 41 83 42 77 43
REMARK SMILES IDX 76 44 32 46 64 47 44 48 63 49 45 50 48 51 62 52 81 53 46 54
REMARK SMILES IDX 47 55 61 57 82 58 49 59 33 60 34 61 42 62 35 63 36 64 40 65
REMARK SMILES IDX 43 66 37 67 38 68 41 69 39 70 65 71 66 72 74 73 67 74 68 75
REMARK SMILES IDX 72 76 75 77 69 78 70 79 73 80 71 81 50 82 51 83 59 84 52 85
REMARK SMILES IDX 53 86 57 87 60 88 54 89 55 90 58 91 56 92
REMARK H PARENT 10 14 80 45 48 56
REMARK Flexibility Score: inf
ROOT
ATOM      1  C   UNL A   1      35.971  20.379  25.051  1.00  0.00     0.274 C 
ENDROOT
BRANCH   1   2
ATOM      2  O   UNL A   1      35.609  21.401  26.005  1.00  0.00    -0.460 OA
BRANCH   2   3
ATOM      3  C   UNL A   1      34.382  21.949  25.780  1.00  0.00     0.335 C 
ATOM      4  O   UNL A   1      33.664  22.376  26.674  1.00  0.00    -0.249 OA
BRANCH   3   5
ATOM      5  C   UNL A   1      33.987  21.931  24.299  1.00  0.00     0.228 C 
ATOM      6  C   UNL A   1      32.144  22.881  23.174  1.00  0.00     0.138 C 
ATOM      7  C   UNL A   1      33.325  23.797  22.905  1.00  0.00     0.037 C 
ATOM      8  O   UNL A   1      32.556  21.971  24.194  1.00  0.00    -0.361 OA
ATOM      9  C   UNL A   1      34.532  23.099  23.498  1.00  0.00     0.047 C 
BRANCH   6  10
ATOM     10  C   UNL A   1      30.875  23.655  23.597  1.00  0.00     0.148 C 
BRANCH  10  11
ATOM     11  N   UNL A   1      30.603  23.596  25.027  1.00  0.00    -0.349 N 
ATOM     12  C   UNL A   1      30.858  24.413  26.101  1.00  0.00     0.251 C 
ATOM     13  O   UNL A   1      30.326  24.077  27.165  1.00  0.00    -0.269 OA
ATOM     14  H   UNL A   1      30.122  22.777  25.285  1.00  0.00     0.163 HD
BRANCH  12  15
ATOM     15  C   UNL A   1      31.703  25.647  26.094  1.00  0.00     0.039 A 
ATOM     16  C   UNL A   1      33.181  28.085  26.373  1.00  0.00    -0.045 A 
ATOM     17  C   UNL A   1      31.783  28.073  26.459  1.00  0.00     0.005 A 
ATOM     18  C   UNL A   1      33.812  26.872  26.089  1.00  0.00     0.005 A 
ATOM     19  C   UNL A   1      31.059  26.876  26.326  1.00  0.00     0.014 A 
ATOM     20  C   UNL A   1      33.084  25.677  25.964  1.00  0.00     0.014 A 
BRANCH  16  21
ATOM     21  C   UNL A   1      33.950  29.375  26.631  1.00  0.00     0.013 C 
ATOM     22  C   UNL A   1      33.037  30.435  27.265  1.00  0.00     0.012 C 
ATOM     23  C   UNL A   1      35.203  29.226  27.507  1.00  0.00     0.012 C 
ENDBRANCH  16  21
ENDBRANCH  12  15
ENDBRANCH  10  11
ENDBRANCH   6  10
ENDBRANCH   3   5
ENDBRANCH   2   3
ENDBRANCH   1   2
BRANCH   1  24
ATOM     24  C   UNL A   1      37.480  20.135  24.959  1.00  0.00     0.275 C 
BRANCH  24  25
ATOM     25  O   UNL A   1      38.253  21.322  25.220  1.00  0.00    -0.458 OA
BRANCH  25  26
ATOM     26  C   UNL A   1      39.321  21.141  26.023  1.00  0.00     0.338 C 
ATOM     27  O   UNL A   1      39.986  20.120  26.162  1.00  0.00    -0.246 OA
BRANCH  26  28
ATOM     28  C   UNL A   1      39.686  22.393  26.697  1.00  0.00     0.060 A 
ATOM     29  C   UNL A   1      39.114  23.574  26.231  1.00  0.00     0.016 A 
ATOM     30  C   UNL A   1      40.724  22.431  27.630  1.00  0.00     0.016 A 
ATOM     31  C   UNL A   1      39.619  24.805  26.638  1.00  0.00     0.010 A 
ATOM     32  C   UNL A   1      41.201  23.670  28.076  1.00  0.00     0.010 A 
ATOM     33  C   UNL A   1      40.678  24.867  27.555  1.00  0.00    -0.014 A 
BRANCH  33  34
ATOM     34  C   UNL A   1      41.271  26.185  27.895  1.00  0.00     0.031 A 
ATOM     35  C   UNL A   1      42.691  26.495  27.509  1.00  0.00     0.074 A 
ATOM     36  C   UNL A   1      40.516  27.136  28.476  1.00  0.00     0.049 A 
ATOM     37  N   UNL A   1      43.408  27.561  27.766  1.00  0.00    -0.248 NA
ATOM     38  C   UNL A   1      43.398  25.475  26.719  1.00  0.00     0.031 C 
ATOM     39  C   UNL A   1      39.103  26.996  28.828  1.00  0.00     0.029 A 
ATOM     40  N   UNL A   1      40.830  28.418  28.854  1.00  0.00    -0.354 N 
ATOM     41  C   UNL A   1      44.652  27.330  27.196  1.00  0.00     0.074 A 
ATOM     42  C   UNL A   1      44.597  26.021  26.580  1.00  0.00     0.031 C 
ATOM     43  C   UNL A   1      38.664  28.155  29.344  1.00  0.00     0.029 A 
ATOM     44  C   UNL A   1      39.777  29.099  29.411  1.00  0.00     0.049 A 
ATOM     45  H   UNL A   1      41.725  28.811  28.735  1.00  0.00     0.167 HD
ATOM     46  C   UNL A   1      45.741  28.136  27.185  1.00  0.00     0.037 A 
ATOM     47  C   UNL A   1      39.722  30.336  29.940  1.00  0.00     0.037 A 
ATOM     48  C   UNL A   1      45.796  29.448  27.776  1.00  0.00     0.049 A 
ATOM     49  C   UNL A   1      40.964  31.182  29.981  1.00  0.00     0.074 A 
ATOM     50  C   UNL A   1      46.863  30.326  27.836  1.00  0.00     0.029 A 
ATOM     51  N   UNL A   1      44.727  30.074  28.398  1.00  0.00    -0.354 N 
ATOM     52  N   UNL A   1      42.156  30.926  29.500  1.00  0.00    -0.248 NA
ATOM     53  C   UNL A   1      40.857  32.482  30.659  1.00  0.00     0.031 C 
ATOM     54  C   UNL A   1      46.446  31.477  28.516  1.00  0.00     0.029 A 
ATOM     55  C   UNL A   1      45.112  31.324  28.855  1.00  0.00     0.049 A 
ATOM     56  H   UNL A   1      43.827  29.687  28.500  1.00  0.00     0.167 HD
ATOM     57  C   UNL A   1      42.937  32.029  29.811  1.00  0.00     0.074 A 
ATOM     58  C   UNL A   1      42.082  32.968  30.507  1.00  0.00     0.031 C 
ATOM     59  C   UNL A   1      44.249  32.243  29.548  1.00  0.00     0.037 A 
BRANCH  46  60
ATOM     60  C   UNL A   1      46.982  27.605  26.536  1.00  0.00     0.064 A 
ATOM     61  C   UNL A   1      47.974  26.948  27.276  1.00  0.00     0.173 A 
ATOM     62  C   UNL A   1      47.166  27.733  25.151  1.00  0.00     0.173 A 
ATOM     63  F   UNL A   1      47.848  26.816  28.605  1.00  0.00    -0.203 F 
ATOM     64  C   UNL A   1      49.116  26.451  26.654  1.00  0.00     0.198 A 
ATOM     65  C   UNL A   1      48.301  27.219  24.529  1.00  0.00     0.198 A 
ATOM     66  F   UNL A   1      46.243  28.353  24.401  1.00  0.00    -0.203 F 
ATOM     67  F   UNL A   1      50.070  25.854  27.383  1.00  0.00    -0.200 F 
ATOM     68  C   UNL A   1      49.277  26.583  25.282  1.00  0.00     0.200 A 
ATOM     69  F   UNL A   1      48.452  27.343  23.203  1.00  0.00    -0.200 F 
ATOM     70  F   UNL A   1      50.377  26.103  24.685  1.00  0.00    -0.200 F 
ENDBRANCH  46  60
BRANCH  47  71
ATOM     71  C   UNL A   1      38.444  30.840  30.501  1.00  0.00     0.064 A 
ATOM     72  C   UNL A   1      37.453  31.370  29.666  1.00  0.00     0.173 A 
ATOM     73  C   UNL A   1      38.191  30.802  31.880  1.00  0.00     0.173 A 
ATOM     74  F   UNL A   1      37.667  31.455  28.345  1.00  0.00    -0.203 F 
ATOM     75  C   UNL A   1      36.254  31.849  30.190  1.00  0.00     0.198 A 
ATOM     76  C   UNL A   1      36.984  31.260  32.401  1.00  0.00     0.198 A 
ATOM     77  F   UNL A   1      39.115  30.313  32.719  1.00  0.00    -0.203 F 
ATOM     78  F   UNL A   1      35.336  32.386  29.376  1.00  0.00    -0.200 F 
ATOM     79  C   UNL A   1      36.018  31.788  31.556  1.00  0.00     0.200 A 
ATOM     80  F   UNL A   1      36.759  31.197  33.720  1.00  0.00    -0.200 F 
ATOM     81  F   UNL A   1      34.865  32.248  32.060  1.00  0.00    -0.200 F 
ENDBRANCH  47  71
BRANCH  59  82
ATOM     82  C   UNL A   1      44.834  33.543  30.006  1.00  0.00     0.064 A 
ATOM     83  C   UNL A   1      45.439  33.664  31.264  1.00  0.00     0.173 A 
ATOM     84  C   UNL A   1      44.819  34.668  29.168  1.00  0.00     0.173 A 
ATOM     85  F   UNL A   1      45.463  32.618  32.105  1.00  0.00    -0.203 F 
ATOM     86  C   UNL A   1      45.997  34.872  31.675  1.00  0.00     0.198 A 
ATOM     87  C   UNL A   1      45.393  35.868  29.575  1.00  0.00     0.198 A 
ATOM     88  F   UNL A   1      44.253  34.598  27.954  1.00  0.00    -0.203 F 
ATOM     89  F   UNL A   1      46.543  34.975  32.895  1.00  0.00    -0.200 F 
ATOM     90  C   UNL A   1      45.977  35.971  30.829  1.00  0.00     0.200 A 
ATOM     91  F   UNL A   1      45.378  36.929  28.756  1.00  0.00    -0.200 F 
ATOM     92  F   UNL A   1      46.516  37.132  31.225  1.00  0.00    -0.200 F 
ENDBRANCH  59  82
ENDBRANCH  33  34
ENDBRANCH  26  28
ENDBRANCH  25  26
ENDBRANCH  24  25
ENDBRANCH   1  24
TORSDOF 15
ENDMDL
MODEL 3
REMARK VINA RESULT:     -12.0      3.940      9.771
REMARK SMILES CC(C)c1ccc(C(=O)NC[C@H]2CC[C@@H](C(=O)OCCOC(=O)c3ccc(-c4c5nc(c(-c6c(F)c(F)c(F)c(F)c6F)c6ccc([nH]6)c(-c6c(F)c(F)c(F)c(F)c6F)c6nc(c(-c7c(F)c(F)c(F)c(F)c7F)c7ccc4[nH]7)C=C6)C=C5)cc3)O2)cc1
REMARK SMILES IDX 19 1 18 2 16 3 17 4 15 5 12 6 13 7 87 8 14 9 11 10 10 11
REMARK SMILES IDX 8 12 9 13 7 15 4 16 5 17 89 18 6 19 88 20 2 21 1 22 3 23
REMARK SMILES IDX 20 24 21 25 22 26 23 27 24 28 25 29 86 30 26 31 85 32 27 33
REMARK SMILES IDX 28 34 29 35 79 36 30 37 84 38 78 39 80 40 31 41 83 42 77 43
REMARK SMILES IDX 76 44 32 46 64 47 44 48 63 49 45 50 48 51 62 52 81 53 46 54
REMARK SMILES IDX 47 55 61 57 82 58 49 59 33 60 34 61 42 62 35 63 36 64 40 65
REMARK SMILES IDX 43 66 37 67 38 68 41 69 39 70 65 71 66 72 74 73 67 74 68 75
REMARK SMILES IDX 72 76 75 77 69 78 70 79 73 80 71 81 50 82 51 83 59 84 52 85
REMARK SMILES IDX 53 86 57 87 60 88 54 89 55 90 58 91 56 92
REMARK H PARENT 10 14 80 45 48 56
REMARK Flexibility Score: inf
ROOT
ATOM      1  C   UNL A   1      42.168  20.339  26.964  1.00  0.00     0.274 C 
ENDROOT
BRANCH   1   2
ATOM      2  O   UNL A   1      42.400  19.979  25.584  1.00  0.00    -0.460 OA
BRANCH   2   3
ATOM      3  C   UNL A   1      43.033  18.782  25.431  1.00  0.00     0.335 C 
ATOM      4  O   UNL A   1      42.623  17.739  25.920  1.00  0.00    -0.249 OA
BRANCH   3   5
ATOM      5  C   UNL A   1      44.329  18.897  24.620  1.00  0.00     0.228 C 
ATOM      6  C   UNL A   1      45.886  20.660  24.427  1.00  0.00     0.138 C 
ATOM      7  C   UNL A   1      46.504  19.647  25.376  1.00  0.00     0.037 C 
ATOM      8  O   UNL A   1      44.526  20.268  24.241  1.00  0.00    -0.361 OA
ATOM      9  C   UNL A   1      45.572  18.453  25.371  1.00  0.00     0.047 C 
BRANCH   6  10
ATOM     10  C   UNL A   1      45.982  22.107  24.957  1.00  0.00     0.148 C 
BRANCH  10  11
ATOM     11  N   UNL A   1      44.744  22.864  24.820  1.00  0.00    -0.349 N 
ATOM     12  C   UNL A   1      43.976  23.633  25.659  1.00  0.00     0.251 C 
ATOM     13  O   UNL A   1      43.048  24.246  25.120  1.00  0.00    -0.269 OA
ATOM     14  H   UNL A   1      44.369  22.812  23.911  1.00  0.00     0.163 HD
BRANCH  12  15
ATOM     15  C   UNL A   1      44.162  23.792  27.135  1.00  0.00     0.039 A 
ATOM     16  C   UNL A   1      44.636  24.398  29.894  1.00  0.00    -0.045 A 
ATOM     17  C   UNL A   1      45.656  24.516  28.941  1.00  0.00     0.005 A 
ATOM     18  C   UNL A   1      43.402  23.921  29.448  1.00  0.00     0.005 A 
ATOM     19  C   UNL A   1      45.422  24.221  27.588  1.00  0.00     0.014 A 
ATOM     20  C   UNL A   1      43.170  23.635  28.093  1.00  0.00     0.014 A 
BRANCH  16  21
ATOM     21  C   UNL A   1      44.883  24.829  31.334  1.00  0.00     0.013 C 
ATOM     22  C   UNL A   1      44.153  26.145  31.641  1.00  0.00     0.012 C 
ATOM     23  C   UNL A   1      44.493  23.797  32.403  1.00  0.00     0.012 C 
ENDBRANCH  16  21
ENDBRANCH  12  15
ENDBRANCH  10  11
ENDBRANCH   6  10
ENDBRANCH   3   5
ENDBRANCH   2   3
ENDBRANCH   1   2
BRANCH   1  24
ATOM     24  C   UNL A   1      40.833  21.053  27.194  1.00  0.00     0.275 C 
BRANCH  24  25
ATOM     25  O   UNL A   1      40.676  22.221  26.365  1.00  0.00    -0.458 OA
BRANCH  25  26
ATOM     26  C   UNL A   1      39.450  22.780  26.396  1.00  0.00     0.338 C 
ATOM     27  O   UNL A   1      38.379  22.246  26.127  1.00  0.00    -0.246 OA
BRANCH  26  28
ATOM     28  C   UNL A   1      39.516  24.158  26.895  1.00  0.00     0.060 A 
ATOM     29  C   UNL A   1      40.029  25.135  26.044  1.00  0.00     0.016 A 
ATOM     30  C   UNL A   1      39.270  24.449  28.238  1.00  0.00     0.016 A 
ATOM     31  C   UNL A   1      40.369  26.388  26.543  1.00  0.00     0.010 A 
ATOM     32  C   UNL A   1      39.569  25.727  28.729  1.00  0.00     0.010 A 
ATOM     33  C   UNL A   1      40.155  26.695  27.894  1.00  0.00    -0.014 A 
BRANCH  33  34
ATOM     34  C   UNL A   1      40.623  27.999  28.428  1.00  0.00     0.031 A 
ATOM     35  C   UNL A   1      42.095  28.282  28.547  1.00  0.00     0.074 A 
ATOM     36  C   UNL A   1      39.733  28.962  28.731  1.00  0.00     0.049 A 
ATOM     37  N   UNL A   1      42.702  29.332  29.042  1.00  0.00    -0.248 NA
ATOM     38  C   UNL A   1      43.009  27.251  28.030  1.00  0.00     0.031 C 
ATOM     39  C   UNL A   1      38.282  28.850  28.585  1.00  0.00     0.029 A 
ATOM     40  N   UNL A   1      39.924  30.236  29.207  1.00  0.00    -0.354 N 
ATOM     41  C   UNL A   1      44.062  29.078  28.922  1.00  0.00     0.074 A 
ATOM     42  C   UNL A   1      44.194  27.773  28.309  1.00  0.00     0.031 C 
ATOM     43  C   UNL A   1      37.715  30.015  28.936  1.00  0.00     0.029 A 
ATOM     44  C   UNL A   1      38.757  30.936  29.385  1.00  0.00     0.049 A 
ATOM     45  H   UNL A   1      40.813  30.612  29.401  1.00  0.00     0.167 HD
ATOM     46  C   UNL A   1      45.104  29.862  29.288  1.00  0.00     0.037 A 
ATOM     47  C   UNL A   1      38.549  32.172  29.878  1.00  0.00     0.037 A 
ATOM     48  C   UNL A   1      44.980  31.169  29.877  1.00  0.00     0.049 A 
ATOM     49  C   UNL A   1      39.719  32.992  30.344  1.00  0.00     0.074 A 
ATOM     50  C   UNL A   1      45.980  32.026  30.303  1.00  0.00     0.029 A 
ATOM     51  N   UNL A   1      43.775  31.814  30.110  1.00  0.00    -0.354 N 
ATOM     52  N   UNL A   1      40.999  32.714  30.289  1.00  0.00    -0.248 NA
ATOM     53  C   UNL A   1      39.413  34.291  30.961  1.00  0.00     0.031 C 
ATOM     54  C   UNL A   1      45.379  33.181  30.815  1.00  0.00     0.029 A 
ATOM     55  C   UNL A   1      44.006  33.054  30.683  1.00  0.00     0.049 A 
ATOM     56  H   UNL A   1      42.887  31.446  29.898  1.00  0.00     0.167 HD
ATOM     57  C   UNL A   1      41.649  33.800  30.858  1.00  0.00     0.074 A 
ATOM     58  C   UNL A   1      40.625  34.752  31.236  1.00  0.00     0.031 C 
ATOM     59  C   UNL A   1      42.976  33.988  31.054  1.00  0.00     0.037 A 
BRANCH  46  60
ATOM     60  C   UNL A   1      46.482  29.308  29.089  1.00  0.00     0.064 A 
ATOM     61  C   UNL A   1      47.119  28.551  30.081  1.00  0.00     0.173 A 
ATOM     62  C   UNL A   1      47.160  29.516  27.878  1.00  0.00     0.173 A 
ATOM     63  F   UNL A   1      46.516  28.340  31.260  1.00  0.00    -0.203 F 
ATOM     64  C   UNL A   1      48.396  28.035  29.874  1.00  0.00     0.198 A 
ATOM     65  C   UNL A   1      48.429  28.984  27.668  1.00  0.00     0.198 A 
ATOM     66  F   UNL A   1      46.590  30.234  26.899  1.00  0.00    -0.203 F 
ATOM     67  F   UNL A   1      49.003  27.342  30.847  1.00  0.00    -0.200 F 
ATOM     68  C   UNL A   1      49.048  28.248  28.668  1.00  0.00     0.200 A 
ATOM     69  F   UNL A   1      49.056  29.187  26.501  1.00  0.00    -0.200 F 
ATOM     70  F   UNL A   1      50.277  27.750  28.471  1.00  0.00    -0.200 F 
ENDBRANCH  46  60
BRANCH  47  71
ATOM     71  C   UNL A   1      37.166  32.699  29.981  1.00  0.00     0.064 A 
ATOM     72  C   UNL A   1      36.602  33.445  28.939  1.00  0.00     0.173 A 
ATOM     73  C   UNL A   1      36.384  32.469  31.122  1.00  0.00     0.173 A 
ATOM     74  F   UNL A   1      37.326  33.716  27.843  1.00  0.00    -0.203 F 
ATOM     75  C   UNL A   1      35.306  33.946  29.035  1.00  0.00     0.198 A 
ATOM     76  C   UNL A   1      35.081  32.951  31.208  1.00  0.00     0.198 A 
ATOM     77  F   UNL A   1      36.886  31.769  32.150  1.00  0.00    -0.203 F 
ATOM     78  F   UNL A   1      34.801  34.689  28.040  1.00  0.00    -0.200 F 
ATOM     79  C   UNL A   1      34.544  33.693  30.166  1.00  0.00     0.200 A 
ATOM     80  F   UNL A   1      34.347  32.703  32.302  1.00  0.00    -0.200 F 
ATOM     81  F   UNL A   1      33.297  34.175  30.258  1.00  0.00    -0.200 F 
ENDBRANCH  47  71
BRANCH  59  82
ATOM     82  C   UNL A   1      43.395  35.274  31.697  1.00  0.00     0.064 A 
ATOM     83  C   UNL A   1      43.776  36.381  30.926  1.00  0.00     0.173 A 
ATOM     84  C   UNL A   1      43.385  35.412  33.093  1.00  0.00     0.173 A 
ATOM     85  F   UNL A   1      43.815  36.290  29.588  1.00  0.00    -0.203 F 
ATOM     86  C   UNL A   1      44.146  37.579  31.532  1.00  0.00     0.198 A 
ATOM     87  C   UNL A   1      43.739  36.615  33.693  1.00  0.00     0.198 A 
ATOM     88  F   UNL A   1      43.025  34.380  33.870  1.00  0.00    -0.203 F 
ATOM     89  F   UNL A   1      44.536  38.616  30.777  1.00  0.00    -0.200 F 
ATOM     90  C   UNL A   1      44.123  37.697  32.913  1.00  0.00     0.200 A 
ATOM     91  F   UNL A   1      43.713  36.731  35.029  1.00  0.00    -0.200 F 
ATOM     92  F   UNL A   1      44.479  38.850  33.494  1.00  0.00    -0.200 F 
ENDBRANCH  59  82
ENDBRANCH  33  34
ENDBRANCH  26  28
ENDBRANCH  25  26
ENDBRANCH  24  25
ENDBRANCH   1  24
TORSDOF 15
ENDMDL
