MODEL 1
REMARK VINA RESULT:     -11.1      0.000      0.000
REMARK SMILES O=C(C[C@H](CNC(=O)c1ccccn1)c1ccc(Cl)cc1)OCCOC(=O)c1ccc(-c2c3nc(c(-c4c(F)c(F)c(F)c(F)c4F)c4ccc([nH]4)c(-c4c(F)c(F)c(F)c(F)c4F)c4nc(c(-c5c(F)c(F)c(F)c(F)c5F)c5ccc2[nH]5)C=C4)C=C3)cc1
REMARK SMILES IDX 23 1 22 2 2 3 1 4 3 5 4 6 15 7 16 8 21 9 17 10 20 11 18 12
REMARK SMILES IDX 19 13 5 14 6 15 7 16 8 18 9 19 10 20 14 21 11 22 13 23 12 24
REMARK SMILES IDX 24 25 25 26 26 27 27 28 28 29 29 30 90 31 30 32 89 33 31 34
REMARK SMILES IDX 32 35 33 36 83 37 34 38 88 39 82 40 84 41 35 42 87 43 81 44
REMARK SMILES IDX 80 45 36 47 68 48 48 49 67 50 49 51 52 52 66 53 85 54 50 55
REMARK SMILES IDX 51 56 65 58 86 59 53 60 37 61 38 62 46 63 39 64 40 65 44 66
REMARK SMILES IDX 47 67 41 68 42 69 45 70 43 71 69 72 70 73 78 74 71 75 72 76
REMARK SMILES IDX 76 77 79 78 73 79 74 80 77 81 75 82 54 83 55 84 63 85 56 86
REMARK SMILES IDX 57 87 61 88 64 89 58 90 59 91 62 92 60 93
REMARK H PARENT 6 17 84 46 52 57
REMARK Flexibility Score: inf
ROOT
ATOM      1  C   UNL A   1      31.784  30.883  26.762  1.00  0.00     0.274 C 
ENDROOT
BRANCH   1   2
ATOM      2  O   UNL A   1      33.131  30.422  26.513  1.00  0.00    -0.462 OA
BRANCH   2   3
ATOM      3  C   UNL A   1      33.606  29.233  26.953  1.00  0.00     0.306 C 
ATOM      4  O   UNL A   1      34.802  29.076  27.178  1.00  0.00    -0.252 OA
BRANCH   3   5
ATOM      5  C   UNL A   1      32.624  28.109  27.141  1.00  0.00     0.132 C 
BRANCH   5   6
ATOM      6  C   UNL A   1      32.426  27.310  25.849  1.00  0.00     0.049 C 
BRANCH   6   7
ATOM      7  C   UNL A   1      33.139  25.961  25.939  1.00  0.00    -0.042 A 
ATOM      8  C   UNL A   1      34.421  25.767  25.401  1.00  0.00     0.005 A 
ATOM      9  C   UNL A   1      32.479  24.857  26.500  1.00  0.00     0.005 A 
ATOM     10  C   UNL A   1      35.030  24.510  25.422  1.00  0.00     0.021 A 
ATOM     11  C   UNL A   1      33.081  23.594  26.509  1.00  0.00     0.021 A 
ATOM     12  C   UNL A   1      34.354  23.427  25.970  1.00  0.00     0.041 A 
ATOM     13  Cl  UNL A   1      35.082  21.868  25.962  1.00  0.00    -0.084 Cl
ENDBRANCH   6   7
BRANCH   6  14
ATOM     14  C   UNL A   1      30.940  27.202  25.437  1.00  0.00     0.125 C 
BRANCH  14  15
ATOM     15  N   UNL A   1      30.654  27.604  24.067  1.00  0.00    -0.350 N 
ATOM     16  C   UNL A   1      30.876  26.946  22.874  1.00  0.00     0.269 C 
ATOM     17  H   UNL A   1      30.233  28.489  23.977  1.00  0.00     0.163 HD
ATOM     18  O   UNL A   1      30.654  27.545  21.823  1.00  0.00    -0.268 OA
BRANCH  16  19
ATOM     19  C   UNL A   1      31.359  25.539  22.836  1.00  0.00     0.128 A 
ATOM     20  C   UNL A   1      32.610  25.246  22.305  1.00  0.00     0.034 A 
ATOM     21  N   UNL A   1      30.559  24.620  23.438  1.00  0.00    -0.251 NA
ATOM     22  C   UNL A   1      33.052  23.928  22.354  1.00  0.00     0.004 A 
ATOM     23  C   UNL A   1      31.028  23.354  23.481  1.00  0.00     0.112 A 
ATOM     24  C   UNL A   1      32.251  22.963  22.955  1.00  0.00     0.020 A 
ENDBRANCH  16  19
ENDBRANCH  14  15
ENDBRANCH   6  14
ENDBRANCH   5   6
ENDBRANCH   3   5
ENDBRANCH   2   3
ENDBRANCH   1   2
BRANCH   1  25
ATOM     25  C   UNL A   1      31.715  32.410  26.877  1.00  0.00     0.275 C 
BRANCH  25  26
ATOM     26  O   UNL A   1      33.036  32.985  26.880  1.00  0.00    -0.458 OA
BRANCH  26  27
ATOM     27  C   UNL A   1      33.347  33.770  27.943  1.00  0.00     0.338 C 
ATOM     28  O   UNL A   1      32.680  34.693  28.379  1.00  0.00    -0.246 OA
BRANCH  27  29
ATOM     29  C   UNL A   1      34.541  33.218  28.634  1.00  0.00     0.060 A 
ATOM     30  C   UNL A   1      34.387  32.029  29.362  1.00  0.00     0.016 A 
ATOM     31  C   UNL A   1      35.806  33.804  28.525  1.00  0.00     0.016 A 
ATOM     32  C   UNL A   1      35.492  31.423  29.969  1.00  0.00     0.010 A 
ATOM     33  C   UNL A   1      36.909  33.205  29.148  1.00  0.00     0.010 A 
ATOM     34  C   UNL A   1      36.760  32.012  29.878  1.00  0.00    -0.014 A 
BRANCH  34  35
ATOM     35  C   UNL A   1      37.924  31.425  30.591  1.00  0.00     0.031 A 
ATOM     36  C   UNL A   1      38.775  30.403  29.901  1.00  0.00     0.074 A 
ATOM     37  C   UNL A   1      38.213  31.778  31.857  1.00  0.00     0.049 A 
ATOM     38  N   UNL A   1      39.802  29.735  30.362  1.00  0.00    -0.248 NA
ATOM     39  C   UNL A   1      38.428  30.093  28.506  1.00  0.00     0.031 C 
ATOM     40  C   UNL A   1      37.506  32.797  32.618  1.00  0.00     0.029 A 
ATOM     41  N   UNL A   1      39.173  31.323  32.727  1.00  0.00    -0.354 N 
ATOM     42  C   UNL A   1      40.227  28.931  29.316  1.00  0.00     0.074 A 
ATOM     43  C   UNL A   1      39.334  29.172  28.203  1.00  0.00     0.031 C 
ATOM     44  C   UNL A   1      38.029  32.879  33.851  1.00  0.00     0.029 A 
ATOM     45  C   UNL A   1      39.107  31.903  33.971  1.00  0.00     0.049 A 
ATOM     46  H   UNL A   1      39.844  30.644  32.483  1.00  0.00     0.167 HD
ATOM     47  C   UNL A   1      41.276  28.077  29.288  1.00  0.00     0.037 A 
ATOM     48  C   UNL A   1      39.830  31.673  35.084  1.00  0.00     0.037 A 
ATOM     49  C   UNL A   1      42.170  27.840  30.390  1.00  0.00     0.049 A 
ATOM     50  C   UNL A   1      40.936  30.654  35.046  1.00  0.00     0.074 A 
ATOM     51  C   UNL A   1      43.290  27.027  30.428  1.00  0.00     0.029 A 
ATOM     52  N   UNL A   1      42.042  28.403  31.650  1.00  0.00    -0.354 N 
ATOM     53  N   UNL A   1      41.365  29.940  34.035  1.00  0.00    -0.248 NA
ATOM     54  C   UNL A   1      41.658  30.407  36.302  1.00  0.00     0.031 C 
ATOM     55  C   UNL A   1      43.807  27.054  31.728  1.00  0.00     0.029 A 
ATOM     56  C   UNL A   1      43.034  27.917  32.487  1.00  0.00     0.049 A 
ATOM     57  H   UNL A   1      41.348  29.051  31.912  1.00  0.00     0.167 HD
ATOM     58  C   UNL A   1      42.416  29.178  34.526  1.00  0.00     0.074 A 
ATOM     59  C   UNL A   1      42.574  29.528  35.921  1.00  0.00     0.031 C 
ATOM     60  C   UNL A   1      43.179  28.266  33.876  1.00  0.00     0.037 A 
BRANCH  47  61
ATOM     61  C   UNL A   1      41.508  27.310  28.025  1.00  0.00     0.064 A 
ATOM     62  C   UNL A   1      42.323  27.812  27.001  1.00  0.00     0.173 A 
ATOM     63  C   UNL A   1      40.955  26.030  27.866  1.00  0.00     0.173 A 
ATOM     64  F   UNL A   1      42.861  29.036  27.105  1.00  0.00    -0.203 F 
ATOM     65  C   UNL A   1      42.572  27.060  25.857  1.00  0.00     0.198 A 
ATOM     66  C   UNL A   1      41.222  25.275  26.729  1.00  0.00     0.198 A 
ATOM     67  F   UNL A   1      40.169  25.510  28.821  1.00  0.00    -0.203 F 
ATOM     68  F   UNL A   1      43.334  27.565  24.877  1.00  0.00    -0.200 F 
ATOM     69  C   UNL A   1      42.028  25.790  25.725  1.00  0.00     0.200 A 
ATOM     70  F   UNL A   1      40.703  24.045  26.607  1.00  0.00    -0.200 F 
ATOM     71  F   UNL A   1      42.279  25.063  24.628  1.00  0.00    -0.200 F 
ENDBRANCH  47  61
BRANCH  48  72
ATOM     72  C   UNL A   1      39.519  32.398  36.345  1.00  0.00     0.064 A 
ATOM     73  C   UNL A   1      38.494  31.967  37.197  1.00  0.00     0.173 A 
ATOM     74  C   UNL A   1      40.207  33.570  36.693  1.00  0.00     0.173 A 
ATOM     75  F   UNL A   1      37.784  30.870  36.890  1.00  0.00    -0.203 F 
ATOM     76  C   UNL A   1      38.149  32.694  38.335  1.00  0.00     0.198 A 
ATOM     77  C   UNL A   1      39.880  34.282  37.845  1.00  0.00     0.198 A 
ATOM     78  F   UNL A   1      41.193  34.031  35.909  1.00  0.00    -0.203 F 
ATOM     79  F   UNL A   1      37.124  32.293  39.100  1.00  0.00    -0.200 F 
ATOM     80  C   UNL A   1      38.844  33.849  38.659  1.00  0.00     0.200 A 
ATOM     81  F   UNL A   1      40.557  35.395  38.158  1.00  0.00    -0.200 F 
ATOM     82  F   UNL A   1      38.505  34.556  39.746  1.00  0.00    -0.200 F 
ENDBRANCH  48  72
BRANCH  60  83
ATOM     83  C   UNL A   1      44.253  27.580  34.665  1.00  0.00     0.064 A 
ATOM     84  C   UNL A   1      44.019  26.348  35.295  1.00  0.00     0.173 A 
ATOM     85  C   UNL A   1      45.539  28.132  34.756  1.00  0.00     0.173 A 
ATOM     86  F   UNL A   1      42.800  25.789  35.253  1.00  0.00    -0.203 F 
ATOM     87  C   UNL A   1      45.030  25.704  36.002  1.00  0.00     0.198 A 
ATOM     88  C   UNL A   1      46.555  27.471  35.440  1.00  0.00     0.198 A 
ATOM     89  F   UNL A   1      45.814  29.306  34.167  1.00  0.00    -0.203 F 
ATOM     90  F   UNL A   1      44.774  24.546  36.628  1.00  0.00    -0.200 F 
ATOM     91  C   UNL A   1      46.298  26.260  36.067  1.00  0.00     0.200 A 
ATOM     92  F   UNL A   1      47.783  28.005  35.494  1.00  0.00    -0.200 F 
ATOM     93  F   UNL A   1      47.274  25.633  36.738  1.00  0.00    -0.200 F 
ENDBRANCH  60  83
ENDBRANCH  34  35
ENDBRANCH  27  29
ENDBRANCH  26  27
ENDBRANCH  25  26
ENDBRANCH   1  25
TORSDOF 16
ENDMDL
MODEL 2
REMARK VINA RESULT:     -11.1      3.229      8.127
REMARK SMILES O=C(C[C@H](CNC(=O)c1ccccn1)c1ccc(Cl)cc1)OCCOC(=O)c1ccc(-c2c3nc(c(-c4c(F)c(F)c(F)c(F)c4F)c4ccc([nH]4)c(-c4c(F)c(F)c(F)c(F)c4F)c4nc(c(-c5c(F)c(F)c(F)c(F)c5F)c5ccc2[nH]5)C=C4)C=C3)cc1
REMARK SMILES IDX 23 1 22 2 2 3 1 4 3 5 4 6 15 7 16 8 21 9 17 10 20 11 18 12
REMARK SMILES IDX 19 13 5 14 6 15 7 16 8 18 9 19 10 20 14 21 11 22 13 23 12 24
REMARK SMILES IDX 24 25 25 26 26 27 27 28 28 29 29 30 90 31 30 32 89 33 31 34
REMARK SMILES IDX 32 35 33 36 83 37 34 38 88 39 82 40 84 41 35 42 87 43 81 44
REMARK SMILES IDX 80 45 36 47 68 48 48 49 67 50 49 51 52 52 66 53 85 54 50 55
REMARK SMILES IDX 51 56 65 58 86 59 53 60 37 61 38 62 46 63 39 64 40 65 44 66
REMARK SMILES IDX 47 67 41 68 42 69 45 70 43 71 69 72 70 73 78 74 71 75 72 76
REMARK SMILES IDX 76 77 79 78 73 79 74 80 77 81 75 82 54 83 55 84 63 85 56 86
REMARK SMILES IDX 57 87 61 88 64 89 58 90 59 91 62 92 60 93
REMARK H PARENT 6 17 84 46 52 57
REMARK Flexibility Score: inf
ROOT
ATOM      1  C   UNL A   1      31.966  29.953  25.793  1.00  0.00     0.274 C 
ENDROOT
BRANCH   1   2
ATOM      2  O   UNL A   1      32.386  29.031  24.761  1.00  0.00    -0.462 OA
BRANCH   2   3
ATOM      3  C   UNL A   1      31.662  27.949  24.389  1.00  0.00     0.306 C 
ATOM      4  O   UNL A   1      30.775  28.044  23.545  1.00  0.00    -0.252 OA
BRANCH   3   5
ATOM      5  C   UNL A   1      31.968  26.634  25.053  1.00  0.00     0.132 C 
BRANCH   5   6
ATOM      6  C   UNL A   1      32.089  25.501  24.030  1.00  0.00     0.049 C 
BRANCH   6   7
ATOM      7  C   UNL A   1      33.444  24.805  24.159  1.00  0.00    -0.042 A 
ATOM      8  C   UNL A   1      33.903  23.899  23.191  1.00  0.00     0.005 A 
ATOM      9  C   UNL A   1      34.227  25.006  25.306  1.00  0.00     0.005 A 
ATOM     10  C   UNL A   1      35.109  23.213  23.358  1.00  0.00     0.021 A 
ATOM     11  C   UNL A   1      35.427  24.309  25.482  1.00  0.00     0.021 A 
ATOM     12  C   UNL A   1      35.863  23.416  24.507  1.00  0.00     0.041 A 
ATOM     13  Cl  UNL A   1      37.328  22.544  24.737  1.00  0.00    -0.084 Cl
ENDBRANCH   6   7
BRANCH   6  14
ATOM     14  C   UNL A   1      30.886  24.530  24.071  1.00  0.00     0.125 C 
BRANCH  14  15
ATOM     15  N   UNL A   1      30.186  24.476  25.347  1.00  0.00    -0.350 N 
ATOM     16  C   UNL A   1      30.385  23.664  26.445  1.00  0.00     0.269 C 
ATOM     17  H   UNL A   1      29.453  25.125  25.442  1.00  0.00     0.163 HD
ATOM     18  O   UNL A   1      29.582  23.726  27.375  1.00  0.00    -0.268 OA
BRANCH  16  19
ATOM     19  C   UNL A   1      31.547  22.736  26.531  1.00  0.00     0.128 A 
ATOM     20  C   UNL A   1      31.796  21.836  25.503  1.00  0.00     0.034 A 
ATOM     21  N   UNL A   1      32.370  22.913  27.598  1.00  0.00    -0.251 NA
ATOM     22  C   UNL A   1      32.931  21.037  25.590  1.00  0.00     0.004 A 
ATOM     23  C   UNL A   1      33.471  22.132  27.641  1.00  0.00     0.112 A 
ATOM     24  C   UNL A   1      33.788  21.187  26.676  1.00  0.00     0.020 A 
ENDBRANCH  16  19
ENDBRANCH  14  15
ENDBRANCH   6  14
ENDBRANCH   5   6
ENDBRANCH   3   5
ENDBRANCH   2   3
ENDBRANCH   1   2
BRANCH   1  25
ATOM     25  C   UNL A   1      32.573  29.600  27.155  1.00  0.00     0.275 C 
BRANCH  25  26
ATOM     26  O   UNL A   1      34.012  29.667  27.110  1.00  0.00    -0.458 OA
BRANCH  26  27
ATOM     27  C   UNL A   1      34.594  30.606  27.899  1.00  0.00     0.338 C 
ATOM     28  O   UNL A   1      34.045  31.573  28.397  1.00  0.00    -0.246 OA
BRANCH  27  29
ATOM     29  C   UNL A   1      35.977  30.179  28.238  1.00  0.00     0.060 A 
ATOM     30  C   UNL A   1      36.205  29.646  29.514  1.00  0.00     0.016 A 
ATOM     31  C   UNL A   1      37.024  30.231  27.312  1.00  0.00     0.016 A 
ATOM     32  C   UNL A   1      37.470  29.157  29.862  1.00  0.00     0.010 A 
ATOM     33  C   UNL A   1      38.294  29.757  27.667  1.00  0.00     0.010 A 
ATOM     34  C   UNL A   1      38.528  29.221  28.946  1.00  0.00    -0.014 A 
BRANCH  34  35
ATOM     35  C   UNL A   1      39.895  28.786  29.332  1.00  0.00     0.031 A 
ATOM     36  C   UNL A   1      40.742  29.679  30.187  1.00  0.00     0.074 A 
ATOM     37  C   UNL A   1      40.397  27.613  28.904  1.00  0.00     0.049 A 
ATOM     38  N   UNL A   1      41.974  29.509  30.592  1.00  0.00    -0.248 NA
ATOM     39  C   UNL A   1      40.118  30.927  30.653  1.00  0.00     0.031 C 
ATOM     40  C   UNL A   1      39.663  26.630  28.120  1.00  0.00     0.029 A 
ATOM     41  N   UNL A   1      41.638  27.046  29.065  1.00  0.00    -0.354 N 
ATOM     42  C   UNL A   1      42.273  30.622  31.363  1.00  0.00     0.074 A 
ATOM     43  C   UNL A   1      41.104  31.475  31.349  1.00  0.00     0.031 C 
ATOM     44  C   UNL A   1      40.465  25.592  27.840  1.00  0.00     0.029 A 
ATOM     45  C   UNL A   1      41.781  25.843  28.418  1.00  0.00     0.049 A 
ATOM     46  H   UNL A   1      42.357  27.463  29.593  1.00  0.00     0.167 HD
ATOM     47  C   UNL A   1      43.418  30.898  32.028  1.00  0.00     0.037 A 
ATOM     48  C   UNL A   1      42.852  25.034  28.299  1.00  0.00     0.037 A 
ATOM     49  C   UNL A   1      44.580  30.049  32.049  1.00  0.00     0.049 A 
ATOM     50  C   UNL A   1      44.138  25.411  28.981  1.00  0.00     0.074 A 
ATOM     51  C   UNL A   1      45.764  30.231  32.741  1.00  0.00     0.029 A 
ATOM     52  N   UNL A   1      44.709  28.866  31.340  1.00  0.00    -0.354 N 
ATOM     53  N   UNL A   1      44.392  26.439  29.752  1.00  0.00    -0.248 NA
ATOM     54  C   UNL A   1      45.288  24.519  28.775  1.00  0.00     0.031 C 
ATOM     55  C   UNL A   1      46.633  29.187  32.406  1.00  0.00     0.029 A 
ATOM     56  C   UNL A   1      45.972  28.332  31.539  1.00  0.00     0.049 A 
ATOM     57  H   UNL A   1      44.008  28.464  30.777  1.00  0.00     0.167 HD
ATOM     58  C   UNL A   1      45.718  26.306  30.140  1.00  0.00     0.074 A 
ATOM     59  C   UNL A   1      46.214  25.089  29.534  1.00  0.00     0.031 C 
ATOM     60  C   UNL A   1      46.459  27.124  30.926  1.00  0.00     0.037 A 
BRANCH  47  61
ATOM     61  C   UNL A   1      43.485  32.190  32.779  1.00  0.00     0.064 A 
ATOM     62  C   UNL A   1      43.108  32.277  34.125  1.00  0.00     0.173 A 
ATOM     63  C   UNL A   1      43.993  33.341  32.156  1.00  0.00     0.173 A 
ATOM     64  F   UNL A   1      42.604  31.205  34.757  1.00  0.00    -0.203 F 
ATOM     65  C   UNL A   1      43.229  33.475  34.823  1.00  0.00     0.198 A 
ATOM     66  C   UNL A   1      44.130  34.532  32.863  1.00  0.00     0.198 A 
ATOM     67  F   UNL A   1      44.367  33.304  30.869  1.00  0.00    -0.203 F 
ATOM     68  F   UNL A   1      42.840  33.546  36.104  1.00  0.00    -0.200 F 
ATOM     69  C   UNL A   1      43.748  34.598  34.194  1.00  0.00     0.200 A 
ATOM     70  F   UNL A   1      44.639  35.613  32.256  1.00  0.00    -0.200 F 
ATOM     71  F   UNL A   1      43.875  35.748  34.871  1.00  0.00    -0.200 F 
ENDBRANCH  47  61
BRANCH  48  72
ATOM     72  C   UNL A   1      42.771  23.796  27.478  1.00  0.00     0.064 A 
ATOM     73  C   UNL A   1      42.421  22.567  28.051  1.00  0.00     0.173 A 
ATOM     74  C   UNL A   1      43.097  23.811  26.113  1.00  0.00     0.173 A 
ATOM     75  F   UNL A   1      42.133  22.494  29.360  1.00  0.00    -0.203 F 
ATOM     76  C   UNL A   1      42.427  21.393  27.298  1.00  0.00     0.198 A 
ATOM     77  C   UNL A   1      43.077  22.643  25.355  1.00  0.00     0.198 A 
ATOM     78  F   UNL A   1      43.446  24.961  25.517  1.00  0.00    -0.203 F 
ATOM     79  F   UNL A   1      42.147  20.221  27.884  1.00  0.00    -0.200 F 
ATOM     80  C   UNL A   1      42.752  21.434  25.951  1.00  0.00     0.200 A 
ATOM     81  F   UNL A   1      43.387  22.687  24.052  1.00  0.00    -0.200 F 
ATOM     82  F   UNL A   1      42.770  20.304  25.229  1.00  0.00    -0.200 F 
ENDBRANCH  48  72
BRANCH  60  83
ATOM     83  C   UNL A   1      47.884  26.733  31.175  1.00  0.00     0.064 A 
ATOM     84  C   UNL A   1      48.221  25.811  32.178  1.00  0.00     0.173 A 
ATOM     85  C   UNL A   1      48.918  27.245  30.378  1.00  0.00     0.173 A 
ATOM     86  F   UNL A   1      47.270  25.308  32.979  1.00  0.00    -0.203 F 
ATOM     87  C   UNL A   1      49.544  25.431  32.384  1.00  0.00     0.198 A 
ATOM     88  C   UNL A   1      50.236  26.841  30.569  1.00  0.00     0.198 A 
ATOM     89  F   UNL A   1      48.647  28.126  29.402  1.00  0.00    -0.203 F 
ATOM     90  F   UNL A   1      49.848  24.578  33.373  1.00  0.00    -0.200 F 
ATOM     91  C   UNL A   1      50.549  25.939  31.575  1.00  0.00     0.200 A 
ATOM     92  F   UNL A   1      51.205  27.325  29.779  1.00  0.00    -0.200 F 
ATOM     93  F   UNL A   1      51.821  25.563  31.767  1.00  0.00    -0.200 F 
ENDBRANCH  60  83
ENDBRANCH  34  35
ENDBRANCH  27  29
ENDBRANCH  26  27
ENDBRANCH  25  26
ENDBRANCH   1  25
TORSDOF 16
ENDMDL
MODEL 3
REMARK VINA RESULT:     -11.0      1.865      3.099
REMARK SMILES O=C(C[C@H](CNC(=O)c1ccccn1)c1ccc(Cl)cc1)OCCOC(=O)c1ccc(-c2c3nc(c(-c4c(F)c(F)c(F)c(F)c4F)c4ccc([nH]4)c(-c4c(F)c(F)c(F)c(F)c4F)c4nc(c(-c5c(F)c(F)c(F)c(F)c5F)c5ccc2[nH]5)C=C4)C=C3)cc1
REMARK SMILES IDX 23 1 22 2 2 3 1 4 3 5 4 6 15 7 16 8 21 9 17 10 20 11 18 12
REMARK SMILES IDX 19 13 5 14 6 15 7 16 8 18 9 19 10 20 14 21 11 22 13 23 12 24
REMARK SMILES IDX 24 25 25 26 26 27 27 28 28 29 29 30 90 31 30 32 89 33 31 34
REMARK SMILES IDX 32 35 33 36 83 37 34 38 88 39 82 40 84 41 35 42 87 43 81 44
REMARK SMILES IDX 80 45 36 47 68 48 48 49 67 50 49 51 52 52 66 53 85 54 50 55
REMARK SMILES IDX 51 56 65 58 86 59 53 60 37 61 38 62 46 63 39 64 40 65 44 66
REMARK SMILES IDX 47 67 41 68 42 69 45 70 43 71 69 72 70 73 78 74 71 75 72 76
REMARK SMILES IDX 76 77 79 78 73 79 74 80 77 81 75 82 54 83 55 84 63 85 56 86
REMARK SMILES IDX 57 87 61 88 64 89 58 90 59 91 62 92 60 93
REMARK H PARENT 6 17 84 46 52 57
REMARK Flexibility Score: inf
ROOT
ATOM      1  C   UNL A   1      31.593  32.386  26.602  1.00  0.00     0.274 C 
ENDROOT
BRANCH   1   2
ATOM      2  O   UNL A   1      31.639  30.977  26.926  1.00  0.00    -0.462 OA
BRANCH   2   3
ATOM      3  C   UNL A   1      32.376  30.077  26.234  1.00  0.00     0.306 C 
ATOM      4  O   UNL A   1      33.598  30.178  26.170  1.00  0.00    -0.252 OA
BRANCH   3   5
ATOM      5  C   UNL A   1      31.649  28.961  25.535  1.00  0.00     0.132 C 
BRANCH   5   6
ATOM      6  C   UNL A   1      32.320  28.595  24.207  1.00  0.00     0.049 C 
BRANCH   6   7
ATOM      7  C   UNL A   1      32.994  27.227  24.306  1.00  0.00    -0.042 A 
ATOM      8  C   UNL A   1      33.395  26.689  25.539  1.00  0.00     0.005 A 
ATOM      9  C   UNL A   1      33.299  26.511  23.138  1.00  0.00     0.005 A 
ATOM     10  C   UNL A   1      34.078  25.472  25.609  1.00  0.00     0.021 A 
ATOM     11  C   UNL A   1      33.996  25.300  23.205  1.00  0.00     0.021 A 
ATOM     12  C   UNL A   1      34.382  24.786  24.440  1.00  0.00     0.041 A 
ATOM     13  Cl  UNL A   1      35.258  23.308  24.517  1.00  0.00    -0.084 Cl
ENDBRANCH   6   7
BRANCH   6  14
ATOM     14  C   UNL A   1      31.364  28.731  23.000  1.00  0.00     0.125 C 
BRANCH  14  15
ATOM     15  N   UNL A   1      30.085  28.051  23.152  1.00  0.00    -0.350 N 
ATOM     16  C   UNL A   1      28.796  28.535  23.059  1.00  0.00     0.269 C 
ATOM     17  H   UNL A   1      30.151  27.090  23.353  1.00  0.00     0.163 HD
ATOM     18  O   UNL A   1      27.865  27.784  23.346  1.00  0.00    -0.268 OA
BRANCH  16  19
ATOM     19  C   UNL A   1      28.513  29.926  22.609  1.00  0.00     0.128 A 
ATOM     20  C   UNL A   1      28.550  30.973  23.522  1.00  0.00     0.034 A 
ATOM     21  N   UNL A   1      28.335  30.093  21.273  1.00  0.00    -0.251 NA
ATOM     22  C   UNL A   1      28.350  32.266  23.047  1.00  0.00     0.004 A 
ATOM     23  C   UNL A   1      28.160  31.363  20.846  1.00  0.00     0.112 A 
ATOM     24  C   UNL A   1      28.155  32.468  21.685  1.00  0.00     0.020 A 
ENDBRANCH  16  19
ENDBRANCH  14  15
ENDBRANCH   6  14
ENDBRANCH   5   6
ENDBRANCH   3   5
ENDBRANCH   2   3
ENDBRANCH   1   2
BRANCH   1  25
ATOM     25  C   UNL A   1      32.662  33.181  27.358  1.00  0.00     0.275 C 
BRANCH  25  26
ATOM     26  O   UNL A   1      32.058  34.184  28.199  1.00  0.00    -0.458 OA
BRANCH  26  27
ATOM     27  C   UNL A   1      32.883  35.162  28.654  1.00  0.00     0.338 C 
ATOM     28  O   UNL A   1      32.633  36.353  28.701  1.00  0.00    -0.246 OA
BRANCH  27  29
ATOM     29  C   UNL A   1      34.083  34.546  29.278  1.00  0.00     0.060 A 
ATOM     30  C   UNL A   1      33.930  33.926  30.526  1.00  0.00     0.016 A 
ATOM     31  C   UNL A   1      35.325  34.509  28.634  1.00  0.00     0.016 A 
ATOM     32  C   UNL A   1      35.008  33.265  31.125  1.00  0.00     0.010 A 
ATOM     33  C   UNL A   1      36.408  33.860  29.242  1.00  0.00     0.010 A 
ATOM     34  C   UNL A   1      36.258  33.237  30.494  1.00  0.00    -0.014 A 
BRANCH  34  35
ATOM     35  C   UNL A   1      37.432  32.613  31.159  1.00  0.00     0.031 A 
ATOM     36  C   UNL A   1      38.127  31.459  30.503  1.00  0.00     0.074 A 
ATOM     37  C   UNL A   1      37.866  33.051  32.355  1.00  0.00     0.049 A 
ATOM     38  N   UNL A   1      39.133  30.745  30.938  1.00  0.00    -0.248 NA
ATOM     39  C   UNL A   1      37.627  31.057  29.179  1.00  0.00     0.031 C 
ATOM     40  C   UNL A   1      37.320  34.195  33.070  1.00  0.00     0.029 A 
ATOM     41  N   UNL A   1      38.862  32.591  33.181  1.00  0.00    -0.354 N 
ATOM     42  C   UNL A   1      39.391  29.815  29.944  1.00  0.00     0.074 A 
ATOM     43  C   UNL A   1      38.421  30.034  28.892  1.00  0.00     0.031 C 
ATOM     44  C   UNL A   1      37.961  34.340  34.240  1.00  0.00     0.029 A 
ATOM     45  C   UNL A   1      38.961  33.285  34.363  1.00  0.00     0.049 A 
ATOM     46  H   UNL A   1      39.449  31.835  32.949  1.00  0.00     0.167 HD
ATOM     47  C   UNL A   1      40.359  28.869  29.911  1.00  0.00     0.037 A 
ATOM     48  C   UNL A   1      39.763  33.091  35.428  1.00  0.00     0.037 A 
ATOM     49  C   UNL A   1      41.329  28.652  30.950  1.00  0.00     0.049 A 
ATOM     50  C   UNL A   1      40.773  31.976  35.395  1.00  0.00     0.074 A 
ATOM     51  C   UNL A   1      42.377  27.747  30.972  1.00  0.00     0.029 A 
ATOM     52  N   UNL A   1      41.366  29.336  32.155  1.00  0.00    -0.354 N 
ATOM     53  N   UNL A   1      41.045  31.137  34.427  1.00  0.00    -0.248 NA
ATOM     54  C   UNL A   1      41.586  31.779  36.604  1.00  0.00     0.031 C 
ATOM     55  C   UNL A   1      43.013  27.844  32.215  1.00  0.00     0.029 A 
ATOM     56  C   UNL A   1      42.389  28.839  32.948  1.00  0.00     0.049 A 
ATOM     57  H   UNL A   1      40.756  30.065  32.410  1.00  0.00     0.167 HD
ATOM     58  C   UNL A   1      42.071  30.330  34.898  1.00  0.00     0.074 A 
ATOM     59  C   UNL A   1      42.387  30.788  36.234  1.00  0.00     0.031 C 
ATOM     60  C   UNL A   1      42.691  29.297  34.278  1.00  0.00     0.037 A 
BRANCH  47  61
ATOM     61  C   UNL A   1      40.407  27.973  28.714  1.00  0.00     0.064 A 
ATOM     62  C   UNL A   1      41.167  28.301  27.583  1.00  0.00     0.173 A 
ATOM     63  C   UNL A   1      39.732  26.743  28.727  1.00  0.00     0.173 A 
ATOM     64  F   UNL A   1      41.817  29.473  27.521  1.00  0.00    -0.203 F 
ATOM     65  C   UNL A   1      41.244  27.429  26.500  1.00  0.00     0.198 A 
ATOM     66  C   UNL A   1      39.827  25.866  27.650  1.00  0.00     0.198 A 
ATOM     67  F   UNL A   1      38.993  26.388  29.788  1.00  0.00    -0.203 F 
ATOM     68  F   UNL A   1      41.956  27.769  25.417  1.00  0.00    -0.200 F 
ATOM     69  C   UNL A   1      40.582  26.210  26.538  1.00  0.00     0.200 A 
ATOM     70  F   UNL A   1      39.194  24.686  27.692  1.00  0.00    -0.200 F 
ATOM     71  F   UNL A   1      40.667  25.367  25.500  1.00  0.00    -0.200 F 
ENDBRANCH  47  61
BRANCH  48  72
ATOM     72  C   UNL A   1      39.633  33.952  36.633  1.00  0.00     0.064 A 
ATOM     73  C   UNL A   1      40.356  35.146  36.755  1.00  0.00     0.173 A 
ATOM     74  C   UNL A   1      38.822  33.567  37.712  1.00  0.00     0.173 A 
ATOM     75  F   UNL A   1      41.171  35.540  35.765  1.00  0.00    -0.203 F 
ATOM     76  C   UNL A   1      40.296  35.909  37.921  1.00  0.00     0.198 A 
ATOM     77  C   UNL A   1      38.742  34.343  38.865  1.00  0.00     0.198 A 
ATOM     78  F   UNL A   1      38.114  32.429  37.650  1.00  0.00    -0.203 F 
ATOM     79  F   UNL A   1      41.044  37.014  38.035  1.00  0.00    -0.200 F 
ATOM     80  C   UNL A   1      39.487  35.507  38.973  1.00  0.00     0.200 A 
ATOM     81  F   UNL A   1      37.955  33.955  39.878  1.00  0.00    -0.200 F 
ATOM     82  F   UNL A   1      39.438  36.234  40.098  1.00  0.00    -0.200 F 
ENDBRANCH  48  72
BRANCH  60  83
ATOM     83  C   UNL A   1      43.774  28.590  35.037  1.00  0.00     0.064 A 
ATOM     84  C   UNL A   1      45.100  29.049  35.009  1.00  0.00     0.173 A 
ATOM     85  C   UNL A   1      43.479  27.476  35.835  1.00  0.00     0.173 A 
ATOM     86  F   UNL A   1      45.435  30.100  34.246  1.00  0.00    -0.203 F 
ATOM     87  C   UNL A   1      46.094  28.404  35.740  1.00  0.00     0.198 A 
ATOM     88  C   UNL A   1      44.471  26.851  36.586  1.00  0.00     0.198 A 
ATOM     89  F   UNL A   1      42.225  27.002  35.899  1.00  0.00    -0.203 F 
ATOM     90  F   UNL A   1      47.361  28.835  35.669  1.00  0.00    -0.200 F 
ATOM     91  C   UNL A   1      45.778  27.312  36.534  1.00  0.00     0.200 A 
ATOM     92  F   UNL A   1      44.162  25.801  37.361  1.00  0.00    -0.200 F 
ATOM     93  F   UNL A   1      46.734  26.699  37.245  1.00  0.00    -0.200 F 
ENDBRANCH  60  83
ENDBRANCH  34  35
ENDBRANCH  27  29
ENDBRANCH  26  27
ENDBRANCH  25  26
ENDBRANCH   1  25
TORSDOF 16
ENDMDL
