MODEL 1
REMARK VINA RESULT:     -12.5      0.000      0.000
REMARK SMILES Nc1c(Cl)ccc2c1C=C(C(=O)OCCOC(=O)c1ccc(-c3c4nc(c(-c5c(F)c(F)c(F)c(F)c5F)c5ccc([nH]5)c(-c5c(F)c(F)c(F)c(F)c5F)c5nc(c(-c6c(F)c(F)c(F)c(F)c6F)c6ccc3[nH]6)C=C5)C=C4)cc1)[C@@H](C(F)(F)F)O2
REMARK SMILES IDX 15 1 14 2 13 3 11 4 12 5 10 6 2 7 3 8 8 9 4 10 5 11 7 12
REMARK SMILES IDX 9 13 6 14 87 15 82 16 1 17 83 20 84 21 85 22 86 23 16 24
REMARK SMILES IDX 17 25 18 26 19 27 20 28 81 29 21 30 80 31 22 32 23 33 24 34
REMARK SMILES IDX 74 35 25 36 79 37 73 38 75 39 26 40 78 41 72 42 71 43 27 45
REMARK SMILES IDX 59 46 39 47 58 48 40 49 43 50 57 51 76 52 41 53 42 54 56 56
REMARK SMILES IDX 77 57 44 58 28 59 29 60 37 61 30 62 31 63 35 64 38 65 32 66
REMARK SMILES IDX 33 67 36 68 34 69 60 70 61 71 69 72 62 73 63 74 67 75 70 76
REMARK SMILES IDX 64 77 65 78 68 79 66 80 45 81 46 82 54 83 47 84 48 85 52 86
REMARK SMILES IDX 55 87 49 88 50 89 53 90 51 91
REMARK H PARENT 1 18 1 19 75 44 43 55
REMARK Flexibility Score: inf
ROOT
ATOM      1  C   UNL A   1      31.749  29.606  25.921  1.00  0.00     0.275 C 
ENDROOT
BRANCH   1   2
ATOM      2  C   UNL A   1      30.957  29.645  24.616  1.00  0.00     0.275 C 
BRANCH   2   3
ATOM      3  O   UNL A   1      30.477  28.328  24.271  1.00  0.00    -0.459 OA
BRANCH   3   4
ATOM      4  C   UNL A   1      30.629  27.970  22.972  1.00  0.00     0.338 C 
ATOM      5  O   UNL A   1      30.145  28.518  22.002  1.00  0.00    -0.246 OA
BRANCH   4   6
ATOM      6  C   UNL A   1      31.549  26.815  22.883  1.00  0.00     0.088 C 
ATOM      7  C   UNL A   1      31.852  23.378  24.265  1.00  0.00     0.061 A 
ATOM      8  C   UNL A   1      32.854  22.388  24.323  1.00  0.00     0.064 A 
ATOM      9  C   UNL A   1      32.138  24.576  23.564  1.00  0.00     0.042 A 
ATOM     10  Cl  UNL A   1      32.605  20.934  25.231  1.00  0.00    -0.082 Cl
ATOM     11  C   UNL A   1      34.057  22.532  23.632  1.00  0.00     0.026 A 
ATOM     12  C   UNL A   1      33.334  24.699  22.845  1.00  0.00     0.130 A 
ATOM     13  C   UNL A   1      31.237  25.723  23.590  1.00  0.00     0.029 C 
ATOM     14  C   UNL A   1      34.285  23.679  22.876  1.00  0.00     0.049 A 
ATOM     15  O   UNL A   1      33.662  25.778  22.072  1.00  0.00    -0.475 OA
ATOM     16  C   UNL A   1      32.810  26.954  22.085  1.00  0.00     0.316 C 
BRANCH   7  17
ATOM     17  N   UNL A   1      30.653  23.208  24.975  1.00  0.00    -0.397 N 
ATOM     18  H   UNL A   1      29.827  22.969  24.495  1.00  0.00     0.156 HD
ATOM     19  H   UNL A   1      30.639  23.326  25.952  1.00  0.00     0.156 HD
ENDBRANCH   7  17
BRANCH  16  20
ATOM     20  C   UNL A   1      33.653  28.149  22.564  1.00  0.00     0.430 C 
ATOM     21  F   UNL A   1      34.843  28.204  21.920  1.00  0.00    -0.167 F 
ATOM     22  F   UNL A   1      33.033  29.330  22.328  1.00  0.00    -0.167 F 
ATOM     23  F   UNL A   1      33.912  28.087  23.891  1.00  0.00    -0.167 F 
ENDBRANCH  16  20
ENDBRANCH   4   6
ENDBRANCH   3   4
ENDBRANCH   2   3
ENDBRANCH   1   2
BRANCH   1  24
ATOM     24  O   UNL A   1      32.920  30.435  25.805  1.00  0.00    -0.458 OA
BRANCH  24  25
ATOM     25  C   UNL A   1      33.204  31.202  26.880  1.00  0.00     0.338 C 
ATOM     26  O   UNL A   1      32.479  32.020  27.424  1.00  0.00    -0.246 OA
BRANCH  25  27
ATOM     27  C   UNL A   1      34.557  30.900  27.375  1.00  0.00     0.060 A 
ATOM     28  C   UNL A   1      34.928  29.580  27.618  1.00  0.00     0.016 A 
ATOM     29  C   UNL A   1      35.401  31.944  27.750  1.00  0.00     0.016 A 
ATOM     30  C   UNL A   1      36.076  29.304  28.359  1.00  0.00     0.010 A 
ATOM     31  C   UNL A   1      36.610  31.658  28.392  1.00  0.00     0.010 A 
ATOM     32  C   UNL A   1      36.934  30.340  28.758  1.00  0.00    -0.014 A 
BRANCH  32  33
ATOM     33  C   UNL A   1      38.133  30.060  29.598  1.00  0.00     0.031 A 
ATOM     34  C   UNL A   1      39.248  29.199  29.060  1.00  0.00     0.074 A 
ATOM     35  C   UNL A   1      38.242  30.580  30.836  1.00  0.00     0.049 A 
ATOM     36  N   UNL A   1      40.276  28.683  29.687  1.00  0.00    -0.248 NA
ATOM     37  C   UNL A   1      39.197  28.865  27.627  1.00  0.00     0.031 C 
ATOM     38  C   UNL A   1      37.272  31.476  31.467  1.00  0.00     0.029 A 
ATOM     39  N   UNL A   1      39.223  30.434  31.786  1.00  0.00    -0.354 N 
ATOM     40  C   UNL A   1      40.955  27.920  28.744  1.00  0.00     0.074 A 
ATOM     41  C   UNL A   1      40.224  28.036  27.501  1.00  0.00     0.031 C 
ATOM     42  C   UNL A   1      37.724  31.830  32.679  1.00  0.00     0.029 A 
ATOM     43  C   UNL A   1      38.965  31.115  32.951  1.00  0.00     0.049 A 
ATOM     44  H   UNL A   1      40.034  29.894  31.645  1.00  0.00     0.167 HD
ATOM     45  C   UNL A   1      42.086  27.192  28.903  1.00  0.00     0.037 A 
ATOM     46  C   UNL A   1      39.623  31.127  34.126  1.00  0.00     0.037 A 
ATOM     47  C   UNL A   1      42.846  27.127  30.124  1.00  0.00     0.049 A 
ATOM     48  C   UNL A   1      40.850  30.276  34.294  1.00  0.00     0.074 A 
ATOM     49  C   UNL A   1      44.018  26.435  30.375  1.00  0.00     0.029 A 
ATOM     50  N   UNL A   1      42.519  27.794  31.295  1.00  0.00    -0.354 N 
ATOM     51  N   UNL A   1      41.445  29.507  33.416  1.00  0.00    -0.248 NA
ATOM     52  C   UNL A   1      41.480  30.277  35.621  1.00  0.00     0.031 C 
ATOM     53  C   UNL A   1      44.380  26.651  31.708  1.00  0.00     0.029 A 
ATOM     54  C   UNL A   1      43.456  27.514  32.276  1.00  0.00     0.049 A 
ATOM     55  H   UNL A   1      41.735  28.379  31.411  1.00  0.00     0.167 HD
ATOM     56  C   UNL A   1      42.520  28.933  34.081  1.00  0.00     0.074 A 
ATOM     57  C   UNL A   1      42.509  29.462  35.430  1.00  0.00     0.031 C 
ATOM     58  C   UNL A   1      43.428  28.041  33.616  1.00  0.00     0.037 A 
BRANCH  45  59
ATOM     59  C   UNL A   1      42.567  26.380  27.736  1.00  0.00     0.064 A 
ATOM     60  C   UNL A   1      43.529  26.865  26.839  1.00  0.00     0.173 A 
ATOM     61  C   UNL A   1      42.101  25.068  27.551  1.00  0.00     0.173 A 
ATOM     62  F   UNL A   1      43.997  28.116  26.963  1.00  0.00    -0.203 F 
ATOM     63  C   UNL A   1      43.994  26.075  25.790  1.00  0.00     0.198 A 
ATOM     64  C   UNL A   1      42.588  24.271  26.518  1.00  0.00     0.198 A 
ATOM     65  F   UNL A   1      41.186  24.552  28.384  1.00  0.00    -0.203 F 
ATOM     66  F   UNL A   1      44.887  26.572  24.923  1.00  0.00    -0.200 F 
ATOM     67  C   UNL A   1      43.530  24.776  25.635  1.00  0.00     0.200 A 
ATOM     68  F   UNL A   1      42.148  23.013  26.379  1.00  0.00    -0.200 F 
ATOM     69  F   UNL A   1      43.989  24.014  24.634  1.00  0.00    -0.200 F 
ENDBRANCH  45  59
BRANCH  46  70
ATOM     70  C   UNL A   1      39.099  31.951  35.247  1.00  0.00     0.064 A 
ATOM     71  C   UNL A   1      38.322  31.374  36.261  1.00  0.00     0.173 A 
ATOM     72  C   UNL A   1      39.396  33.319  35.347  1.00  0.00     0.173 A 
ATOM     73  F   UNL A   1      37.990  30.078  36.194  1.00  0.00    -0.203 F 
ATOM     74  C   UNL A   1      37.868  32.135  37.337  1.00  0.00     0.198 A 
ATOM     75  C   UNL A   1      38.965  34.070  36.437  1.00  0.00     0.198 A 
ATOM     76  F   UNL A   1      40.133  33.917  34.401  1.00  0.00    -0.203 F 
ATOM     77  F   UNL A   1      37.105  31.567  38.280  1.00  0.00    -0.200 F 
ATOM     78  C   UNL A   1      38.199  33.479  37.429  1.00  0.00     0.200 A 
ATOM     79  F   UNL A   1      39.302  35.364  36.531  1.00  0.00    -0.200 F 
ATOM     80  F   UNL A   1      37.778  34.205  38.475  1.00  0.00    -0.200 F 
ENDBRANCH  46  70
BRANCH  58  81
ATOM     81  C   UNL A   1      44.489  27.579  34.568  1.00  0.00     0.064 A 
ATOM     82  C   UNL A   1      44.324  26.418  35.337  1.00  0.00     0.173 A 
ATOM     83  C   UNL A   1      45.707  28.268  34.669  1.00  0.00     0.173 A 
ATOM     84  F   UNL A   1      43.172  25.734  35.285  1.00  0.00    -0.203 F 
ATOM     85  C   UNL A   1      45.335  25.972  36.183  1.00  0.00     0.198 A 
ATOM     86  C   UNL A   1      46.725  27.805  35.496  1.00  0.00     0.198 A 
ATOM     87  F   UNL A   1      45.916  29.381  33.949  1.00  0.00    -0.203 F 
ATOM     88  F   UNL A   1      45.145  24.878  36.934  1.00  0.00    -0.200 F 
ATOM     89  C   UNL A   1      46.537  26.660  36.256  1.00  0.00     0.200 A 
ATOM     90  F   UNL A   1      47.891  28.464  35.556  1.00  0.00    -0.200 F 
ATOM     91  F   UNL A   1      47.515  26.221  37.062  1.00  0.00    -0.200 F 
ENDBRANCH  58  81
ENDBRANCH  32  33
ENDBRANCH  25  27
ENDBRANCH  24  25
ENDBRANCH   1  24
TORSDOF 13
ENDMDL
MODEL 2
REMARK VINA RESULT:     -12.5      1.532      1.930
REMARK SMILES Nc1c(Cl)ccc2c1C=C(C(=O)OCCOC(=O)c1ccc(-c3c4nc(c(-c5c(F)c(F)c(F)c(F)c5F)c5ccc([nH]5)c(-c5c(F)c(F)c(F)c(F)c5F)c5nc(c(-c6c(F)c(F)c(F)c(F)c6F)c6ccc3[nH]6)C=C5)C=C4)cc1)[C@@H](C(F)(F)F)O2
REMARK SMILES IDX 15 1 14 2 13 3 11 4 12 5 10 6 2 7 3 8 8 9 4 10 5 11 7 12
REMARK SMILES IDX 9 13 6 14 87 15 82 16 1 17 83 20 84 21 85 22 86 23 16 24
REMARK SMILES IDX 17 25 18 26 19 27 20 28 81 29 21 30 80 31 22 32 23 33 24 34
REMARK SMILES IDX 74 35 25 36 79 37 73 38 75 39 26 40 78 41 72 42 71 43 27 45
REMARK SMILES IDX 59 46 39 47 58 48 40 49 43 50 57 51 76 52 41 53 42 54 56 56
REMARK SMILES IDX 77 57 44 58 28 59 29 60 37 61 30 62 31 63 35 64 38 65 32 66
REMARK SMILES IDX 33 67 36 68 34 69 60 70 61 71 69 72 62 73 63 74 67 75 70 76
REMARK SMILES IDX 64 77 65 78 68 79 66 80 45 81 46 82 54 83 47 84 48 85 52 86
REMARK SMILES IDX 55 87 49 88 50 89 53 90 51 91
REMARK H PARENT 1 18 1 19 75 44 43 55
REMARK Flexibility Score: inf
ROOT
ATOM      1  C   UNL A   1      32.747  29.803  25.339  1.00  0.00     0.275 C 
ENDROOT
BRANCH   1   2
ATOM      2  C   UNL A   1      32.045  28.497  24.970  1.00  0.00     0.275 C 
BRANCH   2   3
ATOM      3  O   UNL A   1      32.726  27.368  25.556  1.00  0.00    -0.459 OA
BRANCH   3   4
ATOM      4  C   UNL A   1      31.957  26.550  26.316  1.00  0.00     0.338 C 
ATOM      5  O   UNL A   1      31.163  26.882  27.174  1.00  0.00    -0.246 OA
BRANCH   4   6
ATOM      6  C   UNL A   1      32.174  25.146  25.906  1.00  0.00     0.088 C 
ATOM      7  C   UNL A   1      34.932  22.655  25.836  1.00  0.00     0.061 A 
ATOM      8  C   UNL A   1      35.154  21.397  25.240  1.00  0.00     0.064 A 
ATOM      9  C   UNL A   1      33.668  23.267  25.652  1.00  0.00     0.042 A 
ATOM     10  Cl  UNL A   1      36.703  20.628  25.354  1.00  0.00    -0.082 Cl
ATOM     11  C   UNL A   1      34.135  20.722  24.570  1.00  0.00     0.026 A 
ATOM     12  C   UNL A   1      32.638  22.569  25.007  1.00  0.00     0.130 A 
ATOM     13  C   UNL A   1      33.398  24.635  26.081  1.00  0.00     0.029 C 
ATOM     14  C   UNL A   1      32.871  21.300  24.474  1.00  0.00     0.049 A 
ATOM     15  O   UNL A   1      31.364  23.039  24.855  1.00  0.00    -0.475 OA
ATOM     16  C   UNL A   1      31.053  24.403  25.243  1.00  0.00     0.316 C 
BRANCH   7  17
ATOM     17  N   UNL A   1      35.979  23.314  26.500  1.00  0.00    -0.397 N 
ATOM     18  H   UNL A   1      36.088  23.210  27.473  1.00  0.00     0.156 HD
ATOM     19  H   UNL A   1      36.606  23.879  25.992  1.00  0.00     0.156 HD
ENDBRANCH   7  17
BRANCH  16  20
ATOM     20  C   UNL A   1      30.538  25.149  24.000  1.00  0.00     0.430 C 
ATOM     21  F   UNL A   1      29.904  24.308  23.148  1.00  0.00    -0.167 F 
ATOM     22  F   UNL A   1      29.645  26.114  24.324  1.00  0.00    -0.167 F 
ATOM     23  F   UNL A   1      31.541  25.742  23.313  1.00  0.00    -0.167 F 
ENDBRANCH  16  20
ENDBRANCH   4   6
ENDBRANCH   3   4
ENDBRANCH   2   3
ENDBRANCH   1   2
BRANCH   1  24
ATOM     24  O   UNL A   1      32.411  30.172  26.688  1.00  0.00    -0.458 OA
BRANCH  24  25
ATOM     25  C   UNL A   1      33.026  31.277  27.164  1.00  0.00     0.338 C 
ATOM     26  O   UNL A   1      32.570  32.405  27.251  1.00  0.00    -0.246 OA
BRANCH  25  27
ATOM     27  C   UNL A   1      34.383  30.941  27.624  1.00  0.00     0.060 A 
ATOM     28  C   UNL A   1      34.708  29.619  27.922  1.00  0.00     0.016 A 
ATOM     29  C   UNL A   1      35.284  31.965  27.914  1.00  0.00     0.016 A 
ATOM     30  C   UNL A   1      35.871  29.331  28.634  1.00  0.00     0.010 A 
ATOM     31  C   UNL A   1      36.504  31.658  28.527  1.00  0.00     0.010 A 
ATOM     32  C   UNL A   1      36.786  30.347  28.948  1.00  0.00    -0.014 A 
BRANCH  32  33
ATOM     33  C   UNL A   1      38.004  30.057  29.759  1.00  0.00     0.031 A 
ATOM     34  C   UNL A   1      39.100  29.191  29.191  1.00  0.00     0.074 A 
ATOM     35  C   UNL A   1      38.146  30.573  30.995  1.00  0.00     0.049 A 
ATOM     36  N   UNL A   1      40.139  28.667  29.792  1.00  0.00    -0.248 NA
ATOM     37  C   UNL A   1      39.011  28.861  27.759  1.00  0.00     0.031 C 
ATOM     38  C   UNL A   1      37.197  31.473  31.652  1.00  0.00     0.029 A 
ATOM     39  N   UNL A   1      39.149  30.419  31.920  1.00  0.00    -0.354 N 
ATOM     40  C   UNL A   1      40.790  27.902  28.830  1.00  0.00     0.074 A 
ATOM     41  C   UNL A   1      40.030  28.026  27.606  1.00  0.00     0.031 C 
ATOM     42  C   UNL A   1      37.680  31.821  32.853  1.00  0.00     0.029 A 
ATOM     43  C   UNL A   1      38.923  31.097  33.093  1.00  0.00     0.049 A 
ATOM     44  H   UNL A   1      39.953  29.874  31.758  1.00  0.00     0.167 HD
ATOM     45  C   UNL A   1      41.921  27.167  28.959  1.00  0.00     0.037 A 
ATOM     46  C   UNL A   1      39.609  31.102  34.252  1.00  0.00     0.037 A 
ATOM     47  C   UNL A   1      42.709  27.094  30.161  1.00  0.00     0.049 A 
ATOM     48  C   UNL A   1      40.835  30.243  34.387  1.00  0.00     0.074 A 
ATOM     49  C   UNL A   1      43.883  26.393  30.382  1.00  0.00     0.029 A 
ATOM     50  N   UNL A   1      42.415  27.759  31.342  1.00  0.00    -0.354 N 
ATOM     51  N   UNL A   1      41.404  29.473  33.494  1.00  0.00    -0.248 NA
ATOM     52  C   UNL A   1      41.497  30.236  35.698  1.00  0.00     0.031 C 
ATOM     53  C   UNL A   1      44.278  26.604  31.707  1.00  0.00     0.029 A 
ATOM     54  C   UNL A   1      43.373  27.470  32.300  1.00  0.00     0.049 A 
ATOM     55  H   UNL A   1      41.638  28.348  31.479  1.00  0.00     0.167 HD
ATOM     56  C   UNL A   1      42.491  28.890  34.131  1.00  0.00     0.074 A 
ATOM     57  C   UNL A   1      42.516  29.415  35.480  1.00  0.00     0.031 C 
ATOM     58  C   UNL A   1      43.381  27.993  33.641  1.00  0.00     0.037 A 
BRANCH  45  59
ATOM     59  C   UNL A   1      42.368  26.354  27.779  1.00  0.00     0.064 A 
ATOM     60  C   UNL A   1      43.361  26.808  26.899  1.00  0.00     0.173 A 
ATOM     61  C   UNL A   1      41.835  25.073  27.563  1.00  0.00     0.173 A 
ATOM     62  F   UNL A   1      43.892  28.030  27.053  1.00  0.00    -0.203 F 
ATOM     63  C   UNL A   1      43.792  26.016  25.837  1.00  0.00     0.198 A 
ATOM     64  C   UNL A   1      42.288  24.274  26.517  1.00  0.00     0.198 A 
ATOM     65  F   UNL A   1      40.888  24.588  28.379  1.00  0.00    -0.203 F 
ATOM     66  F   UNL A   1      44.717  26.483  24.987  1.00  0.00    -0.200 F 
ATOM     67  C   UNL A   1      43.263  24.747  25.652  1.00  0.00     0.200 A 
ATOM     68  F   UNL A   1      41.784  23.043  26.348  1.00  0.00    -0.200 F 
ATOM     69  F   UNL A   1      43.689  23.982  24.638  1.00  0.00    -0.200 F 
ENDBRANCH  45  59
BRANCH  46  70
ATOM     70  C   UNL A   1      39.118  31.925  35.387  1.00  0.00     0.064 A 
ATOM     71  C   UNL A   1      38.324  31.361  36.394  1.00  0.00     0.173 A 
ATOM     72  C   UNL A   1      39.463  33.281  35.508  1.00  0.00     0.173 A 
ATOM     73  F   UNL A   1      37.945  30.079  36.307  1.00  0.00    -0.203 F 
ATOM     74  C   UNL A   1      37.899  32.120  37.483  1.00  0.00     0.198 A 
ATOM     75  C   UNL A   1      39.062  34.029  36.611  1.00  0.00     0.198 A 
ATOM     76  F   UNL A   1      40.219  33.867  34.569  1.00  0.00    -0.203 F 
ATOM     77  F   UNL A   1      37.120  31.564  38.420  1.00  0.00    -0.200 F 
ATOM     78  C   UNL A   1      38.278  33.449  37.597  1.00  0.00     0.200 A 
ATOM     79  F   UNL A   1      39.446  35.308  36.725  1.00  0.00    -0.200 F 
ATOM     80  F   UNL A   1      37.887  34.173  38.655  1.00  0.00    -0.200 F 
ENDBRANCH  46  70
BRANCH  58  81
ATOM     81  C   UNL A   1      44.463  27.523  34.566  1.00  0.00     0.064 A 
ATOM     82  C   UNL A   1      44.292  26.384  35.367  1.00  0.00     0.173 A 
ATOM     83  C   UNL A   1      45.703  28.178  34.608  1.00  0.00     0.173 A 
ATOM     84  F   UNL A   1      43.120  25.732  35.372  1.00  0.00    -0.203 F 
ATOM     85  C   UNL A   1      45.320  25.928  36.187  1.00  0.00     0.198 A 
ATOM     86  C   UNL A   1      46.736  27.704  35.409  1.00  0.00     0.198 A 
ATOM     87  F   UNL A   1      45.916  29.268  33.855  1.00  0.00    -0.203 F 
ATOM     88  F   UNL A   1      45.126  24.857  36.970  1.00  0.00    -0.200 F 
ATOM     89  C   UNL A   1      46.543  26.582  36.202  1.00  0.00     0.200 A 
ATOM     90  F   UNL A   1      47.921  28.330  35.412  1.00  0.00    -0.200 F 
ATOM     91  F   UNL A   1      47.536  26.133  36.983  1.00  0.00    -0.200 F 
ENDBRANCH  58  81
ENDBRANCH  32  33
ENDBRANCH  25  27
ENDBRANCH  24  25
ENDBRANCH   1  24
TORSDOF 13
ENDMDL
MODEL 3
REMARK VINA RESULT:     -12.4      1.286      2.498
REMARK SMILES Nc1c(Cl)ccc2c1C=C(C(=O)OCCOC(=O)c1ccc(-c3c4nc(c(-c5c(F)c(F)c(F)c(F)c5F)c5ccc([nH]5)c(-c5c(F)c(F)c(F)c(F)c5F)c5nc(c(-c6c(F)c(F)c(F)c(F)c6F)c6ccc3[nH]6)C=C5)C=C4)cc1)[C@@H](C(F)(F)F)O2
REMARK SMILES IDX 15 1 14 2 13 3 11 4 12 5 10 6 2 7 3 8 8 9 4 10 5 11 7 12
REMARK SMILES IDX 9 13 6 14 87 15 82 16 1 17 83 20 84 21 85 22 86 23 16 24
REMARK SMILES IDX 17 25 18 26 19 27 20 28 81 29 21 30 80 31 22 32 23 33 24 34
REMARK SMILES IDX 74 35 25 36 79 37 73 38 75 39 26 40 78 41 72 42 71 43 27 45
REMARK SMILES IDX 59 46 39 47 58 48 40 49 43 50 57 51 76 52 41 53 42 54 56 56
REMARK SMILES IDX 77 57 44 58 28 59 29 60 37 61 30 62 31 63 35 64 38 65 32 66
REMARK SMILES IDX 33 67 36 68 34 69 60 70 61 71 69 72 62 73 63 74 67 75 70 76
REMARK SMILES IDX 64 77 65 78 68 79 66 80 45 81 46 82 54 83 47 84 48 85 52 86
REMARK SMILES IDX 55 87 49 88 50 89 53 90 51 91
REMARK H PARENT 1 18 1 19 75 44 43 55
REMARK Flexibility Score: inf
ROOT
ATOM      1  C   UNL A   1      31.778  29.914  26.518  1.00  0.00     0.275 C 
ENDROOT
BRANCH   1   2
ATOM      2  C   UNL A   1      31.782  28.691  27.434  1.00  0.00     0.275 C 
BRANCH   2   3
ATOM      3  O   UNL A   1      32.511  27.603  26.829  1.00  0.00    -0.459 OA
BRANCH   3   4
ATOM      4  C   UNL A   1      31.754  26.592  26.335  1.00  0.00     0.338 C 
ATOM      5  O   UNL A   1      30.561  26.425  26.501  1.00  0.00    -0.246 OA
BRANCH   4   6
ATOM      6  C   UNL A   1      32.589  25.719  25.483  1.00  0.00     0.088 C 
ATOM      7  C   UNL A   1      35.137  23.043  25.884  1.00  0.00     0.061 A 
ATOM      8  C   UNL A   1      36.065  22.386  25.050  1.00  0.00     0.064 A 
ATOM      9  C   UNL A   1      34.275  24.002  25.297  1.00  0.00     0.042 A 
ATOM     10  Cl  UNL A   1      37.205  21.262  25.713  1.00  0.00    -0.082 Cl
ATOM     11  C   UNL A   1      36.076  22.595  23.671  1.00  0.00     0.026 A 
ATOM     12  C   UNL A   1      34.268  24.182  23.907  1.00  0.00     0.130 A 
ATOM     13  C   UNL A   1      33.402  24.853  26.098  1.00  0.00     0.029 C 
ATOM     14  C   UNL A   1      35.161  23.477  23.100  1.00  0.00     0.049 A 
ATOM     15  O   UNL A   1      33.418  25.019  23.242  1.00  0.00    -0.475 OA
ATOM     16  C   UNL A   1      32.549  25.905  23.996  1.00  0.00     0.316 C 
BRANCH   7  17
ATOM     17  N   UNL A   1      35.153  22.816  27.269  1.00  0.00    -0.397 N 
ATOM     18  H   UNL A   1      34.427  22.303  27.693  1.00  0.00     0.156 HD
ATOM     19  H   UNL A   1      35.891  23.170  27.817  1.00  0.00     0.156 HD
ENDBRANCH   7  17
BRANCH  16  20
ATOM     20  C   UNL A   1      32.881  27.354  23.598  1.00  0.00     0.430 C 
ATOM     21  F   UNL A   1      33.930  27.832  24.310  1.00  0.00    -0.167 F 
ATOM     22  F   UNL A   1      33.225  27.452  22.292  1.00  0.00    -0.167 F 
ATOM     23  F   UNL A   1      31.836  28.188  23.804  1.00  0.00    -0.167 F 
ENDBRANCH  16  20
ENDBRANCH   4   6
ENDBRANCH   3   4
ENDBRANCH   2   3
ENDBRANCH   1   2
BRANCH   1  24
ATOM     24  O   UNL A   1      33.127  30.365  26.303  1.00  0.00    -0.458 OA
BRANCH  24  25
ATOM     25  C   UNL A   1      33.579  31.296  27.171  1.00  0.00     0.338 C 
ATOM     26  O   UNL A   1      32.996  32.294  27.563  1.00  0.00    -0.246 OA
BRANCH  25  27
ATOM     27  C   UNL A   1      34.923  30.934  27.648  1.00  0.00     0.060 A 
ATOM     28  C   UNL A   1      35.233  29.599  27.900  1.00  0.00     0.016 A 
ATOM     29  C   UNL A   1      35.822  31.939  28.000  1.00  0.00     0.016 A 
ATOM     30  C   UNL A   1      36.378  29.276  28.626  1.00  0.00     0.010 A 
ATOM     31  C   UNL A   1      37.026  31.601  28.627  1.00  0.00     0.010 A 
ATOM     32  C   UNL A   1      37.291  30.272  29.002  1.00  0.00    -0.014 A 
BRANCH  32  33
ATOM     33  C   UNL A   1      38.488  29.942  29.827  1.00  0.00     0.031 A 
ATOM     34  C   UNL A   1      39.559  29.036  29.275  1.00  0.00     0.074 A 
ATOM     35  C   UNL A   1      38.635  30.457  31.063  1.00  0.00     0.049 A 
ATOM     36  N   UNL A   1      40.573  28.477  29.889  1.00  0.00    -0.248 NA
ATOM     37  C   UNL A   1      39.476  28.704  27.843  1.00  0.00     0.031 C 
ATOM     38  C   UNL A   1      37.711  31.392  31.706  1.00  0.00     0.029 A 
ATOM     39  N   UNL A   1      39.621  30.271  32.001  1.00  0.00    -0.354 N 
ATOM     40  C   UNL A   1      41.207  27.687  28.938  1.00  0.00     0.074 A 
ATOM     41  C   UNL A   1      40.466  27.833  27.705  1.00  0.00     0.031 C 
ATOM     42  C   UNL A   1      38.192  31.728  32.912  1.00  0.00     0.029 A 
ATOM     43  C   UNL A   1      39.406  30.961  33.169  1.00  0.00     0.049 A 
ATOM     44  H   UNL A   1      40.407  29.697  31.850  1.00  0.00     0.167 HD
ATOM     45  C   UNL A   1      42.309  26.912  29.083  1.00  0.00     0.037 A 
ATOM     46  C   UNL A   1      40.078  30.946  34.335  1.00  0.00     0.037 A 
ATOM     47  C   UNL A   1      43.081  26.815  30.294  1.00  0.00     0.049 A 
ATOM     48  C   UNL A   1      41.271  30.045  34.487  1.00  0.00     0.074 A 
ATOM     49  C   UNL A   1      44.226  26.075  30.530  1.00  0.00     0.029 A 
ATOM     50  N   UNL A   1      42.797  27.495  31.469  1.00  0.00    -0.354 N 
ATOM     51  N   UNL A   1      41.823  29.252  33.603  1.00  0.00    -0.248 NA
ATOM     52  C   UNL A   1      41.917  30.019  35.806  1.00  0.00     0.031 C 
ATOM     53  C   UNL A   1      44.613  26.276  31.859  1.00  0.00     0.029 A 
ATOM     54  C   UNL A   1      43.734  27.176  32.439  1.00  0.00     0.049 A 
ATOM     55  H   UNL A   1      42.040  28.112  31.595  1.00  0.00     0.167 HD
ATOM     56  C   UNL A   1      42.881  28.633  34.254  1.00  0.00     0.074 A 
ATOM     57  C   UNL A   1      42.909  29.162  35.603  1.00  0.00     0.031 C 
ATOM     58  C   UNL A   1      43.744  27.703  33.779  1.00  0.00     0.037 A 
BRANCH  45  59
ATOM     59  C   UNL A   1      42.741  26.080  27.910  1.00  0.00     0.064 A 
ATOM     60  C   UNL A   1      42.197  24.813  27.658  1.00  0.00     0.173 A 
ATOM     61  C   UNL A   1      43.672  26.589  26.990  1.00  0.00     0.173 A 
ATOM     62  F   UNL A   1      41.315  24.276  28.514  1.00  0.00    -0.203 F 
ATOM     63  C   UNL A   1      42.579  24.079  26.538  1.00  0.00     0.198 A 
ATOM     64  C   UNL A   1      44.031  25.865  25.857  1.00  0.00     0.198 A 
ATOM     65  F   UNL A   1      44.218  27.799  27.180  1.00  0.00    -0.203 F 
ATOM     66  F   UNL A   1      42.073  22.855  26.335  1.00  0.00    -0.200 F 
ATOM     67  C   UNL A   1      43.489  24.608  25.634  1.00  0.00     0.200 A 
ATOM     68  F   UNL A   1      44.900  26.384  24.978  1.00  0.00    -0.200 F 
ATOM     69  F   UNL A   1      43.846  23.907  24.549  1.00  0.00    -0.200 F 
ENDBRANCH  45  59
BRANCH  46  70
ATOM     70  C   UNL A   1      39.603  31.790  35.462  1.00  0.00     0.064 A 
ATOM     71  C   UNL A   1      40.079  33.097  35.632  1.00  0.00     0.173 A 
ATOM     72  C   UNL A   1      38.637  31.322  36.367  1.00  0.00     0.173 A 
ATOM     73  F   UNL A   1      41.022  33.578  34.809  1.00  0.00    -0.203 F 
ATOM     74  C   UNL A   1      39.601  33.907  36.660  1.00  0.00     0.198 A 
ATOM     75  C   UNL A   1      38.141  32.143  37.376  1.00  0.00     0.198 A 
ATOM     76  F   UNL A   1      38.153  30.078  36.248  1.00  0.00    -0.203 F 
ATOM     77  F   UNL A   1      40.090  35.144  36.817  1.00  0.00    -0.200 F 
ATOM     78  C   UNL A   1      38.625  33.433  37.524  1.00  0.00     0.200 A 
ATOM     79  F   UNL A   1      37.185  31.686  38.198  1.00  0.00    -0.200 F 
ATOM     80  F   UNL A   1      38.152  34.220  38.501  1.00  0.00    -0.200 F 
ENDBRANCH  46  70
BRANCH  58  81
ATOM     81  C   UNL A   1      44.798  27.198  34.717  1.00  0.00     0.064 A 
ATOM     82  C   UNL A   1      46.020  27.869  34.871  1.00  0.00     0.173 A 
ATOM     83  C   UNL A   1      44.562  26.069  35.515  1.00  0.00     0.173 A 
ATOM     84  F   UNL A   1      46.297  28.945  34.119  1.00  0.00    -0.203 F 
ATOM     85  C   UNL A   1      46.973  27.419  35.779  1.00  0.00     0.198 A 
ATOM     86  C   UNL A   1      45.506  25.637  36.441  1.00  0.00     0.198 A 
ATOM     87  F   UNL A   1      43.406  25.397  35.410  1.00  0.00    -0.203 F 
ATOM     88  F   UNL A   1      48.148  28.055  35.886  1.00  0.00    -0.200 F 
ATOM     89  C   UNL A   1      46.713  26.309  36.569  1.00  0.00     0.200 A 
ATOM     90  F   UNL A   1      45.248  24.571  37.212  1.00  0.00    -0.200 F 
ATOM     91  F   UNL A   1      47.627  25.884  37.453  1.00  0.00    -0.200 F 
ENDBRANCH  58  81
ENDBRANCH  32  33
ENDBRANCH  25  27
ENDBRANCH  24  25
ENDBRANCH   1  24
TORSDOF 13
ENDMDL
