MODEL 1
REMARK VINA RESULT:     -12.3      0.000      0.000
REMARK SMILES CC[C@@](C)(NC(=O)Nc1cccc(C[NH2+]C)c1)C(=O)OCCOC(=O)c1ccc(-c2c3nc(c(-c4c(F)c(F)c(F)c(F)c4F)c4ccc([nH]4)c(-c4c(F)c(F)c(F)c(F)c4F)c4nc(c(-c5c(F)c(F)c(F)c(F)c5F)c5ccc2[nH]5)C=C4)C=C3)cc1
REMARK SMILES IDX 21 1 20 2 18 3 19 4 3 5 4 6 2 7 1 8 5 9 6 10 7 12 8 13 9 15
REMARK SMILES IDX 10 16 17 17 11 18 13 19 12 20 14 21 15 22 16 23 22 26 23 27
REMARK SMILES IDX 24 28 25 29 26 30 27 31 88 32 28 33 87 34 29 35 30 36 31 37
REMARK SMILES IDX 81 38 32 39 86 40 80 41 82 42 33 43 85 44 79 45 78 46 34 48
REMARK SMILES IDX 66 49 46 50 65 51 47 52 50 53 64 54 83 55 48 56 49 57 63 59
REMARK SMILES IDX 84 60 51 61 35 62 36 63 44 64 37 65 38 66 42 67 45 68 39 69
REMARK SMILES IDX 40 70 43 71 41 72 67 73 68 74 76 75 69 76 70 77 74 78 77 79
REMARK SMILES IDX 71 80 72 81 75 82 73 83 52 84 53 85 61 86 54 87 55 88 59 89
REMARK SMILES IDX 62 90 56 91 57 92 60 93 58 94
REMARK H PARENT 5 11 8 14 15 24 15 25 82 47 50 58
REMARK Flexibility Score: inf
ROOT
ATOM      1  C   UNL A   1      31.409  27.991  26.996  1.00  0.00     0.274 C 
ENDROOT
BRANCH   1   2
ATOM      2  O   UNL A   1      31.153  26.531  26.884  1.00  0.00    -0.460 OA
BRANCH   2   3
ATOM      3  C   UNL A   1      31.940  25.638  26.125  1.00  0.00     0.331 C 
ATOM      4  O   UNL A   1      33.164  25.610  26.210  1.00  0.00    -0.249 OA
BRANCH   3   5
ATOM      5  C   UNL A   1      31.035  24.676  25.047  1.00  0.00     0.136 C 
ATOM      6  C   UNL A   1      30.354  25.634  24.061  1.00  0.00     0.047 C 
BRANCH   5   7
ATOM      7  C   UNL A   1      31.228  23.292  24.254  1.00  0.00     0.037 C 
ATOM      8  C   UNL A   1      31.854  23.057  22.896  1.00  0.00     0.007 C 
ENDBRANCH   5   7
BRANCH   5   9
ATOM      9  N   UNL A   1      30.116  24.208  26.024  1.00  0.00    -0.322 N 
ATOM     10  C   UNL A   1      30.428  23.171  26.801  1.00  0.00     0.320 C 
ATOM     11  H   UNL A   1      29.243  24.651  26.128  1.00  0.00     0.166 HD
ATOM     12  O   UNL A   1      29.630  23.015  27.733  1.00  0.00    -0.248 OA
ATOM     13  N   UNL A   1      31.566  22.405  26.708  1.00  0.00    -0.308 N 
ATOM     14  H   UNL A   1      31.381  21.641  27.301  1.00  0.00     0.171 HD
BRANCH  13  15
ATOM     15  C   UNL A   1      32.886  22.128  26.202  1.00  0.00     0.043 A 
ATOM     16  C   UNL A   1      33.044  20.862  25.594  1.00  0.00     0.026 A 
ATOM     17  C   UNL A   1      34.064  22.857  26.303  1.00  0.00     0.035 A 
ATOM     18  C   UNL A   1      34.278  20.372  25.136  1.00  0.00     0.003 A 
ATOM     19  C   UNL A   1      35.315  22.420  25.799  1.00  0.00     0.008 A 
ATOM     20  C   UNL A   1      35.417  21.152  25.239  1.00  0.00     0.010 A 
BRANCH  19  21
ATOM     21  C   UNL A   1      36.495  23.365  25.828  1.00  0.00     0.297 C 
BRANCH  21  22
ATOM     22  N   UNL A   1      37.745  22.708  26.197  1.00  0.00    -0.345 N 
ATOM     23  C   UNL A   1      38.747  23.714  26.542  1.00  0.00     0.331 C 
ATOM     24  H   UNL A   1      38.080  22.151  25.411  1.00  0.00     0.346 HD
ATOM     25  H   UNL A   1      37.583  22.103  27.002  1.00  0.00     0.346 HD
ENDBRANCH  21  22
ENDBRANCH  19  21
ENDBRANCH  13  15
ENDBRANCH   5   9
ENDBRANCH   3   5
ENDBRANCH   2   3
ENDBRANCH   1   2
BRANCH   1  26
ATOM     26  C   UNL A   1      31.699  28.786  25.590  1.00  0.00     0.275 C 
BRANCH  26  27
ATOM     27  O   UNL A   1      32.741  29.869  25.614  1.00  0.00    -0.458 OA
BRANCH  27  28
ATOM     28  C   UNL A   1      32.847  30.834  26.598  1.00  0.00     0.338 C 
ATOM     29  O   UNL A   1      31.996  31.688  26.833  1.00  0.00    -0.246 OA
BRANCH  28  30
ATOM     30  C   UNL A   1      34.182  30.733  27.376  1.00  0.00     0.060 A 
ATOM     31  C   UNL A   1      34.736  29.492  27.730  1.00  0.00     0.016 A 
ATOM     32  C   UNL A   1      34.905  31.840  27.826  1.00  0.00     0.016 A 
ATOM     33  C   UNL A   1      36.005  29.307  28.290  1.00  0.00     0.010 A 
ATOM     34  C   UNL A   1      36.148  31.673  28.522  1.00  0.00     0.010 A 
ATOM     35  C   UNL A   1      36.724  30.401  28.740  1.00  0.00    -0.014 A 
BRANCH  35  36
ATOM     36  C   UNL A   1      37.849  30.101  29.689  1.00  0.00     0.031 A 
ATOM     37  C   UNL A   1      38.993  29.258  29.177  1.00  0.00     0.074 A 
ATOM     38  C   UNL A   1      38.015  30.723  30.877  1.00  0.00     0.049 A 
ATOM     39  N   UNL A   1      40.064  28.824  29.797  1.00  0.00    -0.248 NA
ATOM     40  C   UNL A   1      38.929  28.879  27.757  1.00  0.00     0.031 C 
ATOM     41  C   UNL A   1      37.122  31.728  31.449  1.00  0.00     0.029 A 
ATOM     42  N   UNL A   1      39.026  30.611  31.814  1.00  0.00    -0.354 N 
ATOM     43  C   UNL A   1      40.781  28.101  28.852  1.00  0.00     0.074 A 
ATOM     44  C   UNL A   1      40.030  28.158  27.617  1.00  0.00     0.031 C 
ATOM     45  C   UNL A   1      37.608  32.119  32.644  1.00  0.00     0.029 A 
ATOM     46  C   UNL A   1      38.827  31.366  32.947  1.00  0.00     0.049 A 
ATOM     47  H   UNL A   1      39.817  30.041  31.681  1.00  0.00     0.167 HD
ATOM     48  C   UNL A   1      41.958  27.444  28.988  1.00  0.00     0.037 A 
ATOM     49  C   UNL A   1      39.522  31.419  34.106  1.00  0.00     0.037 A 
ATOM     50  C   UNL A   1      42.738  27.392  30.195  1.00  0.00     0.049 A 
ATOM     51  C   UNL A   1      40.764  30.573  34.287  1.00  0.00     0.074 A 
ATOM     52  C   UNL A   1      43.906  26.687  30.438  1.00  0.00     0.029 A 
ATOM     53  N   UNL A   1      42.443  28.085  31.357  1.00  0.00    -0.354 N 
ATOM     54  N   UNL A   1      41.373  29.796  33.426  1.00  0.00    -0.248 NA
ATOM     55  C   UNL A   1      41.413  30.610  35.611  1.00  0.00     0.031 C 
ATOM     56  C   UNL A   1      44.296  26.926  31.761  1.00  0.00     0.029 A 
ATOM     57  C   UNL A   1      43.400  27.817  32.324  1.00  0.00     0.049 A 
ATOM     58  H   UNL A   1      41.668  28.681  31.478  1.00  0.00     0.167 HD
ATOM     59  C   UNL A   1      42.476  29.270  34.094  1.00  0.00     0.074 A 
ATOM     60  C   UNL A   1      42.473  29.837  35.423  1.00  0.00     0.031 C 
ATOM     61  C   UNL A   1      43.403  28.388  33.645  1.00  0.00     0.037 A 
BRANCH  48  62
ATOM     62  C   UNL A   1      42.445  26.666  27.803  1.00  0.00     0.064 A 
ATOM     63  C   UNL A   1      42.067  25.333  27.585  1.00  0.00     0.173 A 
ATOM     64  C   UNL A   1      43.291  27.276  26.865  1.00  0.00     0.173 A 
ATOM     65  F   UNL A   1      41.279  24.701  28.466  1.00  0.00    -0.203 F 
ATOM     66  C   UNL A   1      42.539  24.632  26.478  1.00  0.00     0.198 A 
ATOM     67  C   UNL A   1      43.736  26.581  25.746  1.00  0.00     0.198 A 
ATOM     68  F   UNL A   1      43.678  28.549  27.032  1.00  0.00    -0.203 F 
ATOM     69  F   UNL A   1      42.206  23.344  26.311  1.00  0.00    -0.200 F 
ATOM     70  C   UNL A   1      43.366  25.258  25.556  1.00  0.00     0.200 A 
ATOM     71  F   UNL A   1      44.525  27.192  24.851  1.00  0.00    -0.200 F 
ATOM     72  F   UNL A   1      43.813  24.584  24.488  1.00  0.00    -0.200 F 
ENDBRANCH  48  62
BRANCH  49  73
ATOM     73  C   UNL A   1      39.027  32.238  35.253  1.00  0.00     0.064 A 
ATOM     74  C   UNL A   1      39.350  33.597  35.384  1.00  0.00     0.173 A 
ATOM     75  C   UNL A   1      38.301  31.644  36.298  1.00  0.00     0.173 A 
ATOM     76  F   UNL A   1      40.084  34.206  34.441  1.00  0.00    -0.203 F 
ATOM     77  C   UNL A   1      38.990  34.320  36.523  1.00  0.00     0.198 A 
ATOM     78  C   UNL A   1      37.913  32.375  37.419  1.00  0.00     0.198 A 
ATOM     79  F   UNL A   1      37.986  30.341  36.241  1.00  0.00    -0.203 F 
ATOM     80  F   UNL A   1      39.375  35.597  36.655  1.00  0.00    -0.200 F 
ATOM     81  C   UNL A   1      38.268  33.710  37.537  1.00  0.00     0.200 A 
ATOM     82  F   UNL A   1      37.213  31.779  38.395  1.00  0.00    -0.200 F 
ATOM     83  F   UNL A   1      37.930  34.401  38.634  1.00  0.00    -0.200 F 
ENDBRANCH  49  73
BRANCH  61  84
ATOM     84  C   UNL A   1      44.513  28.001  34.583  1.00  0.00     0.064 A 
ATOM     85  C   UNL A   1      44.397  26.906  35.453  1.00  0.00     0.173 A 
ATOM     86  C   UNL A   1      45.721  28.717  34.593  1.00  0.00     0.173 A 
ATOM     87  F   UNL A   1      43.261  26.193  35.492  1.00  0.00    -0.203 F 
ATOM     88  C   UNL A   1      45.432  26.565  36.322  1.00  0.00     0.198 A 
ATOM     89  C   UNL A   1      46.765  28.356  35.441  1.00  0.00     0.198 A 
ATOM     90  F   UNL A   1      45.892  29.766  33.775  1.00  0.00    -0.203 F 
ATOM     91  F   UNL A   1      45.276  25.549  37.181  1.00  0.00    -0.200 F 
ATOM     92  C   UNL A   1      46.617  27.286  36.312  1.00  0.00     0.200 A 
ATOM     93  F   UNL A   1      47.914  29.045  35.419  1.00  0.00    -0.200 F 
ATOM     94  F   UNL A   1      47.611  26.957  37.146  1.00  0.00    -0.200 F 
ENDBRANCH  61  84
ENDBRANCH  35  36
ENDBRANCH  28  30
ENDBRANCH  27  28
ENDBRANCH  26  27
ENDBRANCH   1  26
TORSDOF 16
ENDMDL
MODEL 2
REMARK VINA RESULT:     -12.3      2.360      8.466
REMARK SMILES CC[C@@](C)(NC(=O)Nc1cccc(C[NH2+]C)c1)C(=O)OCCOC(=O)c1ccc(-c2c3nc(c(-c4c(F)c(F)c(F)c(F)c4F)c4ccc([nH]4)c(-c4c(F)c(F)c(F)c(F)c4F)c4nc(c(-c5c(F)c(F)c(F)c(F)c5F)c5ccc2[nH]5)C=C4)C=C3)cc1
REMARK SMILES IDX 21 1 20 2 18 3 19 4 3 5 4 6 2 7 1 8 5 9 6 10 7 12 8 13 9 15
REMARK SMILES IDX 10 16 17 17 11 18 13 19 12 20 14 21 15 22 16 23 22 26 23 27
REMARK SMILES IDX 24 28 25 29 26 30 27 31 88 32 28 33 87 34 29 35 30 36 31 37
REMARK SMILES IDX 81 38 32 39 86 40 80 41 82 42 33 43 85 44 79 45 78 46 34 48
REMARK SMILES IDX 66 49 46 50 65 51 47 52 50 53 64 54 83 55 48 56 49 57 63 59
REMARK SMILES IDX 84 60 51 61 35 62 36 63 44 64 37 65 38 66 42 67 45 68 39 69
REMARK SMILES IDX 40 70 43 71 41 72 67 73 68 74 76 75 69 76 70 77 74 78 77 79
REMARK SMILES IDX 71 80 72 81 75 82 73 83 52 84 53 85 61 86 54 87 55 88 59 89
REMARK SMILES IDX 62 90 56 91 57 92 60 93 58 94
REMARK H PARENT 5 11 8 14 15 24 15 25 82 47 50 58
REMARK Flexibility Score: inf
ROOT
ATOM      1  C   UNL A   1      31.861  30.718  26.619  1.00  0.00     0.274 C 
ENDROOT
BRANCH   1   2
ATOM      2  O   UNL A   1      31.590  30.150  25.272  1.00  0.00    -0.460 OA
BRANCH   2   3
ATOM      3  C   UNL A   1      32.389  29.172  24.642  1.00  0.00     0.331 C 
ATOM      4  O   UNL A   1      33.278  29.466  23.849  1.00  0.00    -0.249 OA
BRANCH   3   5
ATOM      5  C   UNL A   1      31.948  27.573  25.034  1.00  0.00     0.136 C 
ATOM      6  C   UNL A   1      32.615  27.244  26.375  1.00  0.00     0.047 C 
BRANCH   5   7
ATOM      7  C   UNL A   1      30.624  26.664  24.966  1.00  0.00     0.037 C 
ATOM      8  C   UNL A   1      30.458  25.203  25.324  1.00  0.00     0.007 C 
ENDBRANCH   5   7
BRANCH   5   9
ATOM      9  N   UNL A   1      32.646  26.971  23.952  1.00  0.00    -0.322 N 
ATOM     10  C   UNL A   1      32.186  27.085  22.707  1.00  0.00     0.320 C 
ATOM     11  H   UNL A   1      33.473  26.467  24.124  1.00  0.00     0.166 HD
ATOM     12  O   UNL A   1      33.000  26.697  21.860  1.00  0.00    -0.248 OA
ATOM     13  N   UNL A   1      31.004  27.681  22.332  1.00  0.00    -0.308 N 
ATOM     14  H   UNL A   1      30.907  27.427  21.386  1.00  0.00     0.171 HD
BRANCH  13  15
ATOM     15  C   UNL A   1      29.834  28.479  22.591  1.00  0.00     0.043 A 
ATOM     16  C   UNL A   1      28.729  27.774  23.119  1.00  0.00     0.026 A 
ATOM     17  C   UNL A   1      29.570  29.814  22.310  1.00  0.00     0.035 A 
ATOM     18  C   UNL A   1      27.471  28.357  23.339  1.00  0.00     0.003 A 
ATOM     19  C   UNL A   1      28.331  30.451  22.574  1.00  0.00     0.008 A 
ATOM     20  C   UNL A   1      27.270  29.700  23.065  1.00  0.00     0.010 A 
BRANCH  19  21
ATOM     21  C   UNL A   1      28.211  31.945  22.371  1.00  0.00     0.297 C 
BRANCH  21  22
ATOM     22  N   UNL A   1      29.494  32.638  22.446  1.00  0.00    -0.345 N 
ATOM     23  C   UNL A   1      29.393  33.763  23.372  1.00  0.00     0.331 C 
ATOM     24  H   UNL A   1      29.747  32.983  21.520  1.00  0.00     0.346 HD
ATOM     25  H   UNL A   1      30.209  31.990  22.778  1.00  0.00     0.346 HD
ENDBRANCH  21  22
ENDBRANCH  19  21
ENDBRANCH  13  15
ENDBRANCH   5   9
ENDBRANCH   3   5
ENDBRANCH   2   3
ENDBRANCH   1   2
BRANCH   1  26
ATOM     26  C   UNL A   1      31.449  32.291  26.839  1.00  0.00     0.275 C 
BRANCH  26  27
ATOM     27  O   UNL A   1      32.568  33.294  26.886  1.00  0.00    -0.458 OA
BRANCH  27  28
ATOM     28  C   UNL A   1      33.092  33.832  28.046  1.00  0.00     0.338 C 
ATOM     29  O   UNL A   1      32.565  34.727  28.701  1.00  0.00    -0.246 OA
BRANCH  28  30
ATOM     30  C   UNL A   1      34.446  33.187  28.431  1.00  0.00     0.060 A 
ATOM     31  C   UNL A   1      34.519  31.883  28.951  1.00  0.00     0.016 A 
ATOM     32  C   UNL A   1      35.674  33.846  28.345  1.00  0.00     0.016 A 
ATOM     33  C   UNL A   1      35.702  31.171  29.176  1.00  0.00     0.010 A 
ATOM     34  C   UNL A   1      36.893  33.177  28.698  1.00  0.00     0.010 A 
ATOM     35  C   UNL A   1      36.922  31.821  29.095  1.00  0.00    -0.014 A 
BRANCH  35  36
ATOM     36  C   UNL A   1      38.080  31.126  29.749  1.00  0.00     0.031 A 
ATOM     37  C   UNL A   1      38.311  31.379  31.221  1.00  0.00     0.074 A 
ATOM     38  C   UNL A   1      38.777  30.122  29.172  1.00  0.00     0.049 A 
ATOM     39  N   UNL A   1      39.256  30.936  32.015  1.00  0.00    -0.248 NA
ATOM     40  C   UNL A   1      37.314  32.227  31.893  1.00  0.00     0.031 C 
ATOM     41  C   UNL A   1      38.561  29.593  27.828  1.00  0.00     0.029 A 
ATOM     42  N   UNL A   1      39.807  29.345  29.669  1.00  0.00    -0.354 N 
ATOM     43  C   UNL A   1      38.981  31.474  33.266  1.00  0.00     0.074 A 
ATOM     44  C   UNL A   1      37.782  32.271  33.130  1.00  0.00     0.031 C 
ATOM     45  C   UNL A   1      39.444  28.601  27.598  1.00  0.00     0.029 A 
ATOM     46  C   UNL A   1      40.319  28.446  28.762  1.00  0.00     0.049 A 
ATOM     47  H   UNL A   1      40.144  29.428  30.590  1.00  0.00     0.167 HD
ATOM     48  C   UNL A   1      39.661  31.327  34.429  1.00  0.00     0.037 A 
ATOM     49  C   UNL A   1      41.388  27.621  28.843  1.00  0.00     0.037 A 
ATOM     50  C   UNL A   1      40.841  30.523  34.599  1.00  0.00     0.049 A 
ATOM     51  C   UNL A   1      42.215  27.571  30.110  1.00  0.00     0.074 A 
ATOM     52  C   UNL A   1      41.632  30.379  35.727  1.00  0.00     0.029 A 
ATOM     53  N   UNL A   1      41.390  29.711  33.622  1.00  0.00    -0.354 N 
ATOM     54  N   UNL A   1      42.019  28.176  31.255  1.00  0.00    -0.248 NA
ATOM     55  C   UNL A   1      43.421  26.723  30.089  1.00  0.00     0.031 C 
ATOM     56  C   UNL A   1      42.682  29.508  35.419  1.00  0.00     0.029 A 
ATOM     57  C   UNL A   1      42.517  29.071  34.117  1.00  0.00     0.049 A 
ATOM     58  H   UNL A   1      41.034  29.604  32.710  1.00  0.00     0.167 HD
ATOM     59  C   UNL A   1      43.058  27.771  32.089  1.00  0.00     0.074 A 
ATOM     60  C   UNL A   1      43.868  26.845  31.331  1.00  0.00     0.031 C 
ATOM     61  C   UNL A   1      43.320  28.142  33.367  1.00  0.00     0.037 A 
BRANCH  48  62
ATOM     62  C   UNL A   1      39.172  32.116  35.607  1.00  0.00     0.064 A 
ATOM     63  C   UNL A   1      39.501  33.467  35.784  1.00  0.00     0.173 A 
ATOM     64  C   UNL A   1      38.347  31.505  36.564  1.00  0.00     0.173 A 
ATOM     65  F   UNL A   1      40.305  34.087  34.908  1.00  0.00    -0.203 F 
ATOM     66  C   UNL A   1      39.037  34.174  36.890  1.00  0.00     0.198 A 
ATOM     67  C   UNL A   1      37.863  32.222  37.652  1.00  0.00     0.198 A 
ATOM     68  F   UNL A   1      38.006  30.214  36.436  1.00  0.00    -0.203 F 
ATOM     69  F   UNL A   1      39.401  35.451  37.068  1.00  0.00    -0.200 F 
ATOM     70  C   UNL A   1      38.213  33.554  37.819  1.00  0.00     0.200 A 
ATOM     71  F   UNL A   1      37.057  31.624  38.541  1.00  0.00    -0.200 F 
ATOM     72  F   UNL A   1      37.763  34.237  38.879  1.00  0.00    -0.200 F 
ENDBRANCH  48  62
BRANCH  49  73
ATOM     73  C   UNL A   1      41.822  26.821  27.659  1.00  0.00     0.064 A 
ATOM     74  C   UNL A   1      41.363  25.512  27.444  1.00  0.00     0.173 A 
ATOM     75  C   UNL A   1      42.791  27.318  26.772  1.00  0.00     0.173 A 
ATOM     76  F   UNL A   1      40.475  24.965  28.287  1.00  0.00    -0.203 F 
ATOM     77  C   UNL A   1      41.873  24.728  26.407  1.00  0.00     0.198 A 
ATOM     78  C   UNL A   1      43.273  26.546  25.717  1.00  0.00     0.198 A 
ATOM     79  F   UNL A   1      43.286  28.553  26.944  1.00  0.00    -0.203 F 
ATOM     80  F   UNL A   1      41.470  23.456  26.270  1.00  0.00    -0.200 F 
ATOM     81  C   UNL A   1      42.824  25.247  25.542  1.00  0.00     0.200 A 
ATOM     82  F   UNL A   1      44.191  27.055  24.884  1.00  0.00    -0.200 F 
ATOM     83  F   UNL A   1      43.319  24.491  24.553  1.00  0.00    -0.200 F 
ENDBRANCH  49  73
BRANCH  61  84
ATOM     84  C   UNL A   1      44.513  27.526  34.044  1.00  0.00     0.064 A 
ATOM     85  C   UNL A   1      44.423  26.306  34.731  1.00  0.00     0.173 A 
ATOM     86  C   UNL A   1      45.769  28.150  33.983  1.00  0.00     0.173 A 
ATOM     87  F   UNL A   1      43.245  25.672  34.830  1.00  0.00    -0.203 F 
ATOM     88  C   UNL A   1      45.537  25.752  35.360  1.00  0.00     0.198 A 
ATOM     89  C   UNL A   1      46.887  27.579  34.586  1.00  0.00     0.198 A 
ATOM     90  F   UNL A   1      45.916  29.313  33.329  1.00  0.00    -0.203 F 
ATOM     91  F   UNL A   1      45.415  24.614  36.056  1.00  0.00    -0.200 F 
ATOM     92  C   UNL A   1      46.768  26.385  35.283  1.00  0.00     0.200 A 
ATOM     93  F   UNL A   1      48.079  28.186  34.498  1.00  0.00    -0.200 F 
ATOM     94  F   UNL A   1      47.838  25.852  35.887  1.00  0.00    -0.200 F 
ENDBRANCH  61  84
ENDBRANCH  35  36
ENDBRANCH  28  30
ENDBRANCH  27  28
ENDBRANCH  26  27
ENDBRANCH   1  26
TORSDOF 16
ENDMDL
MODEL 3
REMARK VINA RESULT:     -12.2      2.393      8.414
REMARK SMILES CC[C@@](C)(NC(=O)Nc1cccc(C[NH2+]C)c1)C(=O)OCCOC(=O)c1ccc(-c2c3nc(c(-c4c(F)c(F)c(F)c(F)c4F)c4ccc([nH]4)c(-c4c(F)c(F)c(F)c(F)c4F)c4nc(c(-c5c(F)c(F)c(F)c(F)c5F)c5ccc2[nH]5)C=C4)C=C3)cc1
REMARK SMILES IDX 21 1 20 2 18 3 19 4 3 5 4 6 2 7 1 8 5 9 6 10 7 12 8 13 9 15
REMARK SMILES IDX 10 16 17 17 11 18 13 19 12 20 14 21 15 22 16 23 22 26 23 27
REMARK SMILES IDX 24 28 25 29 26 30 27 31 88 32 28 33 87 34 29 35 30 36 31 37
REMARK SMILES IDX 81 38 32 39 86 40 80 41 82 42 33 43 85 44 79 45 78 46 34 48
REMARK SMILES IDX 66 49 46 50 65 51 47 52 50 53 64 54 83 55 48 56 49 57 63 59
REMARK SMILES IDX 84 60 51 61 35 62 36 63 44 64 37 65 38 66 42 67 45 68 39 69
REMARK SMILES IDX 40 70 43 71 41 72 67 73 68 74 76 75 69 76 70 77 74 78 77 79
REMARK SMILES IDX 71 80 72 81 75 82 73 83 52 84 53 85 61 86 54 87 55 88 59 89
REMARK SMILES IDX 62 90 56 91 57 92 60 93 58 94
REMARK H PARENT 5 11 8 14 15 24 15 25 82 47 50 58
REMARK Flexibility Score: inf
ROOT
ATOM      1  C   UNL A   1      32.291  30.787  26.747  1.00  0.00     0.274 C 
ENDROOT
BRANCH   1   2
ATOM      2  O   UNL A   1      31.765  30.050  25.567  1.00  0.00    -0.460 OA
BRANCH   2   3
ATOM      3  C   UNL A   1      32.476  29.051  24.867  1.00  0.00     0.331 C 
ATOM      4  O   UNL A   1      33.355  29.322  24.055  1.00  0.00    -0.249 OA
BRANCH   3   5
ATOM      5  C   UNL A   1      31.945  27.468  25.209  1.00  0.00     0.136 C 
ATOM      6  C   UNL A   1      32.610  27.051  26.527  1.00  0.00     0.047 C 
BRANCH   5   7
ATOM      7  C   UNL A   1      30.568  26.644  25.130  1.00  0.00     0.037 C 
ATOM      8  C   UNL A   1      30.140  25.433  25.932  1.00  0.00     0.007 C 
ENDBRANCH   5   7
BRANCH   5   9
ATOM      9  N   UNL A   1      32.590  26.866  24.095  1.00  0.00    -0.322 N 
ATOM     10  C   UNL A   1      32.097  27.019  22.867  1.00  0.00     0.320 C 
ATOM     11  H   UNL A   1      33.405  26.332  24.232  1.00  0.00     0.166 HD
ATOM     12  O   UNL A   1      32.872  26.623  21.988  1.00  0.00    -0.248 OA
ATOM     13  N   UNL A   1      30.925  27.661  22.540  1.00  0.00    -0.308 N 
ATOM     14  H   UNL A   1      30.791  27.429  21.592  1.00  0.00     0.171 HD
BRANCH  13  15
ATOM     15  C   UNL A   1      29.790  28.490  22.850  1.00  0.00     0.043 A 
ATOM     16  C   UNL A   1      28.584  27.796  23.091  1.00  0.00     0.026 A 
ATOM     17  C   UNL A   1      29.655  29.873  22.849  1.00  0.00     0.035 A 
ATOM     18  C   UNL A   1      27.352  28.434  23.305  1.00  0.00     0.003 A 
ATOM     19  C   UNL A   1      28.440  30.552  23.121  1.00  0.00     0.008 A 
ATOM     20  C   UNL A   1      27.278  29.817  23.319  1.00  0.00     0.010 A 
BRANCH  19  21
ATOM     21  C   UNL A   1      28.448  32.059  23.246  1.00  0.00     0.297 C 
BRANCH  21  22
ATOM     22  N   UNL A   1      28.994  32.729  22.069  1.00  0.00    -0.345 N 
ATOM     23  C   UNL A   1      28.037  32.647  20.967  1.00  0.00     0.331 C 
ATOM     24  H   UNL A   1      29.866  32.275  21.795  1.00  0.00     0.346 HD
ATOM     25  H   UNL A   1      29.172  33.708  22.290  1.00  0.00     0.346 HD
ENDBRANCH  21  22
ENDBRANCH  19  21
ENDBRANCH  13  15
ENDBRANCH   5   9
ENDBRANCH   3   5
ENDBRANCH   2   3
ENDBRANCH   1   2
BRANCH   1  26
ATOM     26  C   UNL A   1      31.773  32.334  26.924  1.00  0.00     0.275 C 
BRANCH  26  27
ATOM     27  O   UNL A   1      32.824  33.399  27.063  1.00  0.00    -0.458 OA
BRANCH  27  28
ATOM     28  C   UNL A   1      33.300  33.879  28.269  1.00  0.00     0.338 C 
ATOM     29  O   UNL A   1      32.746  34.741  28.946  1.00  0.00    -0.246 OA
BRANCH  28  30
ATOM     30  C   UNL A   1      34.639  33.215  28.676  1.00  0.00     0.060 A 
ATOM     31  C   UNL A   1      34.681  31.934  29.250  1.00  0.00     0.016 A 
ATOM     32  C   UNL A   1      35.883  33.838  28.557  1.00  0.00     0.016 A 
ATOM     33  C   UNL A   1      35.847  31.201  29.500  1.00  0.00     0.010 A 
ATOM     34  C   UNL A   1      37.087  33.153  28.934  1.00  0.00     0.010 A 
ATOM     35  C   UNL A   1      37.082  31.815  29.388  1.00  0.00    -0.014 A 
BRANCH  35  36
ATOM     36  C   UNL A   1      38.225  31.118  30.066  1.00  0.00     0.031 A 
ATOM     37  C   UNL A   1      38.424  31.368  31.543  1.00  0.00     0.074 A 
ATOM     38  C   UNL A   1      38.934  30.114  29.503  1.00  0.00     0.049 A 
ATOM     39  N   UNL A   1      39.350  30.923  32.357  1.00  0.00    -0.248 NA
ATOM     40  C   UNL A   1      37.412  32.216  32.194  1.00  0.00     0.031 C 
ATOM     41  C   UNL A   1      38.747  29.587  28.154  1.00  0.00     0.029 A 
ATOM     42  N   UNL A   1      39.952  29.336  30.022  1.00  0.00    -0.354 N 
ATOM     43  C   UNL A   1      39.048  31.460  33.603  1.00  0.00     0.074 A 
ATOM     44  C   UNL A   1      37.853  32.258  33.441  1.00  0.00     0.031 C 
ATOM     45  C   UNL A   1      39.635  28.595  27.942  1.00  0.00     0.029 A 
ATOM     46  C   UNL A   1      40.484  28.438  29.125  1.00  0.00     0.049 A 
ATOM     47  H   UNL A   1      40.268  29.417  30.950  1.00  0.00     0.167 HD
ATOM     48  C   UNL A   1      39.702  31.311  34.780  1.00  0.00     0.037 A 
ATOM     49  C   UNL A   1      41.550  27.612  29.228  1.00  0.00     0.037 A 
ATOM     50  C   UNL A   1      40.877  30.506  34.975  1.00  0.00     0.049 A 
ATOM     51  C   UNL A   1      42.349  27.559  30.513  1.00  0.00     0.074 A 
ATOM     52  C   UNL A   1      41.643  30.359  36.120  1.00  0.00     0.029 A 
ATOM     53  N   UNL A   1      41.448  29.695  34.009  1.00  0.00    -0.354 N 
ATOM     54  N   UNL A   1      42.128  28.162  31.654  1.00  0.00    -0.248 NA
ATOM     55  C   UNL A   1      43.554  26.710  30.518  1.00  0.00     0.031 C 
ATOM     56  C   UNL A   1      42.699  29.487  35.835  1.00  0.00     0.029 A 
ATOM     57  C   UNL A   1      42.563  29.053  34.528  1.00  0.00     0.049 A 
ATOM     58  H   UNL A   1      41.112  29.589  33.089  1.00  0.00     0.167 HD
ATOM     59  C   UNL A   1      43.148  27.755  32.510  1.00  0.00     0.074 A 
ATOM     60  C   UNL A   1      43.974  26.830  31.769  1.00  0.00     0.031 C 
ATOM     61  C   UNL A   1      43.381  28.124  33.794  1.00  0.00     0.037 A 
BRANCH  48  62
ATOM     62  C   UNL A   1      39.188  32.098  35.949  1.00  0.00     0.064 A 
ATOM     63  C   UNL A   1      38.261  31.562  36.854  1.00  0.00     0.173 A 
ATOM     64  C   UNL A   1      39.648  33.405  36.169  1.00  0.00     0.173 A 
ATOM     65  F   UNL A   1      37.775  30.325  36.671  1.00  0.00    -0.203 F 
ATOM     66  C   UNL A   1      37.796  32.317  37.928  1.00  0.00     0.198 A 
ATOM     67  C   UNL A   1      39.204  34.145  37.258  1.00  0.00     0.198 A 
ATOM     68  F   UNL A   1      40.535  33.959  35.329  1.00  0.00    -0.203 F 
ATOM     69  F   UNL A   1      36.875  31.806  38.755  1.00  0.00    -0.200 F 
ATOM     70  C   UNL A   1      38.273  33.604  38.133  1.00  0.00     0.200 A 
ATOM     71  F   UNL A   1      39.674  35.384  37.461  1.00  0.00    -0.200 F 
ATOM     72  F   UNL A   1      37.830  34.327  39.171  1.00  0.00    -0.200 F 
ENDBRANCH  48  62
BRANCH  49  73
ATOM     73  C   UNL A   1      42.009  26.813  28.053  1.00  0.00     0.064 A 
ATOM     74  C   UNL A   1      42.887  27.344  27.095  1.00  0.00     0.173 A 
ATOM     75  C   UNL A   1      41.492  25.530  27.812  1.00  0.00     0.173 A 
ATOM     76  F   UNL A   1      43.374  28.584  27.247  1.00  0.00    -0.203 F 
ATOM     77  C   UNL A   1      43.207  26.635  25.936  1.00  0.00     0.198 A 
ATOM     78  C   UNL A   1      41.840  24.809  26.670  1.00  0.00     0.198 A 
ATOM     79  F   UNL A   1      40.628  24.981  28.679  1.00  0.00    -0.203 F 
ATOM     80  F   UNL A   1      43.990  27.197  25.003  1.00  0.00    -0.200 F 
ATOM     81  C   UNL A   1      42.688  25.367  25.727  1.00  0.00     0.200 A 
ATOM     82  F   UNL A   1      41.335  23.583  26.476  1.00  0.00    -0.200 F 
ATOM     83  F   UNL A   1      42.989  24.691  24.610  1.00  0.00    -0.200 F 
ENDBRANCH  49  73
BRANCH  61  84
ATOM     84  C   UNL A   1      44.558  27.507  34.497  1.00  0.00     0.064 A 
ATOM     85  C   UNL A   1      45.821  28.119  34.501  1.00  0.00     0.173 A 
ATOM     86  C   UNL A   1      44.416  26.299  35.200  1.00  0.00     0.173 A 
ATOM     87  F   UNL A   1      46.015  29.268  33.837  1.00  0.00    -0.203 F 
ATOM     88  C   UNL A   1      46.904  27.529  35.151  1.00  0.00     0.198 A 
ATOM     89  C   UNL A   1      45.493  25.728  35.874  1.00  0.00     0.198 A 
ATOM     90  F   UNL A   1      43.229  25.675  35.239  1.00  0.00    -0.203 F 
ATOM     91  F   UNL A   1      48.112  28.106  35.095  1.00  0.00    -0.200 F 
ATOM     92  C   UNL A   1      46.738  26.338  35.841  1.00  0.00     0.200 A 
ATOM     93  F   UNL A   1      45.327  24.584  36.552  1.00  0.00    -0.200 F 
ATOM     94  F   UNL A   1      47.780  25.773  36.466  1.00  0.00    -0.200 F 
ENDBRANCH  61  84
ENDBRANCH  35  36
ENDBRANCH  28  30
ENDBRANCH  27  28
ENDBRANCH  26  27
ENDBRANCH   1  26
TORSDOF 16
ENDMDL
