MODEL 1
REMARK VINA RESULT:     -12.4      0.000      0.000
REMARK SMILES COc1cc(C)cc2c1O[C@H](C(F)(F)F)C(C(=O)OCCOC(=O)c1ccc(-c3c4nc(c(-c5c(F)c(F)c(F)c(F)c5F)c5ccc([nH]5)c(-c5c(F)c(F)c(F)c(F)c5F)c5nc(c(-c6c(F)c(F)c(F)c(F)c6F)c6ccc3[nH]6)C=C5)C=C4)cc1)=C2
REMARK SMILES IDX 21 1 20 2 19 3 17 4 18 5 16 6 3 7 4 8 9 9 5 10 8 11 10 12
REMARK SMILES IDX 6 13 7 14 88 15 11 16 2 17 1 18 12 19 13 20 14 21 15 22
REMARK SMILES IDX 22 23 23 24 24 25 25 26 26 27 87 28 27 29 86 30 28 31 29 32
REMARK SMILES IDX 30 33 80 34 31 35 85 36 79 37 81 38 32 39 84 40 78 41 77 42
REMARK SMILES IDX 33 44 65 45 45 46 64 47 46 48 49 49 63 50 82 51 47 52 48 53
REMARK SMILES IDX 62 55 83 56 50 57 34 58 35 59 43 60 36 61 37 62 41 63 44 64
REMARK SMILES IDX 38 65 39 66 42 67 40 68 66 69 67 70 75 71 68 72 69 73 73 74
REMARK SMILES IDX 76 75 70 76 71 77 74 78 72 79 51 80 52 81 60 82 53 83 54 84
REMARK SMILES IDX 58 85 61 86 55 87 56 88 59 89 57 90
REMARK H PARENT 81 43 49 54
REMARK Flexibility Score: inf
ROOT
ATOM      1  C   UNL A   1      31.676  30.478  25.672  1.00  0.00     0.275 C 
ENDROOT
BRANCH   1   2
ATOM      2  C   UNL A   1      31.516  29.086  25.059  1.00  0.00     0.275 C 
BRANCH   2   3
ATOM      3  O   UNL A   1      32.401  28.129  25.680  1.00  0.00    -0.459 OA
BRANCH   3   4
ATOM      4  C   UNL A   1      31.795  27.163  26.408  1.00  0.00     0.338 C 
ATOM      5  O   UNL A   1      30.976  27.326  27.300  1.00  0.00    -0.246 OA
BRANCH   4   6
ATOM      6  C   UNL A   1      32.217  25.827  25.946  1.00  0.00     0.087 C 
ATOM      7  C   UNL A   1      33.556  22.217  24.305  1.00  0.00     0.161 A 
ATOM      8  C   UNL A   1      34.934  21.957  24.265  1.00  0.00     0.054 A 
ATOM      9  C   UNL A   1      33.081  23.401  24.883  1.00  0.00     0.169 A 
ATOM     10  C   UNL A   1      35.847  22.849  24.840  1.00  0.00    -0.047 A 
ATOM     11  C   UNL A   1      33.992  24.300  25.433  1.00  0.00     0.021 A 
ATOM     12  O   UNL A   1      31.727  23.610  24.909  1.00  0.00    -0.471 OA
ATOM     13  C   UNL A   1      37.325  22.595  24.808  1.00  0.00     0.044 C 
ATOM     14  C   UNL A   1      35.363  24.019  25.429  1.00  0.00     0.015 A 
ATOM     15  C   UNL A   1      33.526  25.555  25.978  1.00  0.00     0.027 C 
ATOM     16  C   UNL A   1      31.204  24.893  25.347  1.00  0.00     0.316 C 
BRANCH   7  17
ATOM     17  O   UNL A   1      32.624  21.391  23.727  1.00  0.00    -0.493 OA
ATOM     18  C   UNL A   1      32.617  20.061  24.232  1.00  0.00     0.278 C 
ENDBRANCH   7  17
BRANCH  16  19
ATOM     19  C   UNL A   1      30.467  25.553  24.170  1.00  0.00     0.430 C 
ATOM     20  F   UNL A   1      29.905  24.633  23.352  1.00  0.00    -0.167 F 
ATOM     21  F   UNL A   1      29.457  26.349  24.602  1.00  0.00    -0.167 F 
ATOM     22  F   UNL A   1      31.289  26.322  23.419  1.00  0.00    -0.167 F 
ENDBRANCH  16  19
ENDBRANCH   4   6
ENDBRANCH   3   4
ENDBRANCH   2   3
ENDBRANCH   1   2
BRANCH   1  23
ATOM     23  O   UNL A   1      32.506  30.409  26.846  1.00  0.00    -0.458 OA
BRANCH  23  24
ATOM     24  C   UNL A   1      33.120  31.560  27.200  1.00  0.00     0.338 C 
ATOM     25  O   UNL A   1      32.668  32.690  27.172  1.00  0.00    -0.246 OA
BRANCH  24  26
ATOM     26  C   UNL A   1      34.462  31.254  27.720  1.00  0.00     0.060 A 
ATOM     27  C   UNL A   1      35.339  32.265  28.096  1.00  0.00     0.016 A 
ATOM     28  C   UNL A   1      34.788  29.925  27.965  1.00  0.00     0.016 A 
ATOM     29  C   UNL A   1      36.553  31.922  28.703  1.00  0.00     0.010 A 
ATOM     30  C   UNL A   1      35.925  29.595  28.695  1.00  0.00     0.010 A 
ATOM     31  C   UNL A   1      36.846  30.585  29.046  1.00  0.00    -0.014 A 
BRANCH  31  32
ATOM     32  C   UNL A   1      38.106  30.223  29.760  1.00  0.00     0.031 A 
ATOM     33  C   UNL A   1      38.357  30.677  31.179  1.00  0.00     0.074 A 
ATOM     34  C   UNL A   1      39.055  29.513  29.119  1.00  0.00     0.049 A 
ATOM     35  N   UNL A   1      39.387  30.436  31.955  1.00  0.00    -0.248 NA
ATOM     36  C   UNL A   1      37.348  31.551  31.798  1.00  0.00     0.031 C 
ATOM     37  C   UNL A   1      39.001  29.104  27.714  1.00  0.00     0.029 A 
ATOM     38  N   UNL A   1      40.244  28.989  29.567  1.00  0.00    -0.354 N 
ATOM     39  C   UNL A   1      39.159  31.148  33.126  1.00  0.00     0.074 A 
ATOM     40  C   UNL A   1      37.932  31.888  32.937  1.00  0.00     0.031 C 
ATOM     41  C   UNL A   1      40.058  28.323  27.441  1.00  0.00     0.029 A 
ATOM     42  C   UNL A   1      40.882  28.204  28.638  1.00  0.00     0.049 A 
ATOM     43  H   UNL A   1      40.603  29.160  30.467  1.00  0.00     0.167 HD
ATOM     44  C   UNL A   1      39.878  31.153  34.275  1.00  0.00     0.037 A 
ATOM     45  C   UNL A   1      41.991  27.446  28.746  1.00  0.00     0.037 A 
ATOM     46  C   UNL A   1      41.056  30.359  34.494  1.00  0.00     0.049 A 
ATOM     47  C   UNL A   1      42.726  27.394  30.056  1.00  0.00     0.074 A 
ATOM     48  C   UNL A   1      41.802  30.223  35.653  1.00  0.00     0.029 A 
ATOM     49  N   UNL A   1      41.650  29.550  33.538  1.00  0.00    -0.354 N 
ATOM     50  N   UNL A   1      42.453  28.012  31.180  1.00  0.00    -0.248 NA
ATOM     51  C   UNL A   1      43.919  26.538  30.115  1.00  0.00     0.031 C 
ATOM     52  C   UNL A   1      42.860  29.350  35.391  1.00  0.00     0.029 A 
ATOM     53  C   UNL A   1      42.755  28.915  34.078  1.00  0.00     0.049 A 
ATOM     54  H   UNL A   1      41.332  29.443  32.612  1.00  0.00     0.167 HD
ATOM     55  C   UNL A   1      43.429  27.611  32.080  1.00  0.00     0.074 A 
ATOM     56  C   UNL A   1      44.290  26.681  31.380  1.00  0.00     0.031 C 
ATOM     57  C   UNL A   1      43.600  27.989  33.370  1.00  0.00     0.037 A 
BRANCH  44  58
ATOM     58  C   UNL A   1      39.383  32.011  35.405  1.00  0.00     0.064 A 
ATOM     59  C   UNL A   1      38.509  31.503  36.378  1.00  0.00     0.173 A 
ATOM     60  C   UNL A   1      39.826  33.334  35.549  1.00  0.00     0.173 A 
ATOM     61  F   UNL A   1      38.051  30.245  36.284  1.00  0.00    -0.203 F 
ATOM     62  C   UNL A   1      38.073  32.296  37.436  1.00  0.00     0.198 A 
ATOM     63  C   UNL A   1      39.412  34.115  36.626  1.00  0.00     0.198 A 
ATOM     64  F   UNL A   1      40.672  33.867  34.655  1.00  0.00    -0.203 F 
ATOM     65  F   UNL A   1      37.202  31.801  38.327  1.00  0.00    -0.200 F 
ATOM     66  C   UNL A   1      38.530  33.598  37.564  1.00  0.00     0.200 A 
ATOM     67  F   UNL A   1      39.868  35.369  36.757  1.00  0.00    -0.200 F 
ATOM     68  F   UNL A   1      38.119  34.357  38.589  1.00  0.00    -0.200 F 
ENDBRANCH  44  58
BRANCH  45  69
ATOM     69  C   UNL A   1      42.417  26.607  27.597  1.00  0.00     0.064 A 
ATOM     70  C   UNL A   1      43.400  27.067  26.709  1.00  0.00     0.173 A 
ATOM     71  C   UNL A   1      41.890  25.327  27.383  1.00  0.00     0.173 A 
ATOM     72  F   UNL A   1      43.920  28.294  26.864  1.00  0.00    -0.203 F 
ATOM     73  C   UNL A   1      43.837  26.278  25.647  1.00  0.00     0.198 A 
ATOM     74  C   UNL A   1      42.345  24.530  26.333  1.00  0.00     0.198 A 
ATOM     75  F   UNL A   1      40.954  24.840  28.209  1.00  0.00    -0.203 F 
ATOM     76  F   UNL A   1      44.760  26.753  24.799  1.00  0.00    -0.200 F 
ATOM     77  C   UNL A   1      43.315  25.008  25.465  1.00  0.00     0.200 A 
ATOM     78  F   UNL A   1      41.848  23.297  26.169  1.00  0.00    -0.200 F 
ATOM     79  F   UNL A   1      43.745  24.244  24.452  1.00  0.00    -0.200 F 
ENDBRANCH  45  69
BRANCH  57  80
ATOM     80  C   UNL A   1      44.754  27.398  34.119  1.00  0.00     0.064 A 
ATOM     81  C   UNL A   1      45.991  28.057  34.186  1.00  0.00     0.173 A 
ATOM     82  C   UNL A   1      44.602  26.204  34.839  1.00  0.00     0.173 A 
ATOM     83  F   UNL A   1      46.186  29.196  33.505  1.00  0.00    -0.203 F 
ATOM     84  C   UNL A   1      47.037  27.535  34.939  1.00  0.00     0.198 A 
ATOM     85  C   UNL A   1      45.645  25.697  35.609  1.00  0.00     0.198 A 
ATOM     86  F   UNL A   1      43.436  25.542  34.810  1.00  0.00    -0.203 F 
ATOM     87  F   UNL A   1      48.219  28.166  34.969  1.00  0.00    -0.200 F 
ATOM     88  C   UNL A   1      46.861  26.361  35.657  1.00  0.00     0.200 A 
ATOM     89  F   UNL A   1      45.468  24.570  36.313  1.00  0.00    -0.200 F 
ATOM     90  F   UNL A   1      47.865  25.868  36.395  1.00  0.00    -0.200 F 
ENDBRANCH  57  80
ENDBRANCH  31  32
ENDBRANCH  24  26
ENDBRANCH  23  24
ENDBRANCH   1  23
TORSDOF 13
ENDMDL
MODEL 2
REMARK VINA RESULT:     -12.4      4.275      9.641
REMARK SMILES COc1cc(C)cc2c1O[C@H](C(F)(F)F)C(C(=O)OCCOC(=O)c1ccc(-c3c4nc(c(-c5c(F)c(F)c(F)c(F)c5F)c5ccc([nH]5)c(-c5c(F)c(F)c(F)c(F)c5F)c5nc(c(-c6c(F)c(F)c(F)c(F)c6F)c6ccc3[nH]6)C=C5)C=C4)cc1)=C2
REMARK SMILES IDX 21 1 20 2 19 3 17 4 18 5 16 6 3 7 4 8 9 9 5 10 8 11 10 12
REMARK SMILES IDX 6 13 7 14 88 15 11 16 2 17 1 18 12 19 13 20 14 21 15 22
REMARK SMILES IDX 22 23 23 24 24 25 25 26 26 27 87 28 27 29 86 30 28 31 29 32
REMARK SMILES IDX 30 33 80 34 31 35 85 36 79 37 81 38 32 39 84 40 78 41 77 42
REMARK SMILES IDX 33 44 65 45 45 46 64 47 46 48 49 49 63 50 82 51 47 52 48 53
REMARK SMILES IDX 62 55 83 56 50 57 34 58 35 59 43 60 36 61 37 62 41 63 44 64
REMARK SMILES IDX 38 65 39 66 42 67 40 68 66 69 67 70 75 71 68 72 69 73 73 74
REMARK SMILES IDX 76 75 70 76 71 77 74 78 72 79 51 80 52 81 60 82 53 83 54 84
REMARK SMILES IDX 58 85 61 86 55 87 56 88 59 89 57 90
REMARK H PARENT 81 43 49 54
REMARK Flexibility Score: inf
ROOT
ATOM      1  C   UNL A   1      37.418  20.188  24.995  1.00  0.00     0.275 C 
ENDROOT
BRANCH   1   2
ATOM      2  C   UNL A   1      35.900  20.333  25.107  1.00  0.00     0.275 C 
BRANCH   2   3
ATOM      3  O   UNL A   1      35.534  21.325  26.090  1.00  0.00    -0.459 OA
BRANCH   3   4
ATOM      4  C   UNL A   1      34.267  21.791  26.004  1.00  0.00     0.338 C 
ATOM      5  O   UNL A   1      33.288  21.358  26.594  1.00  0.00    -0.246 OA
BRANCH   4   6
ATOM      6  C   UNL A   1      34.208  22.967  25.115  1.00  0.00     0.087 C 
ATOM      7  C   UNL A   1      33.653  26.338  22.697  1.00  0.00     0.161 A 
ATOM      8  C   UNL A   1      33.517  27.596  23.304  1.00  0.00     0.054 A 
ATOM      9  C   UNL A   1      33.877  25.200  23.483  1.00  0.00     0.169 A 
ATOM     10  C   UNL A   1      33.649  27.739  24.691  1.00  0.00    -0.047 A 
ATOM     11  C   UNL A   1      33.983  25.340  24.864  1.00  0.00     0.021 A 
ATOM     12  O   UNL A   1      34.013  23.993  22.848  1.00  0.00    -0.471 OA
ATOM     13  C   UNL A   1      33.506  29.072  25.364  1.00  0.00     0.044 C 
ATOM     14  C   UNL A   1      33.889  26.601  25.464  1.00  0.00     0.015 A 
ATOM     15  C   UNL A   1      34.152  24.169  25.696  1.00  0.00     0.027 C 
ATOM     16  C   UNL A   1      34.080  22.771  23.630  1.00  0.00     0.316 C 
BRANCH   7  17
ATOM     17  O   UNL A   1      33.501  26.140  21.348  1.00  0.00    -0.493 OA
ATOM     18  C   UNL A   1      32.156  25.953  20.925  1.00  0.00     0.278 C 
ENDBRANCH   7  17
BRANCH  16  19
ATOM     19  C   UNL A   1      32.862  21.898  23.287  1.00  0.00     0.430 C 
ATOM     20  F   UNL A   1      32.528  21.996  21.979  1.00  0.00    -0.167 F 
ATOM     21  F   UNL A   1      33.111  20.585  23.521  1.00  0.00    -0.167 F 
ATOM     22  F   UNL A   1      31.772  22.233  24.015  1.00  0.00    -0.167 F 
ENDBRANCH  16  19
ENDBRANCH   4   6
ENDBRANCH   3   4
ENDBRANCH   2   3
ENDBRANCH   1   2
BRANCH   1  23
ATOM     23  O   UNL A   1      38.068  21.343  25.557  1.00  0.00    -0.458 OA
BRANCH  23  24
ATOM     24  C   UNL A   1      39.274  21.120  26.125  1.00  0.00     0.338 C 
ATOM     25  O   UNL A   1      39.906  20.080  26.160  1.00  0.00    -0.246 OA
BRANCH  24  26
ATOM     26  C   UNL A   1      39.793  22.383  26.673  1.00  0.00     0.060 A 
ATOM     27  C   UNL A   1      40.853  22.399  27.571  1.00  0.00     0.016 A 
ATOM     28  C   UNL A   1      39.296  23.577  26.164  1.00  0.00     0.016 A 
ATOM     29  C   UNL A   1      41.394  23.630  27.965  1.00  0.00     0.010 A 
ATOM     30  C   UNL A   1      39.925  24.786  26.443  1.00  0.00     0.010 A 
ATOM     31  C   UNL A   1      40.962  24.838  27.377  1.00  0.00    -0.014 A 
BRANCH  31  32
ATOM     32  C   UNL A   1      41.587  26.145  27.739  1.00  0.00     0.031 A 
ATOM     33  C   UNL A   1      42.970  26.510  27.254  1.00  0.00     0.074 A 
ATOM     34  C   UNL A   1      40.923  27.000  28.542  1.00  0.00     0.049 A 
ATOM     35  N   UNL A   1      43.654  27.611  27.458  1.00  0.00    -0.248 NA
ATOM     36  C   UNL A   1      43.705  25.497  26.480  1.00  0.00     0.031 C 
ATOM     37  C   UNL A   1      39.631  26.735  29.177  1.00  0.00     0.029 A 
ATOM     38  N   UNL A   1      41.233  28.276  28.949  1.00  0.00    -0.354 N 
ATOM     39  C   UNL A   1      44.894  27.405  26.866  1.00  0.00     0.074 A 
ATOM     40  C   UNL A   1      44.901  26.052  26.359  1.00  0.00     0.031 C 
ATOM     41  C   UNL A   1      39.219  27.840  29.817  1.00  0.00     0.029 A 
ATOM     42  C   UNL A   1      40.231  28.880  29.668  1.00  0.00     0.049 A 
ATOM     43  H   UNL A   1      42.090  28.714  28.743  1.00  0.00     0.167 HD
ATOM     44  C   UNL A   1      45.922  28.275  26.716  1.00  0.00     0.037 A 
ATOM     45  C   UNL A   1      40.123  30.141  30.131  1.00  0.00     0.037 A 
ATOM     46  C   UNL A   1      45.891  29.646  27.150  1.00  0.00     0.049 A 
ATOM     47  C   UNL A   1      41.236  31.119  29.877  1.00  0.00     0.074 A 
ATOM     48  C   UNL A   1      46.844  30.632  26.961  1.00  0.00     0.029 A 
ATOM     49  N   UNL A   1      44.843  30.228  27.845  1.00  0.00    -0.354 N 
ATOM     50  N   UNL A   1      42.370  30.932  29.246  1.00  0.00    -0.248 NA
ATOM     51  C   UNL A   1      41.054  32.482  30.393  1.00  0.00     0.031 C 
ATOM     52  C   UNL A   1      46.381  31.806  27.562  1.00  0.00     0.029 A 
ATOM     53  C   UNL A   1      45.126  31.559  28.096  1.00  0.00     0.049 A 
ATOM     54  H   UNL A   1      44.019  29.763  28.118  1.00  0.00     0.167 HD
ATOM     55  C   UNL A   1      43.029  32.152  29.279  1.00  0.00     0.074 A 
ATOM     56  C   UNL A   1      42.161  33.080  29.973  1.00  0.00     0.031 C 
ATOM     57  C   UNL A   1      44.250  32.471  28.785  1.00  0.00     0.037 A 
BRANCH  44  58
ATOM     58  C   UNL A   1      47.155  27.786  26.008  1.00  0.00     0.064 A 
ATOM     59  C   UNL A   1      48.259  27.295  26.720  1.00  0.00     0.173 A 
ATOM     60  C   UNL A   1      47.213  27.758  24.606  1.00  0.00     0.173 A 
ATOM     61  F   UNL A   1      48.257  27.306  28.062  1.00  0.00    -0.203 F 
ATOM     62  C   UNL A   1      49.388  26.822  26.057  1.00  0.00     0.198 A 
ATOM     63  C   UNL A   1      48.332  27.255  23.946  1.00  0.00     0.198 A 
ATOM     64  F   UNL A   1      46.180  28.203  23.875  1.00  0.00    -0.203 F 
ATOM     65  F   UNL A   1      50.449  26.401  26.761  1.00  0.00    -0.200 F 
ATOM     66  C   UNL A   1      49.422  26.795  24.671  1.00  0.00     0.200 A 
ATOM     67  F   UNL A   1      48.356  27.214  22.606  1.00  0.00    -0.200 F 
ATOM     68  F   UNL A   1      50.505  26.328  24.035  1.00  0.00    -0.200 F 
ENDBRANCH  44  58
BRANCH  45  69
ATOM     69  C   UNL A   1      38.871  30.567  30.807  1.00  0.00     0.064 A 
ATOM     70  C   UNL A   1      38.765  30.511  32.204  1.00  0.00     0.173 A 
ATOM     71  C   UNL A   1      37.780  31.071  30.087  1.00  0.00     0.173 A 
ATOM     72  F   UNL A   1      39.778  30.019  32.932  1.00  0.00    -0.203 F 
ATOM     73  C   UNL A   1      37.611  30.941  32.856  1.00  0.00     0.198 A 
ATOM     74  C   UNL A   1      36.635  31.522  30.742  1.00  0.00     0.198 A 
ATOM     75  F   UNL A   1      37.837  31.152  28.750  1.00  0.00    -0.203 F 
ATOM     76  F   UNL A   1      37.527  30.853  34.190  1.00  0.00    -0.200 F 
ATOM     77  C   UNL A   1      36.550  31.453  32.125  1.00  0.00     0.200 A 
ATOM     78  F   UNL A   1      35.617  32.030  30.034  1.00  0.00    -0.200 F 
ATOM     79  F   UNL A   1      35.446  31.879  32.753  1.00  0.00    -0.200 F 
ENDBRANCH  45  69
BRANCH  57  80
ATOM     80  C   UNL A   1      44.725  33.880  28.966  1.00  0.00     0.064 A 
ATOM     81  C   UNL A   1      44.398  34.882  28.041  1.00  0.00     0.173 A 
ATOM     82  C   UNL A   1      45.447  34.248  30.111  1.00  0.00     0.173 A 
ATOM     83  F   UNL A   1      43.720  34.574  26.926  1.00  0.00    -0.203 F 
ATOM     84  C   UNL A   1      44.786  36.201  28.252  1.00  0.00     0.198 A 
ATOM     85  C   UNL A   1      45.814  35.572  30.329  1.00  0.00     0.198 A 
ATOM     86  F   UNL A   1      45.777  33.325  31.027  1.00  0.00    -0.203 F 
ATOM     87  F   UNL A   1      44.487  37.139  27.342  1.00  0.00    -0.200 F 
ATOM     88  C   UNL A   1      45.486  36.547  29.399  1.00  0.00     0.200 A 
ATOM     89  F   UNL A   1      46.478  35.907  31.444  1.00  0.00    -0.200 F 
ATOM     90  F   UNL A   1      45.846  37.821  29.607  1.00  0.00    -0.200 F 
ENDBRANCH  57  80
ENDBRANCH  31  32
ENDBRANCH  24  26
ENDBRANCH  23  24
ENDBRANCH   1  23
TORSDOF 13
ENDMDL
MODEL 3
REMARK VINA RESULT:     -12.4      0.288      1.675
REMARK SMILES COc1cc(C)cc2c1O[C@H](C(F)(F)F)C(C(=O)OCCOC(=O)c1ccc(-c3c4nc(c(-c5c(F)c(F)c(F)c(F)c5F)c5ccc([nH]5)c(-c5c(F)c(F)c(F)c(F)c5F)c5nc(c(-c6c(F)c(F)c(F)c(F)c6F)c6ccc3[nH]6)C=C5)C=C4)cc1)=C2
REMARK SMILES IDX 21 1 20 2 19 3 17 4 18 5 16 6 3 7 4 8 9 9 5 10 8 11 10 12
REMARK SMILES IDX 6 13 7 14 88 15 11 16 2 17 1 18 12 19 13 20 14 21 15 22
REMARK SMILES IDX 22 23 23 24 24 25 25 26 26 27 87 28 27 29 86 30 28 31 29 32
REMARK SMILES IDX 30 33 80 34 31 35 85 36 79 37 81 38 32 39 84 40 78 41 77 42
REMARK SMILES IDX 33 44 65 45 45 46 64 47 46 48 49 49 63 50 82 51 47 52 48 53
REMARK SMILES IDX 62 55 83 56 50 57 34 58 35 59 43 60 36 61 37 62 41 63 44 64
REMARK SMILES IDX 38 65 39 66 42 67 40 68 66 69 67 70 75 71 68 72 69 73 73 74
REMARK SMILES IDX 76 75 70 76 71 77 74 78 72 79 51 80 52 81 60 82 53 83 54 84
REMARK SMILES IDX 58 85 61 86 55 87 56 88 59 89 57 90
REMARK H PARENT 81 43 49 54
REMARK Flexibility Score: inf
ROOT
ATOM      1  C   UNL A   1      31.726  30.451  25.751  1.00  0.00     0.275 C 
ENDROOT
BRANCH   1   2
ATOM      2  C   UNL A   1      31.448  29.111  25.068  1.00  0.00     0.275 C 
BRANCH   2   3
ATOM      3  O   UNL A   1      32.358  28.086  25.524  1.00  0.00    -0.459 OA
BRANCH   3   4
ATOM      4  C   UNL A   1      31.812  27.130  26.310  1.00  0.00     0.338 C 
ATOM      5  O   UNL A   1      31.029  27.304  27.232  1.00  0.00    -0.246 OA
BRANCH   4   6
ATOM      6  C   UNL A   1      32.249  25.791  25.875  1.00  0.00     0.087 C 
ATOM      7  C   UNL A   1      33.625  22.164  24.303  1.00  0.00     0.161 A 
ATOM      8  C   UNL A   1      35.007  21.924  24.255  1.00  0.00     0.054 A 
ATOM      9  C   UNL A   1      33.139  23.354  24.859  1.00  0.00     0.169 A 
ATOM     10  C   UNL A   1      35.912  22.843  24.800  1.00  0.00    -0.047 A 
ATOM     11  C   UNL A   1      34.041  24.279  25.378  1.00  0.00     0.021 A 
ATOM     12  O   UNL A   1      31.782  23.543  24.894  1.00  0.00    -0.471 OA
ATOM     13  C   UNL A   1      37.394  22.610  24.758  1.00  0.00     0.044 C 
ATOM     14  C   UNL A   1      35.417  24.018  25.367  1.00  0.00     0.015 A 
ATOM     15  C   UNL A   1      33.562  25.540  25.899  1.00  0.00     0.027 C 
ATOM     16  C   UNL A   1      31.244  24.828  25.308  1.00  0.00     0.316 C 
BRANCH   7  17
ATOM     17  O   UNL A   1      32.700  21.311  23.755  1.00  0.00    -0.493 OA
ATOM     18  C   UNL A   1      32.529  20.089  24.463  1.00  0.00     0.278 C 
ENDBRANCH   7  17
BRANCH  16  19
ATOM     19  C   UNL A   1      30.485  25.450  24.124  1.00  0.00     0.430 C 
ATOM     20  F   UNL A   1      31.307  26.174  23.328  1.00  0.00    -0.167 F 
ATOM     21  F   UNL A   1      29.931  24.496  23.335  1.00  0.00    -0.167 F 
ATOM     22  F   UNL A   1      29.484  26.264  24.529  1.00  0.00    -0.167 F 
ENDBRANCH  16  19
ENDBRANCH   4   6
ENDBRANCH   3   4
ENDBRANCH   2   3
ENDBRANCH   1   2
BRANCH   1  23
ATOM     23  O   UNL A   1      32.692  30.279  26.804  1.00  0.00    -0.458 OA
BRANCH  23  24
ATOM     24  C   UNL A   1      33.307  31.405  27.227  1.00  0.00     0.338 C 
ATOM     25  O   UNL A   1      32.862  32.539  27.252  1.00  0.00    -0.246 OA
BRANCH  24  26
ATOM     26  C   UNL A   1      34.639  31.064  27.749  1.00  0.00     0.060 A 
ATOM     27  C   UNL A   1      35.576  32.049  28.039  1.00  0.00     0.016 A 
ATOM     28  C   UNL A   1      34.898  29.740  28.083  1.00  0.00     0.016 A 
ATOM     29  C   UNL A   1      36.781  31.684  28.653  1.00  0.00     0.010 A 
ATOM     30  C   UNL A   1      36.028  29.400  28.820  1.00  0.00     0.010 A 
ATOM     31  C   UNL A   1      37.007  30.360  29.086  1.00  0.00    -0.014 A 
BRANCH  31  32
ATOM     32  C   UNL A   1      38.259  29.981  29.807  1.00  0.00     0.031 A 
ATOM     33  C   UNL A   1      38.518  30.449  31.220  1.00  0.00     0.074 A 
ATOM     34  C   UNL A   1      39.192  29.241  29.177  1.00  0.00     0.049 A 
ATOM     35  N   UNL A   1      39.542  30.197  32.000  1.00  0.00    -0.248 NA
ATOM     36  C   UNL A   1      37.528  31.354  31.825  1.00  0.00     0.031 C 
ATOM     37  C   UNL A   1      39.130  28.813  27.778  1.00  0.00     0.029 A 
ATOM     38  N   UNL A   1      40.369  28.697  29.634  1.00  0.00    -0.354 N 
ATOM     39  C   UNL A   1      39.329  30.930  33.160  1.00  0.00     0.074 A 
ATOM     40  C   UNL A   1      38.119  31.695  32.960  1.00  0.00     0.031 C 
ATOM     41  C   UNL A   1      40.170  28.005  27.517  1.00  0.00     0.029 A 
ATOM     42  C   UNL A   1      40.990  27.885  28.717  1.00  0.00     0.049 A 
ATOM     43  H   UNL A   1      40.731  28.873  30.532  1.00  0.00     0.167 HD
ATOM     44  C   UNL A   1      40.047  30.936  34.309  1.00  0.00     0.037 A 
ATOM     45  C   UNL A   1      42.082  27.104  28.837  1.00  0.00     0.037 A 
ATOM     46  C   UNL A   1      41.207  30.119  34.542  1.00  0.00     0.049 A 
ATOM     47  C   UNL A   1      42.814  27.056  30.148  1.00  0.00     0.074 A 
ATOM     48  C   UNL A   1      41.949  29.984  35.703  1.00  0.00     0.029 A 
ATOM     49  N   UNL A   1      41.783  29.284  33.597  1.00  0.00    -0.354 N 
ATOM     50  N   UNL A   1      42.554  27.695  31.263  1.00  0.00    -0.248 NA
ATOM     51  C   UNL A   1      43.988  26.174  30.221  1.00  0.00     0.031 C 
ATOM     52  C   UNL A   1      42.988  29.084  35.454  1.00  0.00     0.029 A 
ATOM     53  C   UNL A   1      42.874  28.633  34.148  1.00  0.00     0.049 A 
ATOM     54  H   UNL A   1      41.464  29.171  32.673  1.00  0.00     0.167 HD
ATOM     55  C   UNL A   1      43.520  27.286  32.170  1.00  0.00     0.074 A 
ATOM     56  C   UNL A   1      44.362  26.327  31.484  1.00  0.00     0.031 C 
ATOM     57  C   UNL A   1      43.699  27.679  33.454  1.00  0.00     0.037 A 
BRANCH  44  58
ATOM     58  C   UNL A   1      39.570  31.821  35.427  1.00  0.00     0.064 A 
ATOM     59  C   UNL A   1      40.014  33.146  35.550  1.00  0.00     0.173 A 
ATOM     60  C   UNL A   1      38.621  31.358  36.352  1.00  0.00     0.173 A 
ATOM     61  F   UNL A   1      40.925  33.635  34.695  1.00  0.00    -0.203 F 
ATOM     62  C   UNL A   1      39.550  33.966  36.574  1.00  0.00     0.198 A 
ATOM     63  C   UNL A   1      38.137  32.193  37.358  1.00  0.00     0.198 A 
ATOM     64  F   UNL A   1      38.153  30.104  36.274  1.00  0.00    -0.203 F 
ATOM     65  F   UNL A   1      40.025  35.214  36.698  1.00  0.00    -0.200 F 
ATOM     66  C   UNL A   1      38.607  33.493  37.473  1.00  0.00     0.200 A 
ATOM     67  F   UNL A   1      37.212  31.738  38.216  1.00  0.00    -0.200 F 
ATOM     68  F   UNL A   1      38.153  34.288  38.451  1.00  0.00    -0.200 F 
ENDBRANCH  44  58
BRANCH  45  69
ATOM     69  C   UNL A   1      42.490  26.240  27.700  1.00  0.00     0.064 A 
ATOM     70  C   UNL A   1      41.880  24.993  27.502  1.00  0.00     0.173 A 
ATOM     71  C   UNL A   1      43.458  26.649  26.773  1.00  0.00     0.173 A 
ATOM     72  F   UNL A   1      40.961  24.553  28.374  1.00  0.00    -0.203 F 
ATOM     73  C   UNL A   1      42.225  24.186  26.421  1.00  0.00     0.198 A 
ATOM     74  C   UNL A   1      43.787  25.850  25.679  1.00  0.00     0.198 A 
ATOM     75  F   UNL A   1      44.064  27.836  26.916  1.00  0.00    -0.203 F 
ATOM     76  F   UNL A   1      41.644  22.988  26.270  1.00  0.00    -0.200 F 
ATOM     77  C   UNL A   1      43.173  24.619  25.506  1.00  0.00     0.200 A 
ATOM     78  F   UNL A   1      44.692  26.278  24.789  1.00  0.00    -0.200 F 
ATOM     79  F   UNL A   1      43.495  23.848  24.458  1.00  0.00    -0.200 F 
ENDBRANCH  45  69
BRANCH  57  80
ATOM     80  C   UNL A   1      44.840  27.073  34.213  1.00  0.00     0.064 A 
ATOM     81  C   UNL A   1      46.091  27.703  34.269  1.00  0.00     0.173 A 
ATOM     82  C   UNL A   1      44.660  25.895  34.953  1.00  0.00     0.173 A 
ATOM     83  F   UNL A   1      46.313  28.825  33.568  1.00  0.00    -0.203 F 
ATOM     84  C   UNL A   1      47.125  27.169  35.030  1.00  0.00     0.198 A 
ATOM     85  C   UNL A   1      45.690  25.376  35.732  1.00  0.00     0.198 A 
ATOM     86  F   UNL A   1      43.478  25.261  34.936  1.00  0.00    -0.203 F 
ATOM     87  F   UNL A   1      48.323  27.773  35.049  1.00  0.00    -0.200 F 
ATOM     88  C   UNL A   1      46.922  26.012  35.768  1.00  0.00     0.200 A 
ATOM     89  F   UNL A   1      45.487  24.266  36.455  1.00  0.00    -0.200 F 
ATOM     90  F   UNL A   1      47.915  25.508  36.514  1.00  0.00    -0.200 F 
ENDBRANCH  57  80
ENDBRANCH  31  32
ENDBRANCH  24  26
ENDBRANCH  23  24
ENDBRANCH   1  23
TORSDOF 13
ENDMDL
