MODEL 1
REMARK VINA RESULT:     -11.0      0.000      0.000
REMARK SMILES C[C@H](O)[C@@H](C)C1(C(=O)OCCOC(=O)c2ccc(-c3c4nc(c(-c5c(F)c(F)c(F)c(F)c5F)c5ccc([nH]5)c(-c5c(F)c(F)c(F)c(F)c5F)c5nc(c(-c6c(F)c(F)c(F)c(F)c6F)c6ccc3[nH]6)C=C5)C=C4)cc2)CCCCC1
REMARK SMILES IDX 10 1 9 2 7 3 8 4 6 5 78 6 82 7 79 8 81 9 80 10 4 11 5 12
REMARK SMILES IDX 2 13 1 14 3 15 11 17 12 18 13 19 14 20 15 21 16 22 77 23
REMARK SMILES IDX 17 24 76 25 18 26 19 27 20 28 70 29 21 30 75 31 69 32 71 33
REMARK SMILES IDX 22 34 74 35 68 36 67 37 23 39 55 40 35 41 54 42 36 43 39 44
REMARK SMILES IDX 53 45 72 46 37 47 38 48 52 50 73 51 40 52 24 53 25 54 33 55
REMARK SMILES IDX 26 56 27 57 31 58 34 59 28 60 29 61 32 62 30 63 56 64 57 65
REMARK SMILES IDX 65 66 58 67 59 68 63 69 66 70 60 71 61 72 64 73 62 74 41 75
REMARK SMILES IDX 42 76 50 77 43 78 44 79 48 80 51 81 45 82 46 83 49 84 47 85
REMARK H PARENT 3 16 71 38 39 49
REMARK Flexibility Score: inf
ROOT
ATOM      1  C   UNL A   1      31.527  28.687  27.336  1.00  0.00     0.274 C 
ENDROOT
BRANCH   1   2
ATOM      2  O   UNL A   1      32.219  27.512  26.858  1.00  0.00    -0.462 OA
BRANCH   2   3
ATOM      3  C   UNL A   1      31.460  26.558  26.257  1.00  0.00     0.312 C 
ATOM      4  O   UNL A   1      30.717  25.805  26.876  1.00  0.00    -0.252 OA
BRANCH   3   5
ATOM      5  C   UNL A   1      31.658  26.489  24.715  1.00  0.00     0.073 C 
ATOM      6  C   UNL A   1      31.442  25.004  24.314  1.00  0.00     0.019 C 
ATOM      7  C   UNL A   1      33.103  26.897  24.309  1.00  0.00     0.019 C 
ATOM      8  C   UNL A   1      32.537  24.074  24.846  1.00  0.00     0.001 C 
ATOM      9  C   UNL A   1      34.209  25.950  24.781  1.00  0.00     0.001 C 
ATOM     10  C   UNL A   1      33.920  24.510  24.384  1.00  0.00     0.000 C 
BRANCH   5  11
ATOM     11  C   UNL A   1      30.575  27.441  24.027  1.00  0.00     0.032 C 
ATOM     12  C   UNL A   1      29.239  26.713  23.738  1.00  0.00     0.011 C 
BRANCH  11  13
ATOM     13  C   UNL A   1      31.045  28.205  22.743  1.00  0.00     0.115 C 
ATOM     14  C   UNL A   1      30.163  29.400  22.370  1.00  0.00     0.038 C 
BRANCH  13  15
ATOM     15  O   UNL A   1      31.027  27.347  21.596  1.00  0.00    -0.393 OA
ATOM     16  H   UNL A   1      30.146  27.368  21.191  1.00  0.00     0.210 HD
ENDBRANCH  13  15
ENDBRANCH  11  13
ENDBRANCH   5  11
ENDBRANCH   3   5
ENDBRANCH   2   3
ENDBRANCH   1   2
BRANCH   1  17
ATOM     17  C   UNL A   1      31.680  29.813  26.322  1.00  0.00     0.275 C 
BRANCH  17  18
ATOM     18  O   UNL A   1      33.071  30.161  26.268  1.00  0.00    -0.458 OA
BRANCH  18  19
ATOM     19  C   UNL A   1      33.446  31.212  27.030  1.00  0.00     0.338 C 
ATOM     20  O   UNL A   1      32.829  32.237  27.251  1.00  0.00    -0.246 OA
BRANCH  19  21
ATOM     21  C   UNL A   1      34.759  30.913  27.627  1.00  0.00     0.060 A 
ATOM     22  C   UNL A   1      35.094  29.597  27.941  1.00  0.00     0.016 A 
ATOM     23  C   UNL A   1      35.613  31.958  27.973  1.00  0.00     0.016 A 
ATOM     24  C   UNL A   1      36.238  29.329  28.691  1.00  0.00     0.010 A 
ATOM     25  C   UNL A   1      36.815  31.673  28.628  1.00  0.00     0.010 A 
ATOM     26  C   UNL A   1      37.127  30.360  29.029  1.00  0.00    -0.014 A 
BRANCH  26  27
ATOM     27  C   UNL A   1      38.360  30.090  29.824  1.00  0.00     0.031 A 
ATOM     28  C   UNL A   1      39.464  29.244  29.242  1.00  0.00     0.074 A 
ATOM     29  C   UNL A   1      38.502  30.583  31.071  1.00  0.00     0.049 A 
ATOM     30  N   UNL A   1      40.483  28.684  29.841  1.00  0.00    -0.248 NA
ATOM     31  C   UNL A   1      39.402  28.982  27.795  1.00  0.00     0.031 C 
ATOM     32  C   UNL A   1      37.549  31.455  31.758  1.00  0.00     0.029 A 
ATOM     33  N   UNL A   1      39.516  30.420  31.985  1.00  0.00    -0.354 N 
ATOM     34  C   UNL A   1      41.135  27.940  28.866  1.00  0.00     0.074 A 
ATOM     35  C   UNL A   1      40.410  28.137  27.630  1.00  0.00     0.031 C 
ATOM     36  C   UNL A   1      38.040  31.786  32.962  1.00  0.00     0.029 A 
ATOM     37  C   UNL A   1      39.295  31.073  33.174  1.00  0.00     0.049 A 
ATOM     38  H   UNL A   1      40.324  29.887  31.805  1.00  0.00     0.167 HD
ATOM     39  C   UNL A   1      42.233  27.156  28.996  1.00  0.00     0.037 A 
ATOM     40  C   UNL A   1      39.992  31.062  34.326  1.00  0.00     0.037 A 
ATOM     41  C   UNL A   1      43.000  27.022  30.206  1.00  0.00     0.049 A 
ATOM     42  C   UNL A   1      41.214  30.195  34.443  1.00  0.00     0.074 A 
ATOM     43  C   UNL A   1      44.131  26.255  30.432  1.00  0.00     0.029 A 
ATOM     44  N   UNL A   1      42.733  27.697  31.387  1.00  0.00    -0.354 N 
ATOM     45  N   UNL A   1      41.763  29.416  33.544  1.00  0.00    -0.248 NA
ATOM     46  C   UNL A   1      41.892  30.180  35.746  1.00  0.00     0.031 C 
ATOM     47  C   UNL A   1      44.540  26.455  31.755  1.00  0.00     0.029 A 
ATOM     48  C   UNL A   1      43.678  27.366  32.344  1.00  0.00     0.049 A 
ATOM     49  H   UNL A   1      41.982  28.319  31.525  1.00  0.00     0.167 HD
ATOM     50  C   UNL A   1      42.844  28.816  34.171  1.00  0.00     0.074 A 
ATOM     51  C   UNL A   1      42.894  29.342  35.520  1.00  0.00     0.031 C 
ATOM     52  C   UNL A   1      43.711  27.899  33.679  1.00  0.00     0.037 A 
BRANCH  39  53
ATOM     53  C   UNL A   1      42.656  26.348  27.807  1.00  0.00     0.064 A 
ATOM     54  C   UNL A   1      43.648  26.791  26.923  1.00  0.00     0.173 A 
ATOM     55  C   UNL A   1      42.091  25.082  27.584  1.00  0.00     0.173 A 
ATOM     56  F   UNL A   1      44.205  28.001  27.086  1.00  0.00    -0.203 F 
ATOM     57  C   UNL A   1      44.052  26.000  25.850  1.00  0.00     0.198 A 
ATOM     58  C   UNL A   1      42.513  24.285  26.524  1.00  0.00     0.198 A 
ATOM     59  F   UNL A   1      41.140  24.612  28.406  1.00  0.00    -0.203 F 
ATOM     60  F   UNL A   1      44.983  26.455  24.999  1.00  0.00    -0.200 F 
ATOM     61  C   UNL A   1      43.492  24.746  25.656  1.00  0.00     0.200 A 
ATOM     62  F   UNL A   1      41.976  23.070  26.344  1.00  0.00    -0.200 F 
ATOM     63  F   UNL A   1      43.891  23.984  24.630  1.00  0.00    -0.200 F 
ENDBRANCH  39  53
BRANCH  40  64
ATOM     64  C   UNL A   1      39.518  31.863  35.483  1.00  0.00     0.064 A 
ATOM     65  C   UNL A   1      39.966  33.175  35.681  1.00  0.00     0.173 A 
ATOM     66  C   UNL A   1      38.607  31.336  36.410  1.00  0.00     0.173 A 
ATOM     67  F   UNL A   1      40.861  33.711  34.837  1.00  0.00    -0.203 F 
ATOM     68  C   UNL A   1      39.525  33.929  36.766  1.00  0.00     0.198 A 
ATOM     69  C   UNL A   1      38.145  32.100  37.479  1.00  0.00     0.198 A 
ATOM     70  F   UNL A   1      38.152  30.082  36.266  1.00  0.00    -0.203 F 
ATOM     71  F   UNL A   1      39.997  35.169  36.953  1.00  0.00    -0.200 F 
ATOM     72  C   UNL A   1      38.608  33.394  37.659  1.00  0.00     0.200 A 
ATOM     73  F   UNL A   1      37.250  31.583  38.332  1.00  0.00    -0.200 F 
ATOM     74  F   UNL A   1      38.178  34.123  38.698  1.00  0.00    -0.200 F 
ENDBRANCH  40  64
BRANCH  52  75
ATOM     75  C   UNL A   1      44.787  27.415  34.601  1.00  0.00     0.064 A 
ATOM     76  C   UNL A   1      44.603  26.275  35.397  1.00  0.00     0.173 A 
ATOM     77  C   UNL A   1      46.020  28.079  34.668  1.00  0.00     0.173 A 
ATOM     78  F   UNL A   1      43.433  25.618  35.376  1.00  0.00    -0.203 F 
ATOM     79  C   UNL A   1      45.613  25.827  36.243  1.00  0.00     0.198 A 
ATOM     80  C   UNL A   1      47.034  27.616  35.502  1.00  0.00     0.198 A 
ATOM     81  F   UNL A   1      46.240  29.171  33.924  1.00  0.00    -0.203 F 
ATOM     82  F   UNL A   1      45.405  24.756  37.022  1.00  0.00    -0.200 F 
ATOM     83  C   UNL A   1      46.827  26.494  36.292  1.00  0.00     0.200 A 
ATOM     84  F   UNL A   1      48.209  28.259  35.546  1.00  0.00    -0.200 F 
ATOM     85  F   UNL A   1      47.799  26.060  37.108  1.00  0.00    -0.200 F 
ENDBRANCH  52  75
ENDBRANCH  26  27
ENDBRANCH  19  21
ENDBRANCH  18  19
ENDBRANCH  17  18
ENDBRANCH   1  17
TORSDOF 14
ENDMDL
MODEL 2
REMARK VINA RESULT:     -11.0      0.889      1.687
REMARK SMILES C[C@H](O)[C@@H](C)C1(C(=O)OCCOC(=O)c2ccc(-c3c4nc(c(-c5c(F)c(F)c(F)c(F)c5F)c5ccc([nH]5)c(-c5c(F)c(F)c(F)c(F)c5F)c5nc(c(-c6c(F)c(F)c(F)c(F)c6F)c6ccc3[nH]6)C=C5)C=C4)cc2)CCCCC1
REMARK SMILES IDX 10 1 9 2 7 3 8 4 6 5 78 6 82 7 79 8 81 9 80 10 4 11 5 12
REMARK SMILES IDX 2 13 1 14 3 15 11 17 12 18 13 19 14 20 15 21 16 22 77 23
REMARK SMILES IDX 17 24 76 25 18 26 19 27 20 28 70 29 21 30 75 31 69 32 71 33
REMARK SMILES IDX 22 34 74 35 68 36 67 37 23 39 55 40 35 41 54 42 36 43 39 44
REMARK SMILES IDX 53 45 72 46 37 47 38 48 52 50 73 51 40 52 24 53 25 54 33 55
REMARK SMILES IDX 26 56 27 57 31 58 34 59 28 60 29 61 32 62 30 63 56 64 57 65
REMARK SMILES IDX 65 66 58 67 59 68 63 69 66 70 60 71 61 72 64 73 62 74 41 75
REMARK SMILES IDX 42 76 50 77 43 78 44 79 48 80 51 81 45 82 46 83 49 84 47 85
REMARK H PARENT 3 16 71 38 39 49
REMARK Flexibility Score: inf
ROOT
ATOM      1  C   UNL A   1      33.017  29.328  24.537  1.00  0.00     0.274 C 
ENDROOT
BRANCH   1   2
ATOM      2  O   UNL A   1      33.041  27.903  24.774  1.00  0.00    -0.462 OA
BRANCH   2   3
ATOM      3  C   UNL A   1      32.790  27.102  23.704  1.00  0.00     0.312 C 
ATOM      4  O   UNL A   1      33.219  27.335  22.580  1.00  0.00    -0.252 OA
BRANCH   3   5
ATOM      5  C   UNL A   1      31.874  25.889  24.039  1.00  0.00     0.073 C 
ATOM      6  C   UNL A   1      32.621  25.066  25.123  1.00  0.00     0.019 C 
ATOM      7  C   UNL A   1      31.662  24.978  22.797  1.00  0.00     0.019 C 
ATOM      8  C   UNL A   1      33.897  24.401  24.599  1.00  0.00     0.001 C 
ATOM      9  C   UNL A   1      32.914  24.257  22.290  1.00  0.00     0.001 C 
ATOM     10  C   UNL A   1      33.613  23.498  23.408  1.00  0.00     0.000 C 
BRANCH   5  11
ATOM     11  C   UNL A   1      30.482  26.449  24.589  1.00  0.00     0.032 C 
ATOM     12  C   UNL A   1      29.897  25.578  25.726  1.00  0.00     0.011 C 
BRANCH  11  13
ATOM     13  C   UNL A   1      29.376  26.722  23.514  1.00  0.00     0.115 C 
ATOM     14  C   UNL A   1      29.233  28.196  23.126  1.00  0.00     0.038 C 
BRANCH  13  15
ATOM     15  O   UNL A   1      28.085  26.327  23.991  1.00  0.00    -0.393 OA
ATOM     16  H   UNL A   1      27.431  26.436  23.283  1.00  0.00     0.210 HD
ENDBRANCH  13  15
ENDBRANCH  11  13
ENDBRANCH   5  11
ENDBRANCH   3   5
ENDBRANCH   2   3
ENDBRANCH   1   2
BRANCH   1  17
ATOM     17  C   UNL A   1      31.924  29.965  25.385  1.00  0.00     0.275 C 
BRANCH  17  18
ATOM     18  O   UNL A   1      32.415  30.053  26.731  1.00  0.00    -0.458 OA
BRANCH  18  19
ATOM     19  C   UNL A   1      32.993  31.225  27.073  1.00  0.00     0.338 C 
ATOM     20  O   UNL A   1      32.534  32.347  26.968  1.00  0.00    -0.246 OA
BRANCH  19  21
ATOM     21  C   UNL A   1      34.313  30.943  27.663  1.00  0.00     0.060 A 
ATOM     22  C   UNL A   1      34.665  29.631  27.977  1.00  0.00     0.016 A 
ATOM     23  C   UNL A   1      35.156  31.997  28.003  1.00  0.00     0.016 A 
ATOM     24  C   UNL A   1      35.816  29.377  28.720  1.00  0.00     0.010 A 
ATOM     25  C   UNL A   1      36.365  31.728  28.651  1.00  0.00     0.010 A 
ATOM     26  C   UNL A   1      36.694  30.419  29.052  1.00  0.00    -0.014 A 
BRANCH  26  27
ATOM     27  C   UNL A   1      37.934  30.164  29.842  1.00  0.00     0.031 A 
ATOM     28  C   UNL A   1      39.047  29.335  29.253  1.00  0.00     0.074 A 
ATOM     29  C   UNL A   1      38.076  30.657  31.088  1.00  0.00     0.049 A 
ATOM     30  N   UNL A   1      40.077  28.787  29.846  1.00  0.00    -0.248 NA
ATOM     31  C   UNL A   1      38.982  29.074  27.806  1.00  0.00     0.031 C 
ATOM     32  C   UNL A   1      37.114  31.515  31.782  1.00  0.00     0.029 A 
ATOM     33  N   UNL A   1      39.096  30.507  31.998  1.00  0.00    -0.354 N 
ATOM     34  C   UNL A   1      40.734  28.054  28.867  1.00  0.00     0.074 A 
ATOM     35  C   UNL A   1      40.001  28.243  27.634  1.00  0.00     0.031 C 
ATOM     36  C   UNL A   1      37.607  31.850  32.984  1.00  0.00     0.029 A 
ATOM     37  C   UNL A   1      38.872  31.154  33.188  1.00  0.00     0.049 A 
ATOM     38  H   UNL A   1      39.911  29.985  31.813  1.00  0.00     0.167 HD
ATOM     39  C   UNL A   1      41.843  27.284  28.990  1.00  0.00     0.037 A 
ATOM     40  C   UNL A   1      39.575  31.151  34.337  1.00  0.00     0.037 A 
ATOM     41  C   UNL A   1      42.618  27.159  30.196  1.00  0.00     0.049 A 
ATOM     42  C   UNL A   1      40.809  30.300  34.447  1.00  0.00     0.074 A 
ATOM     43  C   UNL A   1      43.760  26.408  30.415  1.00  0.00     0.029 A 
ATOM     44  N   UNL A   1      42.347  27.828  31.380  1.00  0.00    -0.354 N 
ATOM     45  N   UNL A   1      41.364  29.531  33.544  1.00  0.00    -0.248 NA
ATOM     46  C   UNL A   1      41.493  30.293  35.747  1.00  0.00     0.031 C 
ATOM     47  C   UNL A   1      44.172  26.611  31.737  1.00  0.00     0.029 A 
ATOM     48  C   UNL A   1      43.302  27.509  32.331  1.00  0.00     0.049 A 
ATOM     49  H   UNL A   1      41.588  28.440  31.522  1.00  0.00     0.167 HD
ATOM     50  C   UNL A   1      42.456  28.945  34.165  1.00  0.00     0.074 A 
ATOM     51  C   UNL A   1      42.506  29.469  35.514  1.00  0.00     0.031 C 
ATOM     52  C   UNL A   1      43.333  28.040  33.667  1.00  0.00     0.037 A 
BRANCH  39  53
ATOM     53  C   UNL A   1      42.271  26.485  27.797  1.00  0.00     0.064 A 
ATOM     54  C   UNL A   1      43.259  26.939  26.915  1.00  0.00     0.173 A 
ATOM     55  C   UNL A   1      41.716  25.215  27.570  1.00  0.00     0.173 A 
ATOM     56  F   UNL A   1      43.808  28.152  27.083  1.00  0.00    -0.203 F 
ATOM     57  C   UNL A   1      43.669  26.155  25.839  1.00  0.00     0.198 A 
ATOM     58  C   UNL A   1      42.143  24.426  26.507  1.00  0.00     0.198 A 
ATOM     59  F   UNL A   1      40.769  24.735  28.390  1.00  0.00    -0.203 F 
ATOM     60  F   UNL A   1      44.596  26.620  24.989  1.00  0.00    -0.200 F 
ATOM     61  C   UNL A   1      43.118  24.897  25.640  1.00  0.00     0.200 A 
ATOM     62  F   UNL A   1      41.615  23.208  26.322  1.00  0.00    -0.200 F 
ATOM     63  F   UNL A   1      43.522  24.142  24.610  1.00  0.00    -0.200 F 
ENDBRANCH  39  53
BRANCH  40  64
ATOM     64  C   UNL A   1      39.095  31.943  35.498  1.00  0.00     0.064 A 
ATOM     65  C   UNL A   1      38.286  31.359  36.481  1.00  0.00     0.173 A 
ATOM     66  C   UNL A   1      39.439  33.294  35.651  1.00  0.00     0.173 A 
ATOM     67  F   UNL A   1      37.907  30.078  36.362  1.00  0.00    -0.203 F 
ATOM     68  C   UNL A   1      37.832  32.099  37.571  1.00  0.00     0.198 A 
ATOM     69  C   UNL A   1      39.009  34.025  36.755  1.00  0.00     0.198 A 
ATOM     70  F   UNL A   1      40.209  33.899  34.734  1.00  0.00    -0.203 F 
ATOM     71  F   UNL A   1      37.029  31.528  38.478  1.00  0.00    -0.200 F 
ATOM     72  C   UNL A   1      38.202  33.429  37.712  1.00  0.00     0.200 A 
ATOM     73  F   UNL A   1      39.378  35.306  36.893  1.00  0.00    -0.200 F 
ATOM     74  F   UNL A   1      37.772  34.138  38.765  1.00  0.00    -0.200 F 
ENDBRANCH  40  64
BRANCH  52  75
ATOM     75  C   UNL A   1      44.420  27.569  34.584  1.00  0.00     0.064 A 
ATOM     76  C   UNL A   1      44.259  26.420  35.372  1.00  0.00     0.173 A 
ATOM     77  C   UNL A   1      45.641  28.255  34.652  1.00  0.00     0.173 A 
ATOM     78  F   UNL A   1      43.101  25.743  35.348  1.00  0.00    -0.203 F 
ATOM     79  C   UNL A   1      45.279  25.985  36.212  1.00  0.00     0.198 A 
ATOM     80  C   UNL A   1      46.665  27.805  35.481  1.00  0.00     0.198 A 
ATOM     81  F   UNL A   1      45.840  29.357  33.915  1.00  0.00    -0.203 F 
ATOM     82  F   UNL A   1      45.092  24.905  36.984  1.00  0.00    -0.200 F 
ATOM     83  C   UNL A   1      46.481  26.674  36.263  1.00  0.00     0.200 A 
ATOM     84  F   UNL A   1      47.828  28.468  35.526  1.00  0.00    -0.200 F 
ATOM     85  F   UNL A   1      47.462  26.252  37.073  1.00  0.00    -0.200 F 
ENDBRANCH  52  75
ENDBRANCH  26  27
ENDBRANCH  19  21
ENDBRANCH  18  19
ENDBRANCH  17  18
ENDBRANCH   1  17
TORSDOF 14
ENDMDL
MODEL 3
REMARK VINA RESULT:     -11.0      0.859      2.276
REMARK SMILES C[C@H](O)[C@@H](C)C1(C(=O)OCCOC(=O)c2ccc(-c3c4nc(c(-c5c(F)c(F)c(F)c(F)c5F)c5ccc([nH]5)c(-c5c(F)c(F)c(F)c(F)c5F)c5nc(c(-c6c(F)c(F)c(F)c(F)c6F)c6ccc3[nH]6)C=C5)C=C4)cc2)CCCCC1
REMARK SMILES IDX 10 1 9 2 7 3 8 4 6 5 78 6 82 7 79 8 81 9 80 10 4 11 5 12
REMARK SMILES IDX 2 13 1 14 3 15 11 17 12 18 13 19 14 20 15 21 16 22 77 23
REMARK SMILES IDX 17 24 76 25 18 26 19 27 20 28 70 29 21 30 75 31 69 32 71 33
REMARK SMILES IDX 22 34 74 35 68 36 67 37 23 39 55 40 35 41 54 42 36 43 39 44
REMARK SMILES IDX 53 45 72 46 37 47 38 48 52 50 73 51 40 52 24 53 25 54 33 55
REMARK SMILES IDX 26 56 27 57 31 58 34 59 28 60 29 61 32 62 30 63 56 64 57 65
REMARK SMILES IDX 65 66 58 67 59 68 63 69 66 70 60 71 61 72 64 73 62 74 41 75
REMARK SMILES IDX 42 76 50 77 43 78 44 79 48 80 51 81 45 82 46 83 49 84 47 85
REMARK H PARENT 3 16 71 38 39 49
REMARK Flexibility Score: inf
ROOT
ATOM      1  C   UNL A   1      31.795  28.600  26.985  1.00  0.00     0.274 C 
ENDROOT
BRANCH   1   2
ATOM      2  O   UNL A   1      31.695  27.434  26.137  1.00  0.00    -0.462 OA
BRANCH   2   3
ATOM      3  C   UNL A   1      32.858  26.802  25.828  1.00  0.00     0.312 C 
ATOM      4  O   UNL A   1      33.939  27.117  26.312  1.00  0.00    -0.252 OA
BRANCH   3   5
ATOM      5  C   UNL A   1      32.688  25.673  24.771  1.00  0.00     0.073 C 
ATOM      6  C   UNL A   1      31.495  24.803  25.251  1.00  0.00     0.019 C 
ATOM      7  C   UNL A   1      33.951  24.769  24.697  1.00  0.00     0.019 C 
ATOM      8  C   UNL A   1      31.797  24.029  26.538  1.00  0.00     0.001 C 
ATOM      9  C   UNL A   1      34.240  23.941  25.952  1.00  0.00     0.001 C 
ATOM     10  C   UNL A   1      33.022  23.139  26.386  1.00  0.00     0.000 C 
BRANCH   5  11
ATOM     11  C   UNL A   1      32.381  26.352  23.357  1.00  0.00     0.032 C 
ATOM     12  C   UNL A   1      31.642  25.400  22.386  1.00  0.00     0.011 C 
BRANCH  11  13
ATOM     13  C   UNL A   1      33.603  27.004  22.625  1.00  0.00     0.115 C 
ATOM     14  C   UNL A   1      33.651  28.531  22.728  1.00  0.00     0.038 C 
BRANCH  13  15
ATOM     15  O   UNL A   1      33.576  26.718  21.222  1.00  0.00    -0.393 OA
ATOM     16  H   UNL A   1      33.516  25.759  21.088  1.00  0.00     0.210 HD
ENDBRANCH  13  15
ENDBRANCH  11  13
ENDBRANCH   5  11
ENDBRANCH   3   5
ENDBRANCH   2   3
ENDBRANCH   1   2
BRANCH   1  17
ATOM     17  C   UNL A   1      31.764  29.856  26.125  1.00  0.00     0.275 C 
BRANCH  17  18
ATOM     18  O   UNL A   1      33.101  30.378  26.071  1.00  0.00    -0.458 OA
BRANCH  18  19
ATOM     19  C   UNL A   1      33.387  31.358  26.955  1.00  0.00     0.338 C 
ATOM     20  O   UNL A   1      32.704  32.318  27.259  1.00  0.00    -0.246 OA
BRANCH  19  21
ATOM     21  C   UNL A   1      34.694  31.067  27.570  1.00  0.00     0.060 A 
ATOM     22  C   UNL A   1      35.026  29.755  27.905  1.00  0.00     0.016 A 
ATOM     23  C   UNL A   1      35.545  32.116  27.910  1.00  0.00     0.016 A 
ATOM     24  C   UNL A   1      36.162  29.497  28.670  1.00  0.00     0.010 A 
ATOM     25  C   UNL A   1      36.740  31.840  28.580  1.00  0.00     0.010 A 
ATOM     26  C   UNL A   1      37.048  30.533  29.002  1.00  0.00    -0.014 A 
BRANCH  26  27
ATOM     27  C   UNL A   1      38.272  30.274  29.814  1.00  0.00     0.031 A 
ATOM     28  C   UNL A   1      39.388  29.433  29.249  1.00  0.00     0.074 A 
ATOM     29  C   UNL A   1      38.396  30.773  31.060  1.00  0.00     0.049 A 
ATOM     30  N   UNL A   1      40.404  28.881  29.863  1.00  0.00    -0.248 NA
ATOM     31  C   UNL A   1      39.346  29.164  27.802  1.00  0.00     0.031 C 
ATOM     32  C   UNL A   1      37.429  31.642  31.732  1.00  0.00     0.029 A 
ATOM     33  N   UNL A   1      39.400  30.620  31.987  1.00  0.00    -0.354 N 
ATOM     34  C   UNL A   1      41.072  28.137  28.899  1.00  0.00     0.074 A 
ATOM     35  C   UNL A   1      40.361  28.324  27.653  1.00  0.00     0.031 C 
ATOM     36  C   UNL A   1      37.904  31.981  32.940  1.00  0.00     0.029 A 
ATOM     37  C   UNL A   1      39.161  31.277  33.171  1.00  0.00     0.049 A 
ATOM     38  H   UNL A   1      40.214  30.091  31.819  1.00  0.00     0.167 HD
ATOM     39  C   UNL A   1      42.173  27.360  29.046  1.00  0.00     0.037 A 
ATOM     40  C   UNL A   1      39.844  31.275  34.331  1.00  0.00     0.037 A 
ATOM     41  C   UNL A   1      42.926  27.236  30.265  1.00  0.00     0.049 A 
ATOM     42  C   UNL A   1      41.069  30.416  34.466  1.00  0.00     0.074 A 
ATOM     43  C   UNL A   1      44.059  26.477  30.508  1.00  0.00     0.029 A 
ATOM     44  N   UNL A   1      42.641  27.914  31.440  1.00  0.00    -0.354 N 
ATOM     45  N   UNL A   1      41.634  29.637  33.577  1.00  0.00    -0.248 NA
ATOM     46  C   UNL A   1      41.732  30.411  35.778  1.00  0.00     0.031 C 
ATOM     47  C   UNL A   1      44.450  26.685  31.835  1.00  0.00     0.029 A 
ATOM     48  C   UNL A   1      43.576  27.593  32.409  1.00  0.00     0.049 A 
ATOM     49  H   UNL A   1      41.884  28.532  31.566  1.00  0.00     0.167 HD
ATOM     50  C   UNL A   1      42.711  29.046  34.220  1.00  0.00     0.074 A 
ATOM     51  C   UNL A   1      42.742  29.578  35.567  1.00  0.00     0.031 C 
ATOM     52  C   UNL A   1      43.589  28.132  33.743  1.00  0.00     0.037 A 
BRANCH  39  53
ATOM     53  C   UNL A   1      42.615  26.550  27.865  1.00  0.00     0.064 A 
ATOM     54  C   UNL A   1      42.110  25.268  27.612  1.00  0.00     0.173 A 
ATOM     55  C   UNL A   1      43.521  27.096  26.942  1.00  0.00     0.173 A 
ATOM     56  F   UNL A   1      41.254  24.699  28.474  1.00  0.00    -0.203 F 
ATOM     57  C   UNL A   1      42.506  24.556  26.483  1.00  0.00     0.198 A 
ATOM     58  C   UNL A   1      43.898  26.390  25.803  1.00  0.00     0.198 A 
ATOM     59  F   UNL A   1      44.030  28.322  27.139  1.00  0.00    -0.203 F 
ATOM     60  F   UNL A   1      42.034  23.319  26.274  1.00  0.00    -0.200 F 
ATOM     61  C   UNL A   1      43.393  25.119  25.576  1.00  0.00     0.200 A 
ATOM     62  F   UNL A   1      44.748  26.940  24.925  1.00  0.00    -0.200 F 
ATOM     63  F   UNL A   1      43.763  24.435  24.485  1.00  0.00    -0.200 F 
ENDBRANCH  39  53
BRANCH  40  64
ATOM     64  C   UNL A   1      39.351  32.077  35.479  1.00  0.00     0.064 A 
ATOM     65  C   UNL A   1      38.498  31.513  36.437  1.00  0.00     0.173 A 
ATOM     66  C   UNL A   1      39.724  33.418  35.645  1.00  0.00     0.173 A 
ATOM     67  F   UNL A   1      38.090  30.242  36.304  1.00  0.00    -0.203 F 
ATOM     68  C   UNL A   1      38.032  32.262  37.515  1.00  0.00     0.198 A 
ATOM     69  C   UNL A   1      39.280  34.159  36.738  1.00  0.00     0.198 A 
ATOM     70  F   UNL A   1      40.536  34.005  34.752  1.00  0.00    -0.203 F 
ATOM     71  F   UNL A   1      37.188  31.711  38.396  1.00  0.00    -0.200 F 
ATOM     72  C   UNL A   1      38.431  33.582  37.669  1.00  0.00     0.200 A 
ATOM     73  F   UNL A   1      39.678  35.430  36.889  1.00  0.00    -0.200 F 
ATOM     74  F   UNL A   1      37.989  34.300  38.710  1.00  0.00    -0.200 F 
ENDBRANCH  40  64
BRANCH  52  75
ATOM     75  C   UNL A   1      44.657  27.658  34.680  1.00  0.00     0.064 A 
ATOM     76  C   UNL A   1      45.884  28.331  34.783  1.00  0.00     0.173 A 
ATOM     77  C   UNL A   1      44.442  26.542  35.500  1.00  0.00     0.173 A 
ATOM     78  F   UNL A   1      46.138  29.394  34.006  1.00  0.00    -0.203 F 
ATOM     79  C   UNL A   1      46.865  27.890  35.665  1.00  0.00     0.198 A 
ATOM     80  C   UNL A   1      45.420  26.115  36.394  1.00  0.00     0.198 A 
ATOM     81  F   UNL A   1      43.284  25.870  35.436  1.00  0.00    -0.203 F 
ATOM     82  F   UNL A   1      48.044  28.526  35.723  1.00  0.00    -0.200 F 
ATOM     83  C   UNL A   1      46.632  26.786  36.472  1.00  0.00     0.200 A 
ATOM     84  F   UNL A   1      45.192  25.052  37.176  1.00  0.00    -0.200 F 
ATOM     85  F   UNL A   1      47.580  26.363  37.320  1.00  0.00    -0.200 F 
ENDBRANCH  52  75
ENDBRANCH  26  27
ENDBRANCH  19  21
ENDBRANCH  18  19
ENDBRANCH  17  18
ENDBRANCH   1  17
TORSDOF 14
ENDMDL
