MODEL 1
REMARK VINA RESULT:     -11.0      0.000      0.000
REMARK SMILES Cc1ccc(C(N)=O)c(NCc2ccc(C(=O)OCCOC(=O)c3ccc(-c4c5nc(c(-c6c(F)c(F)c(F)c(F)c6F)c6ccc([nH]6)c(-c6c(F)c(F)c(F)c(F)c6F)c6nc(c(-c7c(F)c(F)c(F)c(F)c7F)c7ccc4[nH]7)C=C6)C=C5)cc3)o2)n1
REMARK SMILES IDX 19 1 18 2 16 3 17 4 15 5 12 6 13 7 87 8 14 9 11 10 10 11
REMARK SMILES IDX 9 13 1 14 2 15 3 16 88 17 4 18 5 19 6 20 7 21 8 22 20 25
REMARK SMILES IDX 21 26 22 27 23 28 24 29 25 30 86 31 26 32 85 33 27 34 28 35
REMARK SMILES IDX 29 36 79 37 30 38 84 39 78 40 80 41 31 42 83 43 77 44 76 45
REMARK SMILES IDX 32 47 64 48 44 49 63 50 45 51 48 52 62 53 81 54 46 55 47 56
REMARK SMILES IDX 61 58 82 59 49 60 33 61 34 62 42 63 35 64 36 65 40 66 43 67
REMARK SMILES IDX 37 68 38 69 41 70 39 71 65 72 66 73 74 74 67 75 68 76 72 77
REMARK SMILES IDX 75 78 69 79 70 80 73 81 71 82 50 83 51 84 59 85 52 86 53 87
REMARK SMILES IDX 57 88 60 89 54 90 55 91 58 92 56 93
REMARK H PARENT 10 12 7 23 7 24 80 46 48 57
REMARK Flexibility Score: inf
ROOT
ATOM      1  C   UNL A   1      33.961  34.158  28.410  1.00  0.00     0.275 C 
ENDROOT
BRANCH   1   2
ATOM      2  O   UNL A   1      33.215  34.438  29.608  1.00  0.00    -0.456 OA
BRANCH   2   3
ATOM      3  C   UNL A   1      32.896  35.751  29.814  1.00  0.00     0.374 C 
ATOM      4  O   UNL A   1      32.274  36.443  29.017  1.00  0.00    -0.242 OA
BRANCH   3   5
ATOM      5  C   UNL A   1      33.299  36.161  31.139  1.00  0.00     0.211 A 
ATOM      6  C   UNL A   1      34.302  35.817  33.079  1.00  0.00     0.124 A 
ATOM      7  C   UNL A   1      33.957  37.153  33.050  1.00  0.00     0.048 A 
ATOM      8  O   UNL A   1      33.848  35.204  31.952  1.00  0.00    -0.452 OA
ATOM      9  C   UNL A   1      33.327  37.377  31.799  1.00  0.00     0.058 A 
BRANCH   6  10
ATOM     10  C   UNL A   1      35.083  34.952  34.012  1.00  0.00     0.190 C 
BRANCH  10  11
ATOM     11  N   UNL A   1      36.426  34.618  33.559  1.00  0.00    -0.362 N 
ATOM     12  H   UNL A   1      37.002  35.312  33.164  1.00  0.00     0.162 HD
BRANCH  11  13
ATOM     13  C   UNL A   1      36.890  33.314  33.684  1.00  0.00     0.139 A 
ATOM     14  C   UNL A   1      38.775  31.499  36.278  1.00  0.00     0.067 C 
ATOM     15  C   UNL A   1      38.037  31.750  34.998  1.00  0.00     0.040 A 
ATOM     16  C   UNL A   1      37.774  30.725  34.105  1.00  0.00     0.024 A 
ATOM     17  N   UNL A   1      37.618  33.020  34.787  1.00  0.00    -0.236 NA
ATOM     18  C   UNL A   1      37.057  31.024  32.953  1.00  0.00     0.019 A 
ATOM     19  C   UNL A   1      36.610  32.332  32.723  1.00  0.00     0.081 A 
BRANCH  19  20
ATOM     20  C   UNL A   1      35.864  32.577  31.459  1.00  0.00     0.252 C 
ATOM     21  N   UNL A   1      34.523  32.316  31.440  1.00  0.00    -0.365 N 
ATOM     22  O   UNL A   1      36.419  33.032  30.465  1.00  0.00    -0.269 OA
ATOM     23  H   UNL A   1      34.082  31.950  32.241  1.00  0.00     0.159 HD
ATOM     24  H   UNL A   1      33.998  32.493  30.626  1.00  0.00     0.159 HD
ENDBRANCH  19  20
ENDBRANCH  11  13
ENDBRANCH  10  11
ENDBRANCH   6  10
ENDBRANCH   3   5
ENDBRANCH   2   3
ENDBRANCH   1   2
BRANCH   1  25
ATOM     25  C   UNL A   1      33.566  32.807  27.801  1.00  0.00     0.275 C 
BRANCH  25  26
ATOM     26  O   UNL A   1      34.097  31.694  28.548  1.00  0.00    -0.458 OA
BRANCH  26  27
ATOM     27  C   UNL A   1      34.381  30.588  27.819  1.00  0.00     0.338 C 
ATOM     28  O   UNL A   1      33.694  30.091  26.944  1.00  0.00    -0.246 OA
BRANCH  27  29
ATOM     29  C   UNL A   1      35.743  30.112  28.131  1.00  0.00     0.060 A 
ATOM     30  C   UNL A   1      35.982  29.641  29.423  1.00  0.00     0.016 A 
ATOM     31  C   UNL A   1      36.785  30.182  27.203  1.00  0.00     0.016 A 
ATOM     32  C   UNL A   1      37.257  29.224  29.797  1.00  0.00     0.010 A 
ATOM     33  C   UNL A   1      38.071  29.775  27.583  1.00  0.00     0.010 A 
ATOM     34  C   UNL A   1      38.314  29.299  28.883  1.00  0.00    -0.014 A 
BRANCH  34  35
ATOM     35  C   UNL A   1      39.678  28.922  29.324  1.00  0.00     0.031 A 
ATOM     36  C   UNL A   1      40.415  29.789  30.303  1.00  0.00     0.074 A 
ATOM     37  C   UNL A   1      40.231  27.777  28.886  1.00  0.00     0.049 A 
ATOM     38  N   UNL A   1      41.615  29.637  30.804  1.00  0.00    -0.248 NA
ATOM     39  C   UNL A   1      39.706  30.982  30.785  1.00  0.00     0.031 C 
ATOM     40  C   UNL A   1      39.594  26.831  27.970  1.00  0.00     0.029 A 
ATOM     41  N   UNL A   1      41.452  27.213  29.158  1.00  0.00    -0.354 N 
ATOM     42  C   UNL A   1      41.808  30.716  31.654  1.00  0.00     0.074 A 
ATOM     43  C   UNL A   1      40.610  31.528  31.588  1.00  0.00     0.031 C 
ATOM     44  C   UNL A   1      40.430  25.801  27.757  1.00  0.00     0.029 A 
ATOM     45  C   UNL A   1      41.671  26.032  28.494  1.00  0.00     0.049 A 
ATOM     46  H   UNL A   1      42.108  27.617  29.770  1.00  0.00     0.167 HD
ATOM     47  C   UNL A   1      42.887  31.001  32.423  1.00  0.00     0.037 A 
ATOM     48  C   UNL A   1      42.757  25.235  28.471  1.00  0.00     0.037 A 
ATOM     49  C   UNL A   1      44.074  30.191  32.494  1.00  0.00     0.049 A 
ATOM     50  C   UNL A   1      43.962  25.606  29.290  1.00  0.00     0.074 A 
ATOM     51  C   UNL A   1      45.214  30.394  33.254  1.00  0.00     0.029 A 
ATOM     52  N   UNL A   1      44.277  29.023  31.775  1.00  0.00    -0.354 N 
ATOM     53  N   UNL A   1      44.135  26.627  30.094  1.00  0.00    -0.248 NA
ATOM     54  C   UNL A   1      45.128  24.714  29.195  1.00  0.00     0.031 C 
ATOM     55  C   UNL A   1      46.121  29.368  32.966  1.00  0.00     0.029 A 
ATOM     56  C   UNL A   1      45.531  28.505  32.057  1.00  0.00     0.049 A 
ATOM     57  H   UNL A   1      43.626  28.621  31.156  1.00  0.00     0.167 HD
ATOM     58  C   UNL A   1      45.415  26.491  30.614  1.00  0.00     0.074 A 
ATOM     59  C   UNL A   1      45.972  25.283  30.045  1.00  0.00     0.031 C 
ATOM     60  C   UNL A   1      46.069  27.299  31.483  1.00  0.00     0.037 A 
BRANCH  47  61
ATOM     61  C   UNL A   1      42.841  32.261  33.234  1.00  0.00     0.064 A 
ATOM     62  C   UNL A   1      42.378  32.265  34.558  1.00  0.00     0.173 A 
ATOM     63  C   UNL A   1      43.298  33.470  32.691  1.00  0.00     0.173 A 
ATOM     64  F   UNL A   1      41.916  31.135  35.116  1.00  0.00    -0.203 F 
ATOM     65  C   UNL A   1      42.357  33.441  35.304  1.00  0.00     0.198 A 
ATOM     66  C   UNL A   1      43.296  34.640  33.448  1.00  0.00     0.198 A 
ATOM     67  F   UNL A   1      43.753  33.516  31.431  1.00  0.00    -0.203 F 
ATOM     68  F   UNL A   1      41.876  33.432  36.554  1.00  0.00    -0.200 F 
ATOM     69  C   UNL A   1      42.821  34.625  34.750  1.00  0.00     0.200 A 
ATOM     70  F   UNL A   1      43.752  35.781  32.914  1.00  0.00    -0.200 F 
ATOM     71  F   UNL A   1      42.804  35.756  35.470  1.00  0.00    -0.200 F 
ENDBRANCH  47  61
BRANCH  48  72
ATOM     72  C   UNL A   1      42.757  24.012  27.629  1.00  0.00     0.064 A 
ATOM     73  C   UNL A   1      42.390  22.769  28.161  1.00  0.00     0.173 A 
ATOM     74  C   UNL A   1      43.129  24.063  26.278  1.00  0.00     0.173 A 
ATOM     75  F   UNL A   1      42.054  22.667  29.455  1.00  0.00    -0.203 F 
ATOM     76  C   UNL A   1      42.407  21.619  27.375  1.00  0.00     0.198 A 
ATOM     77  C   UNL A   1      43.122  22.918  25.487  1.00  0.00     0.198 A 
ATOM     78  F   UNL A   1      43.494  25.229  25.725  1.00  0.00    -0.203 F 
ATOM     79  F   UNL A   1      42.090  20.435  27.917  1.00  0.00    -0.200 F 
ATOM     80  C   UNL A   1      42.766  21.694  26.037  1.00  0.00     0.200 A 
ATOM     81  F   UNL A   1      43.463  22.995  24.194  1.00  0.00    -0.200 F 
ATOM     82  F   UNL A   1      42.780  20.589  25.281  1.00  0.00    -0.200 F 
ENDBRANCH  48  72
BRANCH  60  83
ATOM     83  C   UNL A   1      47.454  26.890  31.889  1.00  0.00     0.064 A 
ATOM     84  C   UNL A   1      47.671  25.982  32.934  1.00  0.00     0.173 A 
ATOM     85  C   UNL A   1      48.573  27.384  31.202  1.00  0.00     0.173 A 
ATOM     86  F   UNL A   1      46.633  25.494  33.632  1.00  0.00    -0.203 F 
ATOM     87  C   UNL A   1      48.962  25.595  33.289  1.00  0.00     0.198 A 
ATOM     88  C   UNL A   1      49.859  26.978  31.543  1.00  0.00     0.198 A 
ATOM     89  F   UNL A   1      48.416  28.253  30.192  1.00  0.00    -0.203 F 
ATOM     90  F   UNL A   1      49.149  24.754  34.316  1.00  0.00    -0.200 F 
ATOM     91  C   UNL A   1      50.053  26.089  32.589  1.00  0.00     0.200 A 
ATOM     92  F   UNL A   1      50.913  27.448  30.861  1.00  0.00    -0.200 F 
ATOM     93  F   UNL A   1      51.293  25.712  32.930  1.00  0.00    -0.200 F 
ENDBRANCH  60  83
ENDBRANCH  34  35
ENDBRANCH  27  29
ENDBRANCH  26  27
ENDBRANCH  25  26
ENDBRANCH   1  25
TORSDOF 15
ENDMDL
MODEL 2
REMARK VINA RESULT:     -10.9      4.524     11.755
REMARK SMILES Cc1ccc(C(N)=O)c(NCc2ccc(C(=O)OCCOC(=O)c3ccc(-c4c5nc(c(-c6c(F)c(F)c(F)c(F)c6F)c6ccc([nH]6)c(-c6c(F)c(F)c(F)c(F)c6F)c6nc(c(-c7c(F)c(F)c(F)c(F)c7F)c7ccc4[nH]7)C=C6)C=C5)cc3)o2)n1
REMARK SMILES IDX 19 1 18 2 16 3 17 4 15 5 12 6 13 7 87 8 14 9 11 10 10 11
REMARK SMILES IDX 9 13 1 14 2 15 3 16 88 17 4 18 5 19 6 20 7 21 8 22 20 25
REMARK SMILES IDX 21 26 22 27 23 28 24 29 25 30 86 31 26 32 85 33 27 34 28 35
REMARK SMILES IDX 29 36 79 37 30 38 84 39 78 40 80 41 31 42 83 43 77 44 76 45
REMARK SMILES IDX 32 47 64 48 44 49 63 50 45 51 48 52 62 53 81 54 46 55 47 56
REMARK SMILES IDX 61 58 82 59 49 60 33 61 34 62 42 63 35 64 36 65 40 66 43 67
REMARK SMILES IDX 37 68 38 69 41 70 39 71 65 72 66 73 74 74 67 75 68 76 72 77
REMARK SMILES IDX 75 78 69 79 70 80 73 81 71 82 50 83 51 84 59 85 52 86 53 87
REMARK SMILES IDX 57 88 60 89 54 90 55 91 58 92 56 93
REMARK H PARENT 10 12 7 23 7 24 80 46 48 57
REMARK Flexibility Score: inf
ROOT
ATOM      1  C   UNL A   1      41.395  20.204  26.792  1.00  0.00     0.275 C 
ENDROOT
BRANCH   1   2
ATOM      2  O   UNL A   1      42.069  19.917  25.553  1.00  0.00    -0.456 OA
BRANCH   2   3
ATOM      3  C   UNL A   1      42.947  18.871  25.586  1.00  0.00     0.374 C 
ATOM      4  O   UNL A   1      42.624  17.704  25.778  1.00  0.00    -0.242 OA
BRANCH   3   5
ATOM      5  C   UNL A   1      44.278  19.324  25.253  1.00  0.00     0.211 A 
ATOM      6  C   UNL A   1      45.732  20.889  24.684  1.00  0.00     0.124 A 
ATOM      7  C   UNL A   1      46.470  19.763  24.988  1.00  0.00     0.048 A 
ATOM      8  O   UNL A   1      44.404  20.605  24.783  1.00  0.00    -0.452 OA
ATOM      9  C   UNL A   1      45.538  18.764  25.369  1.00  0.00     0.058 A 
BRANCH   6  10
ATOM     10  C   UNL A   1      46.062  22.304  24.342  1.00  0.00     0.190 C 
BRANCH  10  11
ATOM     11  N   UNL A   1      46.177  23.200  25.483  1.00  0.00    -0.362 N 
ATOM     12  H   UNL A   1      46.643  22.905  26.299  1.00  0.00     0.162 HD
BRANCH  11  13
ATOM     13  C   UNL A   1      45.621  24.472  25.418  1.00  0.00     0.139 A 
ATOM     14  C   UNL A   1      46.956  27.815  24.631  1.00  0.00     0.067 C 
ATOM     15  C   UNL A   1      45.967  26.752  25.001  1.00  0.00     0.040 A 
ATOM     16  C   UNL A   1      44.621  27.038  25.148  1.00  0.00     0.024 A 
ATOM     17  N   UNL A   1      46.462  25.499  25.146  1.00  0.00    -0.236 NA
ATOM     18  C   UNL A   1      43.756  25.996  25.461  1.00  0.00     0.019 A 
ATOM     19  C   UNL A   1      44.250  24.693  25.608  1.00  0.00     0.081 A 
BRANCH  19  20
ATOM     20  C   UNL A   1      43.266  23.635  25.960  1.00  0.00     0.252 C 
ATOM     21  N   UNL A   1      42.653  22.960  24.943  1.00  0.00    -0.365 N 
ATOM     22  O   UNL A   1      43.027  23.344  27.127  1.00  0.00    -0.269 OA
ATOM     23  H   UNL A   1      42.848  23.197  24.007  1.00  0.00     0.159 HD
ATOM     24  H   UNL A   1      42.016  22.236  25.145  1.00  0.00     0.159 HD
ENDBRANCH  19  20
ENDBRANCH  11  13
ENDBRANCH  10  11
ENDBRANCH   6  10
ENDBRANCH   3   5
ENDBRANCH   2   3
ENDBRANCH   1   2
BRANCH   1  25
ATOM     25  C   UNL A   1      40.031  20.864  26.554  1.00  0.00     0.275 C 
BRANCH  25  26
ATOM     26  O   UNL A   1      40.156  22.209  26.047  1.00  0.00    -0.458 OA
BRANCH  26  27
ATOM     27  C   UNL A   1      39.034  22.963  26.123  1.00  0.00     0.338 C 
ATOM     28  O   UNL A   1      37.909  22.640  25.783  1.00  0.00    -0.246 OA
BRANCH  27  29
ATOM     29  C   UNL A   1      39.322  24.231  26.821  1.00  0.00     0.060 A 
ATOM     30  C   UNL A   1      40.046  25.201  26.125  1.00  0.00     0.016 A 
ATOM     31  C   UNL A   1      38.951  24.450  28.150  1.00  0.00     0.016 A 
ATOM     32  C   UNL A   1      40.396  26.399  26.742  1.00  0.00     0.010 A 
ATOM     33  C   UNL A   1      39.314  25.649  28.777  1.00  0.00     0.010 A 
ATOM     34  C   UNL A   1      40.043  26.628  28.077  1.00  0.00    -0.014 A 
BRANCH  34  35
ATOM     35  C   UNL A   1      40.489  27.876  28.739  1.00  0.00     0.031 A 
ATOM     36  C   UNL A   1      41.932  28.053  29.110  1.00  0.00     0.074 A 
ATOM     37  C   UNL A   1      39.609  28.870  28.958  1.00  0.00     0.049 A 
ATOM     38  N   UNL A   1      42.519  29.064  29.700  1.00  0.00    -0.248 NA
ATOM     39  C   UNL A   1      42.837  26.946  28.767  1.00  0.00     0.031 C 
ATOM     40  C   UNL A   1      38.191  28.833  28.599  1.00  0.00     0.029 A 
ATOM     41  N   UNL A   1      39.781  30.106  29.529  1.00  0.00    -0.354 N 
ATOM     42  C   UNL A   1      43.857  28.714  29.806  1.00  0.00     0.074 A 
ATOM     43  C   UNL A   1      43.996  27.390  29.237  1.00  0.00     0.031 C 
ATOM     44  C   UNL A   1      37.621  29.995  28.958  1.00  0.00     0.029 A 
ATOM     45  C   UNL A   1      38.625  30.842  29.600  1.00  0.00     0.049 A 
ATOM     46  H   UNL A   1      40.649  30.432  29.858  1.00  0.00     0.167 HD
ATOM     47  C   UNL A   1      44.878  29.436  30.328  1.00  0.00     0.037 A 
ATOM     48  C   UNL A   1      38.399  32.057  30.137  1.00  0.00     0.037 A 
ATOM     49  C   UNL A   1      44.742  30.755  30.887  1.00  0.00     0.049 A 
ATOM     50  C   UNL A   1      39.540  32.813  30.760  1.00  0.00     0.074 A 
ATOM     51  C   UNL A   1      45.722  31.569  31.430  1.00  0.00     0.029 A 
ATOM     52  N   UNL A   1      43.547  31.454  30.979  1.00  0.00    -0.354 N 
ATOM     53  N   UNL A   1      40.804  32.476  30.853  1.00  0.00    -0.248 NA
ATOM     54  C   UNL A   1      39.222  34.117  31.360  1.00  0.00     0.031 C 
ATOM     55  C   UNL A   1      45.113  32.745  31.883  1.00  0.00     0.029 A 
ATOM     56  C   UNL A   1      43.761  32.680  31.587  1.00  0.00     0.049 A 
ATOM     57  H   UNL A   1      42.676  31.127  30.659  1.00  0.00     0.167 HD
ATOM     58  C   UNL A   1      41.433  33.530  31.501  1.00  0.00     0.074 A 
ATOM     59  C   UNL A   1      40.416  34.525  31.768  1.00  0.00     0.031 C 
ATOM     60  C   UNL A   1      42.738  33.660  31.844  1.00  0.00     0.037 A 
BRANCH  47  61
ATOM     61  C   UNL A   1      46.235  28.800  30.341  1.00  0.00     0.064 A 
ATOM     62  C   UNL A   1      46.686  28.056  31.440  1.00  0.00     0.173 A 
ATOM     63  C   UNL A   1      47.079  28.908  29.226  1.00  0.00     0.173 A 
ATOM     64  F   UNL A   1      45.921  27.936  32.536  1.00  0.00    -0.203 F 
ATOM     65  C   UNL A   1      47.944  27.457  31.430  1.00  0.00     0.198 A 
ATOM     66  C   UNL A   1      48.327  28.291  29.211  1.00  0.00     0.198 A 
ATOM     67  F   UNL A   1      46.691  29.607  28.150  1.00  0.00    -0.203 F 
ATOM     68  F   UNL A   1      48.372  26.782  32.505  1.00  0.00    -0.200 F 
ATOM     69  C   UNL A   1      48.760  27.570  30.314  1.00  0.00     0.200 A 
ATOM     70  F   UNL A   1      49.111  28.394  28.129  1.00  0.00    -0.200 F 
ATOM     71  F   UNL A   1      49.969  26.991  30.304  1.00  0.00    -0.200 F 
ENDBRANCH  47  61
BRANCH  48  72
ATOM     72  C   UNL A   1      37.029  32.629  30.118  1.00  0.00     0.064 A 
ATOM     73  C   UNL A   1      36.578  33.392  29.033  1.00  0.00     0.173 A 
ATOM     74  C   UNL A   1      36.146  32.427  31.189  1.00  0.00     0.173 A 
ATOM     75  F   UNL A   1      37.397  33.635  27.999  1.00  0.00    -0.203 F 
ATOM     76  C   UNL A   1      35.299  33.942  29.025  1.00  0.00     0.198 A 
ATOM     77  C   UNL A   1      34.859  32.957  31.169  1.00  0.00     0.198 A 
ATOM     78  F   UNL A   1      36.534  31.708  32.253  1.00  0.00    -0.203 F 
ATOM     79  F   UNL A   1      34.905  34.702  27.993  1.00  0.00    -0.200 F 
ATOM     80  C   UNL A   1      34.437  33.719  30.089  1.00  0.00     0.200 A 
ATOM     81  F   UNL A   1      34.027  32.733  32.196  1.00  0.00    -0.200 F 
ATOM     82  F   UNL A   1      33.206  34.246  30.080  1.00  0.00    -0.200 F 
ENDBRANCH  48  72
BRANCH  60  83
ATOM     83  C   UNL A   1      43.144  34.931  32.528  1.00  0.00     0.064 A 
ATOM     84  C   UNL A   1      43.519  36.067  31.797  1.00  0.00     0.173 A 
ATOM     85  C   UNL A   1      43.121  35.026  33.928  1.00  0.00     0.173 A 
ATOM     86  F   UNL A   1      43.571  36.020  30.457  1.00  0.00    -0.203 F 
ATOM     87  C   UNL A   1      43.875  37.248  32.444  1.00  0.00     0.198 A 
ATOM     88  C   UNL A   1      43.455  36.214  34.570  1.00  0.00     0.198 A 
ATOM     89  F   UNL A   1      42.765  33.967  34.671  1.00  0.00    -0.203 F 
ATOM     90  F   UNL A   1      44.267  38.310  31.727  1.00  0.00    -0.200 F 
ATOM     91  C   UNL A   1      43.837  37.322  33.829  1.00  0.00     0.200 A 
ATOM     92  F   UNL A   1      43.410  36.287  35.908  1.00  0.00    -0.200 F 
ATOM     93  F   UNL A   1      44.176  38.461  34.448  1.00  0.00    -0.200 F 
ENDBRANCH  60  83
ENDBRANCH  34  35
ENDBRANCH  27  29
ENDBRANCH  26  27
ENDBRANCH  25  26
ENDBRANCH   1  25
TORSDOF 15
ENDMDL
MODEL 3
REMARK VINA RESULT:     -10.7      0.398      1.726
REMARK SMILES Cc1ccc(C(N)=O)c(NCc2ccc(C(=O)OCCOC(=O)c3ccc(-c4c5nc(c(-c6c(F)c(F)c(F)c(F)c6F)c6ccc([nH]6)c(-c6c(F)c(F)c(F)c(F)c6F)c6nc(c(-c7c(F)c(F)c(F)c(F)c7F)c7ccc4[nH]7)C=C6)C=C5)cc3)o2)n1
REMARK SMILES IDX 19 1 18 2 16 3 17 4 15 5 12 6 13 7 87 8 14 9 11 10 10 11
REMARK SMILES IDX 9 13 1 14 2 15 3 16 88 17 4 18 5 19 6 20 7 21 8 22 20 25
REMARK SMILES IDX 21 26 22 27 23 28 24 29 25 30 86 31 26 32 85 33 27 34 28 35
REMARK SMILES IDX 29 36 79 37 30 38 84 39 78 40 80 41 31 42 83 43 77 44 76 45
REMARK SMILES IDX 32 47 64 48 44 49 63 50 45 51 48 52 62 53 81 54 46 55 47 56
REMARK SMILES IDX 61 58 82 59 49 60 33 61 34 62 42 63 35 64 36 65 40 66 43 67
REMARK SMILES IDX 37 68 38 69 41 70 39 71 65 72 66 73 74 74 67 75 68 76 72 77
REMARK SMILES IDX 75 78 69 79 70 80 73 81 71 82 50 83 51 84 59 85 52 86 53 87
REMARK SMILES IDX 57 88 60 89 54 90 55 91 58 92 56 93
REMARK H PARENT 10 12 7 23 7 24 80 46 48 57
REMARK Flexibility Score: inf
ROOT
ATOM      1  C   UNL A   1      33.634  33.913  28.008  1.00  0.00     0.275 C 
ENDROOT
BRANCH   1   2
ATOM      2  O   UNL A   1      33.459  34.299  29.383  1.00  0.00    -0.456 OA
BRANCH   2   3
ATOM      3  C   UNL A   1      32.994  35.568  29.587  1.00  0.00     0.374 C 
ATOM      4  O   UNL A   1      32.317  36.194  28.779  1.00  0.00    -0.242 OA
BRANCH   3   5
ATOM      5  C   UNL A   1      33.321  36.012  30.922  1.00  0.00     0.211 A 
ATOM      6  C   UNL A   1      34.287  35.752  32.894  1.00  0.00     0.124 A 
ATOM      7  C   UNL A   1      33.839  37.056  32.848  1.00  0.00     0.048 A 
ATOM      8  O   UNL A   1      33.918  35.102  31.756  1.00  0.00    -0.452 OA
ATOM      9  C   UNL A   1      33.233  37.228  31.576  1.00  0.00     0.058 A 
BRANCH   6  10
ATOM     10  C   UNL A   1      35.103  34.952  33.855  1.00  0.00     0.190 C 
BRANCH  10  11
ATOM     11  N   UNL A   1      36.434  34.601  33.383  1.00  0.00    -0.362 N 
ATOM     12  H   UNL A   1      37.004  35.282  32.958  1.00  0.00     0.162 HD
BRANCH  11  13
ATOM     13  C   UNL A   1      36.896  33.298  33.533  1.00  0.00     0.139 A 
ATOM     14  C   UNL A   1      38.789  31.534  36.156  1.00  0.00     0.067 C 
ATOM     15  C   UNL A   1      38.046  31.759  34.875  1.00  0.00     0.040 A 
ATOM     16  C   UNL A   1      37.775  30.716  34.005  1.00  0.00     0.024 A 
ATOM     17  N   UNL A   1      37.629  33.026  34.639  1.00  0.00    -0.236 NA
ATOM     18  C   UNL A   1      37.053  30.993  32.850  1.00  0.00     0.019 A 
ATOM     19  C   UNL A   1      36.609  32.297  32.594  1.00  0.00     0.081 A 
BRANCH  19  20
ATOM     20  C   UNL A   1      35.857  32.517  31.330  1.00  0.00     0.252 C 
ATOM     21  N   UNL A   1      34.505  32.324  31.340  1.00  0.00    -0.365 N 
ATOM     22  O   UNL A   1      36.419  32.895  30.307  1.00  0.00    -0.269 OA
ATOM     23  H   UNL A   1      34.057  32.020  32.164  1.00  0.00     0.159 HD
ATOM     24  H   UNL A   1      33.977  32.487  30.525  1.00  0.00     0.159 HD
ENDBRANCH  19  20
ENDBRANCH  11  13
ENDBRANCH  10  11
ENDBRANCH   6  10
ENDBRANCH   3   5
ENDBRANCH   2   3
ENDBRANCH   1   2
BRANCH   1  25
ATOM     25  C   UNL A   1      33.290  32.435  27.787  1.00  0.00     0.275 C 
BRANCH  25  26
ATOM     26  O   UNL A   1      34.139  31.556  28.553  1.00  0.00    -0.458 OA
BRANCH  26  27
ATOM     27  C   UNL A   1      34.612  30.478  27.884  1.00  0.00     0.338 C 
ATOM     28  O   UNL A   1      34.101  29.931  26.921  1.00  0.00    -0.246 OA
BRANCH  27  29
ATOM     29  C   UNL A   1      35.946  30.109  28.396  1.00  0.00     0.060 A 
ATOM     30  C   UNL A   1      37.054  30.456  27.620  1.00  0.00     0.016 A 
ATOM     31  C   UNL A   1      36.114  29.383  29.577  1.00  0.00     0.016 A 
ATOM     32  C   UNL A   1      38.337  30.094  28.020  1.00  0.00     0.010 A 
ATOM     33  C   UNL A   1      37.404  29.006  29.975  1.00  0.00     0.010 A 
ATOM     34  C   UNL A   1      38.521  29.355  29.195  1.00  0.00    -0.014 A 
BRANCH  34  35
ATOM     35  C   UNL A   1      39.886  28.915  29.565  1.00  0.00     0.031 A 
ATOM     36  C   UNL A   1      40.711  29.742  30.507  1.00  0.00     0.074 A 
ATOM     37  C   UNL A   1      40.364  27.748  29.096  1.00  0.00     0.049 A 
ATOM     38  N   UNL A   1      41.927  29.534  30.946  1.00  0.00    -0.248 NA
ATOM     39  C   UNL A   1      40.082  30.964  31.028  1.00  0.00     0.031 C 
ATOM     40  C   UNL A   1      39.640  26.836  28.212  1.00  0.00     0.029 A 
ATOM     41  N   UNL A   1      41.571  27.128  29.305  1.00  0.00    -0.354 N 
ATOM     42  C   UNL A   1      42.211  30.600  31.788  1.00  0.00     0.074 A 
ATOM     43  C   UNL A   1      41.050  31.464  31.785  1.00  0.00     0.031 C 
ATOM     44  C   UNL A   1      40.416  25.771  27.954  1.00  0.00     0.029 A 
ATOM     45  C   UNL A   1      41.702  25.942  28.627  1.00  0.00     0.049 A 
ATOM     46  H   UNL A   1      42.275  27.499  29.884  1.00  0.00     0.167 HD
ATOM     47  C   UNL A   1      43.340  30.832  32.502  1.00  0.00     0.037 A 
ATOM     48  C   UNL A   1      42.748  25.097  28.547  1.00  0.00     0.037 A 
ATOM     49  C   UNL A   1      44.491  29.969  32.511  1.00  0.00     0.049 A 
ATOM     50  C   UNL A   1      44.009  25.409  29.305  1.00  0.00     0.074 A 
ATOM     51  C   UNL A   1      45.677  30.117  33.211  1.00  0.00     0.029 A 
ATOM     52  N   UNL A   1      44.604  28.796  31.779  1.00  0.00    -0.354 N 
ATOM     53  N   UNL A   1      44.269  26.417  30.102  1.00  0.00    -0.248 NA
ATOM     54  C   UNL A   1      45.127  24.466  29.148  1.00  0.00     0.031 C 
ATOM     55  C   UNL A   1      46.520  29.052  32.875  1.00  0.00     0.029 A 
ATOM     56  C   UNL A   1      45.846  28.220  31.996  1.00  0.00     0.049 A 
ATOM     57  H   UNL A   1      43.905  28.426  31.193  1.00  0.00     0.167 HD
ATOM     58  C   UNL A   1      45.566  26.221  30.555  1.00  0.00     0.074 A 
ATOM     59  C   UNL A   1      46.038  24.991  29.956  1.00  0.00     0.031 C 
ATOM     60  C   UNL A   1      46.299  26.994  31.392  1.00  0.00     0.037 A 
BRANCH  47  61
ATOM     61  C   UNL A   1      43.392  32.088  33.317  1.00  0.00     0.064 A 
ATOM     62  C   UNL A   1      43.928  33.277  32.801  1.00  0.00     0.173 A 
ATOM     63  C   UNL A   1      42.869  32.111  34.618  1.00  0.00     0.173 A 
ATOM     64  F   UNL A   1      44.454  33.301  31.567  1.00  0.00    -0.203 F 
ATOM     65  C   UNL A   1      43.955  34.440  33.566  1.00  0.00     0.198 A 
ATOM     66  C   UNL A   1      42.878  33.282  35.372  1.00  0.00     0.198 A 
ATOM     67  F   UNL A   1      42.343  31.000  35.155  1.00  0.00    -0.203 F 
ATOM     68  F   UNL A   1      44.505  35.556  33.068  1.00  0.00    -0.200 F 
ATOM     69  C   UNL A   1      43.425  34.443  34.848  1.00  0.00     0.200 A 
ATOM     70  F   UNL A   1      42.358  33.285  36.608  1.00  0.00    -0.200 F 
ATOM     71  F   UNL A   1      43.447  35.564  35.582  1.00  0.00    -0.200 F 
ENDBRANCH  47  61
BRANCH  48  72
ATOM     72  C   UNL A   1      42.650  23.879  27.703  1.00  0.00     0.064 A 
ATOM     73  C   UNL A   1      42.215  22.660  28.241  1.00  0.00     0.173 A 
ATOM     74  C   UNL A   1      42.994  23.910  26.344  1.00  0.00     0.173 A 
ATOM     75  F   UNL A   1      41.902  22.576  29.543  1.00  0.00    -0.203 F 
ATOM     76  C   UNL A   1      42.140  21.514  27.453  1.00  0.00     0.198 A 
ATOM     77  C   UNL A   1      42.896  22.770  25.552  1.00  0.00     0.198 A 
ATOM     78  F   UNL A   1      43.422  25.052  25.786  1.00  0.00    -0.203 F 
ATOM     79  F   UNL A   1      41.759  20.351  28.000  1.00  0.00    -0.200 F 
ATOM     80  C   UNL A   1      42.473  21.570  26.108  1.00  0.00     0.200 A 
ATOM     81  F   UNL A   1      43.212  22.829  24.251  1.00  0.00    -0.200 F 
ATOM     82  F   UNL A   1      42.398  20.469  25.350  1.00  0.00    -0.200 F 
ENDBRANCH  48  72
BRANCH  60  83
ATOM     83  C   UNL A   1      47.683  26.522  31.726  1.00  0.00     0.064 A 
ATOM     84  C   UNL A   1      48.804  26.989  31.025  1.00  0.00     0.173 A 
ATOM     85  C   UNL A   1      47.893  25.621  32.781  1.00  0.00     0.173 A 
ATOM     86  F   UNL A   1      48.652  27.838  29.997  1.00  0.00    -0.203 F 
ATOM     87  C   UNL A   1      50.086  26.556  31.357  1.00  0.00     0.198 A 
ATOM     88  C   UNL A   1      49.177  25.209  33.125  1.00  0.00     0.198 A 
ATOM     89  F   UNL A   1      46.852  25.149  33.483  1.00  0.00    -0.203 F 
ATOM     90  F   UNL A   1      51.140  26.986  30.649  1.00  0.00    -0.200 F 
ATOM     91  C   UNL A   1      50.271  25.672  32.410  1.00  0.00     0.200 A 
ATOM     92  F   UNL A   1      49.356  24.362  34.148  1.00  0.00    -0.200 F 
ATOM     93  F   UNL A   1      51.506  25.261  32.730  1.00  0.00    -0.200 F 
ENDBRANCH  60  83
ENDBRANCH  34  35
ENDBRANCH  27  29
ENDBRANCH  26  27
ENDBRANCH  25  26
ENDBRANCH   1  25
TORSDOF 15
ENDMDL
