MODEL 1
REMARK VINA RESULT:     -11.7      0.000      0.000
REMARK SMILES CCC[C@]1(C(=O)OCCOC(=O)c2ccc(-c3c4nc(c(-c5c(F)c(F)c(F)c(F)c5F)c5ccc([nH]5)c(-c5c(F)c(F)c(F)c(F)c5F)c5nc(c(-c6c(F)c(F)c(F)c(F)c6F)c6ccc3[nH]6)C=C5)C=C4)cc2)CCN(c2cncc(C(=O)OC)n2)C1
REMARK SMILES IDX 8 1 7 2 5 3 6 4 4 5 76 6 89 7 77 8 78 9 3 10 2 11 1 12 79 13
REMARK SMILES IDX 80 14 88 15 81 16 83 17 82 18 84 19 85 20 86 21 87 22 9 23
REMARK SMILES IDX 10 24 11 25 12 26 13 27 14 28 75 29 15 30 74 31 16 32 17 33
REMARK SMILES IDX 18 34 68 35 19 36 73 37 67 38 69 39 20 40 72 41 66 42 65 43
REMARK SMILES IDX 21 45 53 46 33 47 52 48 34 49 37 50 51 51 70 52 35 53 36 54
REMARK SMILES IDX 50 56 71 57 38 58 22 59 23 60 31 61 24 62 25 63 29 64 32 65
REMARK SMILES IDX 26 66 27 67 30 68 28 69 54 70 55 71 63 72 56 73 57 74 61 75
REMARK SMILES IDX 64 76 58 77 59 78 62 79 60 80 39 81 40 82 48 83 41 84 42 85
REMARK SMILES IDX 46 86 49 87 43 88 44 89 47 90 45 91
REMARK H PARENT 69 44 37 55
REMARK Flexibility Score: inf
ROOT
ATOM      1  C   UNL A   1      36.279  20.008  25.036  1.00  0.00     0.274 C 
ENDROOT
BRANCH   1   2
ATOM      2  O   UNL A   1      35.459  21.184  24.847  1.00  0.00    -0.462 OA
BRANCH   2   3
ATOM      3  C   UNL A   1      34.484  21.401  25.767  1.00  0.00     0.314 C 
ATOM      4  O   UNL A   1      34.702  21.515  26.970  1.00  0.00    -0.252 OA
BRANCH   3   5
ATOM      5  C   UNL A   1      33.059  21.414  25.183  1.00  0.00     0.087 C 
ATOM      6  C   UNL A   1      32.056  22.288  25.955  1.00  0.00     0.042 C 
ATOM      7  C   UNL A   1      33.215  22.181  23.830  1.00  0.00     0.137 C 
ATOM      8  C   UNL A   1      31.141  22.811  24.861  1.00  0.00     0.119 C 
ATOM      9  N   UNL A   1      32.078  23.101  23.796  1.00  0.00    -0.354 N 
BRANCH   5  10
ATOM     10  C   UNL A   1      32.600  19.932  24.961  1.00  0.00     0.020 C 
BRANCH  10  11
ATOM     11  C   UNL A   1      32.580  19.250  23.582  1.00  0.00    -0.002 C 
ATOM     12  C   UNL A   1      32.854  17.754  23.610  1.00  0.00     0.004 C 
ENDBRANCH  10  11
ENDBRANCH   5  10
BRANCH   9  13
ATOM     13  C   UNL A   1      32.163  24.275  23.089  1.00  0.00     0.148 A 
ATOM     14  C   UNL A   1      33.172  24.513  22.144  1.00  0.00     0.157 A 
ATOM     15  N   UNL A   1      31.222  25.228  23.293  1.00  0.00    -0.221 NA
ATOM     16  N   UNL A   1      33.298  25.641  21.401  1.00  0.00    -0.258 NA
ATOM     17  C   UNL A   1      31.348  26.383  22.575  1.00  0.00     0.169 A 
ATOM     18  C   UNL A   1      32.360  26.578  21.647  1.00  0.00     0.147 A 
BRANCH  17  19
ATOM     19  C   UNL A   1      30.403  27.508  22.791  1.00  0.00     0.358 C 
ATOM     20  O   UNL A   1      29.322  27.370  23.339  1.00  0.00    -0.244 OA
BRANCH  19  21
ATOM     21  O   UNL A   1      30.889  28.675  22.292  1.00  0.00    -0.464 OA
ATOM     22  C   UNL A   1      29.906  29.705  22.196  1.00  0.00     0.282 C 
ENDBRANCH  19  21
ENDBRANCH  17  19
ENDBRANCH   9  13
ENDBRANCH   3   5
ENDBRANCH   2   3
ENDBRANCH   1   2
BRANCH   1  23
ATOM     23  C   UNL A   1      37.744  20.267  24.679  1.00  0.00     0.275 C 
BRANCH  23  24
ATOM     24  O   UNL A   1      38.247  21.456  25.318  1.00  0.00    -0.458 OA
BRANCH  24  25
ATOM     25  C   UNL A   1      39.343  21.248  26.075  1.00  0.00     0.338 C 
ATOM     26  O   UNL A   1      40.082  20.275  26.061  1.00  0.00    -0.246 OA
BRANCH  25  27
ATOM     27  C   UNL A   1      39.652  22.413  26.912  1.00  0.00     0.060 A 
ATOM     28  C   UNL A   1      39.068  23.615  26.551  1.00  0.00     0.016 A 
ATOM     29  C   UNL A   1      40.744  22.399  27.773  1.00  0.00     0.016 A 
ATOM     30  C   UNL A   1      39.719  24.809  26.835  1.00  0.00     0.010 A 
ATOM     31  C   UNL A   1      41.283  23.614  28.216  1.00  0.00     0.010 A 
ATOM     32  C   UNL A   1      40.838  24.838  27.679  1.00  0.00    -0.014 A 
BRANCH  32  33
ATOM     33  C   UNL A   1      41.569  26.121  27.940  1.00  0.00     0.031 A 
ATOM     34  C   UNL A   1      40.931  27.213  28.772  1.00  0.00     0.074 A 
ATOM     35  C   UNL A   1      42.821  26.312  27.469  1.00  0.00     0.049 A 
ATOM     36  N   UNL A   1      41.304  28.459  28.941  1.00  0.00    -0.248 NA
ATOM     37  C   UNL A   1      39.695  26.866  29.491  1.00  0.00     0.031 C 
ATOM     38  C   UNL A   1      43.598  25.341  26.697  1.00  0.00     0.029 A 
ATOM     39  N   UNL A   1      43.669  27.388  27.580  1.00  0.00    -0.354 N 
ATOM     40  C   UNL A   1      40.313  29.057  29.714  1.00  0.00     0.074 A 
ATOM     41  C   UNL A   1      39.316  28.042  29.973  1.00  0.00     0.031 C 
ATOM     42  C   UNL A   1      44.821  25.832  26.465  1.00  0.00     0.029 A 
ATOM     43  C   UNL A   1      44.876  27.204  26.950  1.00  0.00     0.049 A 
ATOM     44  H   UNL A   1      43.435  28.213  28.066  1.00  0.00     0.167 HD
ATOM     45  C   UNL A   1      40.242  30.335  30.167  1.00  0.00     0.037 A 
ATOM     46  C   UNL A   1      45.897  28.053  26.726  1.00  0.00     0.037 A 
ATOM     47  C   UNL A   1      41.272  31.323  29.964  1.00  0.00     0.049 A 
ATOM     48  C   UNL A   1      45.780  29.471  27.208  1.00  0.00     0.074 A 
ATOM     49  C   UNL A   1      41.305  32.639  30.393  1.00  0.00     0.029 A 
ATOM     50  N   UNL A   1      42.464  31.096  29.290  1.00  0.00    -0.354 N 
ATOM     51  N   UNL A   1      44.808  30.043  27.875  1.00  0.00    -0.248 NA
ATOM     52  C   UNL A   1      46.900  30.365  26.889  1.00  0.00     0.031 C 
ATOM     53  C   UNL A   1      42.492  33.223  29.933  1.00  0.00     0.029 A 
ATOM     54  C   UNL A   1      43.231  32.251  29.278  1.00  0.00     0.049 A 
ATOM     55  H   UNL A   1      42.727  30.240  28.881  1.00  0.00     0.167 HD
ATOM     56  C   UNL A   1      45.207  31.357  28.076  1.00  0.00     0.074 A 
ATOM     57  C   UNL A   1      46.523  31.487  27.484  1.00  0.00     0.031 C 
ATOM     58  C   UNL A   1      44.542  32.367  28.690  1.00  0.00     0.037 A 
BRANCH  45  59
ATOM     59  C   UNL A   1      38.991  30.754  30.893  1.00  0.00     0.064 A 
ATOM     60  C   UNL A   1      38.873  30.694  32.290  1.00  0.00     0.173 A 
ATOM     61  C   UNL A   1      37.894  31.255  30.171  1.00  0.00     0.173 A 
ATOM     62  F   UNL A   1      39.883  30.215  33.032  1.00  0.00    -0.203 F 
ATOM     63  C   UNL A   1      37.696  31.079  32.931  1.00  0.00     0.198 A 
ATOM     64  C   UNL A   1      36.733  31.675  30.817  1.00  0.00     0.198 A 
ATOM     65  F   UNL A   1      37.949  31.347  28.834  1.00  0.00    -0.203 F 
ATOM     66  F   UNL A   1      37.587  30.953  34.261  1.00  0.00    -0.200 F 
ATOM     67  C   UNL A   1      36.631  31.576  32.195  1.00  0.00     0.200 A 
ATOM     68  F   UNL A   1      35.713  32.172  30.104  1.00  0.00    -0.200 F 
ATOM     69  F   UNL A   1      35.503  31.951  32.814  1.00  0.00    -0.200 F 
ENDBRANCH  45  59
BRANCH  46  70
ATOM     70  C   UNL A   1      47.094  27.598  25.965  1.00  0.00     0.064 A 
ATOM     71  C   UNL A   1      48.209  27.063  26.625  1.00  0.00     0.173 A 
ATOM     72  C   UNL A   1      47.150  27.693  24.566  1.00  0.00     0.173 A 
ATOM     73  F   UNL A   1      48.217  26.974  27.964  1.00  0.00    -0.203 F 
ATOM     74  C   UNL A   1      49.339  26.660  25.916  1.00  0.00     0.198 A 
ATOM     75  C   UNL A   1      48.264  27.251  23.856  1.00  0.00     0.198 A 
ATOM     76  F   UNL A   1      46.111  28.197  23.883  1.00  0.00    -0.203 F 
ATOM     77  F   UNL A   1      50.413  26.206  26.577  1.00  0.00    -0.200 F 
ATOM     78  C   UNL A   1      49.362  26.745  24.532  1.00  0.00     0.200 A 
ATOM     79  F   UNL A   1      48.271  27.316  22.518  1.00  0.00    -0.200 F 
ATOM     80  F   UNL A   1      50.445  26.349  23.852  1.00  0.00    -0.200 F 
ENDBRANCH  46  70
BRANCH  58  81
ATOM     81  C   UNL A   1      45.258  33.683  28.798  1.00  0.00     0.064 A 
ATOM     82  C   UNL A   1      46.095  33.987  29.883  1.00  0.00     0.173 A 
ATOM     83  C   UNL A   1      45.092  34.661  27.805  1.00  0.00     0.173 A 
ATOM     84  F   UNL A   1      46.276  33.093  30.868  1.00  0.00    -0.203 F 
ATOM     85  C   UNL A   1      46.698  35.237  29.995  1.00  0.00     0.198 A 
ATOM     86  C   UNL A   1      45.728  35.895  27.901  1.00  0.00     0.198 A 
ATOM     87  F   UNL A   1      44.310  34.420  26.742  1.00  0.00    -0.203 F 
ATOM     88  F   UNL A   1      47.429  35.532  31.079  1.00  0.00    -0.200 F 
ATOM     89  C   UNL A   1      46.517  36.188  29.002  1.00  0.00     0.200 A 
ATOM     90  F   UNL A   1      45.566  36.806  26.931  1.00  0.00    -0.200 F 
ATOM     91  F   UNL A   1      47.093  37.393  29.113  1.00  0.00    -0.200 F 
ENDBRANCH  58  81
ENDBRANCH  32  33
ENDBRANCH  25  27
ENDBRANCH  24  25
ENDBRANCH  23  24
ENDBRANCH   1  23
TORSDOF 16
ENDMDL
MODEL 2
REMARK VINA RESULT:     -11.6      4.215      9.898
REMARK SMILES CCC[C@]1(C(=O)OCCOC(=O)c2ccc(-c3c4nc(c(-c5c(F)c(F)c(F)c(F)c5F)c5ccc([nH]5)c(-c5c(F)c(F)c(F)c(F)c5F)c5nc(c(-c6c(F)c(F)c(F)c(F)c6F)c6ccc3[nH]6)C=C5)C=C4)cc2)CCN(c2cncc(C(=O)OC)n2)C1
REMARK SMILES IDX 8 1 7 2 5 3 6 4 4 5 76 6 89 7 77 8 78 9 3 10 2 11 1 12 79 13
REMARK SMILES IDX 80 14 88 15 81 16 83 17 82 18 84 19 85 20 86 21 87 22 9 23
REMARK SMILES IDX 10 24 11 25 12 26 13 27 14 28 75 29 15 30 74 31 16 32 17 33
REMARK SMILES IDX 18 34 68 35 19 36 73 37 67 38 69 39 20 40 72 41 66 42 65 43
REMARK SMILES IDX 21 45 53 46 33 47 52 48 34 49 37 50 51 51 70 52 35 53 36 54
REMARK SMILES IDX 50 56 71 57 38 58 22 59 23 60 31 61 24 62 25 63 29 64 32 65
REMARK SMILES IDX 26 66 27 67 30 68 28 69 54 70 55 71 63 72 56 73 57 74 61 75
REMARK SMILES IDX 64 76 58 77 59 78 62 79 60 80 39 81 40 82 48 83 41 84 42 85
REMARK SMILES IDX 46 86 49 87 43 88 44 89 47 90 45 91
REMARK H PARENT 69 44 37 55
REMARK Flexibility Score: inf
ROOT
ATOM      1  C   UNL A   1      31.474  28.766  25.863  1.00  0.00     0.274 C 
ENDROOT
BRANCH   1   2
ATOM      2  O   UNL A   1      32.422  27.681  25.748  1.00  0.00    -0.462 OA
BRANCH   2   3
ATOM      3  C   UNL A   1      31.908  26.424  25.707  1.00  0.00     0.314 C 
ATOM      4  O   UNL A   1      31.449  25.849  26.690  1.00  0.00    -0.252 OA
BRANCH   3   5
ATOM      5  C   UNL A   1      32.023  25.742  24.331  1.00  0.00     0.087 C 
ATOM      6  C   UNL A   1      33.357  25.984  23.603  1.00  0.00     0.042 C 
ATOM      7  C   UNL A   1      32.088  24.218  24.672  1.00  0.00     0.137 C 
ATOM      8  C   UNL A   1      33.580  24.684  22.850  1.00  0.00     0.119 C 
ATOM      9  N   UNL A   1      33.156  23.696  23.820  1.00  0.00    -0.354 N 
BRANCH   5  10
ATOM     10  C   UNL A   1      30.747  26.097  23.493  1.00  0.00     0.020 C 
BRANCH  10  11
ATOM     11  C   UNL A   1      30.718  27.204  22.425  1.00  0.00    -0.002 C 
ATOM     12  C   UNL A   1      29.775  28.357  22.732  1.00  0.00     0.004 C 
ENDBRANCH  10  11
ENDBRANCH   5  10
BRANCH   9  13
ATOM     13  C   UNL A   1      33.864  22.585  24.207  1.00  0.00     0.148 A 
ATOM     14  C   UNL A   1      35.230  22.635  24.523  1.00  0.00     0.157 A 
ATOM     15  N   UNL A   1      33.213  21.401  24.312  1.00  0.00    -0.221 NA
ATOM     16  N   UNL A   1      35.979  21.579  24.930  1.00  0.00    -0.258 NA
ATOM     17  C   UNL A   1      33.956  20.320  24.693  1.00  0.00     0.169 A 
ATOM     18  C   UNL A   1      35.305  20.413  25.000  1.00  0.00     0.147 A 
BRANCH  17  19
ATOM     19  C   UNL A   1      33.338  18.971  24.762  1.00  0.00     0.358 C 
ATOM     20  O   UNL A   1      32.166  18.793  25.051  1.00  0.00    -0.244 OA
BRANCH  19  21
ATOM     21  O   UNL A   1      34.238  17.992  24.484  1.00  0.00    -0.464 OA
ATOM     22  C   UNL A   1      33.873  17.188  23.363  1.00  0.00     0.282 C 
ENDBRANCH  19  21
ENDBRANCH  17  19
ENDBRANCH   9  13
ENDBRANCH   3   5
ENDBRANCH   2   3
ENDBRANCH   1   2
BRANCH   1  23
ATOM     23  C   UNL A   1      32.168  30.121  26.014  1.00  0.00     0.275 C 
BRANCH  23  24
ATOM     24  O   UNL A   1      32.696  30.305  27.341  1.00  0.00    -0.458 OA
BRANCH  24  25
ATOM     25  C   UNL A   1      33.413  31.437  27.493  1.00  0.00     0.338 C 
ATOM     26  O   UNL A   1      32.987  32.578  27.594  1.00  0.00    -0.246 OA
BRANCH  25  27
ATOM     27  C   UNL A   1      34.846  31.156  27.629  1.00  0.00     0.060 A 
ATOM     28  C   UNL A   1      35.212  29.829  27.776  1.00  0.00     0.016 A 
ATOM     29  C   UNL A   1      35.739  32.167  27.969  1.00  0.00     0.016 A 
ATOM     30  C   UNL A   1      36.357  29.506  28.494  1.00  0.00     0.010 A 
ATOM     31  C   UNL A   1      36.982  31.828  28.520  1.00  0.00     0.010 A 
ATOM     32  C   UNL A   1      37.271  30.497  28.878  1.00  0.00    -0.014 A 
BRANCH  32  33
ATOM     33  C   UNL A   1      38.477  30.150  29.699  1.00  0.00     0.031 A 
ATOM     34  C   UNL A   1      39.563  29.259  29.132  1.00  0.00     0.074 A 
ATOM     35  C   UNL A   1      38.636  30.653  30.942  1.00  0.00     0.049 A 
ATOM     36  N   UNL A   1      40.570  28.680  29.741  1.00  0.00    -0.248 NA
ATOM     37  C   UNL A   1      39.493  28.957  27.694  1.00  0.00     0.031 C 
ATOM     38  C   UNL A   1      37.711  31.567  31.615  1.00  0.00     0.029 A 
ATOM     39  N   UNL A   1      39.641  30.475  31.864  1.00  0.00    -0.354 N 
ATOM     40  C   UNL A   1      41.199  27.892  28.782  1.00  0.00     0.074 A 
ATOM     41  C   UNL A   1      40.455  28.056  27.553  1.00  0.00     0.031 C 
ATOM     42  C   UNL A   1      38.219  31.922  32.802  1.00  0.00     0.029 A 
ATOM     43  C   UNL A   1      39.437  31.160  33.038  1.00  0.00     0.049 A 
ATOM     44  H   UNL A   1      40.431  29.912  31.698  1.00  0.00     0.167 HD
ATOM     45  C   UNL A   1      42.297  27.105  28.914  1.00  0.00     0.037 A 
ATOM     46  C   UNL A   1      40.112  31.139  34.203  1.00  0.00     0.037 A 
ATOM     47  C   UNL A   1      43.076  27.000  30.123  1.00  0.00     0.049 A 
ATOM     48  C   UNL A   1      41.303  30.235  34.335  1.00  0.00     0.074 A 
ATOM     49  C   UNL A   1      44.212  26.244  30.358  1.00  0.00     0.029 A 
ATOM     50  N   UNL A   1      42.810  27.690  31.298  1.00  0.00    -0.354 N 
ATOM     51  N   UNL A   1      41.845  29.440  33.445  1.00  0.00    -0.248 NA
ATOM     52  C   UNL A   1      41.967  30.213  35.645  1.00  0.00     0.031 C 
ATOM     53  C   UNL A   1      44.601  26.435  31.689  1.00  0.00     0.029 A 
ATOM     54  C   UNL A   1      43.750  27.365  32.264  1.00  0.00     0.049 A 
ATOM     55  H   UNL A   1      42.063  28.318  31.426  1.00  0.00     0.167 HD
ATOM     56  C   UNL A   1      42.926  28.842  34.077  1.00  0.00     0.074 A 
ATOM     57  C   UNL A   1      42.978  29.388  35.418  1.00  0.00     0.031 C 
ATOM     58  C   UNL A   1      43.794  27.919  33.593  1.00  0.00     0.037 A 
BRANCH  45  59
ATOM     59  C   UNL A   1      42.702  26.261  27.735  1.00  0.00     0.064 A 
ATOM     60  C   UNL A   1      43.694  26.660  26.826  1.00  0.00     0.173 A 
ATOM     61  C   UNL A   1      42.101  25.008  27.528  1.00  0.00     0.173 A 
ATOM     62  F   UNL A   1      44.297  27.851  26.966  1.00  0.00    -0.203 F 
ATOM     63  C   UNL A   1      44.038  25.860  25.737  1.00  0.00     0.198 A 
ATOM     64  C   UNL A   1      42.473  24.193  26.461  1.00  0.00     0.198 A 
ATOM     65  F   UNL A   1      41.153  24.565  28.369  1.00  0.00    -0.203 F 
ATOM     66  F   UNL A   1      44.943  26.293  24.849  1.00  0.00    -0.200 F 
ATOM     67  C   UNL A   1      43.433  24.625  25.560  1.00  0.00     0.200 A 
ATOM     68  F   UNL A   1      41.899  22.992  26.304  1.00  0.00    -0.200 F 
ATOM     69  F   UNL A   1      43.770  23.855  24.516  1.00  0.00    -0.200 F 
ENDBRANCH  45  59
BRANCH  46  70
ATOM     70  C   UNL A   1      39.643  31.962  35.352  1.00  0.00     0.064 A 
ATOM     71  C   UNL A   1      38.685  31.471  36.251  1.00  0.00     0.173 A 
ATOM     72  C   UNL A   1      40.136  33.257  35.573  1.00  0.00     0.173 A 
ATOM     73  F   UNL A   1      38.162  30.248  36.071  1.00  0.00    -0.203 F 
ATOM     74  C   UNL A   1      38.227  32.249  37.312  1.00  0.00     0.198 A 
ATOM     75  C   UNL A   1      39.708  34.019  36.659  1.00  0.00     0.198 A 
ATOM     76  F   UNL A   1      41.054  33.778  34.745  1.00  0.00    -0.203 F 
ATOM     77  F   UNL A   1      37.270  31.776  38.121  1.00  0.00    -0.200 F 
ATOM     78  C   UNL A   1      38.746  33.519  37.520  1.00  0.00     0.200 A 
ATOM     79  F   UNL A   1      40.229  35.235  36.867  1.00  0.00    -0.200 F 
ATOM     80  F   UNL A   1      38.311  34.263  38.546  1.00  0.00    -0.200 F 
ENDBRANCH  46  70
BRANCH  58  81
ATOM     81  C   UNL A   1      44.906  27.490  34.508  1.00  0.00     0.064 A 
ATOM     82  C   UNL A   1      46.134  28.167  34.555  1.00  0.00     0.173 A 
ATOM     83  C   UNL A   1      44.743  26.371  35.340  1.00  0.00     0.173 A 
ATOM     84  F   UNL A   1      46.347  29.233  33.768  1.00  0.00    -0.203 F 
ATOM     85  C   UNL A   1      47.172  27.713  35.364  1.00  0.00     0.198 A 
ATOM     86  C   UNL A   1      45.770  25.944  36.177  1.00  0.00     0.198 A 
ATOM     87  F   UNL A   1      43.587  25.691  35.342  1.00  0.00    -0.203 F 
ATOM     88  F   UNL A   1      48.362  28.330  35.333  1.00  0.00    -0.200 F 
ATOM     89  C   UNL A   1      46.988  26.605  36.176  1.00  0.00     0.200 A 
ATOM     90  F   UNL A   1      45.584  24.883  36.974  1.00  0.00    -0.200 F 
ATOM     91  F   UNL A   1      47.990  26.165  36.950  1.00  0.00    -0.200 F 
ENDBRANCH  58  81
ENDBRANCH  32  33
ENDBRANCH  25  27
ENDBRANCH  24  25
ENDBRANCH  23  24
ENDBRANCH   1  23
TORSDOF 16
ENDMDL
MODEL 3
REMARK VINA RESULT:     -11.6      2.059      8.371
REMARK SMILES CCC[C@]1(C(=O)OCCOC(=O)c2ccc(-c3c4nc(c(-c5c(F)c(F)c(F)c(F)c5F)c5ccc([nH]5)c(-c5c(F)c(F)c(F)c(F)c5F)c5nc(c(-c6c(F)c(F)c(F)c(F)c6F)c6ccc3[nH]6)C=C5)C=C4)cc2)CCN(c2cncc(C(=O)OC)n2)C1
REMARK SMILES IDX 8 1 7 2 5 3 6 4 4 5 76 6 89 7 77 8 78 9 3 10 2 11 1 12 79 13
REMARK SMILES IDX 80 14 88 15 81 16 83 17 82 18 84 19 85 20 86 21 87 22 9 23
REMARK SMILES IDX 10 24 11 25 12 26 13 27 14 28 75 29 15 30 74 31 16 32 17 33
REMARK SMILES IDX 18 34 68 35 19 36 73 37 67 38 69 39 20 40 72 41 66 42 65 43
REMARK SMILES IDX 21 45 53 46 33 47 52 48 34 49 37 50 51 51 70 52 35 53 36 54
REMARK SMILES IDX 50 56 71 57 38 58 22 59 23 60 31 61 24 62 25 63 29 64 32 65
REMARK SMILES IDX 26 66 27 67 30 68 28 69 54 70 55 71 63 72 56 73 57 74 61 75
REMARK SMILES IDX 64 76 58 77 59 78 62 79 60 80 39 81 40 82 48 83 41 84 42 85
REMARK SMILES IDX 46 86 49 87 43 88 44 89 47 90 45 91
REMARK H PARENT 69 44 37 55
REMARK Flexibility Score: inf
ROOT
ATOM      1  C   UNL A   1      37.646  21.057  24.845  1.00  0.00     0.274 C 
ENDROOT
BRANCH   1   2
ATOM      2  O   UNL A   1      36.668  21.398  25.852  1.00  0.00    -0.462 OA
BRANCH   2   3
ATOM      3  C   UNL A   1      36.019  22.582  25.698  1.00  0.00     0.314 C 
ATOM      4  O   UNL A   1      36.567  23.674  25.815  1.00  0.00    -0.252 OA
BRANCH   3   5
ATOM      5  C   UNL A   1      34.507  22.441  25.440  1.00  0.00     0.087 C 
ATOM      6  C   UNL A   1      34.084  22.634  23.974  1.00  0.00     0.042 C 
ATOM      7  C   UNL A   1      34.224  20.925  25.685  1.00  0.00     0.137 C 
ATOM      8  C   UNL A   1      32.908  21.684  23.826  1.00  0.00     0.119 C 
ATOM      9  N   UNL A   1      33.356  20.529  24.575  1.00  0.00    -0.354 N 
BRANCH   5  10
ATOM     10  C   UNL A   1      33.743  23.349  26.465  1.00  0.00     0.020 C 
BRANCH  10  11
ATOM     11  C   UNL A   1      32.997  24.634  26.065  1.00  0.00    -0.002 C 
ATOM     12  C   UNL A   1      33.895  25.772  25.605  1.00  0.00     0.004 C 
ENDBRANCH  10  11
ENDBRANCH   5  10
BRANCH   9  13
ATOM     13  C   UNL A   1      33.348  19.227  24.138  1.00  0.00     0.148 A 
ATOM     14  C   UNL A   1      32.685  18.830  22.968  1.00  0.00     0.157 A 
ATOM     15  N   UNL A   1      34.029  18.297  24.851  1.00  0.00    -0.221 NA
ATOM     16  N   UNL A   1      32.657  17.566  22.474  1.00  0.00    -0.258 NA
ATOM     17  C   UNL A   1      33.989  17.013  24.385  1.00  0.00     0.169 A 
ATOM     18  C   UNL A   1      33.323  16.662  23.221  1.00  0.00     0.147 A 
BRANCH  17  19
ATOM     19  C   UNL A   1      34.645  15.919  25.145  1.00  0.00     0.358 C 
ATOM     20  O   UNL A   1      35.775  16.010  25.597  1.00  0.00    -0.244 OA
BRANCH  19  21
ATOM     21  O   UNL A   1      33.843  14.827  25.248  1.00  0.00    -0.464 OA
ATOM     22  C   UNL A   1      32.625  15.082  25.947  1.00  0.00     0.282 C 
ENDBRANCH  19  21
ENDBRANCH  17  19
ENDBRANCH   9  13
ENDBRANCH   3   5
ENDBRANCH   2   3
ENDBRANCH   1   2
BRANCH   1  23
ATOM     23  C   UNL A   1      38.778  20.198  25.411  1.00  0.00     0.275 C 
BRANCH  23  24
ATOM     24  O   UNL A   1      39.960  20.978  25.671  1.00  0.00    -0.458 OA
BRANCH  24  25
ATOM     25  C   UNL A   1      40.456  20.821  26.916  1.00  0.00     0.338 C 
ATOM     26  O   UNL A   1      40.839  19.785  27.438  1.00  0.00    -0.246 OA
BRANCH  25  27
ATOM     27  C   UNL A   1      40.595  22.107  27.609  1.00  0.00     0.060 A 
ATOM     28  C   UNL A   1      39.776  23.139  27.183  1.00  0.00     0.016 A 
ATOM     29  C   UNL A   1      41.725  22.382  28.373  1.00  0.00     0.016 A 
ATOM     30  C   UNL A   1      40.211  24.454  27.297  1.00  0.00     0.010 A 
ATOM     31  C   UNL A   1      42.056  23.715  28.651  1.00  0.00     0.010 A 
ATOM     32  C   UNL A   1      41.357  24.774  28.038  1.00  0.00    -0.014 A 
BRANCH  32  33
ATOM     33  C   UNL A   1      41.851  26.187  28.113  1.00  0.00     0.031 A 
ATOM     34  C   UNL A   1      43.159  26.580  27.457  1.00  0.00     0.074 A 
ATOM     35  C   UNL A   1      41.125  27.142  28.733  1.00  0.00     0.049 A 
ATOM     36  N   UNL A   1      43.855  27.685  27.579  1.00  0.00    -0.248 NA
ATOM     37  C   UNL A   1      43.780  25.589  26.565  1.00  0.00     0.031 C 
ATOM     38  C   UNL A   1      39.822  26.943  29.369  1.00  0.00     0.029 A 
ATOM     39  N   UNL A   1      41.375  28.481  28.924  1.00  0.00    -0.354 N 
ATOM     40  C   UNL A   1      45.022  27.488  26.847  1.00  0.00     0.074 A 
ATOM     41  C   UNL A   1      44.947  26.155  26.293  1.00  0.00     0.031 C 
ATOM     42  C   UNL A   1      39.358  28.117  29.814  1.00  0.00     0.029 A 
ATOM     43  C   UNL A   1      40.384  29.130  29.620  1.00  0.00     0.049 A 
ATOM     44  H   UNL A   1      42.186  28.931  28.593  1.00  0.00     0.167 HD
ATOM     45  C   UNL A   1      46.060  28.342  26.654  1.00  0.00     0.037 A 
ATOM     46  C   UNL A   1      40.322  30.384  30.109  1.00  0.00     0.037 A 
ATOM     47  C   UNL A   1      46.097  29.696  27.151  1.00  0.00     0.049 A 
ATOM     48  C   UNL A   1      41.496  31.299  29.911  1.00  0.00     0.074 A 
ATOM     49  C   UNL A   1      47.092  30.646  27.000  1.00  0.00     0.029 A 
ATOM     50  N   UNL A   1      45.080  30.298  27.880  1.00  0.00    -0.354 N 
ATOM     51  N   UNL A   1      42.623  31.078  29.280  1.00  0.00    -0.248 NA
ATOM     52  C   UNL A   1      41.394  32.635  30.512  1.00  0.00     0.031 C 
ATOM     53  C   UNL A   1      46.701  31.805  27.682  1.00  0.00     0.029 A 
ATOM     54  C   UNL A   1      45.432  31.601  28.198  1.00  0.00     0.049 A 
ATOM     55  H   UNL A   1      44.234  29.864  28.133  1.00  0.00     0.167 HD
ATOM     56  C   UNL A   1      43.355  32.252  29.387  1.00  0.00     0.074 A 
ATOM     57  C   UNL A   1      42.530  33.191  30.120  1.00  0.00     0.031 C 
ATOM     58  C   UNL A   1      44.600  32.528  28.924  1.00  0.00     0.037 A 
BRANCH  45  59
ATOM     59  C   UNL A   1      47.262  27.829  25.907  1.00  0.00     0.064 A 
ATOM     60  C   UNL A   1      47.333  27.821  24.506  1.00  0.00     0.173 A 
ATOM     61  C   UNL A   1      48.382  27.360  26.615  1.00  0.00     0.173 A 
ATOM     62  F   UNL A   1      46.291  28.248  23.775  1.00  0.00    -0.203 F 
ATOM     63  C   UNL A   1      48.457  27.328  23.844  1.00  0.00     0.198 A 
ATOM     64  C   UNL A   1      49.519  26.903  25.952  1.00  0.00     0.198 A 
ATOM     65  F   UNL A   1      48.379  27.352  27.957  1.00  0.00    -0.203 F 
ATOM     66  F   UNL A   1      48.474  27.274  22.505  1.00  0.00    -0.200 F 
ATOM     67  C   UNL A   1      49.550  26.877  24.567  1.00  0.00     0.200 A 
ATOM     68  F   UNL A   1      50.581  26.485  26.654  1.00  0.00    -0.200 F 
ATOM     69  F   UNL A   1      50.632  26.409  23.928  1.00  0.00    -0.200 F 
ENDBRANCH  45  59
BRANCH  46  70
ATOM     70  C   UNL A   1      39.126  30.827  30.878  1.00  0.00     0.064 A 
ATOM     71  C   UNL A   1      38.058  31.476  30.242  1.00  0.00     0.173 A 
ATOM     72  C   UNL A   1      39.027  30.616  32.262  1.00  0.00     0.173 A 
ATOM     73  F   UNL A   1      38.113  31.725  28.925  1.00  0.00    -0.203 F 
ATOM     74  C   UNL A   1      36.949  31.914  30.965  1.00  0.00     0.198 A 
ATOM     75  C   UNL A   1      37.899  31.017  32.976  1.00  0.00     0.198 A 
ATOM     76  F   UNL A   1      40.019  30.000  32.921  1.00  0.00    -0.203 F 
ATOM     77  F   UNL A   1      35.969  32.582  30.341  1.00  0.00    -0.200 F 
ATOM     78  C   UNL A   1      36.867  31.675  32.328  1.00  0.00     0.200 A 
ATOM     79  F   UNL A   1      37.816  30.764  34.289  1.00  0.00    -0.200 F 
ATOM     80  F   UNL A   1      35.796  32.088  33.020  1.00  0.00    -0.200 F 
ENDBRANCH  46  70
BRANCH  58  81
ATOM     81  C   UNL A   1      45.115  33.920  29.153  1.00  0.00     0.064 A 
ATOM     82  C   UNL A   1      45.857  34.261  30.294  1.00  0.00     0.173 A 
ATOM     83  C   UNL A   1      44.849  34.933  28.218  1.00  0.00     0.173 A 
ATOM     84  F   UNL A   1      46.126  33.333  31.226  1.00  0.00    -0.203 F 
ATOM     85  C   UNL A   1      46.270  35.572  30.515  1.00  0.00     0.198 A 
ATOM     86  C   UNL A   1      45.298  36.235  28.424  1.00  0.00     0.198 A 
ATOM     87  F   UNL A   1      44.151  34.661  27.106  1.00  0.00    -0.203 F 
ATOM     88  F   UNL A   1      46.908  35.889  31.651  1.00  0.00    -0.200 F 
ATOM     89  C   UNL A   1      45.993  36.556  29.579  1.00  0.00     0.200 A 
ATOM     90  F   UNL A   1      45.044  37.181  27.509  1.00  0.00    -0.200 F 
ATOM     91  F   UNL A   1      46.386  37.819  29.796  1.00  0.00    -0.200 F 
ENDBRANCH  58  81
ENDBRANCH  32  33
ENDBRANCH  25  27
ENDBRANCH  24  25
ENDBRANCH  23  24
ENDBRANCH   1  23
TORSDOF 16
ENDMDL
