MODEL 1
REMARK VINA RESULT:     -15.2      0.000      0.000
REMARK SMILES CCc1cccc(C)c1Nc1ccccc1CC(=O)OCCOC(=O)c1ccc(-c2c3nc(c(-c4c(F)c(F)c(F)c(F)c4F)c4ccc([nH]4)c(-c4c(F)c(F)c(F)c(F)c4F)c4nc(c(-c5c(F)c(F)c(F)c(F)c5F)c5ccc2[nH]5)C=C4)C=C3)cc1
REMARK SMILES IDX 21 1 20 2 18 3 19 4 17 5 16 6 11 7 12 8 13 9 15 10 14 11
REMARK SMILES IDX 10 12 9 14 3 15 4 16 5 17 7 18 6 19 8 20 2 21 1 22 22 23
REMARK SMILES IDX 23 24 24 25 25 26 26 27 27 28 88 29 28 30 87 31 29 32 30 33
REMARK SMILES IDX 31 34 81 35 32 36 86 37 80 38 82 39 33 40 85 41 79 42 78 43
REMARK SMILES IDX 34 45 66 46 46 47 65 48 47 49 50 50 64 51 83 52 48 53 49 54
REMARK SMILES IDX 63 56 84 57 51 58 35 59 36 60 44 61 37 62 38 63 42 64 45 65
REMARK SMILES IDX 39 66 40 67 43 68 41 69 67 70 68 71 76 72 69 73 70 74 74 75
REMARK SMILES IDX 77 76 71 77 72 78 75 79 73 80 52 81 53 82 61 83 54 84 55 85
REMARK SMILES IDX 59 86 62 87 56 88 57 89 60 90 58 91
REMARK H PARENT 10 13 82 44 50 55
REMARK Flexibility Score: inf
ROOT
ATOM      1  C   UNL A   1      32.635  27.201  26.042  1.00  0.00     0.274 C 
ENDROOT
BRANCH   1   2
ATOM      2  O   UNL A   1      33.454  25.881  26.202  1.00  0.00    -0.462 OA
BRANCH   2   3
ATOM      3  C   UNL A   1      32.952  24.623  26.448  1.00  0.00     0.310 C 
ATOM      4  O   UNL A   1      31.772  24.370  26.192  1.00  0.00    -0.252 OA
BRANCH   3   5
ATOM      5  C   UNL A   1      33.932  23.433  26.925  1.00  0.00     0.160 C 
BRANCH   5   6
ATOM      6  C   UNL A   1      35.097  22.724  26.143  1.00  0.00    -0.013 A 
ATOM      7  C   UNL A   1      35.302  21.328  25.705  1.00  0.00     0.042 A 
ATOM      8  C   UNL A   1      36.473  21.062  24.941  1.00  0.00     0.026 A 
ATOM      9  C   UNL A   1      37.417  22.041  24.631  1.00  0.00     0.002 A 
ATOM     10  C   UNL A   1      36.129  23.662  25.850  1.00  0.00     0.006 A 
ATOM     11  C   UNL A   1      37.259  23.330  25.105  1.00  0.00     0.000 A 
BRANCH   7  12
ATOM     12  N   UNL A   1      34.404  20.163  25.669  1.00  0.00    -0.355 N 
ATOM     13  H   UNL A   1      34.491  19.524  26.412  1.00  0.00     0.167 HD
BRANCH  12  14
ATOM     14  C   UNL A   1      33.419  19.853  24.678  1.00  0.00     0.045 A 
ATOM     15  C   UNL A   1      32.526  20.875  23.508  1.00  0.00    -0.024 A 
ATOM     16  C   UNL A   1      31.932  20.168  21.931  1.00  0.00     0.006 A 
ATOM     17  C   UNL A   1      32.280  18.453  21.513  1.00  0.00     0.001 A 
ATOM     18  C   UNL A   1      33.558  18.127  24.416  1.00  0.00    -0.027 A 
ATOM     19  C   UNL A   1      33.133  17.413  22.752  1.00  0.00     0.005 A 
ATOM     20  C   UNL A   1      32.533  17.945  25.893  1.00  0.00     0.046 C 
BRANCH  15  21
ATOM     21  C   UNL A   1      32.587  22.387  23.494  1.00  0.00     0.034 C 
ATOM     22  C   UNL A   1      33.780  22.994  22.781  1.00  0.00     0.009 C 
ENDBRANCH  15  21
ENDBRANCH  12  14
ENDBRANCH   7  12
ENDBRANCH   5   6
ENDBRANCH   3   5
ENDBRANCH   2   3
ENDBRANCH   1   2
BRANCH   1  23
ATOM     23  C   UNL A   1      32.865  28.597  27.213  1.00  0.00     0.275 C 
BRANCH  23  24
ATOM     24  O   UNL A   1      34.214  29.820  26.997  1.00  0.00    -0.458 OA
BRANCH  24  25
ATOM     25  C   UNL A   1      35.857  30.371  27.788  1.00  0.00     0.338 C 
ATOM     26  O   UNL A   1      36.331  31.553  27.802  1.00  0.00    -0.246 OA
BRANCH  25  27
ATOM     27  C   UNL A   1      37.015  29.639  28.473  1.00  0.00     0.060 A 
ATOM     28  C   UNL A   1      36.972  29.030  29.739  1.00  0.00     0.016 A 
ATOM     29  C   UNL A   1      38.222  29.693  27.830  1.00  0.00     0.016 A 
ATOM     30  C   UNL A   1      38.055  28.230  30.127  1.00  0.00     0.010 A 
ATOM     31  C   UNL A   1      38.900  28.532  27.891  1.00  0.00     0.010 A 
ATOM     32  C   UNL A   1      39.003  27.952  29.147  1.00  0.00    -0.014 A 
BRANCH  32  33
ATOM     33  C   UNL A   1      40.308  27.324  29.253  1.00  0.00     0.031 A 
ATOM     34  C   UNL A   1      40.581  25.985  28.740  1.00  0.00     0.074 A 
ATOM     35  C   UNL A   1      41.282  28.242  29.494  1.00  0.00     0.049 A 
ATOM     36  N   UNL A   1      41.690  25.372  28.948  1.00  0.00    -0.248 NA
ATOM     37  C   UNL A   1      39.640  25.207  27.947  1.00  0.00     0.031 C 
ATOM     38  C   UNL A   1      42.712  28.241  29.241  1.00  0.00     0.029 A 
ATOM     39  N   UNL A   1      41.069  29.516  30.069  1.00  0.00    -0.354 N 
ATOM     40  C   UNL A   1      41.752  24.303  28.082  1.00  0.00     0.074 A 
ATOM     41  C   UNL A   1      40.401  24.162  27.594  1.00  0.00     0.031 C 
ATOM     42  C   UNL A   1      43.266  29.238  29.968  1.00  0.00     0.029 A 
ATOM     43  C   UNL A   1      42.208  29.813  30.802  1.00  0.00     0.049 A 
ATOM     44  H   UNL A   1      40.269  30.080  29.968  1.00  0.00     0.167 HD
ATOM     45  C   UNL A   1      42.991  23.795  27.802  1.00  0.00     0.037 A 
ATOM     46  C   UNL A   1      42.066  29.718  32.155  1.00  0.00     0.037 A 
ATOM     47  C   UNL A   1      43.997  24.467  28.646  1.00  0.00     0.049 A 
ATOM     48  C   UNL A   1      42.885  28.561  32.654  1.00  0.00     0.074 A 
ATOM     49  C   UNL A   1      44.924  25.463  28.386  1.00  0.00     0.029 A 
ATOM     50  N   UNL A   1      43.886  24.391  30.036  1.00  0.00    -0.354 N 
ATOM     51  N   UNL A   1      43.151  27.498  31.944  1.00  0.00    -0.248 NA
ATOM     52  C   UNL A   1      43.532  28.555  33.956  1.00  0.00     0.031 C 
ATOM     53  C   UNL A   1      45.265  26.072  29.629  1.00  0.00     0.029 A 
ATOM     54  C   UNL A   1      44.574  25.427  30.643  1.00  0.00     0.049 A 
ATOM     55  H   UNL A   1      43.385  23.694  30.518  1.00  0.00     0.167 HD
ATOM     56  C   UNL A   1      44.039  26.721  32.618  1.00  0.00     0.074 A 
ATOM     57  C   UNL A   1      44.225  27.407  33.887  1.00  0.00     0.031 C 
ATOM     58  C   UNL A   1      44.568  25.579  32.094  1.00  0.00     0.037 A 
BRANCH  45  59
ATOM     59  C   UNL A   1      43.377  22.892  26.637  1.00  0.00     0.064 A 
ATOM     60  C   UNL A   1      43.042  21.515  26.668  1.00  0.00     0.173 A 
ATOM     61  C   UNL A   1      44.122  23.269  25.500  1.00  0.00     0.173 A 
ATOM     62  F   UNL A   1      42.290  21.002  27.651  1.00  0.00    -0.203 F 
ATOM     63  C   UNL A   1      43.463  20.604  25.690  1.00  0.00     0.198 A 
ATOM     64  C   UNL A   1      44.537  22.358  24.519  1.00  0.00     0.198 A 
ATOM     65  F   UNL A   1      44.482  24.531  25.267  1.00  0.00    -0.203 F 
ATOM     66  F   UNL A   1      43.134  19.309  25.803  1.00  0.00    -0.200 F 
ATOM     67  C   UNL A   1      44.218  21.024  24.619  1.00  0.00     0.200 A 
ATOM     68  F   UNL A   1      45.256  22.795  23.473  1.00  0.00    -0.200 F 
ATOM     69  F   UNL A   1      44.627  20.154  23.684  1.00  0.00    -0.200 F 
ENDBRANCH  45  59
BRANCH  46  70
ATOM     70  C   UNL A   1      40.684  30.092  32.639  1.00  0.00     0.064 A 
ATOM     71  C   UNL A   1      40.249  31.432  32.496  1.00  0.00     0.173 A 
ATOM     72  C   UNL A   1      39.688  29.146  32.926  1.00  0.00     0.173 A 
ATOM     73  F   UNL A   1      41.138  32.392  32.186  1.00  0.00    -0.203 F 
ATOM     74  C   UNL A   1      38.901  31.792  32.576  1.00  0.00     0.198 A 
ATOM     75  C   UNL A   1      38.335  29.513  33.018  1.00  0.00     0.198 A 
ATOM     76  F   UNL A   1      40.001  27.849  33.056  1.00  0.00    -0.203 F 
ATOM     77  F   UNL A   1      38.535  33.067  32.369  1.00  0.00    -0.200 F 
ATOM     78  C   UNL A   1      37.942  30.830  32.827  1.00  0.00     0.200 A 
ATOM     79  F   UNL A   1      37.403  28.576  33.252  1.00  0.00    -0.200 F 
ATOM     80  F   UNL A   1      36.644  31.164  32.884  1.00  0.00    -0.200 F 
ENDBRANCH  46  70
BRANCH  58  81
ATOM     81  C   UNL A   1      45.193  24.516  32.942  1.00  0.00     0.064 A 
ATOM     82  C   UNL A   1      46.476  24.653  33.500  1.00  0.00     0.173 A 
ATOM     83  C   UNL A   1      44.438  23.407  33.377  1.00  0.00     0.173 A 
ATOM     84  F   UNL A   1      47.235  25.732  33.255  1.00  0.00    -0.203 F 
ATOM     85  C   UNL A   1      46.996  23.708  34.380  1.00  0.00     0.198 A 
ATOM     86  C   UNL A   1      44.935  22.503  34.310  1.00  0.00     0.198 A 
ATOM     87  F   UNL A   1      43.189  23.194  32.938  1.00  0.00    -0.203 F 
ATOM     88  F   UNL A   1      48.243  23.857  34.847  1.00  0.00    -0.200 F 
ATOM     89  C   UNL A   1      46.220  22.643  34.796  1.00  0.00     0.200 A 
ATOM     90  F   UNL A   1      44.153  21.511  34.754  1.00  0.00    -0.200 F 
ATOM     91  F   UNL A   1      46.703  21.767  35.685  1.00  0.00    -0.200 F 
ENDBRANCH  58  81
ENDBRANCH  32  33
ENDBRANCH  25  27
ENDBRANCH  24  25
ENDBRANCH  23  24
ENDBRANCH   1  23
TORSDOF 15
ENDMDL
MODEL 2
REMARK VINA RESULT:     -14.7      3.723      9.886
REMARK SMILES CCc1cccc(C)c1Nc1ccccc1CC(=O)OCCOC(=O)c1ccc(-c2c3nc(c(-c4c(F)c(F)c(F)c(F)c4F)c4ccc([nH]4)c(-c4c(F)c(F)c(F)c(F)c4F)c4nc(c(-c5c(F)c(F)c(F)c(F)c5F)c5ccc2[nH]5)C=C4)C=C3)cc1
REMARK SMILES IDX 21 1 20 2 18 3 19 4 17 5 16 6 11 7 12 8 13 9 15 10 14 11
REMARK SMILES IDX 10 12 9 14 3 15 4 16 5 17 7 18 6 19 8 20 2 21 1 22 22 23
REMARK SMILES IDX 23 24 24 25 25 26 26 27 27 28 88 29 28 30 87 31 29 32 30 33
REMARK SMILES IDX 31 34 81 35 32 36 86 37 80 38 82 39 33 40 85 41 79 42 78 43
REMARK SMILES IDX 34 45 66 46 46 47 65 48 47 49 50 50 64 51 83 52 48 53 49 54
REMARK SMILES IDX 63 56 84 57 51 58 35 59 36 60 44 61 37 62 38 63 42 64 45 65
REMARK SMILES IDX 39 66 40 67 43 68 41 69 67 70 68 71 76 72 69 73 70 74 74 75
REMARK SMILES IDX 77 76 71 77 72 78 75 79 73 80 52 81 53 82 61 83 54 84 55 85
REMARK SMILES IDX 59 86 62 87 56 88 57 89 60 90 58 91
REMARK H PARENT 10 13 82 44 50 55
REMARK Flexibility Score: inf
ROOT
ATOM      1  C   UNL A   1      38.485  19.978  25.222  1.00  0.00     0.274 C 
ENDROOT
BRANCH   1   2
ATOM      2  O   UNL A   1      37.758  20.996  24.287  1.00  0.00    -0.462 OA
BRANCH   2   3
ATOM      3  C   UNL A   1      36.575  21.653  24.543  1.00  0.00     0.310 C 
ATOM      4  O   UNL A   1      36.332  22.723  23.979  1.00  0.00    -0.252 OA
BRANCH   3   5
ATOM      5  C   UNL A   1      35.438  20.960  25.453  1.00  0.00     0.160 C 
BRANCH   5   6
ATOM      6  C   UNL A   1      34.420  19.819  25.085  1.00  0.00    -0.013 A 
ATOM      7  C   UNL A   1      32.950  19.717  25.196  1.00  0.00     0.042 A 
ATOM      8  C   UNL A   1      32.351  18.531  24.687  1.00  0.00     0.026 A 
ATOM      9  C   UNL A   1      33.088  17.483  24.135  1.00  0.00     0.002 A 
ATOM     10  C   UNL A   1      35.120  18.689  24.572  1.00  0.00     0.006 A 
ATOM     11  C   UNL A   1      34.469  17.551  24.101  1.00  0.00     0.000 A 
BRANCH   7  12
ATOM     12  N   UNL A   1      31.912  20.715  25.497  1.00  0.00    -0.355 N 
ATOM     13  H   UNL A   1      31.108  20.381  25.956  1.00  0.00     0.167 HD
BRANCH  12  14
ATOM     14  C   UNL A   1      31.936  22.115  25.201  1.00  0.00     0.045 A 
ATOM     15  C   UNL A   1      32.231  23.018  23.681  1.00  0.00    -0.024 A 
ATOM     16  C   UNL A   1      31.486  24.667  23.429  1.00  0.00     0.006 A 
ATOM     17  C   UNL A   1      30.409  25.382  24.680  1.00  0.00     0.001 A 
ATOM     18  C   UNL A   1      31.100  22.881  26.535  1.00  0.00    -0.027 A 
ATOM     19  C   UNL A   1      30.179  24.471  26.250  1.00  0.00     0.005 A 
ATOM     20  C   UNL A   1      32.669  22.760  27.425  1.00  0.00     0.046 C 
BRANCH  15  21
ATOM     21  C   UNL A   1      32.684  22.368  22.391  1.00  0.00     0.034 C 
ATOM     22  C   UNL A   1      31.921  21.125  21.974  1.00  0.00     0.009 C 
ENDBRANCH  15  21
ENDBRANCH  12  14
ENDBRANCH   7  12
ENDBRANCH   5   6
ENDBRANCH   3   5
ENDBRANCH   2   3
ENDBRANCH   1   2
BRANCH   1  23
ATOM     23  C   UNL A   1      39.995  20.465  26.147  1.00  0.00     0.275 C 
BRANCH  23  24
ATOM     24  O   UNL A   1      40.199  22.153  26.836  1.00  0.00    -0.458 OA
BRANCH  24  25
ATOM     25  C   UNL A   1      39.297  23.826  26.952  1.00  0.00     0.338 C 
ATOM     26  O   UNL A   1      38.067  24.041  26.701  1.00  0.00    -0.246 OA
BRANCH  25  27
ATOM     27  C   UNL A   1      39.738  25.264  27.244  1.00  0.00     0.060 A 
ATOM     28  C   UNL A   1      40.361  26.136  26.336  1.00  0.00     0.016 A 
ATOM     29  C   UNL A   1      39.611  25.677  28.543  1.00  0.00     0.016 A 
ATOM     30  C   UNL A   1      40.514  27.480  26.704  1.00  0.00     0.010 A 
ATOM     31  C   UNL A   1      39.191  26.951  28.647  1.00  0.00     0.010 A 
ATOM     32  C   UNL A   1      39.864  27.880  27.868  1.00  0.00    -0.014 A 
BRANCH  32  33
ATOM     33  C   UNL A   1      39.959  29.122  28.616  1.00  0.00     0.031 A 
ATOM     34  C   UNL A   1      38.867  30.089  28.677  1.00  0.00     0.074 A 
ATOM     35  C   UNL A   1      40.962  29.073  29.533  1.00  0.00     0.049 A 
ATOM     36  N   UNL A   1      38.989  31.244  29.223  1.00  0.00    -0.248 NA
ATOM     37  C   UNL A   1      37.537  29.854  28.132  1.00  0.00     0.031 C 
ATOM     38  C   UNL A   1      41.187  29.789  30.775  1.00  0.00     0.029 A 
ATOM     39  N   UNL A   1      42.080  28.210  29.463  1.00  0.00    -0.354 N 
ATOM     40  C   UNL A   1      37.727  31.765  29.400  1.00  0.00     0.074 A 
ATOM     41  C   UNL A   1      36.881  30.934  28.577  1.00  0.00     0.031 C 
ATOM     42  C   UNL A   1      42.482  29.619  31.127  1.00  0.00     0.029 A 
ATOM     43  C   UNL A   1      43.141  28.893  30.038  1.00  0.00     0.049 A 
ATOM     44  H   UNL A   1      42.100  27.303  29.081  1.00  0.00     0.167 HD
ATOM     45  C   UNL A   1      37.580  32.741  30.347  1.00  0.00     0.037 A 
ATOM     46  C   UNL A   1      44.068  29.369  29.158  1.00  0.00     0.037 A 
ATOM     47  C   UNL A   1      38.905  33.109  30.880  1.00  0.00     0.049 A 
ATOM     48  C   UNL A   1      44.008  30.870  29.146  1.00  0.00     0.074 A 
ATOM     49  C   UNL A   1      39.561  32.797  32.059  1.00  0.00     0.029 A 
ATOM     50  N   UNL A   1      39.880  33.601  30.010  1.00  0.00    -0.354 N 
ATOM     51  N   UNL A   1      42.926  31.557  29.397  1.00  0.00    -0.248 NA
ATOM     52  C   UNL A   1      45.179  31.705  28.932  1.00  0.00     0.031 C 
ATOM     53  C   UNL A   1      40.958  32.981  31.839  1.00  0.00     0.029 A 
ATOM     54  C   UNL A   1      41.147  33.435  30.542  1.00  0.00     0.049 A 
ATOM     55  H   UNL A   1      39.692  34.011  29.134  1.00  0.00     0.167 HD
ATOM     56  C   UNL A   1      43.241  32.877  29.465  1.00  0.00     0.074 A 
ATOM     57  C   UNL A   1      44.658  32.926  29.136  1.00  0.00     0.031 C 
ATOM     58  C   UNL A   1      42.331  33.838  29.793  1.00  0.00     0.037 A 
BRANCH  45  59
ATOM     59  C   UNL A   1      36.283  33.214  30.993  1.00  0.00     0.064 A 
ATOM     60  C   UNL A   1      35.432  34.109  30.297  1.00  0.00     0.173 A 
ATOM     61  C   UNL A   1      35.835  32.900  32.293  1.00  0.00     0.173 A 
ATOM     62  F   UNL A   1      35.683  34.468  29.030  1.00  0.00    -0.203 F 
ATOM     63  C   UNL A   1      34.285  34.675  30.869  1.00  0.00     0.198 A 
ATOM     64  C   UNL A   1      34.683  33.460  32.862  1.00  0.00     0.198 A 
ATOM     65  F   UNL A   1      36.471  32.033  33.079  1.00  0.00    -0.203 F 
ATOM     66  F   UNL A   1      33.546  35.540  30.160  1.00  0.00    -0.200 F 
ATOM     67  C   UNL A   1      33.914  34.357  32.157  1.00  0.00     0.200 A 
ATOM     68  F   UNL A   1      34.331  33.120  34.112  1.00  0.00    -0.200 F 
ATOM     69  F   UNL A   1      32.821  34.900  32.710  1.00  0.00    -0.200 F 
ENDBRANCH  45  59
BRANCH  46  70
ATOM     70  C   UNL A   1      44.249  28.485  27.946  1.00  0.00     0.064 A 
ATOM     71  C   UNL A   1      44.831  27.205  28.114  1.00  0.00     0.173 A 
ATOM     72  C   UNL A   1      43.597  28.712  26.725  1.00  0.00     0.173 A 
ATOM     73  F   UNL A   1      45.444  26.897  29.270  1.00  0.00    -0.203 F 
ATOM     74  C   UNL A   1      44.715  26.199  27.149  1.00  0.00     0.198 A 
ATOM     75  C   UNL A   1      43.493  27.703  25.752  1.00  0.00     0.198 A 
ATOM     76  F   UNL A   1      42.996  29.886  26.484  1.00  0.00    -0.203 F 
ATOM     77  F   UNL A   1      45.230  24.982  27.386  1.00  0.00    -0.200 F 
ATOM     78  C   UNL A   1      44.037  26.446  25.971  1.00  0.00     0.200 A 
ATOM     79  F   UNL A   1      42.825  27.940  24.613  1.00  0.00    -0.200 F 
ATOM     80  F   UNL A   1      43.903  25.480  25.051  1.00  0.00    -0.200 F 
ENDBRANCH  46  70
BRANCH  58  81
ATOM     81  C   UNL A   1      42.534  35.285  29.471  1.00  0.00     0.064 A 
ATOM     82  C   UNL A   1      43.397  36.110  30.213  1.00  0.00     0.173 A 
ATOM     83  C   UNL A   1      42.011  35.837  28.283  1.00  0.00     0.173 A 
ATOM     84  F   UNL A   1      44.049  35.651  31.291  1.00  0.00    -0.203 F 
ATOM     85  C   UNL A   1      43.664  37.422  29.830  1.00  0.00     0.198 A 
ATOM     86  C   UNL A   1      42.335  37.125  27.868  1.00  0.00     0.198 A 
ATOM     87  F   UNL A   1      41.204  35.130  27.477  1.00  0.00    -0.203 F 
ATOM     88  F   UNL A   1      44.454  38.185  30.597  1.00  0.00    -0.200 F 
ATOM     89  C   UNL A   1      43.145  37.922  28.651  1.00  0.00     0.200 A 
ATOM     90  F   UNL A   1      41.879  37.578  26.693  1.00  0.00    -0.200 F 
ATOM     91  F   UNL A   1      43.448  39.166  28.258  1.00  0.00    -0.200 F 
ENDBRANCH  58  81
ENDBRANCH  32  33
ENDBRANCH  25  27
ENDBRANCH  24  25
ENDBRANCH  23  24
ENDBRANCH   1  23
TORSDOF 15
ENDMDL
MODEL 3
REMARK VINA RESULT:     -14.6      1.161      2.242
REMARK SMILES CCc1cccc(C)c1Nc1ccccc1CC(=O)OCCOC(=O)c1ccc(-c2c3nc(c(-c4c(F)c(F)c(F)c(F)c4F)c4ccc([nH]4)c(-c4c(F)c(F)c(F)c(F)c4F)c4nc(c(-c5c(F)c(F)c(F)c(F)c5F)c5ccc2[nH]5)C=C4)C=C3)cc1
REMARK SMILES IDX 21 1 20 2 18 3 19 4 17 5 16 6 11 7 12 8 13 9 15 10 14 11
REMARK SMILES IDX 10 12 9 14 3 15 4 16 5 17 7 18 6 19 8 20 2 21 1 22 22 23
REMARK SMILES IDX 23 24 24 25 25 26 26 27 27 28 88 29 28 30 87 31 29 32 30 33
REMARK SMILES IDX 31 34 81 35 32 36 86 37 80 38 82 39 33 40 85 41 79 42 78 43
REMARK SMILES IDX 34 45 66 46 46 47 65 48 47 49 50 50 64 51 83 52 48 53 49 54
REMARK SMILES IDX 63 56 84 57 51 58 35 59 36 60 44 61 37 62 38 63 42 64 45 65
REMARK SMILES IDX 39 66 40 67 43 68 41 69 67 70 68 71 76 72 69 73 70 74 74 75
REMARK SMILES IDX 77 76 71 77 72 78 75 79 73 80 52 81 53 82 61 83 54 84 55 85
REMARK SMILES IDX 59 86 62 87 56 88 57 89 60 90 58 91
REMARK H PARENT 10 13 82 44 50 55
REMARK Flexibility Score: inf
ROOT
ATOM      1  C   UNL A   1      33.701  27.952  24.028  1.00  0.00     0.274 C 
ENDROOT
BRANCH   1   2
ATOM      2  O   UNL A   1      34.171  26.602  23.401  1.00  0.00    -0.462 OA
BRANCH   2   3
ATOM      3  C   UNL A   1      33.440  25.775  22.576  1.00  0.00     0.310 C 
ATOM      4  O   UNL A   1      33.455  25.956  21.355  1.00  0.00    -0.252 OA
BRANCH   3   5
ATOM      5  C   UNL A   1      32.687  24.481  23.178  1.00  0.00     0.160 C 
BRANCH   5   6
ATOM      6  C   UNL A   1      31.684  24.379  24.384  1.00  0.00    -0.013 A 
ATOM      7  C   UNL A   1      31.270  23.253  25.247  1.00  0.00     0.042 A 
ATOM      8  C   UNL A   1      30.371  23.557  26.308  1.00  0.00     0.026 A 
ATOM      9  C   UNL A   1      29.863  24.837  26.531  1.00  0.00     0.002 A 
ATOM     10  C   UNL A   1      31.079  25.647  24.624  1.00  0.00     0.006 A 
ATOM     11  C   UNL A   1      30.195  25.872  25.677  1.00  0.00     0.000 A 
BRANCH   7  12
ATOM     12  N   UNL A   1      31.796  21.890  25.410  1.00  0.00    -0.355 N 
ATOM     13  H   UNL A   1      31.224  21.258  25.902  1.00  0.00     0.167 HD
BRANCH  12  14
ATOM     14  C   UNL A   1      33.045  21.375  24.935  1.00  0.00     0.045 A 
ATOM     15  C   UNL A   1      34.743  21.832  25.279  1.00  0.00    -0.024 A 
ATOM     16  C   UNL A   1      36.077  20.590  25.149  1.00  0.00     0.006 A 
ATOM     17  C   UNL A   1      35.695  18.884  24.724  1.00  0.00     0.001 A 
ATOM     18  C   UNL A   1      32.670  19.794  24.282  1.00  0.00    -0.027 A 
ATOM     19  C   UNL A   1      33.964  18.458  24.312  1.00  0.00     0.005 A 
ATOM     20  C   UNL A   1      32.148  20.670  22.790  1.00  0.00     0.046 C 
BRANCH  15  21
ATOM     21  C   UNL A   1      35.139  23.045  26.092  1.00  0.00     0.034 C 
ATOM     22  C   UNL A   1      35.758  24.189  25.314  1.00  0.00     0.009 C 
ENDBRANCH  15  21
ENDBRANCH  12  14
ENDBRANCH   7  12
ENDBRANCH   5   6
ENDBRANCH   3   5
ENDBRANCH   2   3
ENDBRANCH   1   2
BRANCH   1  23
ATOM     23  C   UNL A   1      33.736  28.206  25.846  1.00  0.00     0.275 C 
BRANCH  23  24
ATOM     24  O   UNL A   1      34.423  29.735  26.591  1.00  0.00    -0.458 OA
BRANCH  24  25
ATOM     25  C   UNL A   1      35.855  30.333  27.696  1.00  0.00     0.338 C 
ATOM     26  O   UNL A   1      36.127  31.541  27.993  1.00  0.00    -0.246 OA
BRANCH  25  27
ATOM     27  C   UNL A   1      37.031  29.642  28.393  1.00  0.00     0.060 A 
ATOM     28  C   UNL A   1      37.009  29.072  29.677  1.00  0.00     0.016 A 
ATOM     29  C   UNL A   1      38.231  29.696  27.737  1.00  0.00     0.016 A 
ATOM     30  C   UNL A   1      38.109  28.303  30.081  1.00  0.00     0.010 A 
ATOM     31  C   UNL A   1      38.929  28.549  27.829  1.00  0.00     0.010 A 
ATOM     32  C   UNL A   1      39.053  28.010  29.101  1.00  0.00    -0.014 A 
BRANCH  32  33
ATOM     33  C   UNL A   1      40.369  27.407  29.215  1.00  0.00     0.031 A 
ATOM     34  C   UNL A   1      40.675  26.080  28.690  1.00  0.00     0.074 A 
ATOM     35  C   UNL A   1      41.322  28.342  29.478  1.00  0.00     0.049 A 
ATOM     36  N   UNL A   1      41.794  25.487  28.903  1.00  0.00    -0.248 NA
ATOM     37  C   UNL A   1      39.759  25.293  27.878  1.00  0.00     0.031 C 
ATOM     38  C   UNL A   1      42.754  28.373  29.241  1.00  0.00     0.029 A 
ATOM     39  N   UNL A   1      41.076  29.605  30.065  1.00  0.00    -0.354 N 
ATOM     40  C   UNL A   1      41.888  24.430  28.027  1.00  0.00     0.074 A 
ATOM     41  C   UNL A   1      40.545  24.268  27.522  1.00  0.00     0.031 C 
ATOM     42  C   UNL A   1      43.279  29.372  29.986  1.00  0.00     0.029 A 
ATOM     43  C   UNL A   1      42.200  29.916  30.814  1.00  0.00     0.049 A 
ATOM     44  H   UNL A   1      40.266  30.154  29.961  1.00  0.00     0.167 HD
ATOM     45  C   UNL A   1      43.139  23.951  27.755  1.00  0.00     0.037 A 
ATOM     46  C   UNL A   1      42.045  29.803  32.165  1.00  0.00     0.037 A 
ATOM     47  C   UNL A   1      44.122  24.633  28.618  1.00  0.00     0.049 A 
ATOM     48  C   UNL A   1      42.882  28.657  32.659  1.00  0.00     0.074 A 
ATOM     49  C   UNL A   1      45.032  25.651  28.380  1.00  0.00     0.029 A 
ATOM     50  N   UNL A   1      43.997  24.539  30.006  1.00  0.00    -0.354 N 
ATOM     51  N   UNL A   1      43.177  27.608  31.940  1.00  0.00    -0.248 NA
ATOM     52  C   UNL A   1      43.514  28.649  33.969  1.00  0.00     0.031 C 
ATOM     53  C   UNL A   1      45.346  26.252  29.634  1.00  0.00     0.029 A 
ATOM     54  C   UNL A   1      44.657  25.582  30.633  1.00  0.00     0.049 A 
ATOM     55  H   UNL A   1      43.505  23.826  30.474  1.00  0.00     0.167 HD
ATOM     56  C   UNL A   1      44.073  26.841  32.616  1.00  0.00     0.074 A 
ATOM     57  C   UNL A   1      44.231  27.516  33.895  1.00  0.00     0.031 C 
ATOM     58  C   UNL A   1      44.631  25.716  32.085  1.00  0.00     0.037 A 
BRANCH  45  59
ATOM     59  C   UNL A   1      43.557  23.070  26.584  1.00  0.00     0.064 A 
ATOM     60  C   UNL A   1      43.239  21.688  26.590  1.00  0.00     0.173 A 
ATOM     61  C   UNL A   1      44.317  23.472  25.466  1.00  0.00     0.173 A 
ATOM     62  F   UNL A   1      42.477  21.152  27.552  1.00  0.00    -0.203 F 
ATOM     63  C   UNL A   1      43.688  20.796  25.607  1.00  0.00     0.198 A 
ATOM     64  C   UNL A   1      44.760  22.580  24.479  1.00  0.00     0.198 A 
ATOM     65  F   UNL A   1      44.665  24.741  25.257  1.00  0.00    -0.203 F 
ATOM     66  F   UNL A   1      43.374  19.495  25.696  1.00  0.00    -0.200 F 
ATOM     67  C   UNL A   1      44.457  21.240  24.555  1.00  0.00     0.200 A 
ATOM     68  F   UNL A   1      45.492  23.041  23.453  1.00  0.00    -0.200 F 
ATOM     69  F   UNL A   1      44.892  20.390  23.616  1.00  0.00    -0.200 F 
ENDBRANCH  45  59
BRANCH  46  70
ATOM     70  C   UNL A   1      40.651  30.143  32.636  1.00  0.00     0.064 A 
ATOM     71  C   UNL A   1      40.181  31.470  32.481  1.00  0.00     0.173 A 
ATOM     72  C   UNL A   1      39.679  29.173  32.925  1.00  0.00     0.173 A 
ATOM     73  F   UNL A   1      41.045  32.451  32.169  1.00  0.00    -0.203 F 
ATOM     74  C   UNL A   1      38.823  31.794  32.549  1.00  0.00     0.198 A 
ATOM     75  C   UNL A   1      38.316  29.504  33.005  1.00  0.00     0.198 A 
ATOM     76  F   UNL A   1      40.025  27.886  33.067  1.00  0.00    -0.203 F 
ATOM     77  F   UNL A   1      38.424  33.057  32.330  1.00  0.00    -0.200 F 
ATOM     78  C   UNL A   1      37.888  30.808  32.802  1.00  0.00     0.200 A 
ATOM     79  F   UNL A   1      37.408  28.544  33.241  1.00  0.00    -0.200 F 
ATOM     80  F   UNL A   1      36.582  31.108  32.848  1.00  0.00    -0.200 F 
ENDBRANCH  46  70
BRANCH  58  81
ATOM     81  C   UNL A   1      45.269  24.656  32.928  1.00  0.00     0.064 A 
ATOM     82  C   UNL A   1      46.535  24.819  33.515  1.00  0.00     0.173 A 
ATOM     83  C   UNL A   1      44.536  23.520  33.328  1.00  0.00     0.173 A 
ATOM     84  F   UNL A   1      47.268  25.922  33.304  1.00  0.00    -0.203 F 
ATOM     85  C   UNL A   1      47.063  23.874  34.390  1.00  0.00     0.198 A 
ATOM     86  C   UNL A   1      45.039  22.613  34.256  1.00  0.00     0.198 A 
ATOM     87  F   UNL A   1      43.302  23.280  32.860  1.00  0.00    -0.203 F 
ATOM     88  F   UNL A   1      48.295  24.049  34.886  1.00  0.00    -0.200 F 
ATOM     89  C   UNL A   1      46.309  22.780  34.771  1.00  0.00     0.200 A 
ATOM     90  F   UNL A   1      44.276  21.592  34.667  1.00  0.00    -0.200 F 
ATOM     91  F   UNL A   1      46.798  21.902  35.656  1.00  0.00    -0.200 F 
ENDBRANCH  58  81
ENDBRANCH  32  33
ENDBRANCH  25  27
ENDBRANCH  24  25
ENDBRANCH  23  24
ENDBRANCH   1  23
TORSDOF 15
ENDMDL
