MODEL 1
REMARK VINA RESULT:     -12.8      0.000      0.000
REMARK SMILES CCn1c(N2CCC[C@H](C(=O)OCCOC(=O)c3ccc(-c4c5nc(c(-c6c(F)c(F)c(F)c(F)c6F)c6ccc([nH]6)c(-c6c(F)c(F)c(F)c(F)c6F)c6nc(c(-c7c(F)c(F)c(F)c(F)c7F)c7ccc4[nH]7)C=C6)C=C5)cc3)C2)nc2cc(C)ccc21
REMARK SMILES IDX 13 1 12 2 10 3 11 4 9 5 5 6 6 7 81 8 7 9 8 10 4 11 3 12
REMARK SMILES IDX 89 13 82 14 83 15 88 16 84 17 87 18 85 19 86 20 2 21 1 22
REMARK SMILES IDX 14 23 15 24 16 25 17 26 18 27 19 28 80 29 20 30 79 31 21 32
REMARK SMILES IDX 22 33 23 34 73 35 24 36 78 37 72 38 74 39 25 40 77 41 71 42
REMARK SMILES IDX 70 43 26 45 58 46 38 47 57 48 39 49 42 50 56 51 75 52 40 53
REMARK SMILES IDX 41 54 55 56 76 57 43 58 27 59 28 60 36 61 29 62 30 63 34 64
REMARK SMILES IDX 37 65 31 66 32 67 35 68 33 69 59 70 60 71 68 72 61 73 62 74
REMARK SMILES IDX 66 75 69 76 63 77 64 78 67 79 65 80 44 81 45 82 53 83 46 84
REMARK SMILES IDX 47 85 51 86 54 87 48 88 49 89 52 90 50 91
REMARK H PARENT 74 44 42 55
REMARK Flexibility Score: inf
ROOT
ATOM      1  C   UNL A   1      32.339  29.440  27.248  1.00  0.00     0.274 C 
ENDROOT
BRANCH   1   2
ATOM      2  O   UNL A   1      32.942  28.477  26.362  1.00  0.00    -0.462 OA
BRANCH   2   3
ATOM      3  C   UNL A   1      32.612  28.570  25.051  1.00  0.00     0.310 C 
ATOM      4  O   UNL A   1      33.425  28.768  24.156  1.00  0.00    -0.252 OA
BRANCH   3   5
ATOM      5  C   UNL A   1      31.127  28.340  24.786  1.00  0.00     0.119 C 
ATOM      6  N   UNL A   1      31.149  25.933  24.309  1.00  0.00    -0.341 N 
ATOM      7  C   UNL A   1      30.765  26.113  22.916  1.00  0.00     0.119 C 
ATOM      8  C   UNL A   1      30.697  26.958  25.232  1.00  0.00     0.135 C 
ATOM      9  C   UNL A   1      31.056  27.524  22.402  1.00  0.00     0.022 C 
ATOM     10  C   UNL A   1      30.636  28.625  23.374  1.00  0.00     0.019 C 
BRANCH   6  11
ATOM     11  C   UNL A   1      32.262  25.238  24.660  1.00  0.00     0.206 A 
ATOM     12  N   UNL A   1      32.164  24.063  25.401  1.00  0.00    -0.310 N 
ATOM     13  C   UNL A   1      33.436  23.709  25.791  1.00  0.00     0.070 A 
ATOM     14  N   UNL A   1      33.513  25.545  24.423  1.00  0.00    -0.213 NA
ATOM     15  C   UNL A   1      34.253  24.616  25.114  1.00  0.00     0.091 A 
ATOM     16  C   UNL A   1      33.973  22.703  26.607  1.00  0.00     0.029 A 
ATOM     17  C   UNL A   1      35.650  24.476  25.189  1.00  0.00     0.034 A 
ATOM     18  C   UNL A   1      35.364  22.566  26.648  1.00  0.00     0.006 A 
ATOM     19  C   UNL A   1      36.204  23.413  25.923  1.00  0.00    -0.049 A 
ATOM     20  C   UNL A   1      37.686  23.182  25.906  1.00  0.00     0.044 C 
BRANCH  12  21
ATOM     21  C   UNL A   1      30.926  23.309  25.500  1.00  0.00     0.122 C 
ATOM     22  C   UNL A   1      30.295  23.078  26.862  1.00  0.00     0.028 C 
ENDBRANCH  12  21
ENDBRANCH   6  11
ENDBRANCH   3   5
ENDBRANCH   2   3
ENDBRANCH   1   2
BRANCH   1  23
ATOM     23  C   UNL A   1      32.981  30.812  27.027  1.00  0.00     0.275 C 
BRANCH  23  24
ATOM     24  O   UNL A   1      34.411  30.668  27.039  1.00  0.00    -0.458 OA
BRANCH  24  25
ATOM     25  C   UNL A   1      35.100  31.627  27.700  1.00  0.00     0.338 C 
ATOM     26  O   UNL A   1      34.736  32.774  27.925  1.00  0.00    -0.246 OA
BRANCH  25  27
ATOM     27  C   UNL A   1      36.193  30.946  28.431  1.00  0.00     0.060 A 
ATOM     28  C   UNL A   1      37.247  31.668  29.011  1.00  0.00     0.016 A 
ATOM     29  C   UNL A   1      36.299  29.567  28.247  1.00  0.00     0.016 A 
ATOM     30  C   UNL A   1      38.480  31.048  29.206  1.00  0.00     0.010 A 
ATOM     31  C   UNL A   1      37.529  28.957  28.447  1.00  0.00     0.010 A 
ATOM     32  C   UNL A   1      38.646  29.716  28.824  1.00  0.00    -0.014 A 
BRANCH  32  33
ATOM     33  C   UNL A   1      39.937  29.042  28.968  1.00  0.00     0.031 A 
ATOM     34  C   UNL A   1      40.299  28.780  30.368  1.00  0.00     0.074 A 
ATOM     35  C   UNL A   1      40.770  28.617  27.993  1.00  0.00     0.049 A 
ATOM     36  N   UNL A   1      41.284  29.350  30.978  1.00  0.00    -0.248 NA
ATOM     37  C   UNL A   1      39.443  27.948  31.216  1.00  0.00     0.031 C 
ATOM     38  C   UNL A   1      40.688  28.842  26.564  1.00  0.00     0.029 A 
ATOM     39  N   UNL A   1      41.901  27.840  28.094  1.00  0.00    -0.354 N 
ATOM     40  C   UNL A   1      41.273  28.834  32.255  1.00  0.00     0.074 A 
ATOM     41  C   UNL A   1      40.039  28.101  32.400  1.00  0.00     0.031 C 
ATOM     42  C   UNL A   1      41.564  28.045  25.911  1.00  0.00     0.029 A 
ATOM     43  C   UNL A   1      42.347  27.317  26.885  1.00  0.00     0.049 A 
ATOM     44  H   UNL A   1      42.356  27.670  28.950  1.00  0.00     0.167 HD
ATOM     45  C   UNL A   1      42.390  28.853  33.023  1.00  0.00     0.037 A 
ATOM     46  C   UNL A   1      43.439  26.563  26.594  1.00  0.00     0.037 A 
ATOM     47  C   UNL A   1      43.382  29.772  32.534  1.00  0.00     0.049 A 
ATOM     48  C   UNL A   1      44.438  26.870  27.633  1.00  0.00     0.074 A 
ATOM     49  C   UNL A   1      43.426  31.141  32.349  1.00  0.00     0.029 A 
ATOM     50  N   UNL A   1      44.427  29.269  31.801  1.00  0.00    -0.354 N 
ATOM     51  N   UNL A   1      45.070  28.007  27.683  1.00  0.00    -0.248 NA
ATOM     52  C   UNL A   1      44.384  26.116  28.874  1.00  0.00     0.031 C 
ATOM     53  C   UNL A   1      44.201  31.343  31.169  1.00  0.00     0.029 A 
ATOM     54  C   UNL A   1      44.625  30.093  30.721  1.00  0.00     0.049 A 
ATOM     55  H   UNL A   1      44.944  28.457  32.012  1.00  0.00     0.167 HD
ATOM     56  C   UNL A   1      45.067  28.330  29.028  1.00  0.00     0.074 A 
ATOM     57  C   UNL A   1      44.717  27.092  29.721  1.00  0.00     0.031 C 
ATOM     58  C   UNL A   1      45.075  29.633  29.431  1.00  0.00     0.037 A 
BRANCH  45  59
ATOM     59  C   UNL A   1      42.673  27.778  34.015  1.00  0.00     0.064 A 
ATOM     60  C   UNL A   1      43.278  26.583  33.607  1.00  0.00     0.173 A 
ATOM     61  C   UNL A   1      42.152  27.803  35.328  1.00  0.00     0.173 A 
ATOM     62  F   UNL A   1      43.739  26.448  32.355  1.00  0.00    -0.203 F 
ATOM     63  C   UNL A   1      43.357  25.482  34.462  1.00  0.00     0.198 A 
ATOM     64  C   UNL A   1      42.288  26.728  36.197  1.00  0.00     0.198 A 
ATOM     65  F   UNL A   1      41.411  28.828  35.772  1.00  0.00    -0.203 F 
ATOM     66  F   UNL A   1      43.859  24.326  34.010  1.00  0.00    -0.200 F 
ATOM     67  C   UNL A   1      42.873  25.560  35.759  1.00  0.00     0.200 A 
ATOM     68  F   UNL A   1      41.787  26.815  37.438  1.00  0.00    -0.200 F 
ATOM     69  F   UNL A   1      42.924  24.495  36.568  1.00  0.00    -0.200 F 
ENDBRANCH  45  59
BRANCH  46  70
ATOM     70  C   UNL A   1      43.460  25.282  25.831  1.00  0.00     0.064 A 
ATOM     71  C   UNL A   1      44.583  24.920  25.063  1.00  0.00     0.173 A 
ATOM     72  C   UNL A   1      42.498  24.273  26.035  1.00  0.00     0.173 A 
ATOM     73  F   UNL A   1      45.557  25.814  24.833  1.00  0.00    -0.203 F 
ATOM     74  C   UNL A   1      44.757  23.621  24.569  1.00  0.00     0.198 A 
ATOM     75  C   UNL A   1      42.675  22.974  25.544  1.00  0.00     0.198 A 
ATOM     76  F   UNL A   1      41.404  24.508  26.773  1.00  0.00    -0.203 F 
ATOM     77  F   UNL A   1      45.868  23.306  23.887  1.00  0.00    -0.200 F 
ATOM     78  C   UNL A   1      43.810  22.644  24.824  1.00  0.00     0.200 A 
ATOM     79  F   UNL A   1      41.764  22.030  25.817  1.00  0.00    -0.200 F 
ATOM     80  F   UNL A   1      44.004  21.386  24.405  1.00  0.00    -0.200 F 
ENDBRANCH  46  70
BRANCH  58  81
ATOM     81  C   UNL A   1      45.351  30.678  28.384  1.00  0.00     0.064 A 
ATOM     82  C   UNL A   1      44.366  31.227  27.543  1.00  0.00     0.173 A 
ATOM     83  C   UNL A   1      46.632  31.239  28.322  1.00  0.00     0.173 A 
ATOM     84  F   UNL A   1      43.101  30.796  27.596  1.00  0.00    -0.203 F 
ATOM     85  C   UNL A   1      44.661  32.269  26.663  1.00  0.00     0.198 A 
ATOM     86  C   UNL A   1      46.917  32.300  27.467  1.00  0.00     0.198 A 
ATOM     87  F   UNL A   1      47.602  30.782  29.130  1.00  0.00    -0.203 F 
ATOM     88  F   UNL A   1      43.706  32.770  25.866  1.00  0.00    -0.200 F 
ATOM     89  C   UNL A   1      45.934  32.811  26.634  1.00  0.00     0.200 A 
ATOM     90  F   UNL A   1      48.140  32.847  27.470  1.00  0.00    -0.200 F 
ATOM     91  F   UNL A   1      46.210  33.841  25.822  1.00  0.00    -0.200 F 
ENDBRANCH  58  81
ENDBRANCH  32  33
ENDBRANCH  25  27
ENDBRANCH  24  25
ENDBRANCH  23  24
ENDBRANCH   1  23
TORSDOF 13
ENDMDL
MODEL 2
REMARK VINA RESULT:     -12.7      3.234      8.637
REMARK SMILES CCn1c(N2CCC[C@H](C(=O)OCCOC(=O)c3ccc(-c4c5nc(c(-c6c(F)c(F)c(F)c(F)c6F)c6ccc([nH]6)c(-c6c(F)c(F)c(F)c(F)c6F)c6nc(c(-c7c(F)c(F)c(F)c(F)c7F)c7ccc4[nH]7)C=C6)C=C5)cc3)C2)nc2cc(C)ccc21
REMARK SMILES IDX 13 1 12 2 10 3 11 4 9 5 5 6 6 7 81 8 7 9 8 10 4 11 3 12
REMARK SMILES IDX 89 13 82 14 83 15 88 16 84 17 87 18 85 19 86 20 2 21 1 22
REMARK SMILES IDX 14 23 15 24 16 25 17 26 18 27 19 28 80 29 20 30 79 31 21 32
REMARK SMILES IDX 22 33 23 34 73 35 24 36 78 37 72 38 74 39 25 40 77 41 71 42
REMARK SMILES IDX 70 43 26 45 58 46 38 47 57 48 39 49 42 50 56 51 75 52 40 53
REMARK SMILES IDX 41 54 55 56 76 57 43 58 27 59 28 60 36 61 29 62 30 63 34 64
REMARK SMILES IDX 37 65 31 66 32 67 35 68 33 69 59 70 60 71 68 72 61 73 62 74
REMARK SMILES IDX 66 75 69 76 63 77 64 78 67 79 65 80 44 81 45 82 53 83 46 84
REMARK SMILES IDX 47 85 51 86 54 87 48 88 49 89 52 90 50 91
REMARK H PARENT 74 44 42 55
REMARK Flexibility Score: inf
ROOT
ATOM      1  C   UNL A   1      37.349  22.489  24.669  1.00  0.00     0.274 C 
ENDROOT
BRANCH   1   2
ATOM      2  O   UNL A   1      36.364  23.318  25.319  1.00  0.00    -0.462 OA
BRANCH   2   3
ATOM      3  C   UNL A   1      35.199  22.717  25.663  1.00  0.00     0.310 C 
ATOM      4  O   UNL A   1      34.670  22.836  26.762  1.00  0.00    -0.252 OA
BRANCH   3   5
ATOM      5  C   UNL A   1      34.571  21.922  24.522  1.00  0.00     0.119 C 
ATOM      6  N   UNL A   1      32.814  23.489  23.829  1.00  0.00    -0.341 N 
ATOM      7  C   UNL A   1      31.735  22.609  24.251  1.00  0.00     0.119 C 
ATOM      8  C   UNL A   1      34.051  22.839  23.435  1.00  0.00     0.135 C 
ATOM      9  C   UNL A   1      32.191  21.564  25.272  1.00  0.00     0.022 C 
ATOM     10  C   UNL A   1      33.515  20.896  24.908  1.00  0.00     0.019 C 
BRANCH   6  11
ATOM     11  C   UNL A   1      32.909  24.768  24.276  1.00  0.00     0.206 A 
ATOM     12  N   UNL A   1      32.676  25.841  23.418  1.00  0.00    -0.310 N 
ATOM     13  C   UNL A   1      33.057  26.990  24.076  1.00  0.00     0.070 A 
ATOM     14  N   UNL A   1      33.248  25.183  25.471  1.00  0.00    -0.213 NA
ATOM     15  C   UNL A   1      33.347  26.550  25.368  1.00  0.00     0.091 A 
ATOM     16  C   UNL A   1      33.146  28.344  23.723  1.00  0.00     0.029 A 
ATOM     17  C   UNL A   1      33.667  27.491  26.363  1.00  0.00     0.034 A 
ATOM     18  C   UNL A   1      33.441  29.267  24.732  1.00  0.00     0.006 A 
ATOM     19  C   UNL A   1      33.664  28.861  26.049  1.00  0.00    -0.049 A 
ATOM     20  C   UNL A   1      33.880  29.878  27.131  1.00  0.00     0.044 C 
BRANCH  12  21
ATOM     21  C   UNL A   1      31.955  25.691  22.166  1.00  0.00     0.122 C 
ATOM     22  C   UNL A   1      32.727  25.606  20.861  1.00  0.00     0.028 C 
ENDBRANCH  12  21
ENDBRANCH   6  11
ENDBRANCH   3   5
ENDBRANCH   2   3
ENDBRANCH   1   2
BRANCH   1  23
ATOM     23  C   UNL A   1      38.121  21.690  25.723  1.00  0.00     0.275 C 
BRANCH  23  24
ATOM     24  O   UNL A   1      39.467  22.189  25.795  1.00  0.00    -0.458 OA
BRANCH  24  25
ATOM     25  C   UNL A   1      39.975  22.349  27.040  1.00  0.00     0.338 C 
ATOM     26  O   UNL A   1      40.339  21.467  27.807  1.00  0.00    -0.246 OA
BRANCH  25  27
ATOM     27  C   UNL A   1      40.369  23.771  27.164  1.00  0.00     0.060 A 
ATOM     28  C   UNL A   1      41.562  24.147  27.799  1.00  0.00     0.016 A 
ATOM     29  C   UNL A   1      39.373  24.716  26.914  1.00  0.00     0.016 A 
ATOM     30  C   UNL A   1      41.666  25.413  28.372  1.00  0.00     0.010 A 
ATOM     31  C   UNL A   1      39.487  25.975  27.486  1.00  0.00     0.010 A 
ATOM     32  C   UNL A   1      40.582  26.290  28.303  1.00  0.00    -0.014 A 
BRANCH  32  33
ATOM     33  C   UNL A   1      40.633  27.609  28.932  1.00  0.00     0.031 A 
ATOM     34  C   UNL A   1      41.680  28.476  28.373  1.00  0.00     0.074 A 
ATOM     35  C   UNL A   1      39.828  28.106  29.897  1.00  0.00     0.049 A 
ATOM     36  N   UNL A   1      42.723  28.862  29.028  1.00  0.00    -0.248 NA
ATOM     37  C   UNL A   1      41.671  28.834  26.953  1.00  0.00     0.031 C 
ATOM     38  C   UNL A   1      38.806  27.427  30.668  1.00  0.00     0.029 A 
ATOM     39  N   UNL A   1      39.748  29.389  30.387  1.00  0.00    -0.354 N 
ATOM     40  C   UNL A   1      43.439  29.645  28.149  1.00  0.00     0.074 A 
ATOM     41  C   UNL A   1      42.838  29.472  26.849  1.00  0.00     0.031 C 
ATOM     42  C   UNL A   1      38.057  28.324  31.349  1.00  0.00     0.029 A 
ATOM     43  C   UNL A   1      38.608  29.644  31.142  1.00  0.00     0.049 A 
ATOM     44  H   UNL A   1      40.440  30.068  30.218  1.00  0.00     0.167 HD
ATOM     45  C   UNL A   1      44.330  30.562  28.601  1.00  0.00     0.037 A 
ATOM     46  C   UNL A   1      38.222  30.759  31.816  1.00  0.00     0.037 A 
ATOM     47  C   UNL A   1      44.704  30.342  29.972  1.00  0.00     0.049 A 
ATOM     48  C   UNL A   1      39.460  31.484  32.152  1.00  0.00     0.074 A 
ATOM     49  C   UNL A   1      45.338  29.318  30.649  1.00  0.00     0.029 A 
ATOM     50  N   UNL A   1      44.097  31.102  30.940  1.00  0.00    -0.354 N 
ATOM     51  N   UNL A   1      40.294  31.063  33.059  1.00  0.00    -0.248 NA
ATOM     52  C   UNL A   1      40.002  32.402  31.165  1.00  0.00     0.031 C 
ATOM     53  C   UNL A   1      44.711  29.259  31.928  1.00  0.00     0.029 A 
ATOM     54  C   UNL A   1      43.757  30.274  31.980  1.00  0.00     0.049 A 
ATOM     55  H   UNL A   1      43.934  32.073  30.895  1.00  0.00     0.167 HD
ATOM     56  C   UNL A   1      41.537  31.266  32.488  1.00  0.00     0.074 A 
ATOM     57  C   UNL A   1      41.302  32.175  31.368  1.00  0.00     0.031 C 
ATOM     58  C   UNL A   1      42.590  30.460  32.806  1.00  0.00     0.037 A 
BRANCH  45  59
ATOM     59  C   UNL A   1      44.578  31.836  27.868  1.00  0.00     0.064 A 
ATOM     60  C   UNL A   1      45.785  32.035  27.187  1.00  0.00     0.173 A 
ATOM     61  C   UNL A   1      43.743  32.967  28.012  1.00  0.00     0.173 A 
ATOM     62  F   UNL A   1      46.668  31.033  27.063  1.00  0.00    -0.203 F 
ATOM     63  C   UNL A   1      46.133  33.287  26.679  1.00  0.00     0.198 A 
ATOM     64  C   UNL A   1      44.063  34.197  27.452  1.00  0.00     0.198 A 
ATOM     65  F   UNL A   1      42.646  32.939  28.782  1.00  0.00    -0.203 F 
ATOM     66  F   UNL A   1      47.334  33.464  26.113  1.00  0.00    -0.200 F 
ATOM     67  C   UNL A   1      45.267  34.363  26.802  1.00  0.00     0.200 A 
ATOM     68  F   UNL A   1      43.224  35.231  27.608  1.00  0.00    -0.200 F 
ATOM     69  F   UNL A   1      45.614  35.571  26.340  1.00  0.00    -0.200 F 
ENDBRANCH  45  59
BRANCH  46  70
ATOM     70  C   UNL A   1      36.904  31.449  31.714  1.00  0.00     0.064 A 
ATOM     71  C   UNL A   1      36.245  31.915  32.869  1.00  0.00     0.173 A 
ATOM     72  C   UNL A   1      36.383  31.892  30.483  1.00  0.00     0.173 A 
ATOM     73  F   UNL A   1      36.685  31.557  34.084  1.00  0.00    -0.203 F 
ATOM     74  C   UNL A   1      35.164  32.802  32.799  1.00  0.00     0.198 A 
ATOM     75  C   UNL A   1      35.305  32.783  30.415  1.00  0.00     0.198 A 
ATOM     76  F   UNL A   1      36.954  31.526  29.326  1.00  0.00    -0.203 F 
ATOM     77  F   UNL A   1      34.600  33.263  33.925  1.00  0.00    -0.200 F 
ATOM     78  C   UNL A   1      34.705  33.249  31.571  1.00  0.00     0.200 A 
ATOM     79  F   UNL A   1      34.884  33.227  29.222  1.00  0.00    -0.200 F 
ATOM     80  F   UNL A   1      33.711  34.145  31.504  1.00  0.00    -0.200 F 
ENDBRANCH  46  70
BRANCH  58  81
ATOM     81  C   UNL A   1      42.419  29.530  33.977  1.00  0.00     0.064 A 
ATOM     82  C   UNL A   1      41.819  28.262  33.891  1.00  0.00     0.173 A 
ATOM     83  C   UNL A   1      43.002  29.883  35.200  1.00  0.00     0.173 A 
ATOM     84  F   UNL A   1      41.305  27.821  32.737  1.00  0.00    -0.203 F 
ATOM     85  C   UNL A   1      41.783  27.399  34.988  1.00  0.00     0.198 A 
ATOM     86  C   UNL A   1      42.994  29.009  36.284  1.00  0.00     0.198 A 
ATOM     87  F   UNL A   1      43.623  31.066  35.328  1.00  0.00    -0.203 F 
ATOM     88  F   UNL A   1      41.198  26.197  34.883  1.00  0.00    -0.200 F 
ATOM     89  C   UNL A   1      42.380  27.771  36.180  1.00  0.00     0.200 A 
ATOM     90  F   UNL A   1      43.606  29.357  37.424  1.00  0.00    -0.200 F 
ATOM     91  F   UNL A   1      42.385  26.928  37.223  1.00  0.00    -0.200 F 
ENDBRANCH  58  81
ENDBRANCH  32  33
ENDBRANCH  25  27
ENDBRANCH  24  25
ENDBRANCH  23  24
ENDBRANCH   1  23
TORSDOF 13
ENDMDL
MODEL 3
REMARK VINA RESULT:     -12.3      0.956      3.060
REMARK SMILES CCn1c(N2CCC[C@H](C(=O)OCCOC(=O)c3ccc(-c4c5nc(c(-c6c(F)c(F)c(F)c(F)c6F)c6ccc([nH]6)c(-c6c(F)c(F)c(F)c(F)c6F)c6nc(c(-c7c(F)c(F)c(F)c(F)c7F)c7ccc4[nH]7)C=C6)C=C5)cc3)C2)nc2cc(C)ccc21
REMARK SMILES IDX 13 1 12 2 10 3 11 4 9 5 5 6 6 7 81 8 7 9 8 10 4 11 3 12
REMARK SMILES IDX 89 13 82 14 83 15 88 16 84 17 87 18 85 19 86 20 2 21 1 22
REMARK SMILES IDX 14 23 15 24 16 25 17 26 18 27 19 28 80 29 20 30 79 31 21 32
REMARK SMILES IDX 22 33 23 34 73 35 24 36 78 37 72 38 74 39 25 40 77 41 71 42
REMARK SMILES IDX 70 43 26 45 58 46 38 47 57 48 39 49 42 50 56 51 75 52 40 53
REMARK SMILES IDX 41 54 55 56 76 57 43 58 27 59 28 60 36 61 29 62 30 63 34 64
REMARK SMILES IDX 37 65 31 66 32 67 35 68 33 69 59 70 60 71 68 72 61 73 62 74
REMARK SMILES IDX 66 75 69 76 63 77 64 78 67 79 65 80 44 81 45 82 53 83 46 84
REMARK SMILES IDX 47 85 51 86 54 87 48 88 49 89 52 90 50 91
REMARK H PARENT 74 44 42 55
REMARK Flexibility Score: inf
ROOT
ATOM      1  C   UNL A   1      32.699  28.835  25.975  1.00  0.00     0.274 C 
ENDROOT
BRANCH   1   2
ATOM      2  O   UNL A   1      33.585  27.828  26.504  1.00  0.00    -0.462 OA
BRANCH   2   3
ATOM      3  C   UNL A   1      33.111  26.559  26.531  1.00  0.00     0.310 C 
ATOM      4  O   UNL A   1      32.020  26.248  26.996  1.00  0.00    -0.252 OA
BRANCH   3   5
ATOM      5  C   UNL A   1      34.045  25.553  25.867  1.00  0.00     0.119 C 
ATOM      6  N   UNL A   1      32.802  25.123  23.795  1.00  0.00    -0.341 N 
ATOM      7  C   UNL A   1      32.519  23.739  24.144  1.00  0.00     0.119 C 
ATOM      8  C   UNL A   1      34.015  25.688  24.359  1.00  0.00     0.135 C 
ATOM      9  C   UNL A   1      32.637  23.473  25.646  1.00  0.00     0.022 C 
ATOM     10  C   UNL A   1      33.881  24.096  26.278  1.00  0.00     0.019 C 
BRANCH   6  11
ATOM     11  C   UNL A   1      31.812  25.995  23.471  1.00  0.00     0.206 A 
ATOM     12  N   UNL A   1      32.094  27.158  22.757  1.00  0.00    -0.310 N 
ATOM     13  C   UNL A   1      30.960  27.939  22.769  1.00  0.00     0.070 A 
ATOM     14  N   UNL A   1      30.542  25.926  23.780  1.00  0.00    -0.213 NA
ATOM     15  C   UNL A   1      29.999  27.116  23.359  1.00  0.00     0.091 A 
ATOM     16  C   UNL A   1      30.645  29.227  22.312  1.00  0.00     0.029 A 
ATOM     17  C   UNL A   1      28.665  27.556  23.433  1.00  0.00     0.034 A 
ATOM     18  C   UNL A   1      29.309  29.635  22.372  1.00  0.00     0.006 A 
ATOM     19  C   UNL A   1      28.314  28.804  22.891  1.00  0.00    -0.049 A 
ATOM     20  C   UNL A   1      26.875  29.226  22.852  1.00  0.00     0.044 C 
BRANCH  12  21
ATOM     21  C   UNL A   1      33.317  27.320  21.990  1.00  0.00     0.122 C 
ATOM     22  C   UNL A   1      34.259  28.467  22.315  1.00  0.00     0.028 C 
ENDBRANCH  12  21
ENDBRANCH   6  11
ENDBRANCH   3   5
ENDBRANCH   2   3
ENDBRANCH   1   2
BRANCH   1  23
ATOM     23  C   UNL A   1      33.317  30.220  26.181  1.00  0.00     0.275 C 
BRANCH  23  24
ATOM     24  O   UNL A   1      34.035  30.233  27.427  1.00  0.00    -0.458 OA
BRANCH  24  25
ATOM     25  C   UNL A   1      34.917  31.245  27.594  1.00  0.00     0.338 C 
ATOM     26  O   UNL A   1      34.702  32.442  27.454  1.00  0.00    -0.246 OA
BRANCH  25  27
ATOM     27  C   UNL A   1      36.071  30.693  28.339  1.00  0.00     0.060 A 
ATOM     28  C   UNL A   1      37.142  31.505  28.739  1.00  0.00     0.016 A 
ATOM     29  C   UNL A   1      36.198  29.303  28.346  1.00  0.00     0.016 A 
ATOM     30  C   UNL A   1      38.399  30.938  28.938  1.00  0.00     0.010 A 
ATOM     31  C   UNL A   1      37.453  28.746  28.548  1.00  0.00     0.010 A 
ATOM     32  C   UNL A   1      38.574  29.568  28.739  1.00  0.00    -0.014 A 
BRANCH  32  33
ATOM     33  C   UNL A   1      39.887  28.941  28.890  1.00  0.00     0.031 A 
ATOM     34  C   UNL A   1      40.252  28.698  30.293  1.00  0.00     0.074 A 
ATOM     35  C   UNL A   1      40.739  28.541  27.921  1.00  0.00     0.049 A 
ATOM     36  N   UNL A   1      41.214  29.305  30.904  1.00  0.00    -0.248 NA
ATOM     37  C   UNL A   1      39.423  27.839  31.141  1.00  0.00     0.031 C 
ATOM     38  C   UNL A   1      40.654  28.757  26.490  1.00  0.00     0.029 A 
ATOM     39  N   UNL A   1      41.895  27.805  28.029  1.00  0.00    -0.354 N 
ATOM     40  C   UNL A   1      41.216  28.795  32.184  1.00  0.00     0.074 A 
ATOM     41  C   UNL A   1      40.008  28.018  32.326  1.00  0.00     0.031 C 
ATOM     42  C   UNL A   1      41.560  27.989  25.844  1.00  0.00     0.029 A 
ATOM     43  C   UNL A   1      42.364  27.293  26.823  1.00  0.00     0.049 A 
ATOM     44  H   UNL A   1      42.353  27.655  28.887  1.00  0.00     0.167 HD
ATOM     45  C   UNL A   1      42.329  28.857  32.955  1.00  0.00     0.037 A 
ATOM     46  C   UNL A   1      43.484  26.577  26.540  1.00  0.00     0.037 A 
ATOM     47  C   UNL A   1      43.290  29.808  32.466  1.00  0.00     0.049 A 
ATOM     48  C   UNL A   1      44.467  26.924  27.582  1.00  0.00     0.074 A 
ATOM     49  C   UNL A   1      43.285  31.177  32.275  1.00  0.00     0.029 A 
ATOM     50  N   UNL A   1      44.354  29.338  31.739  1.00  0.00    -0.354 N 
ATOM     51  N   UNL A   1      45.059  28.083  27.629  1.00  0.00    -0.248 NA
ATOM     52  C   UNL A   1      44.435  26.174  28.826  1.00  0.00     0.031 C 
ATOM     53  C   UNL A   1      44.058  31.401  31.098  1.00  0.00     0.029 A 
ATOM     54  C   UNL A   1      44.527  30.165  30.657  1.00  0.00     0.049 A 
ATOM     55  H   UNL A   1      44.899  28.547  31.955  1.00  0.00     0.167 HD
ATOM     56  C   UNL A   1      45.039  28.412  28.973  1.00  0.00     0.074 A 
ATOM     57  C   UNL A   1      44.730  27.165  29.670  1.00  0.00     0.031 C 
ATOM     58  C   UNL A   1      44.999  29.715  29.370  1.00  0.00     0.037 A 
BRANCH  45  59
ATOM     59  C   UNL A   1      42.646  27.796  33.953  1.00  0.00     0.064 A 
ATOM     60  C   UNL A   1      43.292  26.620  33.552  1.00  0.00     0.173 A 
ATOM     61  C   UNL A   1      42.121  27.809  35.265  1.00  0.00     0.173 A 
ATOM     62  F   UNL A   1      43.760  26.495  32.302  1.00  0.00    -0.203 F 
ATOM     63  C   UNL A   1      43.406  25.527  34.412  1.00  0.00     0.198 A 
ATOM     64  C   UNL A   1      42.291  26.744  36.140  1.00  0.00     0.198 A 
ATOM     65  F   UNL A   1      41.345  28.811  35.702  1.00  0.00    -0.203 F 
ATOM     66  F   UNL A   1      43.949  24.386  33.967  1.00  0.00    -0.200 F 
ATOM     67  C   UNL A   1      42.917  25.594  35.708  1.00  0.00     0.200 A 
ATOM     68  F   UNL A   1      41.785  26.820  37.379  1.00  0.00    -0.200 F 
ATOM     69  F   UNL A   1      43.003  24.535  36.523  1.00  0.00    -0.200 F 
ENDBRANCH  45  59
BRANCH  46  70
ATOM     70  C   UNL A   1      43.553  25.294  25.783  1.00  0.00     0.064 A 
ATOM     71  C   UNL A   1      44.708  24.950  25.055  1.00  0.00     0.173 A 
ATOM     72  C   UNL A   1      42.602  24.270  25.957  1.00  0.00     0.173 A 
ATOM     73  F   UNL A   1      45.674  25.859  24.857  1.00  0.00    -0.203 F 
ATOM     74  C   UNL A   1      44.922  23.653  24.573  1.00  0.00     0.198 A 
ATOM     75  C   UNL A   1      42.818  22.973  25.477  1.00  0.00     0.198 A 
ATOM     76  F   UNL A   1      41.479  24.489  26.656  1.00  0.00    -0.203 F 
ATOM     77  F   UNL A   1      46.061  23.354  23.931  1.00  0.00    -0.200 F 
ATOM     78  C   UNL A   1      43.983  22.661  24.799  1.00  0.00     0.200 A 
ATOM     79  F   UNL A   1      41.915  22.014  25.722  1.00  0.00    -0.200 F 
ATOM     80  F   UNL A   1      44.213  21.405  24.391  1.00  0.00    -0.200 F 
ENDBRANCH  46  70
BRANCH  58  81
ATOM     81  C   UNL A   1      45.241  30.765  28.320  1.00  0.00     0.064 A 
ATOM     82  C   UNL A   1      44.250  31.247  27.447  1.00  0.00     0.173 A 
ATOM     83  C   UNL A   1      46.489  31.400  28.285  1.00  0.00     0.173 A 
ATOM     84  F   UNL A   1      43.011  30.744  27.470  1.00  0.00    -0.203 F 
ATOM     85  C   UNL A   1      44.507  32.297  26.564  1.00  0.00     0.198 A 
ATOM     86  C   UNL A   1      46.735  32.468  27.427  1.00  0.00     0.198 A 
ATOM     87  F   UNL A   1      47.462  31.008  29.124  1.00  0.00    -0.203 F 
ATOM     88  F   UNL A   1      43.546  32.733  25.736  1.00  0.00    -0.200 F 
ATOM     89  C   UNL A   1      45.747  32.912  26.563  1.00  0.00     0.200 A 
ATOM     90  F   UNL A   1      47.923  33.086  27.457  1.00  0.00    -0.200 F 
ATOM     91  F   UNL A   1      45.984  33.950  25.747  1.00  0.00    -0.200 F 
ENDBRANCH  58  81
ENDBRANCH  32  33
ENDBRANCH  25  27
ENDBRANCH  24  25
ENDBRANCH  23  24
ENDBRANCH   1  23
TORSDOF 13
ENDMDL
