MODEL 1
REMARK VINA RESULT:     -11.7      0.000      0.000
REMARK SMILES O=C(CCn1c(N2CC[NH2+]CC2)nc2ccccc2c1=O)OCCOC(=O)c1ccc(-c2c3nc(c(-c4c(F)c(F)c(F)c(F)c4F)c4ccc([nH]4)c(-c4c(F)c(F)c(F)c(F)c4F)c4nc(c(-c5c(F)c(F)c(F)c(F)c5F)c5ccc2[nH]5)C=C4)C=C3)cc1
REMARK SMILES IDX 23 1 22 2 2 3 1 4 3 5 4 6 5 7 6 8 20 9 13 10 19 11 21 12
REMARK SMILES IDX 14 13 18 14 15 15 17 16 16 17 7 18 8 19 12 20 9 21 11 22
REMARK SMILES IDX 10 23 24 26 25 27 26 28 27 29 28 30 29 31 90 32 30 33 89 34
REMARK SMILES IDX 31 35 32 36 33 37 83 38 34 39 88 40 82 41 84 42 35 43 87 44
REMARK SMILES IDX 81 45 80 46 36 48 68 49 48 50 67 51 49 52 52 53 66 54 85 55
REMARK SMILES IDX 50 56 51 57 65 59 86 60 53 61 37 62 38 63 46 64 39 65 40 66
REMARK SMILES IDX 44 67 47 68 41 69 42 70 45 71 43 72 69 73 70 74 78 75 71 76
REMARK SMILES IDX 72 77 76 78 79 79 73 80 74 81 77 82 75 83 54 84 55 85 63 86
REMARK SMILES IDX 56 87 57 88 61 89 64 90 58 91 59 92 62 93 60 94
REMARK H PARENT 10 24 10 25 84 47 52 58
REMARK Flexibility Score: inf
ROOT
ATOM      1  C   UNL A   1      36.720  20.286  24.993  1.00  0.00     0.274 C 
ENDROOT
BRANCH   1   2
ATOM      2  O   UNL A   1      36.825  21.545  24.295  1.00  0.00    -0.462 OA
BRANCH   2   3
ATOM      3  C   UNL A   1      36.463  22.752  24.786  1.00  0.00     0.307 C 
ATOM      4  O   UNL A   1      36.520  22.974  25.994  1.00  0.00    -0.252 OA
BRANCH   3   5
ATOM      5  C   UNL A   1      35.900  23.793  23.854  1.00  0.00     0.145 C 
BRANCH   5   6
ATOM      6  C   UNL A   1      34.589  23.382  23.207  1.00  0.00     0.141 C 
BRANCH   6   7
ATOM      7  N   UNL A   1      33.452  24.182  23.663  1.00  0.00    -0.278 N 
ATOM      8  C   UNL A   1      32.600  23.789  24.703  1.00  0.00     0.209 A 
ATOM      9  C   UNL A   1      33.195  25.324  22.895  1.00  0.00     0.262 A 
ATOM     10  N   UNL A   1      31.507  24.453  24.964  1.00  0.00    -0.214 NA
ATOM     11  C   UNL A   1      31.927  26.013  23.142  1.00  0.00     0.066 A 
ATOM     12  O   UNL A   1      33.937  25.748  22.012  1.00  0.00    -0.269 OA
ATOM     13  C   UNL A   1      31.142  25.549  24.185  1.00  0.00     0.080 A 
ATOM     14  C   UNL A   1      31.497  27.058  22.315  1.00  0.00     0.016 A 
ATOM     15  C   UNL A   1      29.908  26.159  24.419  1.00  0.00     0.029 A 
ATOM     16  C   UNL A   1      30.258  27.649  22.547  1.00  0.00     0.001 A 
ATOM     17  C   UNL A   1      29.465  27.204  23.603  1.00  0.00     0.002 A 
BRANCH   8  18
ATOM     18  N   UNL A   1      32.805  22.619  25.417  1.00  0.00    -0.331 N 
ATOM     19  C   UNL A   1      32.110  21.394  24.949  1.00  0.00     0.181 C 
ATOM     20  C   UNL A   1      33.007  22.585  26.873  1.00  0.00     0.181 C 
ATOM     21  C   UNL A   1      32.871  20.125  25.382  1.00  0.00     0.282 C 
ATOM     22  C   UNL A   1      33.830  21.331  27.242  1.00  0.00     0.282 C 
ATOM     23  N   UNL A   1      33.203  20.063  26.818  1.00  0.00    -0.343 N 
ATOM     24  H   UNL A   1      33.851  19.292  26.983  1.00  0.00     0.346 HD
ATOM     25  H   UNL A   1      32.349  19.912  27.355  1.00  0.00     0.346 HD
ENDBRANCH   8  18
ENDBRANCH   6   7
ENDBRANCH   5   6
ENDBRANCH   3   5
ENDBRANCH   2   3
ENDBRANCH   1   2
BRANCH   1  26
ATOM     26  C   UNL A   1      38.089  19.726  25.385  1.00  0.00     0.275 C 
BRANCH  26  27
ATOM     27  O   UNL A   1      39.034  20.797  25.550  1.00  0.00    -0.458 OA
BRANCH  27  28
ATOM     28  C   UNL A   1      39.889  20.677  26.597  1.00  0.00     0.338 C 
ATOM     29  O   UNL A   1      40.283  19.642  27.105  1.00  0.00    -0.246 OA
BRANCH  28  30
ATOM     30  C   UNL A   1      40.458  22.013  26.897  1.00  0.00     0.060 A 
ATOM     31  C   UNL A   1      41.345  22.221  27.956  1.00  0.00     0.016 A 
ATOM     32  C   UNL A   1      40.011  23.102  26.137  1.00  0.00     0.016 A 
ATOM     33  C   UNL A   1      41.763  23.517  28.271  1.00  0.00     0.010 A 
ATOM     34  C   UNL A   1      40.442  24.396  26.444  1.00  0.00     0.010 A 
ATOM     35  C   UNL A   1      41.321  24.615  27.513  1.00  0.00    -0.014 A 
BRANCH  35  36
ATOM     36  C   UNL A   1      41.895  25.963  27.747  1.00  0.00     0.031 A 
ATOM     37  C   UNL A   1      41.154  27.033  28.492  1.00  0.00     0.074 A 
ATOM     38  C   UNL A   1      43.117  26.222  27.249  1.00  0.00     0.049 A 
ATOM     39  N   UNL A   1      41.539  28.253  28.777  1.00  0.00    -0.248 NA
ATOM     40  C   UNL A   1      39.813  26.694  28.986  1.00  0.00     0.031 C 
ATOM     41  C   UNL A   1      43.937  25.262  26.509  1.00  0.00     0.029 A 
ATOM     42  N   UNL A   1      43.882  27.358  27.291  1.00  0.00    -0.354 N 
ATOM     43  C   UNL A   1      40.500  28.826  29.496  1.00  0.00     0.074 A 
ATOM     44  C   UNL A   1      39.449  27.828  29.574  1.00  0.00     0.031 C 
ATOM     45  C   UNL A   1      45.102  25.841  26.189  1.00  0.00     0.029 A 
ATOM     46  C   UNL A   1      45.093  27.222  26.663  1.00  0.00     0.049 A 
ATOM     47  H   UNL A   1      43.590  28.190  27.728  1.00  0.00     0.167 HD
ATOM     48  C   UNL A   1      40.436  30.063  30.047  1.00  0.00     0.037 A 
ATOM     49  C   UNL A   1      46.087  28.108  26.478  1.00  0.00     0.037 A 
ATOM     50  C   UNL A   1      41.466  31.068  29.936  1.00  0.00     0.049 A 
ATOM     51  C   UNL A   1      45.950  29.502  27.014  1.00  0.00     0.074 A 
ATOM     52  C   UNL A   1      41.491  32.343  30.479  1.00  0.00     0.029 A 
ATOM     53  N   UNL A   1      42.645  30.923  29.221  1.00  0.00    -0.354 N 
ATOM     54  N   UNL A   1      44.975  30.022  27.717  1.00  0.00    -0.248 NA
ATOM     55  C   UNL A   1      47.049  30.432  26.721  1.00  0.00     0.031 C 
ATOM     56  C   UNL A   1      42.659  32.985  30.051  1.00  0.00     0.029 A 
ATOM     57  C   UNL A   1      43.389  32.094  29.282  1.00  0.00     0.049 A 
ATOM     58  H   UNL A   1      42.916  30.108  28.739  1.00  0.00     0.167 HD
ATOM     59  C   UNL A   1      45.346  31.336  27.965  1.00  0.00     0.074 A 
ATOM     60  C   UNL A   1      46.643  31.528  27.348  1.00  0.00     0.031 C 
ATOM     61  C   UNL A   1      44.668  32.292  28.645  1.00  0.00     0.037 A 
BRANCH  48  62
ATOM     62  C   UNL A   1      39.200  30.413  30.826  1.00  0.00     0.064 A 
ATOM     63  C   UNL A   1      39.118  30.172  32.206  1.00  0.00     0.173 A 
ATOM     64  C   UNL A   1      38.118  31.059  30.208  1.00  0.00     0.173 A 
ATOM     65  F   UNL A   1      40.122  29.551  32.845  1.00  0.00    -0.203 F 
ATOM     66  C   UNL A   1      37.991  30.548  32.934  1.00  0.00     0.198 A 
ATOM     67  C   UNL A   1      37.004  31.456  30.944  1.00  0.00     0.198 A 
ATOM     68  F   UNL A   1      38.151  31.323  28.894  1.00  0.00    -0.203 F 
ATOM     69  F   UNL A   1      37.924  30.279  34.245  1.00  0.00    -0.200 F 
ATOM     70  C   UNL A   1      36.940  31.196  32.305  1.00  0.00     0.200 A 
ATOM     71  F   UNL A   1      35.995  32.095  30.337  1.00  0.00    -0.200 F 
ATOM     72  F   UNL A   1      35.863  31.569  33.010  1.00  0.00    -0.200 F 
ENDBRANCH  48  62
BRANCH  49  73
ATOM     73  C   UNL A   1      47.314  27.669  25.775  1.00  0.00     0.064 A 
ATOM     74  C   UNL A   1      47.394  27.738  24.378  1.00  0.00     0.173 A 
ATOM     75  C   UNL A   1      48.450  27.251  26.481  1.00  0.00     0.173 A 
ATOM     76  F   UNL A   1      46.324  28.118  23.665  1.00  0.00    -0.203 F 
ATOM     77  C   UNL A   1      48.573  27.415  23.713  1.00  0.00     0.198 A 
ATOM     78  C   UNL A   1      49.636  26.949  25.815  1.00  0.00     0.198 A 
ATOM     79  F   UNL A   1      48.419  27.177  27.819  1.00  0.00    -0.203 F 
ATOM     80  F   UNL A   1      48.623  27.480  22.375  1.00  0.00    -0.200 F 
ATOM     81  C   UNL A   1      49.696  27.030  24.432  1.00  0.00     0.200 A 
ATOM     82  F   UNL A   1      50.723  26.595  26.513  1.00  0.00    -0.200 F 
ATOM     83  F   UNL A   1      50.837  26.745  23.792  1.00  0.00    -0.200 F 
ENDBRANCH  49  73
BRANCH  61  84
ATOM     84  C   UNL A   1      45.319  33.640  28.761  1.00  0.00     0.064 A 
ATOM     85  C   UNL A   1      46.206  33.938  29.806  1.00  0.00     0.173 A 
ATOM     86  C   UNL A   1      45.069  34.640  27.808  1.00  0.00     0.173 A 
ATOM     87  F   UNL A   1      46.464  33.023  30.753  1.00  0.00    -0.203 F 
ATOM     88  C   UNL A   1      46.800  35.194  29.906  1.00  0.00     0.198 A 
ATOM     89  C   UNL A   1      45.685  35.885  27.897  1.00  0.00     0.198 A 
ATOM     90  F   UNL A   1      44.231  34.407  26.787  1.00  0.00    -0.203 F 
ATOM     91  F   UNL A   1      47.608  35.470  30.940  1.00  0.00    -0.200 F 
ATOM     92  C   UNL A   1      46.544  36.164  28.949  1.00  0.00     0.200 A 
ATOM     93  F   UNL A   1      45.444  36.818  26.966  1.00  0.00    -0.200 F 
ATOM     94  F   UNL A   1      47.119  37.371  29.047  1.00  0.00    -0.200 F 
ENDBRANCH  61  84
ENDBRANCH  35  36
ENDBRANCH  28  30
ENDBRANCH  27  28
ENDBRANCH  26  27
ENDBRANCH   1  26
TORSDOF 14
ENDMDL
MODEL 2
REMARK VINA RESULT:     -11.7      4.325      9.926
REMARK SMILES O=C(CCn1c(N2CC[NH2+]CC2)nc2ccccc2c1=O)OCCOC(=O)c1ccc(-c2c3nc(c(-c4c(F)c(F)c(F)c(F)c4F)c4ccc([nH]4)c(-c4c(F)c(F)c(F)c(F)c4F)c4nc(c(-c5c(F)c(F)c(F)c(F)c5F)c5ccc2[nH]5)C=C4)C=C3)cc1
REMARK SMILES IDX 23 1 22 2 2 3 1 4 3 5 4 6 5 7 6 8 20 9 13 10 19 11 21 12
REMARK SMILES IDX 14 13 18 14 15 15 17 16 16 17 7 18 8 19 12 20 9 21 11 22
REMARK SMILES IDX 10 23 24 26 25 27 26 28 27 29 28 30 29 31 90 32 30 33 89 34
REMARK SMILES IDX 31 35 32 36 33 37 83 38 34 39 88 40 82 41 84 42 35 43 87 44
REMARK SMILES IDX 81 45 80 46 36 48 68 49 48 50 67 51 49 52 52 53 66 54 85 55
REMARK SMILES IDX 50 56 51 57 65 59 86 60 53 61 37 62 38 63 46 64 39 65 40 66
REMARK SMILES IDX 44 67 47 68 41 69 42 70 45 71 43 72 69 73 70 74 78 75 71 76
REMARK SMILES IDX 72 77 76 78 79 79 73 80 74 81 77 82 75 83 54 84 55 85 63 86
REMARK SMILES IDX 56 87 57 88 61 89 64 90 58 91 59 92 62 93 60 94
REMARK H PARENT 10 24 10 25 84 47 52 58
REMARK Flexibility Score: inf
ROOT
ATOM      1  C   UNL A   1      31.446  29.562  25.329  1.00  0.00     0.274 C 
ENDROOT
BRANCH   1   2
ATOM      2  O   UNL A   1      32.406  28.484  25.326  1.00  0.00    -0.462 OA
BRANCH   2   3
ATOM      3  C   UNL A   1      32.388  27.408  26.147  1.00  0.00     0.307 C 
ATOM      4  O   UNL A   1      31.476  27.261  26.958  1.00  0.00    -0.252 OA
BRANCH   3   5
ATOM      5  C   UNL A   1      33.543  26.441  26.125  1.00  0.00     0.145 C 
BRANCH   5   6
ATOM      6  C   UNL A   1      34.028  26.106  24.726  1.00  0.00     0.141 C 
BRANCH   6   7
ATOM      7  N   UNL A   1      33.628  24.769  24.288  1.00  0.00    -0.278 N 
ATOM      8  C   UNL A   1      32.404  24.495  23.666  1.00  0.00     0.209 A 
ATOM      9  C   UNL A   1      34.512  23.746  24.652  1.00  0.00     0.262 A 
ATOM     10  N   UNL A   1      32.023  23.268  23.443  1.00  0.00    -0.214 NA
ATOM     11  C   UNL A   1      34.040  22.372  24.472  1.00  0.00     0.066 A 
ATOM     12  O   UNL A   1      35.622  23.931  25.145  1.00  0.00    -0.269 OA
ATOM     13  C   UNL A   1      32.811  22.196  23.856  1.00  0.00     0.080 A 
ATOM     14  C   UNL A   1      34.772  21.284  24.962  1.00  0.00     0.016 A 
ATOM     15  C   UNL A   1      32.315  20.899  23.708  1.00  0.00     0.029 A 
ATOM     16  C   UNL A   1      34.262  19.996  24.823  1.00  0.00     0.001 A 
ATOM     17  C   UNL A   1      33.035  19.802  24.190  1.00  0.00     0.002 A 
BRANCH   8  18
ATOM     18  N   UNL A   1      31.489  25.496  23.372  1.00  0.00    -0.331 N 
ATOM     19  C   UNL A   1      30.103  25.333  23.877  1.00  0.00     0.181 C 
ATOM     20  C   UNL A   1      31.507  26.263  22.119  1.00  0.00     0.181 C 
ATOM     21  C   UNL A   1      29.412  26.700  24.046  1.00  0.00     0.282 C 
ATOM     22  C   UNL A   1      30.862  27.647  22.363  1.00  0.00     0.282 C 
ATOM     23  N   UNL A   1      29.473  27.576  22.860  1.00  0.00    -0.343 N 
ATOM     24  H   UNL A   1      29.155  28.512  23.113  1.00  0.00     0.346 HD
ATOM     25  H   UNL A   1      28.872  27.197  22.130  1.00  0.00     0.346 HD
ENDBRANCH   8  18
ENDBRANCH   6   7
ENDBRANCH   5   6
ENDBRANCH   3   5
ENDBRANCH   2   3
ENDBRANCH   1   2
BRANCH   1  26
ATOM     26  C   UNL A   1      31.741  30.596  26.417  1.00  0.00     0.275 C 
BRANCH  26  27
ATOM     27  O   UNL A   1      33.142  30.922  26.425  1.00  0.00    -0.458 OA
BRANCH  27  28
ATOM     28  C   UNL A   1      33.510  31.934  27.252  1.00  0.00     0.338 C 
ATOM     29  O   UNL A   1      32.880  32.947  27.494  1.00  0.00    -0.246 OA
BRANCH  28  30
ATOM     30  C   UNL A   1      34.717  31.512  28.003  1.00  0.00     0.060 A 
ATOM     31  C   UNL A   1      35.789  32.379  28.232  1.00  0.00     0.016 A 
ATOM     32  C   UNL A   1      34.803  30.175  28.411  1.00  0.00     0.016 A 
ATOM     33  C   UNL A   1      36.952  31.903  28.843  1.00  0.00     0.010 A 
ATOM     34  C   UNL A   1      35.962  29.704  29.035  1.00  0.00     0.010 A 
ATOM     35  C   UNL A   1      37.046  30.563  29.257  1.00  0.00    -0.014 A 
BRANCH  35  36
ATOM     36  C   UNL A   1      38.214  30.106  30.049  1.00  0.00     0.031 A 
ATOM     37  C   UNL A   1      39.235  29.155  29.499  1.00  0.00     0.074 A 
ATOM     38  C   UNL A   1      38.334  30.558  31.310  1.00  0.00     0.049 A 
ATOM     39  N   UNL A   1      40.311  28.680  30.079  1.00  0.00    -0.248 NA
ATOM     40  C   UNL A   1      39.031  28.680  28.125  1.00  0.00     0.031 C 
ATOM     41  C   UNL A   1      37.406  31.488  31.955  1.00  0.00     0.029 A 
ATOM     42  N   UNL A   1      39.279  30.303  32.269  1.00  0.00    -0.354 N 
ATOM     43  C   UNL A   1      40.923  27.862  29.140  1.00  0.00     0.074 A 
ATOM     44  C   UNL A   1      40.077  27.878  27.961  1.00  0.00     0.031 C 
ATOM     45  C   UNL A   1      37.843  31.747  33.196  1.00  0.00     0.029 A 
ATOM     46  C   UNL A   1      39.053  30.970  33.446  1.00  0.00     0.049 A 
ATOM     47  H   UNL A   1      40.044  29.700  32.128  1.00  0.00     0.167 HD
ATOM     48  C   UNL A   1      42.085  27.172  29.251  1.00  0.00     0.037 A 
ATOM     49  C   UNL A   1      39.736  30.956  34.604  1.00  0.00     0.037 A 
ATOM     50  C   UNL A   1      42.906  27.127  30.437  1.00  0.00     0.049 A 
ATOM     51  C   UNL A   1      40.966  30.108  34.732  1.00  0.00     0.074 A 
ATOM     52  C   UNL A   1      44.110  26.468  30.630  1.00  0.00     0.029 A 
ATOM     53  N   UNL A   1      42.602  27.749  31.639  1.00  0.00    -0.354 N 
ATOM     54  N   UNL A   1      41.550  29.362  33.828  1.00  0.00    -0.248 NA
ATOM     55  C   UNL A   1      41.624  30.096  36.045  1.00  0.00     0.031 C 
ATOM     56  C   UNL A   1      44.506  26.649  31.960  1.00  0.00     0.029 A 
ATOM     57  C   UNL A   1      43.577  27.464  32.585  1.00  0.00     0.049 A 
ATOM     58  H   UNL A   1      41.809  28.311  31.799  1.00  0.00     0.167 HD
ATOM     59  C   UNL A   1      42.653  28.801  34.455  1.00  0.00     0.074 A 
ATOM     60  C   UNL A   1      42.664  29.306  35.814  1.00  0.00     0.031 C 
ATOM     61  C   UNL A   1      43.572  27.946  33.945  1.00  0.00     0.037 A 
BRANCH  48  62
ATOM     62  C   UNL A   1      42.549  26.398  28.050  1.00  0.00     0.064 A 
ATOM     63  C   UNL A   1      42.123  25.079  27.826  1.00  0.00     0.173 A 
ATOM     64  C   UNL A   1      43.367  26.996  27.079  1.00  0.00     0.173 A 
ATOM     65  F   UNL A   1      41.346  24.458  28.727  1.00  0.00    -0.203 F 
ATOM     66  C   UNL A   1      42.513  24.385  26.683  1.00  0.00     0.198 A 
ATOM     67  C   UNL A   1      43.733  26.307  25.926  1.00  0.00     0.198 A 
ATOM     68  F   UNL A   1      43.792  28.258  27.239  1.00  0.00    -0.203 F 
ATOM     69  F   UNL A   1      42.117  23.116  26.506  1.00  0.00    -0.200 F 
ATOM     70  C   UNL A   1      43.310  25.001  25.731  1.00  0.00     0.200 A 
ATOM     71  F   UNL A   1      44.493  26.909  25.000  1.00  0.00    -0.200 F 
ATOM     72  F   UNL A   1      43.672  24.335  24.626  1.00  0.00    -0.200 F 
ENDBRANCH  48  62
BRANCH  49  73
ATOM     73  C   UNL A   1      39.269  31.812  35.719  1.00  0.00     0.064 A 
ATOM     74  C   UNL A   1      38.328  31.329  36.638  1.00  0.00     0.173 A 
ATOM     75  C   UNL A   1      39.806  33.088  35.934  1.00  0.00     0.173 A 
ATOM     76  F   UNL A   1      37.778  30.119  36.459  1.00  0.00    -0.203 F 
ATOM     77  C   UNL A   1      37.950  32.089  37.741  1.00  0.00     0.198 A 
ATOM     78  C   UNL A   1      39.443  33.839  37.050  1.00  0.00     0.198 A 
ATOM     79  F   UNL A   1      40.714  33.586  35.083  1.00  0.00    -0.203 F 
ATOM     80  F   UNL A   1      37.042  31.610  38.602  1.00  0.00    -0.200 F 
ATOM     81  C   UNL A   1      38.516  33.339  37.951  1.00  0.00     0.200 A 
ATOM     82  F   UNL A   1      40.004  35.037  37.260  1.00  0.00    -0.200 F 
ATOM     83  F   UNL A   1      38.171  34.058  39.027  1.00  0.00    -0.200 F 
ENDBRANCH  49  73
BRANCH  61  84
ATOM     84  C   UNL A   1      44.674  27.499  34.861  1.00  0.00     0.064 A 
ATOM     85  C   UNL A   1      45.852  28.246  35.010  1.00  0.00     0.173 A 
ATOM     86  C   UNL A   1      44.545  26.322  35.615  1.00  0.00     0.173 A 
ATOM     87  F   UNL A   1      46.032  29.370  34.299  1.00  0.00    -0.203 F 
ATOM     88  C   UNL A   1      46.870  27.820  35.860  1.00  0.00     0.198 A 
ATOM     89  C   UNL A   1      45.553  25.912  36.483  1.00  0.00     0.198 A 
ATOM     90  F   UNL A   1      43.439  25.571  35.512  1.00  0.00    -0.203 F 
ATOM     91  F   UNL A   1      48.006  28.526  35.949  1.00  0.00    -0.200 F 
ATOM     92  C   UNL A   1      46.717  26.657  36.600  1.00  0.00     0.200 A 
ATOM     93  F   UNL A   1      45.401  24.793  37.204  1.00  0.00    -0.200 F 
ATOM     94  F   UNL A   1      47.697  26.249  37.418  1.00  0.00    -0.200 F 
ENDBRANCH  61  84
ENDBRANCH  35  36
ENDBRANCH  28  30
ENDBRANCH  27  28
ENDBRANCH  26  27
ENDBRANCH   1  26
TORSDOF 14
ENDMDL
MODEL 3
REMARK VINA RESULT:     -11.7      4.308      9.865
REMARK SMILES O=C(CCn1c(N2CC[NH2+]CC2)nc2ccccc2c1=O)OCCOC(=O)c1ccc(-c2c3nc(c(-c4c(F)c(F)c(F)c(F)c4F)c4ccc([nH]4)c(-c4c(F)c(F)c(F)c(F)c4F)c4nc(c(-c5c(F)c(F)c(F)c(F)c5F)c5ccc2[nH]5)C=C4)C=C3)cc1
REMARK SMILES IDX 23 1 22 2 2 3 1 4 3 5 4 6 5 7 6 8 20 9 13 10 19 11 21 12
REMARK SMILES IDX 14 13 18 14 15 15 17 16 16 17 7 18 8 19 12 20 9 21 11 22
REMARK SMILES IDX 10 23 24 26 25 27 26 28 27 29 28 30 29 31 90 32 30 33 89 34
REMARK SMILES IDX 31 35 32 36 33 37 83 38 34 39 88 40 82 41 84 42 35 43 87 44
REMARK SMILES IDX 81 45 80 46 36 48 68 49 48 50 67 51 49 52 52 53 66 54 85 55
REMARK SMILES IDX 50 56 51 57 65 59 86 60 53 61 37 62 38 63 46 64 39 65 40 66
REMARK SMILES IDX 44 67 47 68 41 69 42 70 45 71 43 72 69 73 70 74 78 75 71 76
REMARK SMILES IDX 72 77 76 78 79 79 73 80 74 81 77 82 75 83 54 84 55 85 63 86
REMARK SMILES IDX 56 87 57 88 61 89 64 90 58 91 59 92 62 93 60 94
REMARK H PARENT 10 24 10 25 84 47 52 58
REMARK Flexibility Score: inf
ROOT
ATOM      1  C   UNL A   1      31.542  29.316  25.584  1.00  0.00     0.274 C 
ENDROOT
BRANCH   1   2
ATOM      2  O   UNL A   1      31.946  28.071  26.192  1.00  0.00    -0.462 OA
BRANCH   2   3
ATOM      3  C   UNL A   1      33.086  27.393  25.922  1.00  0.00     0.307 C 
ATOM      4  O   UNL A   1      34.064  27.980  25.464  1.00  0.00    -0.252 OA
BRANCH   3   5
ATOM      5  C   UNL A   1      33.117  25.897  26.098  1.00  0.00     0.145 C 
BRANCH   5   6
ATOM      6  C   UNL A   1      34.286  25.228  25.397  1.00  0.00     0.141 C 
BRANCH   6   7
ATOM      7  N   UNL A   1      33.891  24.047  24.630  1.00  0.00    -0.278 N 
ATOM      8  C   UNL A   1      33.049  24.098  23.512  1.00  0.00     0.209 A 
ATOM      9  C   UNL A   1      34.315  22.829  25.173  1.00  0.00     0.262 A 
ATOM     10  N   UNL A   1      32.593  23.007  22.962  1.00  0.00    -0.214 NA
ATOM     11  C   UNL A   1      33.734  21.613  24.600  1.00  0.00     0.066 A 
ATOM     12  O   UNL A   1      35.098  22.724  26.114  1.00  0.00    -0.269 OA
ATOM     13  C   UNL A   1      32.904  21.761  23.501  1.00  0.00     0.080 A 
ATOM     14  C   UNL A   1      33.958  20.359  25.182  1.00  0.00     0.016 A 
ATOM     15  C   UNL A   1      32.301  20.624  22.958  1.00  0.00     0.029 A 
ATOM     16  C   UNL A   1      33.341  19.233  24.643  1.00  0.00     0.001 A 
ATOM     17  C   UNL A   1      32.516  19.365  23.526  1.00  0.00     0.002 A 
BRANCH   8  18
ATOM     18  N   UNL A   1      32.562  25.298  23.014  1.00  0.00    -0.331 N 
ATOM     19  C   UNL A   1      31.093  25.431  22.851  1.00  0.00     0.181 C 
ATOM     20  C   UNL A   1      33.278  26.111  22.021  1.00  0.00     0.181 C 
ATOM     21  C   UNL A   1      30.660  26.909  22.917  1.00  0.00     0.282 C 
ATOM     22  C   UNL A   1      32.856  27.590  22.177  1.00  0.00     0.282 C 
ATOM     23  N   UNL A   1      31.404  27.813  22.019  1.00  0.00    -0.343 N 
ATOM     24  H   UNL A   1      31.182  28.781  22.253  1.00  0.00     0.346 HD
ATOM     25  H   UNL A   1      31.136  27.625  21.054  1.00  0.00     0.346 HD
ENDBRANCH   8  18
ENDBRANCH   6   7
ENDBRANCH   5   6
ENDBRANCH   3   5
ENDBRANCH   2   3
ENDBRANCH   1   2
BRANCH   1  26
ATOM     26  C   UNL A   1      31.786  30.515  26.502  1.00  0.00     0.275 C 
BRANCH  26  27
ATOM     27  O   UNL A   1      33.155  30.945  26.402  1.00  0.00    -0.458 OA
BRANCH  27  28
ATOM     28  C   UNL A   1      33.531  31.928  27.260  1.00  0.00     0.338 C 
ATOM     29  O   UNL A   1      32.901  32.930  27.546  1.00  0.00    -0.246 OA
BRANCH  28  30
ATOM     30  C   UNL A   1      34.749  31.484  27.979  1.00  0.00     0.060 A 
ATOM     31  C   UNL A   1      35.836  32.336  28.192  1.00  0.00     0.016 A 
ATOM     32  C   UNL A   1      34.827  30.142  28.372  1.00  0.00     0.016 A 
ATOM     33  C   UNL A   1      37.007  31.840  28.772  1.00  0.00     0.010 A 
ATOM     34  C   UNL A   1      35.994  29.651  28.966  1.00  0.00     0.010 A 
ATOM     35  C   UNL A   1      37.094  30.495  29.170  1.00  0.00    -0.014 A 
BRANCH  35  36
ATOM     36  C   UNL A   1      38.273  30.016  29.932  1.00  0.00     0.031 A 
ATOM     37  C   UNL A   1      39.259  29.041  29.358  1.00  0.00     0.074 A 
ATOM     38  C   UNL A   1      38.438  30.469  31.187  1.00  0.00     0.049 A 
ATOM     39  N   UNL A   1      40.340  28.545  29.909  1.00  0.00    -0.248 NA
ATOM     40  C   UNL A   1      39.006  28.565  27.991  1.00  0.00     0.031 C 
ATOM     41  C   UNL A   1      37.549  31.420  31.854  1.00  0.00     0.029 A 
ATOM     42  N   UNL A   1      39.404  30.197  32.120  1.00  0.00    -0.354 N 
ATOM     43  C   UNL A   1      40.907  27.711  28.956  1.00  0.00     0.074 A 
ATOM     44  C   UNL A   1      40.030  27.741  27.801  1.00  0.00     0.031 C 
ATOM     45  C   UNL A   1      38.025  31.674  33.081  1.00  0.00     0.029 A 
ATOM     46  C   UNL A   1      39.225  30.873  33.300  1.00  0.00     0.049 A 
ATOM     47  H   UNL A   1      40.152  29.578  31.960  1.00  0.00     0.167 HD
ATOM     48  C   UNL A   1      42.058  26.997  29.037  1.00  0.00     0.037 A 
ATOM     49  C   UNL A   1      39.940  30.848  34.439  1.00  0.00     0.037 A 
ATOM     50  C   UNL A   1      42.910  26.939  30.200  1.00  0.00     0.049 A 
ATOM     51  C   UNL A   1      41.155  29.975  34.536  1.00  0.00     0.074 A 
ATOM     52  C   UNL A   1      44.105  26.254  30.363  1.00  0.00     0.029 A 
ATOM     53  N   UNL A   1      42.653  27.571  31.408  1.00  0.00    -0.354 N 
ATOM     54  N   UNL A   1      41.698  29.213  33.619  1.00  0.00    -0.248 NA
ATOM     55  C   UNL A   1      41.849  29.953  35.830  1.00  0.00     0.031 C 
ATOM     56  C   UNL A   1      44.542  26.432  31.680  1.00  0.00     0.029 A 
ATOM     57  C   UNL A   1      43.648  27.268  32.328  1.00  0.00     0.049 A 
ATOM     58  H   UNL A   1      41.877  28.150  31.588  1.00  0.00     0.167 HD
ATOM     59  C   UNL A   1      42.806  28.631  34.217  1.00  0.00     0.074 A 
ATOM     60  C   UNL A   1      42.865  29.140  35.573  1.00  0.00     0.031 C 
ATOM     61  C   UNL A   1      43.692  27.755  33.685  1.00  0.00     0.037 A 
BRANCH  48  62
ATOM     62  C   UNL A   1      42.472  26.209  27.828  1.00  0.00     0.064 A 
ATOM     63  C   UNL A   1      43.426  26.706  26.927  1.00  0.00     0.173 A 
ATOM     64  C   UNL A   1      41.969  24.918  27.603  1.00  0.00     0.173 A 
ATOM     65  F   UNL A   1      43.934  27.937  27.091  1.00  0.00    -0.203 F 
ATOM     66  C   UNL A   1      43.846  25.947  25.836  1.00  0.00     0.198 A 
ATOM     67  C   UNL A   1      42.410  24.153  26.526  1.00  0.00     0.198 A 
ATOM     68  F   UNL A   1      41.064  24.391  28.441  1.00  0.00    -0.203 F 
ATOM     69  F   UNL A   1      44.736  26.456  24.973  1.00  0.00    -0.200 F 
ATOM     70  C   UNL A   1      43.345  24.669  25.642  1.00  0.00     0.200 A 
ATOM     71  F   UNL A   1      41.935  22.913  26.348  1.00  0.00    -0.200 F 
ATOM     72  F   UNL A   1      43.762  23.937  24.600  1.00  0.00    -0.200 F 
ENDBRANCH  48  62
BRANCH  49  73
ATOM     73  C   UNL A   1      39.522  31.717  35.564  1.00  0.00     0.064 A 
ATOM     74  C   UNL A   1      40.048  33.009  35.694  1.00  0.00     0.173 A 
ATOM     75  C   UNL A   1      38.539  31.310  36.476  1.00  0.00     0.173 A 
ATOM     76  F   UNL A   1      41.002  33.431  34.851  1.00  0.00    -0.203 F 
ATOM     77  C   UNL A   1      39.597  33.867  36.693  1.00  0.00     0.198 A 
ATOM     78  C   UNL A   1      38.073  32.177  37.460  1.00  0.00     0.198 A 
ATOM     79  F   UNL A   1      38.004  30.084  36.382  1.00  0.00    -0.203 F 
ATOM     80  F   UNL A   1      40.121  35.096  36.804  1.00  0.00    -0.200 F 
ATOM     81  C   UNL A   1      38.602  33.455  37.568  1.00  0.00     0.200 A 
ATOM     82  F   UNL A   1      37.100  31.782  38.293  1.00  0.00    -0.200 F 
ATOM     83  F   UNL A   1      38.150  34.291  38.512  1.00  0.00    -0.200 F 
ENDBRANCH  49  73
BRANCH  61  84
ATOM     84  C   UNL A   1      44.809  27.288  34.572  1.00  0.00     0.064 A 
ATOM     85  C   UNL A   1      44.692  26.124  35.346  1.00  0.00     0.173 A 
ATOM     86  C   UNL A   1      46.017  27.999  34.637  1.00  0.00     0.173 A 
ATOM     87  F   UNL A   1      43.552  25.417  35.335  1.00  0.00    -0.203 F 
ATOM     88  C   UNL A   1      45.734  25.703  36.170  1.00  0.00     0.198 A 
ATOM     89  C   UNL A   1      47.066  27.562  35.441  1.00  0.00     0.198 A 
ATOM     90  F   UNL A   1      46.182  29.118  33.915  1.00  0.00    -0.203 F 
ATOM     91  F   UNL A   1      45.581  24.613  36.936  1.00  0.00    -0.200 F 
ATOM     92  C   UNL A   1      46.921  26.418  36.212  1.00  0.00     0.200 A 
ATOM     93  F   UNL A   1      48.215  28.249  35.474  1.00  0.00    -0.200 F 
ATOM     94  F   UNL A   1      47.922  26.010  37.004  1.00  0.00    -0.200 F 
ENDBRANCH  61  84
ENDBRANCH  35  36
ENDBRANCH  28  30
ENDBRANCH  27  28
ENDBRANCH  26  27
ENDBRANCH   1  26
TORSDOF 14
ENDMDL
