MODEL 1
REMARK VINA RESULT:     -12.1      0.000      0.000
REMARK SMILES Nc1c(Nc2ccc(I)cc2)ncnc1Nc1ccc(C(=O)OCCOC(=O)c2ccc(-c3c4nc(c(-c5c(F)c(F)c(F)c(F)c5F)c5ccc([nH]5)c(-c5c(F)c(F)c(F)c(F)c5F)c5nc(c(-c6c(F)c(F)c(F)c(F)c6F)c6ccc3[nH]6)C=C5)C=C4)cc2)cc1
REMARK SMILES IDX 24 1 23 2 21 3 22 4 20 5 17 6 18 7 93 8 19 9 92 10 16 11
REMARK SMILES IDX 15 13 2 14 3 15 12 16 14 17 13 18 1 19 4 22 5 24 6 25 11 26
REMARK SMILES IDX 7 27 10 28 8 29 9 30 25 31 26 32 27 33 28 34 29 35 30 36
REMARK SMILES IDX 91 37 31 38 90 39 32 40 33 41 34 42 84 43 35 44 89 45 83 46
REMARK SMILES IDX 85 47 36 48 88 49 82 50 81 51 37 53 69 54 49 55 68 56 50 57
REMARK SMILES IDX 53 58 67 59 86 60 51 61 52 62 66 64 87 65 54 66 38 67 39 68
REMARK SMILES IDX 47 69 40 70 41 71 45 72 48 73 42 74 43 75 46 76 44 77 70 78
REMARK SMILES IDX 71 79 79 80 72 81 73 82 77 83 80 84 74 85 75 86 78 87 76 88
REMARK SMILES IDX 55 89 56 90 64 91 57 92 58 93 62 94 65 95 59 96 60 97 63 98
REMARK SMILES IDX 61 99
REMARK H PARENT 16 12 1 20 1 21 4 23 85 52 53 63
REMARK Flexibility Score: inf
ROOT
ATOM      1  C   UNL A   1      31.571  29.485  24.256  1.00  0.00     0.275 C 
ENDROOT
BRANCH   1   2
ATOM      2  O   UNL A   1      30.194  29.105  24.070  1.00  0.00    -0.458 OA
BRANCH   2   3
ATOM      3  C   UNL A   1      29.911  28.528  22.876  1.00  0.00     0.338 C 
ATOM      4  O   UNL A   1      29.448  29.077  21.894  1.00  0.00    -0.246 OA
BRANCH   3   5
ATOM      5  C   UNL A   1      30.327  27.108  22.870  1.00  0.00     0.060 A 
ATOM      6  C   UNL A   1      31.278  24.489  23.162  1.00  0.00     0.040 A 
ATOM      7  C   UNL A   1      30.245  24.952  23.977  1.00  0.00     0.027 A 
ATOM      8  C   UNL A   1      31.795  25.331  22.165  1.00  0.00     0.027 A 
ATOM      9  C   UNL A   1      29.801  26.262  23.853  1.00  0.00     0.018 A 
ATOM     10  C   UNL A   1      31.307  26.632  21.999  1.00  0.00     0.018 A 
BRANCH   6  11
ATOM     11  N   UNL A   1      31.955  23.311  23.545  1.00  0.00    -0.338 N 
ATOM     12  H   UNL A   1      31.829  22.490  23.017  1.00  0.00     0.168 HD
BRANCH  11  13
ATOM     13  C   UNL A   1      32.819  23.285  24.677  1.00  0.00     0.159 A 
ATOM     14  C   UNL A   1      34.171  23.599  24.511  1.00  0.00     0.118 A 
ATOM     15  C   UNL A   1      34.931  23.570  25.690  1.00  0.00     0.159 A 
ATOM     16  N   UNL A   1      34.427  23.175  26.875  1.00  0.00    -0.217 NA
ATOM     17  N   UNL A   1      32.296  22.937  25.870  1.00  0.00    -0.217 NA
ATOM     18  C   UNL A   1      33.129  22.882  26.906  1.00  0.00     0.226 A 
BRANCH  14  19
ATOM     19  N   UNL A   1      34.723  23.991  23.284  1.00  0.00    -0.393 N 
ATOM     20  H   UNL A   1      34.344  23.650  22.442  1.00  0.00     0.156 HD
ATOM     21  H   UNL A   1      35.491  24.606  23.265  1.00  0.00     0.156 HD
ENDBRANCH  14  19
BRANCH  15  22
ATOM     22  N   UNL A   1      36.277  24.012  25.627  1.00  0.00    -0.338 N 
ATOM     23  H   UNL A   1      36.422  24.975  25.482  1.00  0.00     0.168 HD
BRANCH  22  24
ATOM     24  C   UNL A   1      37.425  23.210  25.752  1.00  0.00     0.040 A 
ATOM     25  C   UNL A   1      38.510  23.679  26.503  1.00  0.00     0.027 A 
ATOM     26  C   UNL A   1      37.475  21.905  25.246  1.00  0.00     0.027 A 
ATOM     27  C   UNL A   1      39.609  22.856  26.763  1.00  0.00     0.017 A 
ATOM     28  C   UNL A   1      38.576  21.080  25.492  1.00  0.00     0.017 A 
ATOM     29  C   UNL A   1      39.635  21.557  26.259  1.00  0.00     0.013 A 
ATOM     30  I   UNL A   1      41.247  20.317  26.683  1.00  0.00    -0.044 I 
ENDBRANCH  22  24
ENDBRANCH  15  22
ENDBRANCH  11  13
ENDBRANCH   6  11
ENDBRANCH   3   5
ENDBRANCH   2   3
ENDBRANCH   1   2
BRANCH   1  31
ATOM     31  C   UNL A   1      31.852  29.804  25.725  1.00  0.00     0.275 C 
BRANCH  31  32
ATOM     32  O   UNL A   1      33.127  30.462  25.854  1.00  0.00    -0.458 OA
BRANCH  32  33
ATOM     33  C   UNL A   1      33.295  31.216  26.962  1.00  0.00     0.338 C 
ATOM     34  O   UNL A   1      32.507  32.007  27.455  1.00  0.00    -0.246 OA
BRANCH  33  35
ATOM     35  C   UNL A   1      34.614  30.943  27.559  1.00  0.00     0.060 A 
ATOM     36  C   UNL A   1      34.957  29.635  27.877  1.00  0.00     0.016 A 
ATOM     37  C   UNL A   1      35.449  31.991  27.938  1.00  0.00     0.016 A 
ATOM     38  C   UNL A   1      36.063  29.372  28.680  1.00  0.00     0.010 A 
ATOM     39  C   UNL A   1      36.635  31.714  28.632  1.00  0.00     0.010 A 
ATOM     40  C   UNL A   1      36.937  30.404  29.052  1.00  0.00    -0.014 A 
BRANCH  40  41
ATOM     41  C   UNL A   1      38.141  30.109  29.884  1.00  0.00     0.031 A 
ATOM     42  C   UNL A   1      39.299  29.330  29.311  1.00  0.00     0.074 A 
ATOM     43  C   UNL A   1      38.221  30.566  31.152  1.00  0.00     0.049 A 
ATOM     44  N   UNL A   1      40.364  28.864  29.916  1.00  0.00    -0.248 NA
ATOM     45  C   UNL A   1      39.252  29.026  27.873  1.00  0.00     0.031 C 
ATOM     46  C   UNL A   1      37.200  31.370  31.826  1.00  0.00     0.029 A 
ATOM     47  N   UNL A   1      39.214  30.442  32.094  1.00  0.00    -0.354 N 
ATOM     48  C   UNL A   1      41.082  28.173  28.948  1.00  0.00     0.074 A 
ATOM     49  C   UNL A   1      40.330  28.270  27.716  1.00  0.00     0.031 C 
ATOM     50  C   UNL A   1      37.647  31.726  33.039  1.00  0.00     0.029 A 
ATOM     51  C   UNL A   1      38.940  31.094  33.273  1.00  0.00     0.049 A 
ATOM     52  H   UNL A   1      40.044  29.937  31.938  1.00  0.00     0.167 HD
ATOM     53  C   UNL A   1      42.263  27.521  29.074  1.00  0.00     0.037 A 
ATOM     54  C   UNL A   1      39.629  31.152  34.429  1.00  0.00     0.037 A 
ATOM     55  C   UNL A   1      43.040  27.471  30.285  1.00  0.00     0.049 A 
ATOM     56  C   UNL A   1      40.915  30.388  34.556  1.00  0.00     0.074 A 
ATOM     57  C   UNL A   1      44.249  26.834  30.509  1.00  0.00     0.029 A 
ATOM     58  N   UNL A   1      42.695  28.098  31.473  1.00  0.00    -0.354 N 
ATOM     59  N   UNL A   1      41.547  29.680  33.653  1.00  0.00    -0.248 NA
ATOM     60  C   UNL A   1      41.570  30.406  35.872  1.00  0.00     0.031 C 
ATOM     61  C   UNL A   1      44.620  27.049  31.840  1.00  0.00     0.029 A 
ATOM     62  C   UNL A   1      43.664  27.856  32.435  1.00  0.00     0.049 A 
ATOM     63  H   UNL A   1      41.883  28.636  31.613  1.00  0.00     0.167 HD
ATOM     64  C   UNL A   1      42.674  29.176  34.284  1.00  0.00     0.074 A 
ATOM     65  C   UNL A   1      42.653  29.674  35.644  1.00  0.00     0.031 C 
ATOM     66  C   UNL A   1      43.635  28.364  33.781  1.00  0.00     0.037 A 
BRANCH  53  67
ATOM     67  C   UNL A   1      42.793  26.787  27.876  1.00  0.00     0.064 A 
ATOM     68  C   UNL A   1      43.610  27.417  26.926  1.00  0.00     0.173 A 
ATOM     69  C   UNL A   1      42.536  25.416  27.715  1.00  0.00     0.173 A 
ATOM     70  F   UNL A   1      43.877  28.728  27.028  1.00  0.00    -0.203 F 
ATOM     71  C   UNL A   1      44.137  26.705  25.850  1.00  0.00     0.198 A 
ATOM     72  C   UNL A   1      43.087  24.702  26.654  1.00  0.00     0.198 A 
ATOM     73  F   UNL A   1      41.769  24.763  28.601  1.00  0.00    -0.203 F 
ATOM     74  F   UNL A   1      44.887  27.334  24.935  1.00  0.00    -0.200 F 
ATOM     75  C   UNL A   1      43.882  25.347  25.721  1.00  0.00     0.200 A 
ATOM     76  F   UNL A   1      42.852  23.387  26.540  1.00  0.00    -0.200 F 
ATOM     77  F   UNL A   1      44.403  24.661  24.694  1.00  0.00    -0.200 F 
ENDBRANCH  53  67
BRANCH  54  78
ATOM     78  C   UNL A   1      39.099  31.956  35.562  1.00  0.00     0.064 A 
ATOM     79  C   UNL A   1      38.281  31.368  36.537  1.00  0.00     0.173 A 
ATOM     80  C   UNL A   1      39.425  33.312  35.714  1.00  0.00     0.173 A 
ATOM     81  F   UNL A   1      37.919  30.083  36.421  1.00  0.00    -0.203 F 
ATOM     82  C   UNL A   1      37.813  32.106  37.623  1.00  0.00     0.198 A 
ATOM     83  C   UNL A   1      38.982  34.040  36.817  1.00  0.00     0.198 A 
ATOM     84  F   UNL A   1      40.201  33.923  34.807  1.00  0.00    -0.203 F 
ATOM     85  F   UNL A   1      37.011  31.528  38.526  1.00  0.00    -0.200 F 
ATOM     86  C   UNL A   1      38.174  33.438  37.768  1.00  0.00     0.200 A 
ATOM     87  F   UNL A   1      39.346  35.321  36.961  1.00  0.00    -0.200 F 
ATOM     88  F   UNL A   1      37.740  34.140  38.823  1.00  0.00    -0.200 F 
ENDBRANCH  54  78
BRANCH  66  89
ATOM     89  C   UNL A   1      44.759  27.975  34.693  1.00  0.00     0.064 A 
ATOM     90  C   UNL A   1      45.897  28.782  34.836  1.00  0.00     0.173 A 
ATOM     91  C   UNL A   1      44.665  26.821  35.485  1.00  0.00     0.173 A 
ATOM     92  F   UNL A   1      46.038  29.888  34.090  1.00  0.00    -0.203 F 
ATOM     93  C   UNL A   1      46.905  28.441  35.733  1.00  0.00     0.198 A 
ATOM     94  C   UNL A   1      45.663  26.497  36.398  1.00  0.00     0.198 A 
ATOM     95  F   UNL A   1      43.592  26.020  35.388  1.00  0.00    -0.203 F 
ATOM     96  F   UNL A   1      47.997  29.212  35.835  1.00  0.00    -0.200 F 
ATOM     97  C   UNL A   1      46.783  27.305  36.520  1.00  0.00     0.200 A 
ATOM     98  F   UNL A   1      45.539  25.405  37.166  1.00  0.00    -0.200 F 
ATOM     99  F   UNL A   1      47.747  26.988  37.395  1.00  0.00    -0.200 F 
ENDBRANCH  66  89
ENDBRANCH  40  41
ENDBRANCH  33  35
ENDBRANCH  32  33
ENDBRANCH  31  32
ENDBRANCH   1  31
TORSDOF 16
ENDMDL
MODEL 2
REMARK VINA RESULT:     -12.1      4.646      9.816
REMARK SMILES Nc1c(Nc2ccc(I)cc2)ncnc1Nc1ccc(C(=O)OCCOC(=O)c2ccc(-c3c4nc(c(-c5c(F)c(F)c(F)c(F)c5F)c5ccc([nH]5)c(-c5c(F)c(F)c(F)c(F)c5F)c5nc(c(-c6c(F)c(F)c(F)c(F)c6F)c6ccc3[nH]6)C=C5)C=C4)cc2)cc1
REMARK SMILES IDX 24 1 23 2 21 3 22 4 20 5 17 6 18 7 93 8 19 9 92 10 16 11
REMARK SMILES IDX 15 13 2 14 3 15 12 16 14 17 13 18 1 19 4 22 5 24 6 25 11 26
REMARK SMILES IDX 7 27 10 28 8 29 9 30 25 31 26 32 27 33 28 34 29 35 30 36
REMARK SMILES IDX 91 37 31 38 90 39 32 40 33 41 34 42 84 43 35 44 89 45 83 46
REMARK SMILES IDX 85 47 36 48 88 49 82 50 81 51 37 53 69 54 49 55 68 56 50 57
REMARK SMILES IDX 53 58 67 59 86 60 51 61 52 62 66 64 87 65 54 66 38 67 39 68
REMARK SMILES IDX 47 69 40 70 41 71 45 72 48 73 42 74 43 75 46 76 44 77 70 78
REMARK SMILES IDX 71 79 79 80 72 81 73 82 77 83 80 84 74 85 75 86 78 87 76 88
REMARK SMILES IDX 55 89 56 90 64 91 57 92 58 93 62 94 65 95 59 96 60 97 63 98
REMARK SMILES IDX 61 99
REMARK H PARENT 16 12 1 20 1 21 4 23 85 52 53 63
REMARK Flexibility Score: inf
ROOT
ATOM      1  C   UNL A   1      34.999  20.868  25.395  1.00  0.00     0.275 C 
ENDROOT
BRANCH   1   2
ATOM      2  O   UNL A   1      34.218  20.004  24.546  1.00  0.00    -0.458 OA
BRANCH   2   3
ATOM      3  C   UNL A   1      32.917  19.866  24.904  1.00  0.00     0.338 C 
ATOM      4  O   UNL A   1      32.408  18.899  25.437  1.00  0.00    -0.246 OA
BRANCH   3   5
ATOM      5  C   UNL A   1      32.167  21.115  24.640  1.00  0.00     0.060 A 
ATOM      6  C   UNL A   1      31.061  23.638  24.131  1.00  0.00     0.040 A 
ATOM      7  C   UNL A   1      31.736  22.954  23.120  1.00  0.00     0.027 A 
ATOM      8  C   UNL A   1      30.900  23.025  25.385  1.00  0.00     0.027 A 
ATOM      9  C   UNL A   1      32.313  21.719  23.386  1.00  0.00     0.018 A 
ATOM     10  C   UNL A   1      31.430  21.754  25.636  1.00  0.00     0.018 A 
BRANCH   6  11
ATOM     11  N   UNL A   1      30.815  25.017  23.958  1.00  0.00    -0.338 N 
ATOM     12  H   UNL A   1      29.894  25.323  23.790  1.00  0.00     0.168 HD
BRANCH  11  13
ATOM     13  C   UNL A   1      31.867  25.973  24.020  1.00  0.00     0.159 A 
ATOM     14  C   UNL A   1      32.274  26.460  25.265  1.00  0.00     0.118 A 
ATOM     15  C   UNL A   1      33.334  27.379  25.221  1.00  0.00     0.159 A 
ATOM     16  N   UNL A   1      33.857  27.835  24.068  1.00  0.00    -0.217 NA
ATOM     17  N   UNL A   1      32.421  26.388  22.863  1.00  0.00    -0.217 NA
ATOM     18  C   UNL A   1      33.376  27.312  22.943  1.00  0.00     0.226 A 
BRANCH  14  19
ATOM     19  N   UNL A   1      31.728  26.017  26.478  1.00  0.00    -0.393 N 
ATOM     20  H   UNL A   1      30.772  25.790  26.535  1.00  0.00     0.156 HD
ATOM     21  H   UNL A   1      32.302  25.934  27.274  1.00  0.00     0.156 HD
ENDBRANCH  14  19
BRANCH  15  22
ATOM     22  N   UNL A   1      33.894  27.809  26.451  1.00  0.00    -0.338 N 
ATOM     23  H   UNL A   1      34.340  27.125  27.000  1.00  0.00     0.168 HD
BRANCH  22  24
ATOM     24  C   UNL A   1      33.876  29.120  26.961  1.00  0.00     0.040 A 
ATOM     25  C   UNL A   1      35.056  29.670  27.477  1.00  0.00     0.027 A 
ATOM     26  C   UNL A   1      32.743  29.936  26.865  1.00  0.00     0.027 A 
ATOM     27  C   UNL A   1      35.110  31.011  27.866  1.00  0.00     0.017 A 
ATOM     28  C   UNL A   1      32.785  31.275  27.263  1.00  0.00     0.017 A 
ATOM     29  C   UNL A   1      33.973  31.810  27.752  1.00  0.00     0.013 A 
ATOM     30  I   UNL A   1      34.063  33.816  28.286  1.00  0.00    -0.044 I 
ENDBRANCH  22  24
ENDBRANCH  15  22
ENDBRANCH  11  13
ENDBRANCH   6  11
ENDBRANCH   3   5
ENDBRANCH   2   3
ENDBRANCH   1   2
BRANCH   1  31
ATOM     31  C   UNL A   1      36.493  20.605  25.208  1.00  0.00     0.275 C 
BRANCH  31  32
ATOM     32  O   UNL A   1      37.260  21.704  25.737  1.00  0.00    -0.458 OA
BRANCH  32  33
ATOM     33  C   UNL A   1      38.571  21.461  25.955  1.00  0.00     0.338 C 
ATOM     34  O   UNL A   1      39.187  20.430  25.735  1.00  0.00    -0.246 OA
BRANCH  33  35
ATOM     35  C   UNL A   1      39.219  22.664  26.503  1.00  0.00     0.060 A 
ATOM     36  C   UNL A   1      38.757  23.918  26.122  1.00  0.00     0.016 A 
ATOM     37  C   UNL A   1      40.372  22.556  27.276  1.00  0.00     0.016 A 
ATOM     38  C   UNL A   1      39.505  25.058  26.399  1.00  0.00     0.010 A 
ATOM     39  C   UNL A   1      41.053  23.717  27.669  1.00  0.00     0.010 A 
ATOM     40  C   UNL A   1      40.654  24.982  27.199  1.00  0.00    -0.014 A 
BRANCH  40  41
ATOM     41  C   UNL A   1      41.431  26.216  27.521  1.00  0.00     0.031 A 
ATOM     42  C   UNL A   1      40.860  27.266  28.440  1.00  0.00     0.074 A 
ATOM     43  C   UNL A   1      42.672  26.389  27.017  1.00  0.00     0.049 A 
ATOM     44  N   UNL A   1      41.325  28.457  28.729  1.00  0.00    -0.248 NA
ATOM     45  C   UNL A   1      39.595  26.943  29.118  1.00  0.00     0.031 C 
ATOM     46  C   UNL A   1      43.373  25.440  26.151  1.00  0.00     0.029 A 
ATOM     47  N   UNL A   1      43.575  27.412  27.179  1.00  0.00    -0.354 N 
ATOM     48  C   UNL A   1      40.389  29.039  29.575  1.00  0.00     0.074 A 
ATOM     49  C   UNL A   1      39.323  28.077  29.749  1.00  0.00     0.031 C 
ATOM     50  C   UNL A   1      44.614  25.887  25.917  1.00  0.00     0.029 A 
ATOM     51  C   UNL A   1      44.769  27.202  26.529  1.00  0.00     0.049 A 
ATOM     52  H   UNL A   1      43.387  28.218  27.711  1.00  0.00     0.167 HD
ATOM     53  C   UNL A   1      40.420  30.262  30.158  1.00  0.00     0.037 A 
ATOM     54  C   UNL A   1      45.856  27.988  26.406  1.00  0.00     0.037 A 
ATOM     55  C   UNL A   1      41.506  31.198  30.031  1.00  0.00     0.049 A 
ATOM     56  C   UNL A   1      45.848  29.355  27.028  1.00  0.00     0.074 A 
ATOM     57  C   UNL A   1      41.626  32.461  30.584  1.00  0.00     0.029 A 
ATOM     58  N   UNL A   1      42.671  30.964  29.315  1.00  0.00    -0.354 N 
ATOM     59  N   UNL A   1      44.926  29.919  27.767  1.00  0.00    -0.248 NA
ATOM     60  C   UNL A   1      47.019  30.206  26.773  1.00  0.00     0.031 C 
ATOM     61  C   UNL A   1      42.848  33.005  30.178  1.00  0.00     0.029 A 
ATOM     62  C   UNL A   1      43.510  32.065  29.406  1.00  0.00     0.049 A 
ATOM     63  H   UNL A   1      42.873  30.140  28.816  1.00  0.00     0.167 HD
ATOM     64  C   UNL A   1      45.405  31.184  28.074  1.00  0.00     0.074 A 
ATOM     65  C   UNL A   1      46.710  31.300  27.457  1.00  0.00     0.031 C 
ATOM     66  C   UNL A   1      44.810  32.164  28.794  1.00  0.00     0.037 A 
BRANCH  53  67
ATOM     67  C   UNL A   1      39.235  30.678  30.981  1.00  0.00     0.064 A 
ATOM     68  C   UNL A   1      38.140  31.346  30.414  1.00  0.00     0.173 A 
ATOM     69  C   UNL A   1      39.166  30.342  32.343  1.00  0.00     0.173 A 
ATOM     70  F   UNL A   1      38.161  31.700  29.120  1.00  0.00    -0.203 F 
ATOM     71  C   UNL A   1      37.025  31.675  31.184  1.00  0.00     0.198 A 
ATOM     72  C   UNL A   1      38.039  30.648  33.102  1.00  0.00     0.198 A 
ATOM     73  F   UNL A   1      40.182  29.695  32.932  1.00  0.00    -0.203 F 
ATOM     74  F   UNL A   1      36.004  32.343  30.629  1.00  0.00    -0.200 F 
ATOM     75  C   UNL A   1      36.972  31.318  32.523  1.00  0.00     0.200 A 
ATOM     76  F   UNL A   1      37.983  30.288  34.392  1.00  0.00    -0.200 F 
ATOM     77  F   UNL A   1      35.893  31.621  33.257  1.00  0.00    -0.200 F 
ENDBRANCH  53  67
BRANCH  54  78
ATOM     78  C   UNL A   1      47.035  27.498  25.644  1.00  0.00     0.064 A 
ATOM     79  C   UNL A   1      47.112  27.667  24.255  1.00  0.00     0.173 A 
ATOM     80  C   UNL A   1      48.121  26.885  26.289  1.00  0.00     0.173 A 
ATOM     81  F   UNL A   1      46.088  28.221  23.591  1.00  0.00    -0.203 F 
ATOM     82  C   UNL A   1      48.232  27.246  23.541  1.00  0.00     0.198 A 
ATOM     83  C   UNL A   1      49.253  26.494  25.577  1.00  0.00     0.198 A 
ATOM     84  F   UNL A   1      48.095  26.698  27.616  1.00  0.00    -0.203 F 
ATOM     85  F   UNL A   1      48.269  27.394  22.210  1.00  0.00    -0.200 F 
ATOM     86  C   UNL A   1      49.306  26.670  24.203  1.00  0.00     0.200 A 
ATOM     87  F   UNL A   1      50.294  25.954  26.224  1.00  0.00    -0.200 F 
ATOM     88  F   UNL A   1      50.390  26.285  23.518  1.00  0.00    -0.200 F 
ENDBRANCH  54  78
BRANCH  66  89
ATOM     89  C   UNL A   1      45.566  33.444  28.979  1.00  0.00     0.064 A 
ATOM     90  C   UNL A   1      45.508  34.472  28.026  1.00  0.00     0.173 A 
ATOM     91  C   UNL A   1      46.298  33.676  30.153  1.00  0.00     0.173 A 
ATOM     92  F   UNL A   1      44.832  34.292  26.881  1.00  0.00    -0.203 F 
ATOM     93  C   UNL A   1      46.163  35.680  28.238  1.00  0.00     0.198 A 
ATOM     94  C   UNL A   1      46.932  34.894  30.373  1.00  0.00     0.198 A 
ATOM     95  F   UNL A   1      46.378  32.725  31.097  1.00  0.00    -0.203 F 
ATOM     96  F   UNL A   1      46.118  36.639  27.303  1.00  0.00    -0.200 F 
ATOM     97  C   UNL A   1      46.867  35.895  29.415  1.00  0.00     0.200 A 
ATOM     98  F   UNL A   1      47.601  35.103  31.516  1.00  0.00    -0.200 F 
ATOM     99  F   UNL A   1      47.484  37.065  29.625  1.00  0.00    -0.200 F 
ENDBRANCH  66  89
ENDBRANCH  40  41
ENDBRANCH  33  35
ENDBRANCH  32  33
ENDBRANCH  31  32
ENDBRANCH   1  31
TORSDOF 16
ENDMDL
MODEL 3
REMARK VINA RESULT:     -12.0      3.083      8.649
REMARK SMILES Nc1c(Nc2ccc(I)cc2)ncnc1Nc1ccc(C(=O)OCCOC(=O)c2ccc(-c3c4nc(c(-c5c(F)c(F)c(F)c(F)c5F)c5ccc([nH]5)c(-c5c(F)c(F)c(F)c(F)c5F)c5nc(c(-c6c(F)c(F)c(F)c(F)c6F)c6ccc3[nH]6)C=C5)C=C4)cc2)cc1
REMARK SMILES IDX 24 1 23 2 21 3 22 4 20 5 17 6 18 7 93 8 19 9 92 10 16 11
REMARK SMILES IDX 15 13 2 14 3 15 12 16 14 17 13 18 1 19 4 22 5 24 6 25 11 26
REMARK SMILES IDX 7 27 10 28 8 29 9 30 25 31 26 32 27 33 28 34 29 35 30 36
REMARK SMILES IDX 91 37 31 38 90 39 32 40 33 41 34 42 84 43 35 44 89 45 83 46
REMARK SMILES IDX 85 47 36 48 88 49 82 50 81 51 37 53 69 54 49 55 68 56 50 57
REMARK SMILES IDX 53 58 67 59 86 60 51 61 52 62 66 64 87 65 54 66 38 67 39 68
REMARK SMILES IDX 47 69 40 70 41 71 45 72 48 73 42 74 43 75 46 76 44 77 70 78
REMARK SMILES IDX 71 79 79 80 72 81 73 82 77 83 80 84 74 85 75 86 78 87 76 88
REMARK SMILES IDX 55 89 56 90 64 91 57 92 58 93 62 94 65 95 59 96 60 97 63 98
REMARK SMILES IDX 61 99
REMARK H PARENT 16 12 1 20 1 21 4 23 85 52 53 63
REMARK Flexibility Score: inf
ROOT
ATOM      1  C   UNL A   1      33.964  35.658  28.577  1.00  0.00     0.275 C 
ENDROOT
BRANCH   1   2
ATOM      2  O   UNL A   1      33.685  34.252  28.435  1.00  0.00    -0.458 OA
BRANCH   2   3
ATOM      3  C   UNL A   1      34.736  33.428  28.673  1.00  0.00     0.338 C 
ATOM      4  O   UNL A   1      35.723  33.681  29.337  1.00  0.00    -0.246 OA
BRANCH   3   5
ATOM      5  C   UNL A   1      34.498  32.093  28.079  1.00  0.00     0.060 A 
ATOM      6  C   UNL A   1      33.840  29.506  27.231  1.00  0.00     0.040 A 
ATOM      7  C   UNL A   1      32.896  30.528  27.150  1.00  0.00     0.027 A 
ATOM      8  C   UNL A   1      35.134  29.801  27.692  1.00  0.00     0.027 A 
ATOM      9  C   UNL A   1      33.214  31.802  27.604  1.00  0.00     0.018 A 
ATOM     10  C   UNL A   1      35.474  31.098  28.094  1.00  0.00     0.018 A 
BRANCH   6  11
ATOM     11  N   UNL A   1      33.393  28.172  27.121  1.00  0.00    -0.338 N 
ATOM     12  H   UNL A   1      33.213  27.656  27.940  1.00  0.00     0.168 HD
BRANCH  11  13
ATOM     13  C   UNL A   1      33.195  27.556  25.853  1.00  0.00     0.159 A 
ATOM     14  C   UNL A   1      32.339  26.455  25.755  1.00  0.00     0.118 A 
ATOM     15  C   UNL A   1      32.192  25.938  24.459  1.00  0.00     0.159 A 
ATOM     16  N   UNL A   1      32.892  26.397  23.405  1.00  0.00    -0.217 NA
ATOM     17  N   UNL A   1      33.861  28.053  24.792  1.00  0.00    -0.217 NA
ATOM     18  C   UNL A   1      33.691  27.438  23.624  1.00  0.00     0.226 A 
BRANCH  14  19
ATOM     19  N   UNL A   1      31.616  25.945  26.842  1.00  0.00    -0.393 N 
ATOM     20  H   UNL A   1      30.949  26.508  27.298  1.00  0.00     0.156 HD
ATOM     21  H   UNL A   1      31.777  25.025  27.151  1.00  0.00     0.156 HD
ENDBRANCH  14  19
BRANCH  15  22
ATOM     22  N   UNL A   1      31.233  24.912  24.256  1.00  0.00    -0.338 N 
ATOM     23  H   UNL A   1      30.303  25.196  24.105  1.00  0.00     0.168 HD
BRANCH  22  24
ATOM     24  C   UNL A   1      31.483  23.528  24.249  1.00  0.00     0.040 A 
ATOM     25  C   UNL A   1      31.958  22.924  23.077  1.00  0.00     0.027 A 
ATOM     26  C   UNL A   1      31.384  22.751  25.409  1.00  0.00     0.027 A 
ATOM     27  C   UNL A   1      32.347  21.582  23.071  1.00  0.00     0.017 A 
ATOM     28  C   UNL A   1      31.759  21.405  25.408  1.00  0.00     0.017 A 
ATOM     29  C   UNL A   1      32.250  20.829  24.240  1.00  0.00     0.013 A 
ATOM     30  I   UNL A   1      32.870  18.846  24.245  1.00  0.00    -0.044 I 
ENDBRANCH  22  24
ENDBRANCH  15  22
ENDBRANCH  11  13
ENDBRANCH   6  11
ENDBRANCH   3   5
ENDBRANCH   2   3
ENDBRANCH   1   2
BRANCH   1  31
ATOM     31  C   UNL A   1      32.953  36.320  29.515  1.00  0.00     0.275 C 
BRANCH  31  32
ATOM     32  O   UNL A   1      32.462  35.361  30.471  1.00  0.00    -0.458 OA
BRANCH  32  33
ATOM     33  C   UNL A   1      32.574  35.710  31.771  1.00  0.00     0.338 C 
ATOM     34  O   UNL A   1      31.853  36.461  32.408  1.00  0.00    -0.246 OA
BRANCH  33  35
ATOM     35  C   UNL A   1      33.726  35.022  32.377  1.00  0.00     0.060 A 
ATOM     36  C   UNL A   1      34.959  35.663  32.410  1.00  0.00     0.016 A 
ATOM     37  C   UNL A   1      33.625  33.693  32.780  1.00  0.00     0.016 A 
ATOM     38  C   UNL A   1      36.114  34.952  32.722  1.00  0.00     0.010 A 
ATOM     39  C   UNL A   1      34.769  33.015  33.223  1.00  0.00     0.010 A 
ATOM     40  C   UNL A   1      36.038  33.621  33.159  1.00  0.00    -0.014 A 
BRANCH  40  41
ATOM     41  C   UNL A   1      37.279  32.876  33.525  1.00  0.00     0.031 A 
ATOM     42  C   UNL A   1      37.933  33.087  34.868  1.00  0.00     0.074 A 
ATOM     43  C   UNL A   1      37.811  31.978  32.670  1.00  0.00     0.049 A 
ATOM     44  N   UNL A   1      39.081  32.635  35.311  1.00  0.00    -0.248 NA
ATOM     45  C   UNL A   1      37.210  33.922  35.839  1.00  0.00     0.031 C 
ATOM     46  C   UNL A   1      37.264  31.635  31.355  1.00  0.00     0.029 A 
ATOM     47  N   UNL A   1      38.917  31.170  32.784  1.00  0.00    -0.354 N 
ATOM     48  C   UNL A   1      39.238  33.170  36.583  1.00  0.00     0.074 A 
ATOM     49  C   UNL A   1      38.074  33.989  36.842  1.00  0.00     0.031 C 
ATOM     50  C   UNL A   1      37.990  30.644  30.819  1.00  0.00     0.029 A 
ATOM     51  C   UNL A   1      39.114  30.347  31.699  1.00  0.00     0.049 A 
ATOM     52  H   UNL A   1      39.512  31.178  33.568  1.00  0.00     0.167 HD
ATOM     53  C   UNL A   1      40.258  32.990  37.457  1.00  0.00     0.037 A 
ATOM     54  C   UNL A   1      40.102  29.474  31.423  1.00  0.00     0.037 A 
ATOM     55  C   UNL A   1      41.389  32.131  37.223  1.00  0.00     0.049 A 
ATOM     56  C   UNL A   1      41.241  29.324  32.389  1.00  0.00     0.074 A 
ATOM     57  C   UNL A   1      42.472  31.886  38.050  1.00  0.00     0.029 A 
ATOM     58  N   UNL A   1      41.575  31.360  36.085  1.00  0.00    -0.354 N 
ATOM     59  N   UNL A   1      41.411  29.890  33.558  1.00  0.00    -0.248 NA
ATOM     60  C   UNL A   1      42.340  28.435  31.985  1.00  0.00     0.031 C 
ATOM     61  C   UNL A   1      43.329  30.991  37.400  1.00  0.00     0.029 A 
ATOM     62  C   UNL A   1      42.759  30.645  36.186  1.00  0.00     0.049 A 
ATOM     63  H   UNL A   1      40.957  31.324  35.319  1.00  0.00     0.167 HD
ATOM     64  C   UNL A   1      42.627  29.424  34.033  1.00  0.00     0.074 A 
ATOM     65  C   UNL A   1      43.146  28.510  33.037  1.00  0.00     0.031 C 
ATOM     66  C   UNL A   1      43.260  29.734  35.190  1.00  0.00     0.037 A 
BRANCH  53  67
ATOM     67  C   UNL A   1      40.216  33.748  38.752  1.00  0.00     0.064 A 
ATOM     68  C   UNL A   1      40.871  34.978  38.911  1.00  0.00     0.173 A 
ATOM     69  C   UNL A   1      39.450  33.269  39.828  1.00  0.00     0.173 A 
ATOM     70  F   UNL A   1      41.624  35.474  37.917  1.00  0.00    -0.203 F 
ATOM     71  C   UNL A   1      40.774  35.692  40.103  1.00  0.00     0.198 A 
ATOM     72  C   UNL A   1      39.333  34.000  41.008  1.00  0.00     0.198 A 
ATOM     73  F   UNL A   1      38.796  32.103  39.726  1.00  0.00    -0.203 F 
ATOM     74  F   UNL A   1      41.436  36.849  40.244  1.00  0.00    -0.200 F 
ATOM     75  C   UNL A   1      39.999  35.208  41.146  1.00  0.00     0.200 A 
ATOM     76  F   UNL A   1      38.571  33.537  42.009  1.00  0.00    -0.200 F 
ATOM     77  F   UNL A   1      39.894  35.905  42.285  1.00  0.00    -0.200 F 
ENDBRANCH  53  67
BRANCH  54  78
ATOM     78  C   UNL A   1      40.058  28.690  30.160  1.00  0.00     0.064 A 
ATOM     79  C   UNL A   1      40.673  29.170  28.996  1.00  0.00     0.173 A 
ATOM     80  C   UNL A   1      39.434  27.435  30.098  1.00  0.00     0.173 A 
ATOM     81  F   UNL A   1      41.257  30.377  28.997  1.00  0.00    -0.203 F 
ATOM     82  C   UNL A   1      40.670  28.422  27.820  1.00  0.00     0.198 A 
ATOM     83  C   UNL A   1      39.459  26.674  28.931  1.00  0.00     0.198 A 
ATOM     84  F   UNL A   1      38.829  26.931  31.184  1.00  0.00    -0.203 F 
ATOM     85  F   UNL A   1      41.241  28.916  26.714  1.00  0.00    -0.200 F 
ATOM     86  C   UNL A   1      40.074  27.170  27.792  1.00  0.00     0.200 A 
ATOM     87  F   UNL A   1      38.896  25.459  28.914  1.00  0.00    -0.200 F 
ATOM     88  F   UNL A   1      40.089  26.443  26.667  1.00  0.00    -0.200 F 
ENDBRANCH  54  78
BRANCH  66  89
ATOM     89  C   UNL A   1      44.576  29.069  35.459  1.00  0.00     0.064 A 
ATOM     90  C   UNL A   1      44.648  27.826  36.105  1.00  0.00     0.173 A 
ATOM     91  C   UNL A   1      45.770  29.646  35.003  1.00  0.00     0.173 A 
ATOM     92  F   UNL A   1      43.534  27.242  36.571  1.00  0.00    -0.203 F 
ATOM     93  C   UNL A   1      45.871  27.190  36.292  1.00  0.00     0.198 A 
ATOM     94  C   UNL A   1      46.988  28.995  35.171  1.00  0.00     0.198 A 
ATOM     95  F   UNL A   1      45.751  30.832  34.374  1.00  0.00    -0.203 F 
ATOM     96  F   UNL A   1      45.922  26.016  36.936  1.00  0.00    -0.200 F 
ATOM     97  C   UNL A   1      47.039  27.769  35.817  1.00  0.00     0.200 A 
ATOM     98  F   UNL A   1      48.114  29.551  34.701  1.00  0.00    -0.200 F 
ATOM     99  F   UNL A   1      48.214  27.147  35.984  1.00  0.00    -0.200 F 
ENDBRANCH  66  89
ENDBRANCH  40  41
ENDBRANCH  33  35
ENDBRANCH  32  33
ENDBRANCH  31  32
ENDBRANCH   1  31
TORSDOF 16
ENDMDL
